REMARK VINA RESULT:    -4.130      2.651      6.403
REMARK INTER + INTRA:         -22.102
REMARK INTER:                 -11.678
REMARK INTRA:                 -10.424
REMARK UNBOUND:               -10.971
REMARK SMILES C=CCCCCn1cc(COC(=O)NC[C@@H](O)C(O)[C@@H]2O[C@@](OC[C@H]3O[C@@H](O[C@H]4[C@H](O)[C@@H](O)[C@H](OCCN=[N+]=[N-])O[C@@H]4CO)[C@H](O)[C@@H](O)[C@H]3O)(C(=O)O)C[C@H](O)[C@H]2NC(C)=O)nn1
REMARK SMILES IDX 18 1 20 2 22 3 54 4 21 5 55 6 57 7 23 8 24 9 25 10 27 11
REMARK SMILES IDX 26 12 45 13 47 14 49 15 28 16 29 17 42 18 41 19 34 20 30 21
REMARK SMILES IDX 32 22 43 23 44 24 35 26 36 27 37 28 38 29 39 30 40 31 31 32
REMARK SMILES IDX 33 34 46 36 48 38 50 40 51 42 52 43 53 44 56 46 58 48 59 49
REMARK SMILES IDX 60 51 61 52 19 53 16 55 17 56 15 58 14 59 12 60 13 62 11 63
REMARK SMILES IDX 10 64 9 65 8 66 62 67 7 68 63 69 6 70 5 71 4 72 3 73 2 74
REMARK SMILES IDX 1 75
REMARK H PARENT 44 25 31 33 33 35 46 37 48 39 50 41 53 45 56 47 58 50 19 54
REMARK H PARENT 17 57 14 61
REMARK Flexibility Score: inf
ROOT
ATOM      1  C   UNL     1      29.098  33.212  17.115  1.00  0.00     0.176 C 
ENDROOT
BRANCH   1   2
ATOM      2  C   UNL     1      29.072  33.517  18.615  1.00  0.00     0.178 C 
ATOM      3  C   UNL     1      30.196  33.044  20.565  1.00  0.00     0.272 C 
ATOM      4  C   UNL     1      28.922  32.967  21.297  1.00  0.00     0.113 C 
ATOM      5  O   UNL     1      29.911  32.640  19.205  1.00  0.00    -0.332 OA
ATOM      6  C   UNL     1      27.816  33.754  20.742  1.00  0.00     0.145 C 
ATOM      7  C   UNL     1      27.798  33.854  19.226  1.00  0.00     0.142 C 
BRANCH   3   8
ATOM      8  O   UNL     1      31.105  32.054  20.907  1.00  0.00    -0.338 OA
BRANCH   8   9
ATOM      9  C   UNL     1      31.008  31.326  22.002  1.00  0.00     0.199 C 
BRANCH   9  10
ATOM     10  C   UNL     1      30.842  29.856  21.954  1.00  0.00     0.179 C 
ATOM     11  C   UNL     1      29.258  28.255  21.310  1.00  0.00     0.282 C 
ATOM     12  O   UNL     1      29.478  29.517  21.789  1.00  0.00    -0.341 OA
ATOM     13  C   UNL     1      30.415  27.342  21.432  1.00  0.00     0.202 C 
ATOM     14  C   UNL     1      31.700  27.876  20.859  1.00  0.00     0.179 C 
ATOM     15  C   UNL     1      31.568  29.360  20.709  1.00  0.00     0.177 C 
BRANCH  11  16
ATOM     16  O   UNL     1      28.649  28.369  20.088  1.00  0.00    -0.341 OA
BRANCH  16  17
ATOM     17  C   UNL     1      27.364  28.822  20.073  1.00  0.00     0.184 C 
ATOM     18  C   UNL     1      26.531  27.910  19.203  1.00  0.00     0.178 C 
ATOM     19  O   UNL     1      25.606  28.645  18.443  1.00  0.00    -0.341 OA
ATOM     20  C   UNL     1      26.310  29.223  17.392  1.00  0.00     0.281 C 
ATOM     21  C   UNL     1      27.268  30.218  19.417  1.00  0.00     0.180 C 
ATOM     22  C   UNL     1      27.415  30.089  17.918  1.00  0.00     0.202 C 
BRANCH  18  23
ATOM     23  C   UNL     1      25.825  26.819  19.991  1.00  0.00     0.191 C 
BRANCH  23  24
ATOM     24  O   UNL     1      26.739  25.951  20.561  1.00  0.00    -0.394 OA
ATOM     25  H   UNL     1      27.572  25.972  20.033  1.00  0.00     0.210 HD
ENDBRANCH  23  24
ENDBRANCH  18  23
BRANCH  20  26
ATOM     26  O   UNL     1      25.391  29.985  16.668  1.00  0.00    -0.350 OA
BRANCH  26  27
ATOM     27  C   UNL     1      25.976  30.965  15.887  1.00  0.00     0.169 C 
BRANCH  27  28
ATOM     28  C   UNL     1      25.138  32.222  16.035  1.00  0.00     0.119 C 
BRANCH  28  29
ATOM     29  N   UNL     1      25.834  33.389  15.565  1.00  0.00    -0.092 NA
ATOM     30  N   UNL     1      25.795  33.730  14.389  1.00  0.00     0.001 N 
ATOM     31  N   UNL     1      25.529  34.061  13.234  1.00  0.00    -0.003 NA
ENDBRANCH  28  29
ENDBRANCH  27  28
ENDBRANCH  26  27
ENDBRANCH  20  26
BRANCH  21  32
ATOM     32  O   UNL     1      25.973  30.666  19.670  1.00  0.00    -0.387 OA
ATOM     33  H   UNL     1      25.639  30.446  20.563  1.00  0.00     0.211 HD
ENDBRANCH  21  32
BRANCH  22  34
ATOM     34  O   UNL     1      28.687  29.628  17.590  1.00  0.00    -0.385 OA
ATOM     35  H   UNL     1      29.099  30.307  16.989  1.00  0.00     0.211 HD
ENDBRANCH  22  34
ENDBRANCH  16  17
ENDBRANCH  11  16
BRANCH  13  36
ATOM     36  O   UNL     1      30.624  27.104  22.798  1.00  0.00    -0.385 OA
ATOM     37  H   UNL     1      30.478  26.172  23.041  1.00  0.00     0.211 HD
ENDBRANCH  13  36
BRANCH  14  38
ATOM     38  O   UNL     1      32.031  27.267  19.647  1.00  0.00    -0.387 OA
ATOM     39  H   UNL     1      31.683  26.353  19.680  1.00  0.00     0.211 HD
ENDBRANCH  14  38
BRANCH  15  40
ATOM     40  O   UNL     1      30.863  29.717  19.553  1.00  0.00    -0.387 OA
ATOM     41  H   UNL     1      29.908  29.839  19.707  1.00  0.00     0.211 HD
ENDBRANCH  15  40
ENDBRANCH   9  10
ENDBRANCH   8   9
ENDBRANCH   3   8
BRANCH   3  42
ATOM     42  C   UNL     1      30.700  34.406  20.445  1.00  0.00     0.364 C 
ATOM     43  O   UNL     1      30.421  35.276  21.299  1.00  0.00    -0.246 OA
BRANCH  42  44
ATOM     44  O   UNL     1      31.484  34.807  19.405  1.00  0.00    -0.477 OA
ATOM     45  H   UNL     1      31.253  35.598  18.831  1.00  0.00     0.296 HD
ENDBRANCH  42  44
ENDBRANCH   3  42
BRANCH   6  46
ATOM     46  O   UNL     1      26.593  33.202  21.199  1.00  0.00    -0.391 OA
ATOM     47  H   UNL     1      26.724  32.311  21.610  1.00  0.00     0.211 HD
ENDBRANCH   6  46
BRANCH   7  48
ATOM     48  N   UNL     1      27.411  35.227  18.849  1.00  0.00    -0.348 N 
ATOM     49  C   UNL     1      26.069  35.625  18.646  1.00  0.00     0.217 C 
ATOM     50  H   UNL     1      28.132  35.986  18.708  1.00  0.00     0.163 HD
ATOM     51  C   UNL     1      25.738  37.044  18.251  1.00  0.00     0.114 C 
ATOM     52  O   UNL     1      25.155  34.776  18.799  1.00  0.00    -0.275 OA
ENDBRANCH   7  48
ENDBRANCH   1   2
BRANCH   1  53
ATOM     53  O   UNL     1      29.207  34.569  16.501  1.00  0.00    -0.388 OA
ATOM     54  H   UNL     1      29.855  34.358  15.756  1.00  0.00     0.211 HD
ENDBRANCH   1  53
BRANCH   1  55
ATOM     55  C   UNL     1      30.323  32.589  16.616  1.00  0.00     0.165 C 
BRANCH  55  56
ATOM     56  O   UNL     1      31.529  33.200  17.028  1.00  0.00    -0.388 OA
ATOM     57  H   UNL     1      31.903  32.591  17.710  1.00  0.00     0.211 HD
ENDBRANCH  55  56
BRANCH  55  58
ATOM     58  C   UNL     1      30.428  32.209  15.199  1.00  0.00     0.154 C 
BRANCH  58  59
ATOM     59  N   UNL     1      30.942  33.193  14.327  1.00  0.00    -0.319 N 
ATOM     60  C   UNL     1      30.311  34.184  13.566  1.00  0.00     0.407 C 
ATOM     61  H   UNL     1      32.026  33.187  14.222  1.00  0.00     0.167 HD
ATOM     62  O   UNL     1      29.076  34.315  13.575  1.00  0.00    -0.225 OA
BRANCH  60  63
ATOM     63  O   UNL     1      31.048  35.068  12.765  1.00  0.00    -0.443 OA
BRANCH  63  64
ATOM     64  C   UNL     1      32.408  35.319  13.120  1.00  0.00     0.294 C 
BRANCH  64  65
ATOM     65  C   UNL     1      32.523  35.631  14.568  1.00  0.00     0.120 A 
ATOM     66  C   UNL     1      33.715  35.609  15.290  1.00  0.00     0.138 A 
ATOM     67  N   UNL     1      31.570  35.976  15.445  1.00  0.00    -0.132 NA
ATOM     68  N   UNL     1      33.424  35.939  16.552  1.00  0.00    -0.252 N 
ATOM     69  N   UNL     1      32.138  36.158  16.642  1.00  0.00    -0.067 NA
BRANCH  68  70
ATOM     70  C   UNL     1      34.430  36.026  17.620  1.00  0.00     0.146 C 
BRANCH  70  71
ATOM     71  C   UNL     1      35.703  36.586  17.044  1.00  0.00     0.024 C 
BRANCH  71  72
ATOM     72  C   UNL     1      36.832  35.632  17.369  1.00  0.00     0.006 C 
BRANCH  72  73
ATOM     73  C   UNL     1      37.954  35.806  16.371  1.00  0.00     0.027 C 
BRANCH  73  74
ATOM     74  C   UNL     1      38.203  34.557  15.617  1.00  0.00    -0.035 C 
ATOM     75  C   UNL     1      37.521  34.292  14.520  1.00  0.00     0.004 C 
ENDBRANCH  73  74
ENDBRANCH  72  73
ENDBRANCH  71  72
ENDBRANCH  70  71
ENDBRANCH  68  70
ENDBRANCH  64  65
ENDBRANCH  63  64
ENDBRANCH  60  63
ENDBRANCH  58  59
ENDBRANCH  55  58
ENDBRANCH   1  55
TORSDOF 34
BEGIN_RES LYS A 131
REMARK  4 active torsions:
REMARK  status: ('A' for Active; 'I' for Inactive)
REMARK    1  A    between atoms: CA   and  CB  
REMARK    2  A    between atoms: CB   and  CG  
REMARK    3  A    between atoms: CG   and  CD  
REMARK    4  A    between atoms: CD   and  CE  
ROOT
ATOM      1  CA  LYS A 131      29.867  25.555  16.977  1.00 20.52     0.186 C 
ENDROOT
BRANCH   1   2
ATOM      2  CB  LYS A 131      28.345  25.722  17.026  1.00 20.94     0.034 C 
BRANCH   2   3
ATOM      3  CG  LYS A 131      27.601  24.403  16.888  1.00 22.96     0.005 C 
BRANCH   3   4
ATOM      4  CD  LYS A 131      26.140  24.539  17.216  1.00 24.33     0.041 C 
BRANCH   4   5
ATOM      5  CE  LYS A 131      25.570  23.172  17.581  1.00 26.91     0.338 C 
ATOM      6  NZ  LYS A 131      24.172  23.049  17.106  1.00 27.40     0.618 N 
ENDBRANCH   4   5
ENDBRANCH   3   4
ENDBRANCH   2   3
ENDBRANCH   1   2
END_RES LYS A 131
BEGIN_RES LYS A 135
REMARK  4 active torsions:
REMARK  status: ('A' for Active; 'I' for Inactive)
REMARK    5  A    between atoms: CA   and  CB  
REMARK    6  A    between atoms: CB   and  CG  
REMARK    7  A    between atoms: CG   and  CD  
REMARK    8  A    between atoms: CD   and  CE  
ROOT
ATOM      7  CA  LYS A 135      33.193  34.663   9.290  1.00 25.02     0.186 C 
ENDROOT
BRANCH   7   8
ATOM      8  CB  LYS A 135      32.060  35.360  10.034  1.00 26.63     0.034 C 
BRANCH   8   9
ATOM      9  CG  LYS A 135      30.716  35.201   9.371  1.00 29.45     0.005 C 
BRANCH   9  10
ATOM     10  CD  LYS A 135      29.825  36.396   9.672  1.00 32.00     0.041 C 
BRANCH  10  11
ATOM     11  CE  LYS A 135      29.641  37.250   8.431  1.00 34.25     0.338 C 
ATOM     12  NZ  LYS A 135      30.655  38.338   8.373  1.00 35.99     0.618 N 
ENDBRANCH  10  11
ENDBRANCH   9  10
ENDBRANCH   8   9
ENDBRANCH   7   8
END_RES LYS A 135
