REMARK VINA RESULT:    -6.417      3.417     10.112
REMARK INTER + INTRA:         -19.069
REMARK INTER:                  -9.315
REMARK INTRA:                  -9.754
REMARK UNBOUND:                -1.022
REMARK SMILES CC(=O)N[C@@H]1[C@@H](O)C[C@](OC[C@H]2O[C@@H](O[C@H]3[C@H](O)[C@@H](O)[C@H](OCCN=[N+]=[N-])O[C@@H]3CO)[C@H](O)[C@@H](O)[C@H]2O)(C(=O)O)O[C@H]1C(O)[C@H](O)CNC(=O)OCc1cn(C2CC(O)C=C[C@@H](O)C2)nn1
REMARK SMILES IDX 43 1 42 2 9 3 8 4 41 5 6 6 5 7 10 8 11 9 12 10 14 11 13 12
REMARK SMILES IDX 32 13 34 14 36 15 15 16 16 17 29 18 28 19 21 20 17 21 19 22
REMARK SMILES IDX 30 23 31 24 22 26 23 27 24 28 25 29 26 30 27 31 18 32 20 34
REMARK SMILES IDX 33 36 35 38 37 40 38 42 39 43 40 44 7 46 4 48 2 49 1 51 3 52
REMARK SMILES IDX 44 53 45 55 46 56 47 58 48 59 49 60 50 62 51 63 52 64 53 65
REMARK SMILES IDX 54 66 66 67 55 68 65 69 56 70 57 71 58 72 59 74 64 76 62 77
REMARK SMILES IDX 61 78 60 79 63 81
REMARK H PARENT 31 25 18 33 20 35 33 37 35 39 37 41 40 45 7 47 4 50 44 54
REMARK H PARENT 46 57 48 61 59 75 63 82
REMARK Flexibility Score: 90.00
ROOT
ATOM      1  C   UNL     1      28.303  32.167  19.848  1.00  0.00     0.176 C 
ENDROOT
BRANCH   1   2
ATOM      2  C   UNL     1      28.138  30.813  19.180  1.00  0.00     0.178 C 
ATOM      3  C   UNL     1      26.688  29.866  17.587  1.00  0.00     0.272 C 
ATOM      4  C   UNL     1      27.062  28.491  18.002  1.00  0.00     0.113 C 
ATOM      5  O   UNL     1      26.943  30.897  18.410  1.00  0.00    -0.332 OA
ATOM      6  C   UNL     1      28.095  28.417  19.067  1.00  0.00     0.145 C 
ATOM      7  C   UNL     1      27.959  29.634  20.035  1.00  0.00     0.142 C 
BRANCH   3   8
ATOM      8  O   UNL     1      25.337  29.845  17.183  1.00  0.00    -0.338 OA
BRANCH   8   9
ATOM      9  C   UNL     1      24.562  30.831  17.720  1.00  0.00     0.199 C 
BRANCH   9  10
ATOM     10  C   UNL     1      23.685  31.481  16.648  1.00  0.00     0.179 C 
ATOM     11  C   UNL     1      24.036  31.908  14.406  1.00  0.00     0.282 C 
ATOM     12  O   UNL     1      24.505  32.031  15.714  1.00  0.00    -0.341 OA
ATOM     13  C   UNL     1      24.068  30.415  14.132  1.00  0.00     0.202 C 
ATOM     14  C   UNL     1      22.914  29.824  14.910  1.00  0.00     0.179 C 
ATOM     15  C   UNL     1      22.610  30.568  16.170  1.00  0.00     0.177 C 
BRANCH  11  16
ATOM     16  O   UNL     1      24.840  32.645  13.570  1.00  0.00    -0.341 OA
BRANCH  16  17
ATOM     17  C   UNL     1      25.282  33.792  14.235  1.00  0.00     0.184 C 
ATOM     18  C   UNL     1      24.379  34.957  13.921  1.00  0.00     0.178 C 
ATOM     19  O   UNL     1      24.556  35.502  12.675  1.00  0.00    -0.341 OA
ATOM     20  C   UNL     1      25.640  34.978  11.974  1.00  0.00     0.281 C 
ATOM     21  C   UNL     1      26.731  34.096  13.968  1.00  0.00     0.180 C 
ATOM     22  C   UNL     1      26.898  35.066  12.829  1.00  0.00     0.202 C 
BRANCH  18  23
ATOM     23  C   UNL     1      24.507  36.040  14.984  1.00  0.00     0.191 C 
BRANCH  23  24
ATOM     24  O   UNL     1      24.682  35.511  16.249  1.00  0.00    -0.394 OA
ATOM     25  H   UNL     1      25.509  35.794  16.672  1.00  0.00     0.210 HD
ENDBRANCH  23  24
ENDBRANCH  18  23
BRANCH  20  26
ATOM     26  O   UNL     1      25.778  35.765  10.835  1.00  0.00    -0.350 OA
BRANCH  26  27
ATOM     27  C   UNL     1      24.525  35.928  10.254  1.00  0.00     0.169 C 
BRANCH  27  28
ATOM     28  C   UNL     1      24.354  37.329   9.695  1.00  0.00     0.119 C 
BRANCH  28  29
ATOM     29  N   UNL     1      24.305  37.305   8.247  1.00  0.00    -0.092 NA
ATOM     30  N   UNL     1      25.366  37.184   7.613  1.00  0.00     0.001 N 
ATOM     31  N   UNL     1      26.494  37.163   7.102  1.00  0.00    -0.003 NA
ENDBRANCH  28  29
ENDBRANCH  27  28
ENDBRANCH  26  27
ENDBRANCH  20  26
BRANCH  21  32
ATOM     32  O   UNL     1      27.338  34.606  15.116  1.00  0.00    -0.387 OA
ATOM     33  H   UNL     1      26.691  34.731  15.851  1.00  0.00     0.211 HD
ENDBRANCH  21  32
BRANCH  22  34
ATOM     34  O   UNL     1      28.008  34.744  12.057  1.00  0.00    -0.385 OA
ATOM     35  H   UNL     1      27.944  35.159  11.157  1.00  0.00     0.211 HD
ENDBRANCH  22  34
ENDBRANCH  16  17
ENDBRANCH  11  16
BRANCH  13  36
ATOM     36  O   UNL     1      23.972  30.081  12.808  1.00  0.00    -0.385 OA
ATOM     37  H   UNL     1      24.487  29.305  12.536  1.00  0.00     0.211 HD
ENDBRANCH  13  36
BRANCH  14  38
ATOM     38  O   UNL     1      23.227  28.484  15.133  1.00  0.00    -0.387 OA
ATOM     39  H   UNL     1      22.526  27.885  14.751  1.00  0.00     0.211 HD
ENDBRANCH  14  38
BRANCH  15  40
ATOM     40  O   UNL     1      22.350  29.658  17.215  1.00  0.00    -0.387 OA
ATOM     41  H   UNL     1      22.662  28.760  17.033  1.00  0.00     0.211 HD
ENDBRANCH  15  40
ENDBRANCH   9  10
ENDBRANCH   8   9
ENDBRANCH   3   8
BRANCH   3  42
ATOM     42  C   UNL     1      27.465  30.137  16.317  1.00  0.00     0.364 C 
ATOM     43  O   UNL     1      28.113  29.240  15.717  1.00  0.00    -0.246 OA
BRANCH  42  44
ATOM     44  O   UNL     1      27.444  31.429  15.817  1.00  0.00    -0.477 OA
ATOM     45  H   UNL     1      26.707  31.738  15.184  1.00  0.00     0.296 HD
ENDBRANCH  42  44
ENDBRANCH   3  42
BRANCH   6  46
ATOM     46  O   UNL     1      28.018  27.243  19.774  1.00  0.00    -0.391 OA
ATOM     47  H   UNL     1      27.330  27.311  20.471  1.00  0.00     0.211 HD
ENDBRANCH   6  46
BRANCH   7  48
ATOM     48  N   UNL     1      28.777  29.407  21.163  1.00  0.00    -0.348 N 
ATOM     49  C   UNL     1      28.320  29.758  22.459  1.00  0.00     0.217 C 
ATOM     50  H   UNL     1      29.705  28.954  21.072  1.00  0.00     0.163 HD
ATOM     51  C   UNL     1      29.163  29.527  23.661  1.00  0.00     0.114 C 
ATOM     52  O   UNL     1      27.185  30.273  22.597  1.00  0.00    -0.275 OA
ENDBRANCH   7  48
ENDBRANCH   1   2
BRANCH   1  53
ATOM     53  O   UNL     1      26.917  32.441  20.231  1.00  0.00    -0.388 OA
ATOM     54  H   UNL     1      26.622  33.252  19.710  1.00  0.00     0.211 HD
ENDBRANCH   1  53
BRANCH   1  55
ATOM     55  C   UNL     1      28.571  33.296  18.893  1.00  0.00     0.165 C 
BRANCH  55  56
ATOM     56  O   UNL     1      27.517  33.518  18.040  1.00  0.00    -0.388 OA
ATOM     57  H   UNL     1      26.876  32.775  17.992  1.00  0.00     0.211 HD
ENDBRANCH  55  56
BRANCH  55  58
ATOM     58  C   UNL     1      29.780  32.987  18.017  1.00  0.00     0.154 C 
BRANCH  58  59
ATOM     59  N   UNL     1      29.727  33.579  16.719  1.00  0.00    -0.319 N 
ATOM     60  C   UNL     1      30.208  32.927  15.550  1.00  0.00     0.407 C 
ATOM     61  H   UNL     1      29.314  34.552  16.601  1.00  0.00     0.167 HD
ATOM     62  O   UNL     1      30.701  31.772  15.703  1.00  0.00    -0.225 OA
BRANCH  60  63
ATOM     63  O   UNL     1      30.129  33.547  14.324  1.00  0.00    -0.443 OA
BRANCH  63  64
ATOM     64  C   UNL     1      31.143  34.456  13.904  1.00  0.00     0.294 C 
BRANCH  64  65
ATOM     65  C   UNL     1      30.538  35.805  13.827  1.00  0.00     0.120 A 
ATOM     66  C   UNL     1      30.681  36.747  12.842  1.00  0.00     0.138 A 
ATOM     67  N   UNL     1      29.725  36.345  14.751  1.00  0.00    -0.132 NA
ATOM     68  N   UNL     1      29.950  37.831  13.204  1.00  0.00    -0.249 N 
ATOM     69  N   UNL     1      29.385  37.555  14.361  1.00  0.00    -0.067 NA
BRANCH  68  70
ATOM     70  C   UNL     1      29.813  39.085  12.450  1.00  0.00     0.115 C 
BRANCH  70  71
ATOM     71  C   UNL     1      29.270  40.132  13.364  1.00  0.00     0.063 C 
BRANCH  71  72
ATOM     72  C   UNL     1      28.527  41.181  12.531  1.00  0.00     0.139 CG0
ATOM     73  G   UNL     1      29.510  41.998  11.801  1.00  0.00     0.000 G0
BRANCH  72  74
ATOM     74  O   UNL     1      27.729  41.966  13.359  1.00  0.00    -0.389 OA
ATOM     75  H   UNL     1      28.311  42.337  14.082  1.00  0.00     0.211 HD
ENDBRANCH  72  74
ENDBRANCH  71  72
ENDBRANCH  70  71
BRANCH  70  76
ATOM     76  C   UNL     1      31.159  39.468  11.919  1.00  0.00     0.063 C 
BRANCH  76  77
ATOM     77  C   UNL     1      30.911  40.277  10.641  1.00  0.00     0.139 C 
BRANCH  77  78
ATOM     78  C   UNL     1      30.516  41.666  11.000  1.00  0.00     0.002 C 
ATOM     79  C   UNL     1      29.513  42.013  11.793  1.00  0.00     0.002 CG0
ATOM     80  G   UNL     1      28.548  41.167  12.514  1.00  0.00     0.000 G0
ENDBRANCH  77  78
BRANCH  77  81
ATOM     81  O   UNL     1      32.015  40.262   9.804  1.00  0.00    -0.389 OA
ATOM     82  H   UNL     1      32.333  41.204   9.712  1.00  0.00     0.211 HD
ENDBRANCH  77  81
ENDBRANCH  76  77
ENDBRANCH  70  76
ENDBRANCH  68  70
ENDBRANCH  64  65
ENDBRANCH  63  64
ENDBRANCH  60  63
ENDBRANCH  58  59
ENDBRANCH  55  58
ENDBRANCH   1  55
TORSDOF 32
BEGIN_RES LYS A 131
REMARK  4 active torsions:
REMARK  status: ('A' for Active; 'I' for Inactive)
REMARK    1  A    between atoms: CA   and  CB  
REMARK    2  A    between atoms: CB   and  CG  
REMARK    3  A    between atoms: CG   and  CD  
REMARK    4  A    between atoms: CD   and  CE  
ROOT
ATOM      1  CA  LYS A 131      29.867  25.555  16.977  1.00 20.52     0.186 C 
ENDROOT
BRANCH   1   2
ATOM      2  CB  LYS A 131      28.345  25.722  17.026  1.00 20.94     0.034 C 
BRANCH   2   3
ATOM      3  CG  LYS A 131      27.604  24.393  17.023  1.00 22.96     0.005 C 
BRANCH   3   4
ATOM      4  CD  LYS A 131      26.554  24.328  18.097  1.00 24.33     0.041 C 
BRANCH   4   5
ATOM      5  CE  LYS A 131      25.423  25.295  17.763  1.00 26.91     0.338 C 
ATOM      6  NZ  LYS A 131      24.385  25.264  18.820  1.00 27.40     0.618 N 
ENDBRANCH   4   5
ENDBRANCH   3   4
ENDBRANCH   2   3
ENDBRANCH   1   2
END_RES LYS A 131
BEGIN_RES LYS A 135
REMARK  4 active torsions:
REMARK  status: ('A' for Active; 'I' for Inactive)
REMARK    5  A    between atoms: CA   and  CB  
REMARK    6  A    between atoms: CB   and  CG  
REMARK    7  A    between atoms: CG   and  CD  
REMARK    8  A    between atoms: CD   and  CE  
ROOT
ATOM      7  CA  LYS A 135      33.193  34.663   9.290  1.00 25.02     0.186 C 
ENDROOT
BRANCH   7   8
ATOM      8  CB  LYS A 135      32.060  35.360  10.034  1.00 26.63     0.034 C 
BRANCH   8   9
ATOM      9  CG  LYS A 135      30.720  34.696   9.850  1.00 29.45     0.005 C 
BRANCH   9  10
ATOM     10  CD  LYS A 135      29.939  35.363   8.729  1.00 32.00     0.041 C 
BRANCH  10  11
ATOM     11  CE  LYS A 135      29.333  36.669   9.206  1.00 34.25     0.338 C 
ATOM     12  NZ  LYS A 135      29.699  37.793   8.300  1.00 35.99     0.618 N 
ENDBRANCH  10  11
ENDBRANCH   9  10
ENDBRANCH   8   9
ENDBRANCH   7   8
END_RES LYS A 135
