REMARK VINA RESULT:    -4.431      2.972      6.592
REMARK INTER + INTRA:         -23.565
REMARK INTER:                 -12.282
REMARK INTRA:                 -11.283
REMARK UNBOUND:               -12.269
REMARK SMILES CC(=O)N[C@@H]1[C@@H](O)C[C@](OC[C@H]2O[C@@H](O[C@H]3[C@H](O)[C@@H](O)[C@H](OCCN=[N+]=[N-])O[C@@H]3CO)[C@H](O)[C@@H](O)[C@H]2O)(C(=O)O)O[C@H]1C(O)[C@H](O)CNC(=O)OCc1cn(-c2cccc(S(N)(=O)=O)c2)nn1
REMARK SMILES IDX 9 1 8 2 6 3 5 4 42 5 41 6 10 7 11 8 12 9 14 10 13 11 32 12
REMARK SMILES IDX 34 13 36 14 15 15 16 16 29 17 28 18 21 19 17 20 19 21 30 22
REMARK SMILES IDX 31 23 22 25 23 26 24 27 25 28 26 29 27 30 18 31 20 33 33 35
REMARK SMILES IDX 35 37 37 39 38 41 39 42 40 43 7 45 43 47 44 48 45 50 46 51
REMARK SMILES IDX 47 53 48 54 49 55 50 57 51 58 52 59 53 60 54 61 67 62 55 63
REMARK SMILES IDX 66 64 56 65 65 66 57 67 60 68 58 69 59 70 61 71 63 72 64 73
REMARK SMILES IDX 62 74 4 77 2 78 1 80 3 81
REMARK H PARENT 31 24 18 32 20 34 33 36 35 38 37 40 40 44 7 46 44 49 46 52
REMARK H PARENT 48 56 62 75 62 76 4 79
REMARK Flexibility Score: inf
ROOT
ATOM      1  C   UNL     1      27.460  31.058  16.364  1.00  0.00     0.272 C 
ATOM      2  C   UNL     1      27.080  31.697  17.714  1.00  0.00     0.113 C 
ATOM      3  C   UNL     1      27.837  30.992  18.784  1.00  0.00     0.145 C 
ATOM      4  C   UNL     1      29.304  31.094  18.556  1.00  0.00     0.142 C 
ATOM      5  C   UNL     1      29.672  31.129  17.115  1.00  0.00     0.178 C 
ATOM      6  O   UNL     1      28.757  31.257  16.148  1.00  0.00    -0.332 OA
ENDROOT
BRANCH   1   7
ATOM      7  O   UNL     1      26.658  31.782  15.441  1.00  0.00    -0.338 OA
BRANCH   7   8
ATOM      8  C   UNL     1      26.893  33.111  15.607  1.00  0.00     0.199 C 
BRANCH   8   9
ATOM      9  C   UNL     1      25.725  33.975  15.185  1.00  0.00     0.179 C 
ATOM     10  C   UNL     1      24.100  34.037  13.648  1.00  0.00     0.282 C 
ATOM     11  O   UNL     1      24.692  33.215  14.641  1.00  0.00    -0.341 OA
ATOM     12  C   UNL     1      23.837  35.409  14.150  1.00  0.00     0.202 C 
ATOM     13  C   UNL     1      23.966  35.579  15.643  1.00  0.00     0.179 C 
ATOM     14  C   UNL     1      25.164  34.857  16.231  1.00  0.00     0.177 C 
BRANCH  10  15
ATOM     15  O   UNL     1      23.056  33.399  13.029  1.00  0.00    -0.341 OA
BRANCH  15  16
ATOM     16  C   UNL     1      22.544  32.315  13.704  1.00  0.00     0.184 C 
ATOM     17  C   UNL     1      22.347  31.175  12.734  1.00  0.00     0.178 C 
ATOM     18  O   UNL     1      21.128  30.526  12.968  1.00  0.00    -0.341 OA
ATOM     19  C   UNL     1      20.120  31.342  12.513  1.00  0.00     0.281 C 
ATOM     20  C   UNL     1      21.227  32.754  14.305  1.00  0.00     0.180 C 
ATOM     21  C   UNL     1      20.062  32.552  13.389  1.00  0.00     0.202 C 
BRANCH  17  22
ATOM     22  C   UNL     1      23.413  30.129  12.803  1.00  0.00     0.191 C 
BRANCH  22  23
ATOM     23  O   UNL     1      24.491  30.553  13.605  1.00  0.00    -0.394 OA
ATOM     24  H   UNL     1      24.453  30.140  14.499  1.00  0.00     0.210 HD
ENDBRANCH  22  23
ENDBRANCH  17  22
BRANCH  19  25
ATOM     25  O   UNL     1      18.873  30.716  12.536  1.00  0.00    -0.350 OA
BRANCH  25  26
ATOM     26  C   UNL     1      18.343  30.439  11.305  1.00  0.00     0.169 C 
BRANCH  26  27
ATOM     27  C   UNL     1      17.212  31.355  10.886  1.00  0.00     0.119 C 
BRANCH  27  28
ATOM     28  N   UNL     1      17.599  32.198   9.772  1.00  0.00    -0.092 NA
ATOM     29  N   UNL     1      18.100  33.308   9.927  1.00  0.00     0.001 N 
ATOM     30  N   UNL     1      18.591  34.423   9.970  1.00  0.00    -0.003 NA
ENDBRANCH  27  28
ENDBRANCH  26  27
ENDBRANCH  25  26
ENDBRANCH  19  25
BRANCH  20  31
ATOM     31  O   UNL     1      20.992  31.992  15.463  1.00  0.00    -0.387 OA
ATOM     32  H   UNL     1      21.634  32.202  16.185  1.00  0.00     0.211 HD
ENDBRANCH  20  31
BRANCH  21  33
ATOM     33  O   UNL     1      19.908  33.677  12.545  1.00  0.00    -0.385 OA
ATOM     34  H   UNL     1      19.016  34.054  12.728  1.00  0.00     0.211 HD
ENDBRANCH  21  33
ENDBRANCH  15  16
ENDBRANCH  10  15
BRANCH  12  35
ATOM     35  O   UNL     1      24.584  36.403  13.472  1.00  0.00    -0.385 OA
ATOM     36  H   UNL     1      24.106  37.259  13.715  1.00  0.00     0.211 HD
ENDBRANCH  12  35
BRANCH  13  37
ATOM     37  O   UNL     1      22.781  35.309  16.300  1.00  0.00    -0.387 OA
ATOM     38  H   UNL     1      22.301  36.194  16.387  1.00  0.00     0.211 HD
ENDBRANCH  13  37
BRANCH  14  39
ATOM     39  O   UNL     1      24.689  34.067  17.284  1.00  0.00    -0.387 OA
ATOM     40  H   UNL     1      24.618  33.114  17.028  1.00  0.00     0.211 HD
ENDBRANCH  14  39
ENDBRANCH   8   9
ENDBRANCH   7   8
ENDBRANCH   1   7
BRANCH   1  41
ATOM     41  C   UNL     1      26.984  29.655  16.438  1.00  0.00     0.364 C 
ATOM     42  O   UNL     1      25.717  29.445  16.392  1.00  0.00    -0.246 OA
BRANCH  41  43
ATOM     43  O   UNL     1      27.753  28.534  16.550  1.00  0.00    -0.477 OA
ATOM     44  H   UNL     1      27.845  27.841  15.796  1.00  0.00     0.296 HD
ENDBRANCH  41  43
ENDBRANCH   1  41
BRANCH   3  45
ATOM     45  O   UNL     1      27.468  31.635  19.999  1.00  0.00    -0.391 OA
ATOM     46  H   UNL     1      26.482  31.443  20.080  1.00  0.00     0.211 HD
ENDBRANCH   3  45
BRANCH   5  47
ATOM     47  C   UNL     1      30.761  32.215  16.945  1.00  0.00     0.176 C 
BRANCH  47  48
ATOM     48  O   UNL     1      30.808  32.974  18.100  1.00  0.00    -0.388 OA
ATOM     49  H   UNL     1      31.380  32.635  18.808  1.00  0.00     0.211 HD
ENDBRANCH  47  48
BRANCH  47  50
ATOM     50  C   UNL     1      30.564  32.957  15.681  1.00  0.00     0.165 C 
BRANCH  50  51
ATOM     51  O   UNL     1      31.170  32.256  14.641  1.00  0.00    -0.388 OA
ATOM     52  H   UNL     1      31.207  32.907  13.883  1.00  0.00     0.211 HD
ENDBRANCH  50  51
BRANCH  50  53
ATOM     53  C   UNL     1      31.185  34.343  15.714  1.00  0.00     0.154 C 
BRANCH  53  54
ATOM     54  N   UNL     1      30.399  35.207  14.866  1.00  0.00    -0.319 N 
ATOM     55  C   UNL     1      30.716  36.615  14.798  1.00  0.00     0.407 C 
ATOM     56  H   UNL     1      29.596  34.857  14.295  1.00  0.00     0.167 HD
ATOM     57  O   UNL     1      31.665  37.100  15.466  1.00  0.00    -0.225 OA
BRANCH  55  58
ATOM     58  O   UNL     1      29.926  37.381  13.965  1.00  0.00    -0.443 OA
BRANCH  58  59
ATOM     59  C   UNL     1      29.897  37.160  12.586  1.00  0.00     0.294 C 
BRANCH  59  60
ATOM     60  C   UNL     1      28.594  36.645  12.140  1.00  0.00     0.121 A 
ATOM     61  C   UNL     1      27.907  37.130  11.016  1.00  0.00     0.144 A 
ATOM     62  N   UNL     1      27.837  35.684  12.655  1.00  0.00    -0.131 NA
ATOM     63  N   UNL     1      26.778  36.436  10.918  1.00  0.00    -0.220 N 
ATOM     64  N   UNL     1      26.758  35.582  11.902  1.00  0.00    -0.062 NA
BRANCH  63  65
ATOM     65  C   UNL     1      25.808  36.636   9.882  1.00  0.00     0.068 A 
ATOM     66  C   UNL     1      24.491  36.224  10.104  1.00  0.00     0.050 A 
ATOM     67  C   UNL     1      26.153  37.218   8.699  1.00  0.00     0.028 A 
ATOM     68  C   UNL     1      23.524  36.394   9.145  1.00  0.00     0.084 A 
ATOM     69  C   UNL     1      25.205  37.393   7.743  1.00  0.00     0.004 A 
ATOM     70  C   UNL     1      23.883  36.988   7.943  1.00  0.00     0.022 A 
BRANCH  68  71
ATOM     71  S   UNL     1      21.867  35.906   9.354  1.00  0.00     0.238 S 
ATOM     72  O   UNL     1      21.354  35.371   8.047  1.00  0.00    -0.207 OA
ATOM     73  O   UNL     1      21.027  37.074   9.759  1.00  0.00    -0.207 OA
BRANCH  71  74
ATOM     74  N   UNL     1      21.805  34.665  10.573  1.00  0.00    -0.225 NA
ATOM     75  H   UNL     1      22.751  34.584  11.008  1.00  0.00     0.137 HD
ATOM     76  H   UNL     1      21.431  33.771  10.194  1.00  0.00     0.137 HD
ENDBRANCH  71  74
ENDBRANCH  68  71
ENDBRANCH  63  65
ENDBRANCH  59  60
ENDBRANCH  58  59
ENDBRANCH  55  58
ENDBRANCH  53  54
ENDBRANCH  50  53
ENDBRANCH  47  50
ENDBRANCH   5  47
BRANCH   4  77
ATOM     77  N   UNL     1      29.914  29.901  19.164  1.00  0.00    -0.348 N 
ATOM     78  C   UNL     1      30.948  29.978  20.136  1.00  0.00     0.217 C 
ATOM     79  H   UNL     1      29.580  28.958  18.876  1.00  0.00     0.163 HD
ATOM     80  C   UNL     1      31.523  28.738  20.715  1.00  0.00     0.114 C 
ATOM     81  O   UNL     1      31.353  31.126  20.481  1.00  0.00    -0.275 OA
ENDBRANCH   4  77
TORSDOF 32
BEGIN_RES LYS A 131
REMARK  4 active torsions:
REMARK  status: ('A' for Active; 'I' for Inactive)
REMARK    1  A    between atoms: CA   and  CB  
REMARK    2  A    between atoms: CB   and  CG  
REMARK    3  A    between atoms: CG   and  CD  
REMARK    4  A    between atoms: CD   and  CE  
ROOT
ATOM      1  CA  LYS A 131      29.867  25.555  16.977  1.00 20.52     0.186 C 
ENDROOT
BRANCH   1   2
ATOM      2  CB  LYS A 131      28.345  25.722  17.026  1.00 20.94     0.034 C 
BRANCH   2   3
ATOM      3  CG  LYS A 131      27.599  24.469  16.594  1.00 22.96     0.005 C 
BRANCH   3   4
ATOM      4  CD  LYS A 131      27.146  23.647  17.769  1.00 24.33     0.041 C 
BRANCH   4   5
ATOM      5  CE  LYS A 131      25.683  23.257  17.583  1.00 26.91     0.338 C 
ATOM      6  NZ  LYS A 131      24.930  24.357  16.936  1.00 27.40     0.618 N 
ENDBRANCH   4   5
ENDBRANCH   3   4
ENDBRANCH   2   3
ENDBRANCH   1   2
END_RES LYS A 131
BEGIN_RES LYS A 135
REMARK  4 active torsions:
REMARK  status: ('A' for Active; 'I' for Inactive)
REMARK    5  A    between atoms: CA   and  CB  
REMARK    6  A    between atoms: CB   and  CG  
REMARK    7  A    between atoms: CG   and  CD  
REMARK    8  A    between atoms: CD   and  CE  
ROOT
ATOM      7  CA  LYS A 135      33.193  34.663   9.290  1.00 25.02     0.186 C 
ENDROOT
BRANCH   7   8
ATOM      8  CB  LYS A 135      32.060  35.360  10.034  1.00 26.63     0.034 C 
BRANCH   8   9
ATOM      9  CG  LYS A 135      30.720  34.695   9.851  1.00 29.45     0.005 C 
BRANCH   9  10
ATOM     10  CD  LYS A 135      30.295  34.738   8.392  1.00 32.00     0.041 C 
BRANCH  10  11
ATOM     11  CE  LYS A 135      28.795  34.548   8.268  1.00 34.25     0.338 C 
ATOM     12  NZ  LYS A 135      28.264  33.729   9.393  1.00 35.99     0.618 N 
ENDBRANCH  10  11
ENDBRANCH   9  10
ENDBRANCH   8   9
ENDBRANCH   7   8
END_RES LYS A 135
