REMARK VINA RESULT:    -4.299      4.958     10.108
REMARK INTER + INTRA:         -22.085
REMARK INTER:                 -13.072
REMARK INTRA:                  -9.013
REMARK UNBOUND:               -11.125
REMARK SMILES CC(=O)N[C@@H]1[C@@H](O)C[C@](OC[C@H]2O[C@@H](O[C@H]3[C@H](O)[C@@H](O)[C@H](OCCN=[N+]=[N-])O[C@@H]3CO)[C@H](O)[C@@H](O)[C@H]2O)(C(=O)O)O[C@H]1C(O)[C@H](O)CNC(=O)OCc1cn([C@@H](C)C(=O)O)nn1
REMARK SMILES IDX 9 1 8 2 6 3 5 4 42 5 41 6 10 7 11 8 12 9 14 10 13 11 32 12
REMARK SMILES IDX 34 13 36 14 15 15 16 16 29 17 28 18 21 19 17 20 19 21 30 22
REMARK SMILES IDX 31 23 22 25 23 26 24 27 25 28 26 29 27 30 18 31 20 33 33 35
REMARK SMILES IDX 35 37 37 39 38 41 39 42 40 43 7 45 43 47 44 48 45 50 46 51
REMARK SMILES IDX 47 53 48 54 49 55 50 57 51 58 52 59 53 60 54 61 62 62 55 63
REMARK SMILES IDX 61 64 56 65 57 66 58 67 59 68 60 69 4 71 2 72 1 74 3 75
REMARK H PARENT 31 24 18 32 20 34 33 36 35 38 37 40 40 44 7 46 44 49 46 52
REMARK H PARENT 48 56 60 70 4 73
REMARK Flexibility Score: inf
ROOT
ATOM      1  C   UNL     1      31.818  28.804  22.210  1.00  0.00     0.272 C 
ATOM      2  C   UNL     1      32.020  28.143  23.518  1.00  0.00     0.113 C 
ATOM      3  C   UNL     1      32.479  29.208  24.488  1.00  0.00     0.145 C 
ATOM      4  C   UNL     1      33.956  29.478  24.026  1.00  0.00     0.142 C 
ATOM      5  C   UNL     1      34.034  29.551  22.577  1.00  0.00     0.178 C 
ATOM      6  O   UNL     1      32.865  29.669  21.874  1.00  0.00    -0.332 OA
ENDROOT
BRANCH   1   7
ATOM      7  O   UNL     1      30.615  29.433  22.115  1.00  0.00    -0.338 OA
BRANCH   7   8
ATOM      8  C   UNL     1      29.482  28.721  22.252  1.00  0.00     0.199 C 
BRANCH   8   9
ATOM      9  C   UNL     1      28.484  29.039  21.111  1.00  0.00     0.179 C 
ATOM     10  C   UNL     1      28.321  30.382  19.241  1.00  0.00     0.282 C 
ATOM     11  O   UNL     1      29.141  29.866  20.239  1.00  0.00    -0.341 OA
ATOM     12  C   UNL     1      26.966  29.738  19.212  1.00  0.00     0.202 C 
ATOM     13  C   UNL     1      27.085  28.229  19.312  1.00  0.00     0.179 C 
ATOM     14  C   UNL     1      28.014  27.798  20.434  1.00  0.00     0.177 C 
BRANCH  10  15
ATOM     15  O   UNL     1      28.871  30.242  17.959  1.00  0.00    -0.341 OA
BRANCH  15  16
ATOM     16  C   UNL     1      29.931  31.113  17.757  1.00  0.00     0.184 C 
ATOM     17  C   UNL     1      29.704  32.386  18.509  1.00  0.00     0.178 C 
ATOM     18  O   UNL     1      29.453  33.465  17.660  1.00  0.00    -0.341 OA
ATOM     19  C   UNL     1      28.431  33.168  16.753  1.00  0.00     0.281 C 
ATOM     20  C   UNL     1      30.030  31.382  16.274  1.00  0.00     0.180 C 
ATOM     21  C   UNL     1      28.871  32.165  15.724  1.00  0.00     0.202 C 
BRANCH  17  22
ATOM     22  C   UNL     1      30.886  32.750  19.378  1.00  0.00     0.191 C 
BRANCH  22  23
ATOM     23  O   UNL     1      31.264  31.701  20.212  1.00  0.00    -0.394 OA
ATOM     24  H   UNL     1      31.460  30.905  19.677  1.00  0.00     0.210 HD
ENDBRANCH  22  23
ENDBRANCH  17  22
BRANCH  19  25
ATOM     25  O   UNL     1      28.121  34.356  16.114  1.00  0.00    -0.350 OA
BRANCH  25  26
ATOM     26  C   UNL     1      29.108  35.284  16.371  1.00  0.00     0.169 C 
BRANCH  26  27
ATOM     27  C   UNL     1      29.709  35.796  15.078  1.00  0.00     0.119 C 
BRANCH  27  28
ATOM     28  N   UNL     1      31.137  35.488  15.082  1.00  0.00    -0.092 NA
ATOM     29  N   UNL     1      31.761  35.257  14.046  1.00  0.00     0.001 N 
ATOM     30  N   UNL     1      32.331  35.284  12.970  1.00  0.00    -0.003 NA
ENDBRANCH  27  28
ENDBRANCH  26  27
ENDBRANCH  25  26
ENDBRANCH  19  25
BRANCH  20  31
ATOM     31  O   UNL     1      31.222  32.022  15.936  1.00  0.00    -0.387 OA
ATOM     32  H   UNL     1      32.001  31.700  16.440  1.00  0.00     0.211 HD
ENDBRANCH  20  31
BRANCH  21  33
ATOM     33  O   UNL     1      27.801  31.315  15.455  1.00  0.00    -0.385 OA
ATOM     34  H   UNL     1      26.939  31.781  15.551  1.00  0.00     0.211 HD
ENDBRANCH  21  33
ENDBRANCH  15  16
ENDBRANCH  10  15
BRANCH  12  35
ATOM     35  O   UNL     1      26.063  30.271  20.101  1.00  0.00    -0.385 OA
ATOM     36  H   UNL     1      26.143  31.276  20.112  1.00  0.00     0.211 HD
ENDBRANCH  12  35
BRANCH  13  37
ATOM     37  O   UNL     1      27.623  27.786  18.084  1.00  0.00    -0.387 OA
ATOM     38  H   UNL     1      28.543  27.432  18.209  1.00  0.00     0.211 HD
ENDBRANCH  13  37
BRANCH  14  39
ATOM     39  O   UNL     1      29.082  27.052  19.937  1.00  0.00    -0.387 OA
ATOM     40  H   UNL     1      28.742  26.211  19.535  1.00  0.00     0.211 HD
ENDBRANCH  14  39
ENDBRANCH   8   9
ENDBRANCH   7   8
ENDBRANCH   1   7
BRANCH   1  41
ATOM     41  C   UNL     1      31.907  27.754  21.161  1.00  0.00     0.364 C 
ATOM     42  O   UNL     1      31.805  26.558  21.467  1.00  0.00    -0.246 OA
BRANCH  41  43
ATOM     43  O   UNL     1      32.104  28.084  19.828  1.00  0.00    -0.477 OA
ATOM     44  H   UNL     1      31.482  27.711  19.095  1.00  0.00     0.296 HD
ENDBRANCH  41  43
ENDBRANCH   1  41
BRANCH   3  45
ATOM     45  O   UNL     1      31.795  30.380  24.190  1.00  0.00    -0.391 OA
ATOM     46  H   UNL     1      31.317  30.756  24.948  1.00  0.00     0.211 HD
ENDBRANCH   3  45
BRANCH   5  47
ATOM     47  C   UNL     1      34.994  30.579  22.000  1.00  0.00     0.176 C 
BRANCH  47  48
ATOM     48  O   UNL     1      36.252  30.386  22.677  1.00  0.00    -0.388 OA
ATOM     49  H   UNL     1      36.518  29.456  22.596  1.00  0.00     0.211 HD
ENDBRANCH  47  48
BRANCH  47  50
ATOM     50  C   UNL     1      34.645  32.012  22.351  1.00  0.00     0.165 C 
BRANCH  50  51
ATOM     51  O   UNL     1      33.481  32.484  21.830  1.00  0.00    -0.388 OA
ATOM     52  H   UNL     1      33.125  32.032  21.033  1.00  0.00     0.211 HD
ENDBRANCH  50  51
BRANCH  50  53
ATOM     53  C   UNL     1      35.822  32.922  22.259  1.00  0.00     0.154 C 
BRANCH  53  54
ATOM     54  N   UNL     1      36.383  33.135  20.978  1.00  0.00    -0.319 N 
ATOM     55  C   UNL     1      37.609  32.623  20.478  1.00  0.00     0.407 C 
ATOM     56  H   UNL     1      35.819  33.751  20.314  1.00  0.00     0.167 HD
ATOM     57  O   UNL     1      38.299  31.895  21.201  1.00  0.00    -0.225 OA
BRANCH  55  58
ATOM     58  O   UNL     1      38.021  32.950  19.175  1.00  0.00    -0.443 OA
BRANCH  58  59
ATOM     59  C   UNL     1      38.344  34.272  18.835  1.00  0.00     0.294 C 
BRANCH  59  60
ATOM     60  C   UNL     1      37.997  34.622  17.453  1.00  0.00     0.120 A 
ATOM     61  C   UNL     1      38.579  34.207  16.275  1.00  0.00     0.139 A 
ATOM     62  N   UNL     1      36.979  35.461  17.130  1.00  0.00    -0.132 NA
ATOM     63  N   UNL     1      37.907  34.797  15.285  1.00  0.00    -0.238 N 
ATOM     64  N   UNL     1      36.943  35.553  15.794  1.00  0.00    -0.066 NA
BRANCH  63  65
ATOM     65  C   UNL     1      38.181  34.644  13.870  1.00  0.00     0.215 C 
ATOM     66  C   UNL     1      39.654  34.496  13.654  1.00  0.00     0.046 C 
BRANCH  65  67
ATOM     67  C   UNL     1      37.460  33.480  13.304  1.00  0.00     0.328 C 
ATOM     68  O   UNL     1      36.448  33.689  12.593  1.00  0.00    -0.250 OA
BRANCH  67  69
ATOM     69  O   UNL     1      37.865  32.173  13.531  1.00  0.00    -0.480 OA
ATOM     70  H   UNL     1      37.260  31.385  13.334  1.00  0.00     0.296 HD
ENDBRANCH  67  69
ENDBRANCH  65  67
ENDBRANCH  63  65
ENDBRANCH  59  60
ENDBRANCH  58  59
ENDBRANCH  55  58
ENDBRANCH  53  54
ENDBRANCH  50  53
ENDBRANCH  47  50
ENDBRANCH   5  47
BRANCH   4  71
ATOM     71  N   UNL     1      34.793  28.482  24.667  1.00  0.00    -0.348 N 
ATOM     72  C   UNL     1      35.734  28.698  25.673  1.00  0.00     0.217 C 
ATOM     73  H   UNL     1      34.665  27.487  24.324  1.00  0.00     0.163 HD
ATOM     74  C   UNL     1      36.535  27.592  26.249  1.00  0.00     0.114 C 
ATOM     75  O   UNL     1      35.909  29.854  26.100  1.00  0.00    -0.275 OA
ENDBRANCH   4  71
TORSDOF 32
BEGIN_RES LYS A 131
REMARK  4 active torsions:
REMARK  status: ('A' for Active; 'I' for Inactive)
REMARK    1  A    between atoms: CA   and  CB  
REMARK    2  A    between atoms: CB   and  CG  
REMARK    3  A    between atoms: CG   and  CD  
REMARK    4  A    between atoms: CD   and  CE  
ROOT
ATOM      1  CA  LYS A 131      29.867  25.555  16.977  1.00 20.52     0.186 C 
ENDROOT
BRANCH   1   2
ATOM      2  CB  LYS A 131      28.345  25.722  17.026  1.00 20.94     0.034 C 
BRANCH   2   3
ATOM      3  CG  LYS A 131      27.601  24.404  16.878  1.00 22.96     0.005 C 
BRANCH   3   4
ATOM      4  CD  LYS A 131      26.628  24.173  18.001  1.00 24.33     0.041 C 
BRANCH   4   5
ATOM      5  CE  LYS A 131      25.583  23.151  17.567  1.00 26.91     0.338 C 
ATOM      6  NZ  LYS A 131      24.419  23.830  16.948  1.00 27.40     0.618 N 
ENDBRANCH   4   5
ENDBRANCH   3   4
ENDBRANCH   2   3
ENDBRANCH   1   2
END_RES LYS A 131
BEGIN_RES LYS A 135
REMARK  4 active torsions:
REMARK  status: ('A' for Active; 'I' for Inactive)
REMARK    5  A    between atoms: CA   and  CB  
REMARK    6  A    between atoms: CB   and  CG  
REMARK    7  A    between atoms: CG   and  CD  
REMARK    8  A    between atoms: CD   and  CE  
ROOT
ATOM      7  CA  LYS A 135      33.193  34.663   9.290  1.00 25.02     0.186 C 
ENDROOT
BRANCH   7   8
ATOM      8  CB  LYS A 135      32.060  35.360  10.034  1.00 26.63     0.034 C 
BRANCH   8   9
ATOM      9  CG  LYS A 135      30.703  34.764   9.761  1.00 29.45     0.005 C 
BRANCH   9  10
ATOM     10  CD  LYS A 135      30.539  34.460   8.280  1.00 32.00     0.041 C 
BRANCH  10  11
ATOM     11  CE  LYS A 135      29.234  35.031   7.760  1.00 34.25     0.338 C 
ATOM     12  NZ  LYS A 135      28.069  34.457   8.490  1.00 35.99     0.618 N 
ENDBRANCH  10  11
ENDBRANCH   9  10
ENDBRANCH   8   9
ENDBRANCH   7   8
END_RES LYS A 135
