REMARK VINA RESULT:    -6.858      3.215      9.323
REMARK INTER + INTRA:         -20.308
REMARK INTER:                 -10.887
REMARK INTRA:                  -9.421
REMARK UNBOUND:                -1.022
REMARK SMILES CC(=O)N[C@@H]1[C@@H](O)C[C@](OC[C@H]2O[C@@H](O[C@H]3[C@H](O)[C@@H](O)[C@H](OCCN=[N+]=[N-])O[C@@H]3CO)[C@H](O)[C@@H](O)[C@H]2O)(C(=O)O)O[C@H]1C(O)[C@H](O)CNC(=O)OCc1cn(C2CC(O)C=C[C@@H](O)C2)nn1
REMARK SMILES IDX 43 1 42 2 9 3 8 4 41 5 6 6 5 7 10 8 11 9 12 10 14 11 13 12
REMARK SMILES IDX 32 13 34 14 36 15 15 16 16 17 29 18 28 19 21 20 17 21 19 22
REMARK SMILES IDX 30 23 31 24 22 26 23 27 24 28 25 29 26 30 27 31 18 32 20 34
REMARK SMILES IDX 33 36 35 38 37 40 38 42 39 43 40 44 7 46 4 48 2 49 1 51 3 52
REMARK SMILES IDX 44 53 45 55 46 56 47 58 48 59 49 60 50 62 51 63 52 64 53 65
REMARK SMILES IDX 54 66 66 67 55 68 65 69 56 70 57 71 58 72 59 74 64 76 62 77
REMARK SMILES IDX 61 78 60 79 63 81
REMARK H PARENT 31 25 18 33 20 35 33 37 35 39 37 41 40 45 7 47 4 50 44 54
REMARK H PARENT 46 57 48 61 59 75 63 82
REMARK Flexibility Score: 90.00
ROOT
ATOM      1  C   UNL     1      29.566  35.995  17.484  1.00  0.00     0.176 C 
ENDROOT
BRANCH   1   2
ATOM      2  C   UNL     1      30.017  35.094  16.348  1.00  0.00     0.178 C 
ATOM      3  C   UNL     1      30.095  35.224  14.000  1.00  0.00     0.272 C 
ATOM      4  C   UNL     1      30.229  33.751  13.881  1.00  0.00     0.113 C 
ATOM      5  O   UNL     1      29.637  35.756  15.146  1.00  0.00    -0.332 OA
ATOM      6  C   UNL     1      30.291  33.021  15.173  1.00  0.00     0.145 C 
ATOM      7  C   UNL     1      29.429  33.754  16.249  1.00  0.00     0.142 C 
BRANCH   3   8
ATOM      8  O   UNL     1      29.366  35.686  12.885  1.00  0.00    -0.338 OA
BRANCH   8   9
ATOM      9  C   UNL     1      28.165  35.068  12.689  1.00  0.00     0.199 C 
BRANCH   9  10
ATOM     10  C   UNL     1      27.052  36.093  12.469  1.00  0.00     0.179 C 
ATOM     11  C   UNL     1      25.137  36.052  11.180  1.00  0.00     0.282 C 
ATOM     12  O   UNL     1      26.520  35.875  11.238  1.00  0.00    -0.341 OA
ATOM     13  C   UNL     1      24.578  34.945  12.054  1.00  0.00     0.202 C 
ATOM     14  C   UNL     1      24.862  35.357  13.481  1.00  0.00     0.179 C 
ATOM     15  C   UNL     1      26.114  36.161  13.624  1.00  0.00     0.177 C 
BRANCH  11  16
ATOM     16  O   UNL     1      24.731  35.984   9.868  1.00  0.00    -0.341 OA
BRANCH  16  17
ATOM     17  C   UNL     1      24.609  37.275   9.347  1.00  0.00     0.184 C 
ATOM     18  C   UNL     1      23.867  38.160  10.316  1.00  0.00     0.178 C 
ATOM     19  O   UNL     1      22.512  37.953  10.360  1.00  0.00    -0.341 OA
ATOM     20  C   UNL     1      22.040  37.064   9.396  1.00  0.00     0.281 C 
ATOM     21  C   UNL     1      24.005  37.292   7.970  1.00  0.00     0.180 C 
ATOM     22  C   UNL     1      22.515  37.502   8.015  1.00  0.00     0.202 C 
BRANCH  18  23
ATOM     23  C   UNL     1      24.159  39.628  10.037  1.00  0.00     0.191 C 
BRANCH  23  24
ATOM     24  O   UNL     1      25.499  39.856   9.789  1.00  0.00    -0.394 OA
ATOM     25  H   UNL     1      26.026  39.964  10.597  1.00  0.00     0.210 HD
ENDBRANCH  23  24
ENDBRANCH  18  23
BRANCH  20  26
ATOM     26  O   UNL     1      20.652  37.122   9.466  1.00  0.00    -0.350 OA
BRANCH  26  27
ATOM     27  C   UNL     1      20.224  36.275  10.483  1.00  0.00     0.169 C 
BRANCH  27  28
ATOM     28  C   UNL     1      19.950  34.877   9.957  1.00  0.00     0.119 C 
BRANCH  28  29
ATOM     29  N   UNL     1      19.560  34.917   8.563  1.00  0.00    -0.092 NA
ATOM     30  N   UNL     1      18.392  35.226   8.275  1.00  0.00     0.001 N 
ATOM     31  N   UNL     1      17.182  35.447   8.129  1.00  0.00    -0.003 NA
ENDBRANCH  28  29
ENDBRANCH  27  28
ENDBRANCH  26  27
ENDBRANCH  20  26
BRANCH  21  32
ATOM     32  O   UNL     1      24.599  38.287   7.193  1.00  0.00    -0.387 OA
ATOM     33  H   UNL     1      24.899  39.052   7.739  1.00  0.00     0.211 HD
ENDBRANCH  21  32
BRANCH  22  34
ATOM     34  O   UNL     1      21.873  36.746   7.042  1.00  0.00    -0.385 OA
ATOM     35  H   UNL     1      21.075  36.292   7.418  1.00  0.00     0.211 HD
ENDBRANCH  22  34
ENDBRANCH  16  17
ENDBRANCH  11  16
BRANCH  13  36
ATOM     36  O   UNL     1      23.240  34.710  11.882  1.00  0.00    -0.385 OA
ATOM     37  H   UNL     1      22.648  35.386  12.247  1.00  0.00     0.211 HD
ENDBRANCH  13  36
BRANCH  14  38
ATOM     38  O   UNL     1      24.878  34.188  14.240  1.00  0.00    -0.387 OA
ATOM     39  H   UNL     1      24.311  34.284  15.054  1.00  0.00     0.211 HD
ENDBRANCH  14  38
BRANCH  15  40
ATOM     40  O   UNL     1      26.830  35.737  14.761  1.00  0.00    -0.387 OA
ATOM     41  H   UNL     1      27.788  35.848  14.680  1.00  0.00     0.211 HD
ENDBRANCH  15  40
ENDBRANCH   9  10
ENDBRANCH   8   9
ENDBRANCH   3   8
BRANCH   3  42
ATOM     42  C   UNL     1      31.490  35.780  13.804  1.00  0.00     0.364 C 
ATOM     43  O   UNL     1      32.344  35.216  13.070  1.00  0.00    -0.246 OA
BRANCH  42  44
ATOM     44  O   UNL     1      31.811  36.952  14.468  1.00  0.00    -0.477 OA
ATOM     45  H   UNL     1      31.896  36.976  15.484  1.00  0.00     0.296 HD
ENDBRANCH  42  44
ENDBRANCH   3  42
BRANCH   6  46
ATOM     46  O   UNL     1      29.876  31.719  15.046  1.00  0.00    -0.391 OA
ATOM     47  H   UNL     1      28.900  31.663  15.133  1.00  0.00     0.211 HD
ENDBRANCH   6  46
BRANCH   7  48
ATOM     48  N   UNL     1      29.306  32.914  17.377  1.00  0.00    -0.348 N 
ATOM     49  C   UNL     1      28.031  32.666  17.946  1.00  0.00     0.217 C 
ATOM     50  H   UNL     1      30.131  32.441  17.788  1.00  0.00     0.163 HD
ATOM     51  C   UNL     1      27.877  31.784  19.133  1.00  0.00     0.114 C 
ATOM     52  O   UNL     1      27.013  33.197  17.442  1.00  0.00    -0.275 OA
ENDBRANCH   7  48
ENDBRANCH   1   2
BRANCH   1  53
ATOM     53  O   UNL     1      28.122  36.021  17.240  1.00  0.00    -0.388 OA
ATOM     54  H   UNL     1      27.990  36.310  16.284  1.00  0.00     0.211 HD
ENDBRANCH   1  53
BRANCH   1  55
ATOM     55  C   UNL     1      29.918  37.444  17.299  1.00  0.00     0.165 C 
BRANCH  55  56
ATOM     56  O   UNL     1      30.417  38.010  18.447  1.00  0.00    -0.388 OA
ATOM     57  H   UNL     1      29.815  38.665  18.866  1.00  0.00     0.211 HD
ENDBRANCH  55  56
BRANCH  55  58
ATOM     58  C   UNL     1      28.685  38.255  16.916  1.00  0.00     0.154 C 
BRANCH  58  59
ATOM     59  N   UNL     1      28.414  38.279  15.514  1.00  0.00    -0.319 N 
ATOM     60  C   UNL     1      29.237  38.964  14.578  1.00  0.00     0.407 C 
ATOM     61  H   UNL     1      27.562  37.768  15.135  1.00  0.00     0.167 HD
ATOM     62  O   UNL     1      30.245  39.571  15.042  1.00  0.00    -0.225 OA
BRANCH  60  63
ATOM     63  O   UNL     1      28.927  38.951  13.238  1.00  0.00    -0.443 OA
BRANCH  63  64
ATOM     64  C   UNL     1      29.952  39.072  12.255  1.00  0.00     0.294 C 
BRANCH  64  65
ATOM     65  C   UNL     1      29.321  39.535  10.998  1.00  0.00     0.120 A 
ATOM     66  C   UNL     1      29.247  38.885   9.794  1.00  0.00     0.138 A 
ATOM     67  N   UNL     1      28.702  40.716  10.828  1.00  0.00    -0.132 NA
ATOM     68  N   UNL     1      28.586  39.698   8.931  1.00  0.00    -0.249 N 
ATOM     69  N   UNL     1      28.271  40.795   9.588  1.00  0.00    -0.067 NA
BRANCH  68  70
ATOM     70  C   UNL     1      28.279  39.413   7.523  1.00  0.00     0.115 C 
BRANCH  70  71
ATOM     71  C   UNL     1      27.725  38.031   7.426  1.00  0.00     0.063 C 
BRANCH  71  72
ATOM     72  C   UNL     1      28.136  37.424   6.081  1.00  0.00     0.139 CG0
ATOM     73  G   UNL     1      28.902  38.423   5.317  1.00  0.00     0.000 G0
BRANCH  72  74
ATOM     74  O   UNL     1      27.005  37.009   5.383  1.00  0.00    -0.389 OA
ATOM     75  H   UNL     1      26.507  36.365   5.963  1.00  0.00     0.211 HD
ENDBRANCH  72  74
ENDBRANCH  71  72
ENDBRANCH  70  71
BRANCH  70  76
ATOM     76  C   UNL     1      27.295  40.431   7.037  1.00  0.00     0.063 C 
BRANCH  76  77
ATOM     77  C   UNL     1      27.392  40.438   5.507  1.00  0.00     0.139 C 
BRANCH  77  78
ATOM     78  C   UNL     1      28.617  39.710   5.082  1.00  0.00     0.002 C 
ATOM     79  C   UNL     1      28.894  38.437   5.327  1.00  0.00     0.002 CG0
ATOM     80  G   UNL     1      28.108  37.426   6.054  1.00  0.00     0.000 G0
ENDBRANCH  77  78
BRANCH  77  81
ATOM     81  O   UNL     1      26.255  39.906   4.919  1.00  0.00    -0.389 OA
ATOM     82  H   UNL     1      25.589  40.645   4.835  1.00  0.00     0.211 HD
ENDBRANCH  77  81
ENDBRANCH  76  77
ENDBRANCH  70  76
ENDBRANCH  68  70
ENDBRANCH  64  65
ENDBRANCH  63  64
ENDBRANCH  60  63
ENDBRANCH  58  59
ENDBRANCH  55  58
ENDBRANCH   1  55
TORSDOF 32
BEGIN_RES LYS A 131
REMARK  4 active torsions:
REMARK  status: ('A' for Active; 'I' for Inactive)
REMARK    1  A    between atoms: CA   and  CB  
REMARK    2  A    between atoms: CB   and  CG  
REMARK    3  A    between atoms: CG   and  CD  
REMARK    4  A    between atoms: CD   and  CE  
ROOT
ATOM      1  CA  LYS A 131      29.867  25.555  16.977  1.00 20.52     0.186 C 
ENDROOT
BRANCH   1   2
ATOM      2  CB  LYS A 131      28.345  25.722  17.026  1.00 20.94     0.034 C 
BRANCH   2   3
ATOM      3  CG  LYS A 131      27.600  24.413  16.812  1.00 22.96     0.005 C 
BRANCH   3   4
ATOM      4  CD  LYS A 131      26.901  23.949  18.060  1.00 24.33     0.041 C 
BRANCH   4   5
ATOM      5  CE  LYS A 131      25.719  23.063  17.682  1.00 26.91     0.338 C 
ATOM      6  NZ  LYS A 131      24.685  23.096  18.743  1.00 27.40     0.618 N 
ENDBRANCH   4   5
ENDBRANCH   3   4
ENDBRANCH   2   3
ENDBRANCH   1   2
END_RES LYS A 131
BEGIN_RES LYS A 135
REMARK  4 active torsions:
REMARK  status: ('A' for Active; 'I' for Inactive)
REMARK    5  A    between atoms: CA   and  CB  
REMARK    6  A    between atoms: CB   and  CG  
REMARK    7  A    between atoms: CG   and  CD  
REMARK    8  A    between atoms: CD   and  CE  
ROOT
ATOM      7  CA  LYS A 135      33.193  34.663   9.290  1.00 25.02     0.186 C 
ENDROOT
BRANCH   7   8
ATOM      8  CB  LYS A 135      32.060  35.360  10.034  1.00 26.63     0.034 C 
BRANCH   8   9
ATOM      9  CG  LYS A 135      30.737  34.647   9.921  1.00 29.45     0.005 C 
BRANCH   9  10
ATOM     10  CD  LYS A 135      30.336  34.488   8.463  1.00 32.00     0.041 C 
BRANCH  10  11
ATOM     11  CE  LYS A 135      28.826  34.519   8.319  1.00 34.25     0.338 C 
ATOM     12  NZ  LYS A 135      28.168  33.752   9.413  1.00 35.99     0.618 N 
ENDBRANCH  10  11
ENDBRANCH   9  10
ENDBRANCH   8   9
ENDBRANCH   7   8
END_RES LYS A 135
