REMARK VINA RESULT:    -4.735      2.475      7.486
REMARK INTER + INTRA:         -23.294
REMARK INTER:                 -12.355
REMARK INTRA:                 -10.939
REMARK UNBOUND:               -10.809
REMARK SMILES COc1ccc(Cn2cc(COC(=O)NC[C@@H](O)C(O)[C@@H]3O[C@@](OC[C@H]4O[C@@H](O[C@H]5[C@H](O)[C@@H](O)[C@H](OCCN=[N+]=[N-])O[C@@H]5CO)[C@H](O)[C@@H](O)[C@H]4O)(C(=O)O)C[C@H](O)[C@H]3NC(C)=O)nn2)cc1OC
REMARK SMILES IDX 23 1 55 2 56 3 58 4 21 5 22 6 24 7 25 8 26 9 28 10 27 11
REMARK SMILES IDX 46 12 48 13 50 14 29 15 30 16 43 17 42 18 35 19 31 20 33 21
REMARK SMILES IDX 44 22 45 23 36 25 37 26 38 27 39 28 40 29 41 30 32 31 34 33
REMARK SMILES IDX 47 35 49 37 51 39 52 41 53 42 54 43 57 45 19 47 20 48 17 50
REMARK SMILES IDX 18 51 16 53 15 54 13 55 14 57 12 58 11 59 10 60 9 61 63 62
REMARK SMILES IDX 8 63 64 64 7 65 6 66 65 67 5 68 66 69 4 70 3 71 67 72 68 73
REMARK SMILES IDX 2 74 1 75 59 76 60 77 61 79 62 80
REMARK H PARENT 45 24 32 32 34 34 47 36 49 38 51 40 54 44 57 46 20 49 18 52
REMARK H PARENT 15 56 59 78
REMARK Flexibility Score: inf
ROOT
ATOM      1  C   UNL     1      28.694  36.182  13.674  1.00  0.00     0.272 C 
ATOM      2  C   UNL     1      28.953  34.894  12.912  1.00  0.00     0.113 C 
ATOM      3  C   UNL     1      30.311  34.297  12.966  1.00  0.00     0.145 C 
ATOM      4  C   UNL     1      31.328  35.368  13.350  1.00  0.00     0.142 C 
ATOM      5  C   UNL     1      30.795  36.629  12.797  1.00  0.00     0.178 C 
ATOM      6  O   UNL     1      29.771  37.088  13.604  1.00  0.00    -0.332 OA
ENDROOT
BRANCH   1   7
ATOM      7  O   UNL     1      28.562  35.779  14.997  1.00  0.00    -0.338 OA
BRANCH   7   8
ATOM      8  C   UNL     1      28.988  36.638  15.962  1.00  0.00     0.199 C 
BRANCH   8   9
ATOM      9  C   UNL     1      29.750  35.913  17.037  1.00  0.00     0.179 C 
ATOM     10  C   UNL     1      30.614  33.931  17.737  1.00  0.00     0.282 C 
ATOM     11  O   UNL     1      30.270  34.697  16.557  1.00  0.00    -0.341 OA
ATOM     12  C   UNL     1      31.809  34.494  18.355  1.00  0.00     0.202 C 
ATOM     13  C   UNL     1      31.757  36.009  18.457  1.00  0.00     0.179 C 
ATOM     14  C   UNL     1      31.017  36.707  17.384  1.00  0.00     0.177 C 
BRANCH  10  15
ATOM     15  O   UNL     1      30.724  32.620  17.320  1.00  0.00    -0.341 OA
BRANCH  15  16
ATOM     16  C   UNL     1      29.500  31.964  17.462  1.00  0.00     0.184 C 
ATOM     17  C   UNL     1      29.590  30.705  18.229  1.00  0.00     0.178 C 
ATOM     18  O   UNL     1      28.296  30.297  18.540  1.00  0.00    -0.341 OA
ATOM     19  C   UNL     1      27.408  30.525  17.550  1.00  0.00     0.281 C 
ATOM     20  C   UNL     1      28.986  31.672  16.047  1.00  0.00     0.180 C 
ATOM     21  C   UNL     1      27.969  30.528  16.146  1.00  0.00     0.202 C 
BRANCH  17  22
ATOM     22  C   UNL     1      30.447  30.823  19.468  1.00  0.00     0.191 C 
BRANCH  22  23
ATOM     23  O   UNL     1      30.853  29.529  19.792  1.00  0.00    -0.394 OA
ATOM     24  H   UNL     1      30.238  29.163  20.495  1.00  0.00     0.210 HD
ENDBRANCH  22  23
ENDBRANCH  17  22
BRANCH  19  25
ATOM     25  O   UNL     1      26.854  31.841  17.743  1.00  0.00    -0.350 OA
BRANCH  25  26
ATOM     26  C   UNL     1      25.456  31.711  17.619  1.00  0.00     0.169 C 
BRANCH  26  27
ATOM     27  C   UNL     1      24.817  32.887  16.902  1.00  0.00     0.119 C 
BRANCH  27  28
ATOM     28  N   UNL     1      25.363  32.975  15.576  1.00  0.00    -0.092 NA
ATOM     29  N   UNL     1      25.095  32.150  14.698  1.00  0.00     0.001 N 
ATOM     30  N   UNL     1      24.791  31.095  14.104  1.00  0.00    -0.003 NA
ENDBRANCH  27  28
ENDBRANCH  26  27
ENDBRANCH  25  26
ENDBRANCH  19  25
BRANCH  20  31
ATOM     31  O   UNL     1      28.296  32.796  15.620  1.00  0.00    -0.387 OA
ATOM     32  H   UNL     1      27.464  32.878  16.177  1.00  0.00     0.211 HD
ENDBRANCH  20  31
BRANCH  21  33
ATOM     33  O   UNL     1      28.627  29.346  15.905  1.00  0.00    -0.385 OA
ATOM     34  H   UNL     1      28.106  28.734  15.317  1.00  0.00     0.211 HD
ENDBRANCH  21  33
ENDBRANCH  15  16
ENDBRANCH  10  15
BRANCH  12  35
ATOM     35  O   UNL     1      31.987  34.031  19.648  1.00  0.00    -0.385 OA
ATOM     36  H   UNL     1      31.755  33.061  19.734  1.00  0.00     0.211 HD
ENDBRANCH  12  35
BRANCH  13  37
ATOM     37  O   UNL     1      33.097  36.472  18.540  1.00  0.00    -0.387 OA
ATOM     38  H   UNL     1      33.417  36.246  19.452  1.00  0.00     0.211 HD
ENDBRANCH  13  37
BRANCH  14  39
ATOM     39  O   UNL     1      31.764  36.754  16.186  1.00  0.00    -0.387 OA
ATOM     40  H   UNL     1      32.674  37.181  16.347  1.00  0.00     0.211 HD
ENDBRANCH  14  39
ENDBRANCH   8   9
ENDBRANCH   7   8
ENDBRANCH   1   7
BRANCH   1  41
ATOM     41  C   UNL     1      27.498  36.835  13.085  1.00  0.00     0.364 C 
ATOM     42  O   UNL     1      26.355  36.447  13.343  1.00  0.00    -0.246 OA
BRANCH  41  43
ATOM     43  O   UNL     1      27.568  37.935  12.189  1.00  0.00    -0.477 OA
ATOM     44  H   UNL     1      28.125  38.752  12.532  1.00  0.00     0.296 HD
ENDBRANCH  41  43
ENDBRANCH   1  41
BRANCH   3  45
ATOM     45  O   UNL     1      30.386  33.279  13.887  1.00  0.00    -0.391 OA
ATOM     46  H   UNL     1      29.756  33.452  14.646  1.00  0.00     0.211 HD
ENDBRANCH   3  45
BRANCH   5  47
ATOM     47  C   UNL     1      31.812  37.593  12.393  1.00  0.00     0.176 C 
BRANCH  47  48
ATOM     48  O   UNL     1      32.626  37.227  11.328  1.00  0.00    -0.388 OA
ATOM     49  H   UNL     1      32.222  37.281  10.455  1.00  0.00     0.211 HD
ENDBRANCH  47  48
BRANCH  47  50
ATOM     50  C   UNL     1      31.047  38.823  11.659  1.00  0.00     0.165 C 
BRANCH  50  51
ATOM     51  O   UNL     1      30.184  39.337  12.547  1.00  0.00    -0.388 OA
ATOM     52  H   UNL     1      29.239  39.362  12.215  1.00  0.00     0.211 HD
ENDBRANCH  50  51
BRANCH  50  53
ATOM     53  C   UNL     1      30.680  38.450  10.314  1.00  0.00     0.154 C 
BRANCH  53  54
ATOM     54  N   UNL     1      29.345  38.259   9.856  1.00  0.00    -0.319 N 
ATOM     55  C   UNL     1      29.077  38.643   8.519  1.00  0.00     0.407 C 
ATOM     56  H   UNL     1      28.562  37.892  10.393  1.00  0.00     0.167 HD
ATOM     57  O   UNL     1      29.999  39.139   7.790  1.00  0.00    -0.225 OA
BRANCH  55  58
ATOM     58  O   UNL     1      27.847  38.529   7.879  1.00  0.00    -0.443 OA
BRANCH  58  59
ATOM     59  C   UNL     1      26.800  39.458   8.323  1.00  0.00     0.294 C 
BRANCH  59  60
ATOM     60  C   UNL     1      25.950  38.593   9.192  1.00  0.00     0.120 A 
ATOM     61  C   UNL     1      25.816  37.192   9.052  1.00  0.00     0.138 A 
ATOM     62  N   UNL     1      25.250  38.950  10.262  1.00  0.00    -0.132 NA
ATOM     63  N   UNL     1      25.028  36.801  10.081  1.00  0.00    -0.248 N 
ATOM     64  N   UNL     1      24.702  37.830  10.781  1.00  0.00    -0.067 NA
BRANCH  63  65
ATOM     65  C   UNL     1      24.675  35.384  10.365  1.00  0.00     0.181 C 
BRANCH  65  66
ATOM     66  C   UNL     1      23.182  35.336  10.034  1.00  0.00    -0.023 A 
ATOM     67  C   UNL     1      22.219  35.190  11.008  1.00  0.00     0.056 A 
ATOM     68  C   UNL     1      22.826  35.570   8.745  1.00  0.00     0.010 A 
ATOM     69  C   UNL     1      20.873  35.308  10.557  1.00  0.00     0.161 A 
ATOM     70  C   UNL     1      21.468  35.685   8.313  1.00  0.00     0.051 A 
ATOM     71  C   UNL     1      20.520  35.544   9.291  1.00  0.00     0.160 A 
BRANCH  69  72
ATOM     72  O   UNL     1      19.849  35.163  11.494  1.00  0.00    -0.493 OA
ATOM     73  C   UNL     1      19.499  33.885  12.039  1.00  0.00     0.278 C 
ENDBRANCH  69  72
BRANCH  71  74
ATOM     74  O   UNL     1      19.140  35.671   8.965  1.00  0.00    -0.493 OA
ATOM     75  C   UNL     1      18.703  36.892   8.332  1.00  0.00     0.278 C 
ENDBRANCH  71  74
ENDBRANCH  65  66
ENDBRANCH  63  65
ENDBRANCH  59  60
ENDBRANCH  58  59
ENDBRANCH  55  58
ENDBRANCH  53  54
ENDBRANCH  50  53
ENDBRANCH  47  50
ENDBRANCH   5  47
BRANCH   4  76
ATOM     76  N   UNL     1      32.617  34.974  12.846  1.00  0.00    -0.348 N 
ATOM     77  C   UNL     1      33.660  34.722  13.743  1.00  0.00     0.217 C 
ATOM     78  H   UNL     1      32.826  34.840  11.818  1.00  0.00     0.163 HD
ATOM     79  C   UNL     1      35.057  34.332  13.383  1.00  0.00     0.114 C 
ATOM     80  O   UNL     1      33.508  34.810  15.029  1.00  0.00    -0.275 OA
ENDBRANCH   4  76
TORSDOF 33
BEGIN_RES LYS A 131
REMARK  4 active torsions:
REMARK  status: ('A' for Active; 'I' for Inactive)
REMARK    1  A    between atoms: CA   and  CB  
REMARK    2  A    between atoms: CB   and  CG  
REMARK    3  A    between atoms: CG   and  CD  
REMARK    4  A    between atoms: CD   and  CE  
ROOT
ATOM      1  CA  LYS A 131      29.867  25.555  16.977  1.00 20.52     0.186 C 
ENDROOT
BRANCH   1   2
ATOM      2  CB  LYS A 131      28.345  25.722  17.026  1.00 20.94     0.034 C 
BRANCH   2   3
ATOM      3  CG  LYS A 131      27.602  24.400  16.915  1.00 22.96     0.005 C 
BRANCH   3   4
ATOM      4  CD  LYS A 131      26.151  24.532  17.288  1.00 24.33     0.041 C 
BRANCH   4   5
ATOM      5  CE  LYS A 131      25.978  24.227  18.772  1.00 26.91     0.338 C 
ATOM      6  NZ  LYS A 131      25.602  25.455  19.513  1.00 27.40     0.618 N 
ENDBRANCH   4   5
ENDBRANCH   3   4
ENDBRANCH   2   3
ENDBRANCH   1   2
END_RES LYS A 131
BEGIN_RES LYS A 135
REMARK  4 active torsions:
REMARK  status: ('A' for Active; 'I' for Inactive)
REMARK    5  A    between atoms: CA   and  CB  
REMARK    6  A    between atoms: CB   and  CG  
REMARK    7  A    between atoms: CG   and  CD  
REMARK    8  A    between atoms: CD   and  CE  
ROOT
ATOM      7  CA  LYS A 135      33.193  34.663   9.290  1.00 25.02     0.186 C 
ENDROOT
BRANCH   7   8
ATOM      8  CB  LYS A 135      32.060  35.360  10.034  1.00 26.63     0.034 C 
BRANCH   8   9
ATOM      9  CG  LYS A 135      30.692  34.850   9.663  1.00 29.45     0.005 C 
BRANCH   9  10
ATOM     10  CD  LYS A 135      30.517  34.834   8.152  1.00 32.00     0.041 C 
BRANCH  10  11
ATOM     11  CE  LYS A 135      29.049  34.943   7.784  1.00 34.25     0.338 C 
ATOM     12  NZ  LYS A 135      28.877  35.555   6.438  1.00 35.99     0.618 N 
ENDBRANCH  10  11
ENDBRANCH   9  10
ENDBRANCH   8   9
ENDBRANCH   7   8
END_RES LYS A 135
