REMARK VINA RESULT:    -3.555      3.242      6.904
REMARK INTER + INTRA:         -23.255
REMARK INTER:                 -12.548
REMARK INTRA:                 -10.706
REMARK UNBOUND:               -13.881
REMARK SMILES CCOC(=O)c1cccc(-n2cc(COC(=O)NC[C@@H](O)C(O)[C@@H]3O[C@@](OC[C@H]4O[C@@H](O[C@H]5[C@H](O)[C@@H](O)[C@H](OCCN=[N+]=[N-])O[C@@H]5CO)[C@H](O)[C@@H](O)[C@H]4O)(C(=O)O)C[C@H](O)[C@H]3NC(C)=O)nn2)c1
REMARK SMILES IDX 22 1 24 2 26 3 58 4 25 5 59 6 61 7 27 8 28 9 29 10 31 11
REMARK SMILES IDX 30 12 49 13 51 14 53 15 32 16 33 17 46 18 45 19 38 20 34 21
REMARK SMILES IDX 36 22 47 23 48 24 39 26 40 27 41 28 42 29 43 30 44 31 35 32
REMARK SMILES IDX 37 34 50 36 52 38 54 40 55 42 56 43 57 44 60 46 62 48 63 49
REMARK SMILES IDX 64 51 65 52 23 53 20 55 21 56 19 58 18 59 16 60 17 62 15 63
REMARK SMILES IDX 14 64 13 65 12 66 66 67 11 68 67 69 10 70 68 71 9 72 6 73
REMARK SMILES IDX 8 74 7 75 4 76 5 77 3 78 2 79 1 80
REMARK H PARENT 48 25 35 33 37 35 50 37 52 39 54 41 57 45 60 47 62 50 23 54
REMARK H PARENT 21 57 18 61
REMARK Flexibility Score: inf
ROOT
ATOM      1  C   UNL     1      29.948  33.574  14.465  1.00  0.00     0.176 C 
ENDROOT
BRANCH   1   2
ATOM      2  C   UNL     1      28.784  33.430  15.352  1.00  0.00     0.178 C 
ATOM      3  C   UNL     1      27.885  31.688  16.674  1.00  0.00     0.272 C 
ATOM      4  C   UNL     1      26.936  32.806  16.964  1.00  0.00     0.113 C 
ATOM      5  O   UNL     1      28.455  32.073  15.407  1.00  0.00    -0.332 OA
ATOM      6  C   UNL     1      26.369  33.459  15.714  1.00  0.00     0.145 C 
ATOM      7  C   UNL     1      27.554  34.190  15.002  1.00  0.00     0.142 C 
BRANCH   3   8
ATOM      8  O   UNL     1      27.205  30.538  16.420  1.00  0.00    -0.338 OA
BRANCH   8   9
ATOM      9  C   UNL     1      27.489  29.339  16.866  1.00  0.00     0.199 C 
BRANCH   9  10
ATOM     10  C   UNL     1      26.764  28.558  17.876  1.00  0.00     0.179 C 
ATOM     11  C   UNL     1      26.868  27.730  20.062  1.00  0.00     0.282 C 
ATOM     12  O   UNL     1      27.546  28.117  18.883  1.00  0.00    -0.341 OA
ATOM     13  C   UNL     1      25.408  27.518  19.807  1.00  0.00     0.202 C 
ATOM     14  C   UNL     1      24.730  28.703  19.197  1.00  0.00     0.179 C 
ATOM     15  C   UNL     1      25.736  29.555  18.503  1.00  0.00     0.177 C 
BRANCH  11  16
ATOM     16  O   UNL     1      27.193  28.678  20.988  1.00  0.00    -0.341 OA
BRANCH  16  17
ATOM     17  C   UNL     1      27.885  28.321  22.093  1.00  0.00     0.184 C 
ATOM     18  C   UNL     1      29.342  28.209  21.730  1.00  0.00     0.178 C 
ATOM     19  O   UNL     1      30.122  27.892  22.843  1.00  0.00    -0.341 OA
ATOM     20  C   UNL     1      29.805  26.557  23.221  1.00  0.00     0.281 C 
ATOM     21  C   UNL     1      27.462  26.945  22.637  1.00  0.00     0.180 C 
ATOM     22  C   UNL     1      28.414  26.628  23.788  1.00  0.00     0.202 C 
BRANCH  18  23
ATOM     23  C   UNL     1      29.856  29.493  21.145  1.00  0.00     0.191 C 
BRANCH  23  24
ATOM     24  O   UNL     1      30.021  29.361  19.742  1.00  0.00    -0.394 OA
ATOM     25  H   UNL     1      29.144  29.433  19.285  1.00  0.00     0.210 HD
ENDBRANCH  23  24
ENDBRANCH  18  23
BRANCH  20  26
ATOM     26  O   UNL     1      30.757  26.135  24.103  1.00  0.00    -0.350 OA
BRANCH  26  27
ATOM     27  C   UNL     1      31.272  27.174  24.865  1.00  0.00     0.169 C 
BRANCH  27  28
ATOM     28  C   UNL     1      32.764  27.128  25.014  1.00  0.00     0.119 C 
BRANCH  28  29
ATOM     29  N   UNL     1      33.378  27.148  23.681  1.00  0.00    -0.092 NA
ATOM     30  N   UNL     1      33.397  28.228  23.076  1.00  0.00     0.001 N 
ATOM     31  N   UNL     1      33.709  29.267  22.460  1.00  0.00    -0.003 NA
ENDBRANCH  28  29
ENDBRANCH  27  28
ENDBRANCH  26  27
ENDBRANCH  20  26
BRANCH  21  32
ATOM     32  O   UNL     1      26.201  27.000  23.211  1.00  0.00    -0.387 OA
ATOM     33  H   UNL     1      25.737  27.782  22.827  1.00  0.00     0.211 HD
ENDBRANCH  21  32
BRANCH  22  34
ATOM     34  O   UNL     1      28.046  25.448  24.426  1.00  0.00    -0.385 OA
ATOM     35  H   UNL     1      27.531  24.824  23.831  1.00  0.00     0.211 HD
ENDBRANCH  22  34
ENDBRANCH  16  17
ENDBRANCH  11  16
BRANCH  13  36
ATOM     36  O   UNL     1      25.242  26.350  19.038  1.00  0.00    -0.385 OA
ATOM     37  H   UNL     1      25.918  25.666  19.248  1.00  0.00     0.211 HD
ENDBRANCH  13  36
BRANCH  14  38
ATOM     38  O   UNL     1      23.883  29.362  20.059  1.00  0.00    -0.387 OA
ATOM     39  H   UNL     1      24.027  30.336  19.920  1.00  0.00     0.211 HD
ENDBRANCH  14  38
BRANCH  15  40
ATOM     40  O   UNL     1      26.337  30.455  19.326  1.00  0.00    -0.387 OA
ATOM     41  H   UNL     1      27.190  30.082  19.662  1.00  0.00     0.211 HD
ENDBRANCH  15  40
ENDBRANCH   9  10
ENDBRANCH   8   9
ENDBRANCH   3   8
BRANCH   3  42
ATOM     42  C   UNL     1      28.993  31.527  17.603  1.00  0.00     0.364 C 
ATOM     43  O   UNL     1      28.984  32.011  18.746  1.00  0.00    -0.246 OA
BRANCH  42  44
ATOM     44  O   UNL     1      30.130  30.808  17.231  1.00  0.00    -0.477 OA
ATOM     45  H   UNL     1      30.664  30.247  17.861  1.00  0.00     0.296 HD
ENDBRANCH  42  44
ENDBRANCH   3  42
BRANCH   6  46
ATOM     46  O   UNL     1      25.961  32.471  14.853  1.00  0.00    -0.391 OA
ATOM     47  H   UNL     1      26.571  32.439  14.076  1.00  0.00     0.211 HD
ENDBRANCH   6  46
BRANCH   7  48
ATOM     48  N   UNL     1      27.549  35.541  15.514  1.00  0.00    -0.348 N 
ATOM     49  C   UNL     1      27.545  36.709  14.684  1.00  0.00     0.217 C 
ATOM     50  H   UNL     1      27.545  35.746  16.558  1.00  0.00     0.163 HD
ATOM     51  C   UNL     1      27.540  38.085  15.247  1.00  0.00     0.114 C 
ATOM     52  O   UNL     1      27.546  36.585  13.443  1.00  0.00    -0.275 OA
ENDBRANCH   7  48
ENDBRANCH   1   2
BRANCH   1  53
ATOM     53  O   UNL     1      30.013  34.721  13.720  1.00  0.00    -0.388 OA
ATOM     54  H   UNL     1      29.163  35.220  13.712  1.00  0.00     0.211 HD
ENDBRANCH   1  53
BRANCH   1  55
ATOM     55  C   UNL     1      31.294  33.217  15.041  1.00  0.00     0.165 C 
BRANCH  55  56
ATOM     56  O   UNL     1      31.514  31.838  14.961  1.00  0.00    -0.388 OA
ATOM     57  H   UNL     1      32.485  31.642  15.009  1.00  0.00     0.211 HD
ENDBRANCH  55  56
BRANCH  55  58
ATOM     58  C   UNL     1      31.589  33.826  16.378  1.00  0.00     0.154 C 
BRANCH  58  59
ATOM     59  N   UNL     1      31.987  35.211  16.273  1.00  0.00    -0.319 N 
ATOM     60  C   UNL     1      31.145  36.256  16.713  1.00  0.00     0.407 C 
ATOM     61  H   UNL     1      32.936  35.470  15.859  1.00  0.00     0.167 HD
ATOM     62  O   UNL     1      30.014  36.104  17.226  1.00  0.00    -0.225 OA
BRANCH  60  63
ATOM     63  O   UNL     1      31.554  37.598  16.580  1.00  0.00    -0.443 OA
BRANCH  63  64
ATOM     64  C   UNL     1      31.100  38.476  15.597  1.00  0.00     0.294 C 
BRANCH  64  65
ATOM     65  C   UNL     1      31.220  38.009  14.210  1.00  0.00     0.121 A 
ATOM     66  C   UNL     1      30.528  38.510  13.112  1.00  0.00     0.144 A 
ATOM     67  N   UNL     1      31.997  37.038  13.745  1.00  0.00    -0.131 NA
ATOM     68  N   UNL     1      30.916  37.819  12.041  1.00  0.00    -0.220 N 
ATOM     69  N   UNL     1      31.804  36.932  12.431  1.00  0.00    -0.062 NA
BRANCH  68  70
ATOM     70  C   UNL     1      30.453  38.015  10.723  1.00  0.00     0.067 A 
ATOM     71  C   UNL     1      29.107  37.882  10.394  1.00  0.00     0.044 A 
ATOM     72  C   UNL     1      31.300  38.357   9.702  1.00  0.00     0.028 A 
ATOM     73  C   UNL     1      28.609  38.074   9.134  1.00  0.00     0.062 A 
ATOM     74  C   UNL     1      30.836  38.561   8.412  1.00  0.00     0.003 A 
ATOM     75  C   UNL     1      29.498  38.421   8.123  1.00  0.00     0.016 A 
BRANCH  73  76
ATOM     76  C   UNL     1      27.196  37.916   8.860  1.00  0.00     0.338 C 
ATOM     77  O   UNL     1      26.759  38.166   7.720  1.00  0.00    -0.246 OA
BRANCH  76  78
ATOM     78  O   UNL     1      26.346  37.492   9.849  1.00  0.00    -0.462 OA
BRANCH  78  79
ATOM     79  C   UNL     1      25.792  36.199   9.916  1.00  0.00     0.230 C 
ATOM     80  C   UNL     1      24.384  36.212   9.360  1.00  0.00     0.049 C 
ENDBRANCH  78  79
ENDBRANCH  76  78
ENDBRANCH  73  76
ENDBRANCH  68  70
ENDBRANCH  64  65
ENDBRANCH  63  64
ENDBRANCH  60  63
ENDBRANCH  58  59
ENDBRANCH  55  58
ENDBRANCH   1  55
TORSDOF 33
BEGIN_RES LYS A 131
REMARK  4 active torsions:
REMARK  status: ('A' for Active; 'I' for Inactive)
REMARK    1  A    between atoms: CA   and  CB  
REMARK    2  A    between atoms: CB   and  CG  
REMARK    3  A    between atoms: CG   and  CD  
REMARK    4  A    between atoms: CD   and  CE  
ROOT
ATOM      1  CA  LYS A 131      29.867  25.555  16.977  1.00 20.52     0.186 C 
ENDROOT
BRANCH   1   2
ATOM      2  CB  LYS A 131      28.345  25.722  17.026  1.00 20.94     0.034 C 
BRANCH   2   3
ATOM      3  CG  LYS A 131      27.599  24.461  16.617  1.00 22.96     0.005 C 
BRANCH   3   4
ATOM      4  CD  LYS A 131      27.108  23.683  17.806  1.00 24.33     0.041 C 
BRANCH   4   5
ATOM      5  CE  LYS A 131      25.688  23.192  17.543  1.00 26.91     0.338 C 
ATOM      6  NZ  LYS A 131      25.029  22.805  18.813  1.00 27.40     0.618 N 
ENDBRANCH   4   5
ENDBRANCH   3   4
ENDBRANCH   2   3
ENDBRANCH   1   2
END_RES LYS A 131
BEGIN_RES LYS A 135
REMARK  4 active torsions:
REMARK  status: ('A' for Active; 'I' for Inactive)
REMARK    5  A    between atoms: CA   and  CB  
REMARK    6  A    between atoms: CB   and  CG  
REMARK    7  A    between atoms: CG   and  CD  
REMARK    8  A    between atoms: CD   and  CE  
ROOT
ATOM      7  CA  LYS A 135      33.193  34.663   9.290  1.00 25.02     0.186 C 
ENDROOT
BRANCH   7   8
ATOM      8  CB  LYS A 135      32.060  35.360  10.034  1.00 26.63     0.034 C 
BRANCH   8   9
ATOM      9  CG  LYS A 135      30.735  34.653   9.913  1.00 29.45     0.005 C 
BRANCH   9  10
ATOM     10  CD  LYS A 135      30.309  34.557   8.456  1.00 32.00     0.041 C 
BRANCH  10  11
ATOM     11  CE  LYS A 135      28.798  34.497   8.345  1.00 34.25     0.338 C 
ATOM     12  NZ  LYS A 135      28.208  33.714   9.467  1.00 35.99     0.618 N 
ENDBRANCH  10  11
ENDBRANCH   9  10
ENDBRANCH   8   9
ENDBRANCH   7   8
END_RES LYS A 135
