REMARK VINA RESULT:    -3.836      3.333      8.897
REMARK INTER + INTRA:         -22.850
REMARK INTER:                 -12.166
REMARK INTRA:                 -10.684
REMARK UNBOUND:               -13.184
REMARK SMILES CC(=O)N[C@@H]1[C@@H](O)C[C@](OC[C@H]2O[C@@H](O[C@H]3[C@H](O)[C@@H](O)[C@H](OCCN=[N+]=[N-])O[C@@H]3CO)[C@H](O)[C@@H](O)[C@H]2O)(C(=O)O)O[C@H]1C(O)[C@H](O)CNC(=O)OCc1cn(-c2cc(Cl)ccc2C(=O)N(C)C)nn1
REMARK SMILES IDX 9 1 8 2 6 3 5 4 42 5 41 6 10 7 11 8 12 9 14 10 13 11 32 12
REMARK SMILES IDX 34 13 36 14 15 15 16 16 29 17 28 18 21 19 17 20 19 21 30 22
REMARK SMILES IDX 31 23 22 25 23 26 24 27 25 28 26 29 27 30 18 31 20 33 33 35
REMARK SMILES IDX 35 37 37 39 38 41 39 42 40 43 7 45 43 47 44 48 45 50 46 51
REMARK SMILES IDX 47 53 48 54 49 55 50 57 51 58 52 59 53 60 54 61 69 62 55 63
REMARK SMILES IDX 68 64 56 65 57 66 62 67 58 68 61 69 59 70 60 71 63 72 64 73
REMARK SMILES IDX 65 74 66 75 67 76 4 77 2 78 1 80 3 81
REMARK H PARENT 31 24 18 32 20 34 33 36 35 38 37 40 40 44 7 46 44 49 46 52
REMARK H PARENT 48 56 4 79
REMARK Flexibility Score: inf
ROOT
ATOM      1  C   UNL     1      29.925  31.055  21.402  1.00  0.00     0.272 C 
ATOM      2  C   UNL     1      31.356  30.676  21.475  1.00  0.00     0.113 C 
ATOM      3  C   UNL     1      31.552  29.278  20.946  1.00  0.00     0.145 C 
ATOM      4  C   UNL     1      30.710  28.367  21.807  1.00  0.00     0.142 C 
ATOM      5  C   UNL     1      29.303  28.792  21.831  1.00  0.00     0.178 C 
ATOM      6  O   UNL     1      28.986  30.089  21.583  1.00  0.00    -0.332 OA
ENDROOT
BRANCH   1   7
ATOM      7  O   UNL     1      29.623  31.690  20.208  1.00  0.00    -0.338 OA
BRANCH   7   8
ATOM      8  C   UNL     1      28.383  31.550  19.692  1.00  0.00     0.199 C 
BRANCH   8   9
ATOM      9  C   UNL     1      28.362  32.087  18.253  1.00  0.00     0.179 C 
ATOM     10  C   UNL     1      29.542  33.653  17.039  1.00  0.00     0.282 C 
ATOM     11  O   UNL     1      28.834  33.367  18.264  1.00  0.00    -0.341 OA
ATOM     12  C   UNL     1      28.702  33.097  15.912  1.00  0.00     0.202 C 
ATOM     13  C   UNL     1      28.705  31.583  15.917  1.00  0.00     0.179 C 
ATOM     14  C   UNL     1      28.963  31.108  17.336  1.00  0.00     0.177 C 
BRANCH  10  15
ATOM     15  O   UNL     1      30.751  33.119  17.188  1.00  0.00    -0.341 OA
BRANCH  15  16
ATOM     16  C   UNL     1      31.911  33.839  16.965  1.00  0.00     0.184 C 
ATOM     17  C   UNL     1      32.000  34.845  18.066  1.00  0.00     0.178 C 
ATOM     18  O   UNL     1      33.149  35.639  17.905  1.00  0.00    -0.341 OA
ATOM     19  C   UNL     1      32.739  36.513  16.840  1.00  0.00     0.281 C 
ATOM     20  C   UNL     1      31.857  34.526  15.625  1.00  0.00     0.180 C 
ATOM     21  C   UNL     1      32.746  35.732  15.579  1.00  0.00     0.202 C 
BRANCH  17  22
ATOM     22  C   UNL     1      32.030  34.175  19.424  1.00  0.00     0.191 C 
BRANCH  22  23
ATOM     23  O   UNL     1      30.822  34.397  20.051  1.00  0.00    -0.394 OA
ATOM     24  H   UNL     1      30.335  33.542  20.160  1.00  0.00     0.210 HD
ENDBRANCH  22  23
ENDBRANCH  17  22
BRANCH  19  25
ATOM     25  O   UNL     1      33.555  37.576  16.842  1.00  0.00    -0.350 OA
BRANCH  25  26
ATOM     26  C   UNL     1      34.664  37.480  17.665  1.00  0.00     0.169 C 
BRANCH  26  27
ATOM     27  C   UNL     1      35.971  37.344  16.911  1.00  0.00     0.119 C 
BRANCH  27  28
ATOM     28  N   UNL     1      36.378  35.957  16.831  1.00  0.00    -0.092 NA
ATOM     29  N   UNL     1      37.216  35.599  16.010  1.00  0.00     0.001 N 
ATOM     30  N   UNL     1      38.137  35.442  15.182  1.00  0.00    -0.003 NA
ENDBRANCH  27  28
ENDBRANCH  26  27
ENDBRANCH  25  26
ENDBRANCH  19  25
BRANCH  20  31
ATOM     31  O   UNL     1      32.272  33.676  14.594  1.00  0.00    -0.387 OA
ATOM     32  H   UNL     1      31.941  32.744  14.755  1.00  0.00     0.211 HD
ENDBRANCH  20  31
BRANCH  21  33
ATOM     33  O   UNL     1      32.347  36.542  14.518  1.00  0.00    -0.385 OA
ATOM     34  H   UNL     1      32.217  36.054  13.677  1.00  0.00     0.211 HD
ENDBRANCH  21  33
ENDBRANCH  15  16
ENDBRANCH  10  15
BRANCH  12  35
ATOM     35  O   UNL     1      27.377  33.501  16.171  1.00  0.00    -0.385 OA
ATOM     36  H   UNL     1      26.766  33.260  15.404  1.00  0.00     0.211 HD
ENDBRANCH  12  35
BRANCH  13  37
ATOM     37  O   UNL     1      29.631  31.010  15.087  1.00  0.00    -0.387 OA
ATOM     38  H   UNL     1      30.531  31.410  15.159  1.00  0.00     0.211 HD
ENDBRANCH  13  37
BRANCH  14  39
ATOM     39  O   UNL     1      30.243  30.694  17.574  1.00  0.00    -0.387 OA
ATOM     40  H   UNL     1      30.776  31.292  18.143  1.00  0.00     0.211 HD
ENDBRANCH  14  39
ENDBRANCH   8   9
ENDBRANCH   7   8
ENDBRANCH   1   7
BRANCH   1  41
ATOM     41  C   UNL     1      29.674  32.146  22.460  1.00  0.00     0.364 C 
ATOM     42  O   UNL     1      30.580  32.999  22.588  1.00  0.00    -0.246 OA
BRANCH  41  43
ATOM     43  O   UNL     1      28.552  32.207  23.225  1.00  0.00    -0.477 OA
ATOM     44  H   UNL     1      27.628  32.371  22.892  1.00  0.00     0.296 HD
ENDBRANCH  41  43
ENDBRANCH   1  41
BRANCH   3  45
ATOM     45  O   UNL     1      31.268  29.239  19.611  1.00  0.00    -0.391 OA
ATOM     46  H   UNL     1      31.741  29.841  19.028  1.00  0.00     0.211 HD
ENDBRANCH   3  45
BRANCH   5  47
ATOM     47  C   UNL     1      28.353  27.955  20.983  1.00  0.00     0.176 C 
BRANCH  47  48
ATOM     48  O   UNL     1      28.964  27.042  20.170  1.00  0.00    -0.388 OA
ATOM     49  H   UNL     1      28.764  27.142  19.202  1.00  0.00     0.211 HD
ENDBRANCH  47  48
BRANCH  47  50
ATOM     50  C   UNL     1      27.215  27.336  21.706  1.00  0.00     0.165 C 
BRANCH  50  51
ATOM     51  O   UNL     1      27.626  26.295  22.572  1.00  0.00    -0.388 OA
ATOM     52  H   UNL     1      27.140  26.332  23.429  1.00  0.00     0.211 HD
ENDBRANCH  50  51
BRANCH  50  53
ATOM     53  C   UNL     1      26.394  26.577  20.637  1.00  0.00     0.154 C 
BRANCH  53  54
ATOM     54  N   UNL     1      26.237  27.389  19.463  1.00  0.00    -0.319 N 
ATOM     55  C   UNL     1      25.019  27.432  18.756  1.00  0.00     0.407 C 
ATOM     56  H   UNL     1      27.033  27.985  19.088  1.00  0.00     0.167 HD
ATOM     57  O   UNL     1      24.024  26.777  19.144  1.00  0.00    -0.225 OA
BRANCH  55  58
ATOM     58  O   UNL     1      24.882  28.204  17.597  1.00  0.00    -0.443 OA
BRANCH  58  59
ATOM     59  C   UNL     1      25.918  29.020  17.126  1.00  0.00     0.294 C 
BRANCH  59  60
ATOM     60  C   UNL     1      25.389  30.327  16.627  1.00  0.00     0.121 A 
ATOM     61  C   UNL     1      25.091  30.594  15.275  1.00  0.00     0.144 A 
ATOM     62  N   UNL     1      25.096  31.442  17.279  1.00  0.00    -0.131 NA
ATOM     63  N   UNL     1      24.641  31.837  15.177  1.00  0.00    -0.219 N 
ATOM     64  N   UNL     1      24.657  32.329  16.423  1.00  0.00    -0.062 NA
BRANCH  63  65
ATOM     65  C   UNL     1      24.200  32.609  14.075  1.00  0.00     0.081 A 
ATOM     66  C   UNL     1      25.103  33.466  13.435  1.00  0.00     0.049 A 
ATOM     67  C   UNL     1      22.925  32.615  13.586  1.00  0.00     0.065 A 
ATOM     68  C   UNL     1      24.723  34.251  12.396  1.00  0.00     0.043 A 
ATOM     69  C   UNL     1      22.529  33.430  12.509  1.00  0.00     0.017 A 
ATOM     70  Cl  UNL     1      25.908  35.306  11.638  1.00  0.00    -0.084 Cl
ATOM     71  C   UNL     1      23.445  34.259  11.909  1.00  0.00     0.021 A 
BRANCH  67  72
ATOM     72  C   UNL     1      21.889  31.730  14.127  1.00  0.00     0.255 C 
ATOM     73  O   UNL     1      21.140  32.166  15.025  1.00  0.00    -0.269 OA
ATOM     74  N   UNL     1      21.749  30.427  13.641  1.00  0.00    -0.345 N 
ATOM     75  C   UNL     1      22.634  29.930  12.591  1.00  0.00     0.146 C 
ATOM     76  C   UNL     1      20.719  29.528  14.155  1.00  0.00     0.146 C 
ENDBRANCH  67  72
ENDBRANCH  63  65
ENDBRANCH  59  60
ENDBRANCH  58  59
ENDBRANCH  55  58
ENDBRANCH  53  54
ENDBRANCH  50  53
ENDBRANCH  47  50
ENDBRANCH   5  47
BRANCH   4  77
ATOM     77  N   UNL     1      31.335  28.363  23.133  1.00  0.00    -0.348 N 
ATOM     78  C   UNL     1      31.177  27.297  24.043  1.00  0.00     0.217 C 
ATOM     79  H   UNL     1      31.917  29.171  23.430  1.00  0.00     0.163 HD
ATOM     80  C   UNL     1      31.805  27.286  25.387  1.00  0.00     0.114 C 
ATOM     81  O   UNL     1      30.473  26.309  23.701  1.00  0.00    -0.275 OA
ENDBRANCH   4  77
TORSDOF 31
BEGIN_RES LYS A 131
REMARK  4 active torsions:
REMARK  status: ('A' for Active; 'I' for Inactive)
REMARK    1  A    between atoms: CA   and  CB  
REMARK    2  A    between atoms: CB   and  CG  
REMARK    3  A    between atoms: CG   and  CD  
REMARK    4  A    between atoms: CD   and  CE  
ROOT
ATOM      1  CA  LYS A 131      29.867  25.555  16.977  1.00 20.52     0.186 C 
ENDROOT
BRANCH   1   2
ATOM      2  CB  LYS A 131      28.345  25.722  17.026  1.00 20.94     0.034 C 
BRANCH   2   3
ATOM      3  CG  LYS A 131      27.600  24.414  16.810  1.00 22.96     0.005 C 
BRANCH   3   4
ATOM      4  CD  LYS A 131      26.614  24.135  17.911  1.00 24.33     0.041 C 
BRANCH   4   5
ATOM      5  CE  LYS A 131      25.215  24.000  17.319  1.00 26.91     0.338 C 
ATOM      6  NZ  LYS A 131      24.759  22.591  17.381  1.00 27.40     0.618 N 
ENDBRANCH   4   5
ENDBRANCH   3   4
ENDBRANCH   2   3
ENDBRANCH   1   2
END_RES LYS A 131
BEGIN_RES LYS A 135
REMARK  4 active torsions:
REMARK  status: ('A' for Active; 'I' for Inactive)
REMARK    5  A    between atoms: CA   and  CB  
REMARK    6  A    between atoms: CB   and  CG  
REMARK    7  A    between atoms: CG   and  CD  
REMARK    8  A    between atoms: CD   and  CE  
ROOT
ATOM      7  CA  LYS A 135      33.193  34.663   9.290  1.00 25.02     0.186 C 
ENDROOT
BRANCH   7   8
ATOM      8  CB  LYS A 135      32.060  35.360  10.034  1.00 26.63     0.034 C 
BRANCH   8   9
ATOM      9  CG  LYS A 135      30.705  34.753   9.774  1.00 29.45     0.005 C 
BRANCH   9  10
ATOM     10  CD  LYS A 135      30.501  34.514   8.286  1.00 32.00     0.041 C 
BRANCH  10  11
ATOM     11  CE  LYS A 135      29.062  34.795   7.895  1.00 34.25     0.338 C 
ATOM     12  NZ  LYS A 135      28.122  34.376   8.971  1.00 35.99     0.618 N 
ENDBRANCH  10  11
ENDBRANCH   9  10
ENDBRANCH   8   9
ENDBRANCH   7   8
END_RES LYS A 135
