REMARK VINA RESULT:    -5.102      1.706      3.342
REMARK INTER + INTRA:         -24.971
REMARK INTER:                 -14.124
REMARK INTRA:                 -10.847
REMARK UNBOUND:               -11.071
REMARK SMILES CC(=O)N[C@@H]1[C@@H](O)C[C@](OC[C@H]2O[C@@H](O[C@H]3[C@H](O)[C@@H](O)[C@H](OCCN=[N+]=[N-])O[C@@H]3CO)[C@H](O)[C@@H](O)[C@H]2O)(C(=O)O)O[C@H]1C(O)[C@H](O)CNC(=O)OCc1cn(CC(O)CCc2ccccc2)nn1
REMARK SMILES IDX 43 1 42 2 9 3 8 4 41 5 6 6 5 7 10 8 11 9 12 10 14 11 13 12
REMARK SMILES IDX 32 13 34 14 36 15 15 16 16 17 29 18 28 19 21 20 17 21 19 22
REMARK SMILES IDX 30 23 31 24 22 26 23 27 24 28 25 29 26 30 27 31 18 32 20 34
REMARK SMILES IDX 33 36 35 38 37 40 38 42 39 43 40 44 7 46 4 48 2 49 1 51 3 52
REMARK SMILES IDX 44 53 45 55 46 56 47 58 48 59 49 60 50 62 51 63 52 64 53 65
REMARK SMILES IDX 54 66 68 67 55 68 67 69 56 70 57 71 58 72 59 74 60 75 61 76
REMARK SMILES IDX 62 77 66 78 63 79 65 80 64 81
REMARK H PARENT 31 25 18 33 20 35 33 37 35 39 37 41 40 45 7 47 4 50 44 54
REMARK H PARENT 46 57 48 61 58 73
REMARK Flexibility Score: inf
ROOT
ATOM      1  C   UNL     1      29.526  41.812   7.624  1.00  0.00     0.176 C 
ENDROOT
BRANCH   1   2
ATOM      2  C   UNL     1      29.285  40.690   6.596  1.00  0.00     0.178 C 
ATOM      3  C   UNL     1      27.576  39.046   6.653  1.00  0.00     0.272 C 
ATOM      4  C   UNL     1      28.480  38.254   7.539  1.00  0.00     0.113 C 
ATOM      5  O   UNL     1      27.996  40.349   6.629  1.00  0.00    -0.332 OA
ATOM      6  C   UNL     1      29.885  38.297   7.053  1.00  0.00     0.145 C 
ATOM      7  C   UNL     1      30.362  39.684   6.742  1.00  0.00     0.142 C 
BRANCH   3   8
ATOM      8  O   UNL     1      26.238  38.935   7.081  1.00  0.00    -0.338 OA
BRANCH   8   9
ATOM      9  C   UNL     1      25.741  39.966   7.794  1.00  0.00     0.199 C 
BRANCH   9  10
ATOM     10  C   UNL     1      24.652  39.490   8.784  1.00  0.00     0.179 C 
ATOM     11  C   UNL     1      23.155  37.857   9.274  1.00  0.00     0.282 C 
ATOM     12  O   UNL     1      23.985  38.409   8.332  1.00  0.00    -0.341 OA
ATOM     13  C   UNL     1      24.103  37.398  10.417  1.00  0.00     0.202 C 
ATOM     14  C   UNL     1      24.424  38.722  11.117  1.00  0.00     0.179 C 
ATOM     15  C   UNL     1      25.282  39.463  10.129  1.00  0.00     0.177 C 
BRANCH  11  16
ATOM     16  O   UNL     1      22.530  36.757   8.802  1.00  0.00    -0.341 OA
BRANCH  16  17
ATOM     17  C   UNL     1      21.169  36.631   8.957  1.00  0.00     0.184 C 
ATOM     18  C   UNL     1      20.455  36.260   7.700  1.00  0.00     0.178 C 
ATOM     19  O   UNL     1      19.461  37.085   7.279  1.00  0.00    -0.341 OA
ATOM     20  C   UNL     1      18.742  37.765   8.216  1.00  0.00     0.281 C 
ATOM     21  C   UNL     1      20.688  37.869   9.657  1.00  0.00     0.180 C 
ATOM     22  C   UNL     1      19.690  38.696   8.932  1.00  0.00     0.202 C 
BRANCH  18  23
ATOM     23  C   UNL     1      19.864  34.875   7.853  1.00  0.00     0.191 C 
BRANCH  23  24
ATOM     24  O   UNL     1      19.118  34.512   6.733  1.00  0.00    -0.394 OA
ATOM     25  H   UNL     1      18.156  34.592   7.009  1.00  0.00     0.210 HD
ENDBRANCH  23  24
ENDBRANCH  18  23
BRANCH  20  26
ATOM     26  O   UNL     1      18.032  36.953   9.086  1.00  0.00    -0.350 OA
BRANCH  26  27
ATOM     27  C   UNL     1      16.738  36.764   8.598  1.00  0.00     0.169 C 
BRANCH  27  28
ATOM     28  C   UNL     1      16.325  35.346   8.986  1.00  0.00     0.119 C 
BRANCH  28  29
ATOM     29  N   UNL     1      16.271  34.483   7.837  1.00  0.00    -0.092 NA
ATOM     30  N   UNL     1      16.268  33.246   8.005  1.00  0.00     0.001 N 
ATOM     31  N   UNL     1      16.552  32.044   8.165  1.00  0.00    -0.003 NA
ENDBRANCH  28  29
ENDBRANCH  27  28
ENDBRANCH  26  27
ENDBRANCH  20  26
BRANCH  21  32
ATOM     32  O   UNL     1      20.092  37.550  10.907  1.00  0.00    -0.387 OA
ATOM     33  H   UNL     1      19.545  38.291  11.254  1.00  0.00     0.211 HD
ENDBRANCH  21  32
BRANCH  22  34
ATOM     34  O   UNL     1      20.307  39.496   7.966  1.00  0.00    -0.385 OA
ATOM     35  H   UNL     1      21.099  39.956   8.312  1.00  0.00     0.211 HD
ENDBRANCH  22  34
ENDBRANCH  16  17
ENDBRANCH  11  16
BRANCH  13  36
ATOM     36  O   UNL     1      23.560  36.463  11.234  1.00  0.00    -0.385 OA
ATOM     37  H   UNL     1      22.669  36.135  11.025  1.00  0.00     0.211 HD
ENDBRANCH  13  36
BRANCH  14  38
ATOM     38  O   UNL     1      25.078  38.502  12.326  1.00  0.00    -0.387 OA
ATOM     39  H   UNL     1      25.157  39.342  12.831  1.00  0.00     0.211 HD
ENDBRANCH  14  38
BRANCH  15  40
ATOM     40  O   UNL     1      26.499  38.777  10.074  1.00  0.00    -0.387 OA
ATOM     41  H   UNL     1      26.664  38.270  10.903  1.00  0.00     0.211 HD
ENDBRANCH  15  40
ENDBRANCH   9  10
ENDBRANCH   8   9
ENDBRANCH   3   8
BRANCH   3  42
ATOM     42  C   UNL     1      27.555  38.424   5.306  1.00  0.00     0.364 C 
ATOM     43  O   UNL     1      27.729  39.160   4.293  1.00  0.00    -0.246 OA
BRANCH  42  44
ATOM     44  O   UNL     1      27.358  37.088   5.094  1.00  0.00    -0.477 OA
ATOM     45  H   UNL     1      26.457  36.759   4.777  1.00  0.00     0.296 HD
ENDBRANCH  42  44
ENDBRANCH   3  42
BRANCH   6  46
ATOM     46  O   UNL     1      30.663  37.696   8.081  1.00  0.00    -0.391 OA
ATOM     47  H   UNL     1      30.162  37.010   8.566  1.00  0.00     0.211 HD
ENDBRANCH   6  46
BRANCH   7  48
ATOM     48  N   UNL     1      31.307  39.727   5.656  1.00  0.00    -0.348 N 
ATOM     49  C   UNL     1      32.705  39.916   5.831  1.00  0.00     0.217 C 
ATOM     50  H   UNL     1      30.976  39.620   4.650  1.00  0.00     0.163 HD
ATOM     51  C   UNL     1      33.573  39.936   4.634  1.00  0.00     0.114 C 
ATOM     52  O   UNL     1      33.188  40.059   6.959  1.00  0.00    -0.275 OA
ENDBRANCH   7  48
ENDBRANCH   1   2
BRANCH   1  53
ATOM     53  O   UNL     1      30.862  41.857   7.969  1.00  0.00    -0.388 OA
ATOM     54  H   UNL     1      31.168  42.762   8.221  1.00  0.00     0.211 HD
ENDBRANCH   1  53
BRANCH   1  55
ATOM     55  C   UNL     1      28.557  41.856   8.744  1.00  0.00     0.165 C 
BRANCH  55  56
ATOM     56  O   UNL     1      27.874  43.046   8.734  1.00  0.00    -0.388 OA
ATOM     57  H   UNL     1      27.215  43.127   9.452  1.00  0.00     0.211 HD
ENDBRANCH  55  56
BRANCH  55  58
ATOM     58  C   UNL     1      29.340  41.680  10.024  1.00  0.00     0.154 C 
BRANCH  58  59
ATOM     59  N   UNL     1      29.703  40.360  10.376  1.00  0.00    -0.319 N 
ATOM     60  C   UNL     1      31.008  39.849  10.604  1.00  0.00     0.407 C 
ATOM     61  H   UNL     1      28.935  39.612  10.502  1.00  0.00     0.167 HD
ATOM     62  O   UNL     1      31.994  40.591  10.519  1.00  0.00    -0.225 OA
BRANCH  60  63
ATOM     63  O   UNL     1      31.207  38.515  10.925  1.00  0.00    -0.443 OA
BRANCH  63  64
ATOM     64  C   UNL     1      30.980  37.892  12.134  1.00  0.00     0.294 C 
BRANCH  64  65
ATOM     65  C   UNL     1      29.638  37.334  12.364  1.00  0.00     0.120 A 
ATOM     66  C   UNL     1      29.325  36.098  12.916  1.00  0.00     0.138 A 
ATOM     67  N   UNL     1      28.465  37.917  12.041  1.00  0.00    -0.132 NA
ATOM     68  N   UNL     1      27.999  35.999  12.897  1.00  0.00    -0.250 N 
ATOM     69  N   UNL     1      27.497  37.090  12.374  1.00  0.00    -0.067 NA
BRANCH  68  70
ATOM     70  C   UNL     1      27.266  34.802  13.387  1.00  0.00     0.177 C 
BRANCH  70  71
ATOM     71  C   UNL     1      25.882  34.907  12.840  1.00  0.00     0.136 C 
BRANCH  71  72
ATOM     72  O   UNL     1      25.062  35.712  13.648  1.00  0.00    -0.391 OA
ATOM     73  H   UNL     1      24.751  35.238  14.448  1.00  0.00     0.211 HD
ENDBRANCH  71  72
BRANCH  71  74
ATOM     74  C   UNL     1      25.222  33.619  12.541  1.00  0.00     0.038 C 
BRANCH  74  75
ATOM     75  C   UNL     1      24.689  32.754  13.587  1.00  0.00     0.038 C 
BRANCH  75  76
ATOM     76  C   UNL     1      23.850  31.625  13.245  1.00  0.00    -0.048 A 
ATOM     77  C   UNL     1      24.384  30.343  13.145  1.00  0.00     0.004 A 
ATOM     78  C   UNL     1      22.502  31.785  12.927  1.00  0.00     0.004 A 
ATOM     79  C   UNL     1      23.607  29.293  12.750  1.00  0.00     0.000 A 
ATOM     80  C   UNL     1      21.747  30.707  12.532  1.00  0.00     0.000 A 
ATOM     81  C   UNL     1      22.278  29.429  12.431  1.00  0.00     0.000 A 
ENDBRANCH  75  76
ENDBRANCH  74  75
ENDBRANCH  71  74
ENDBRANCH  70  71
ENDBRANCH  68  70
ENDBRANCH  64  65
ENDBRANCH  63  64
ENDBRANCH  60  63
ENDBRANCH  58  59
ENDBRANCH  55  58
ENDBRANCH   1  55
TORSDOF 35
BEGIN_RES LYS A 131
REMARK  4 active torsions:
REMARK  status: ('A' for Active; 'I' for Inactive)
REMARK    1  A    between atoms: CA   and  CB  
REMARK    2  A    between atoms: CB   and  CG  
REMARK    3  A    between atoms: CG   and  CD  
REMARK    4  A    between atoms: CD   and  CE  
ROOT
ATOM      1  CA  LYS A 131      29.867  25.555  16.977  1.00 20.52     0.186 C 
ENDROOT
BRANCH   1   2
ATOM      2  CB  LYS A 131      28.345  25.722  17.026  1.00 20.94     0.034 C 
BRANCH   2   3
ATOM      3  CG  LYS A 131      27.608  24.395  17.127  1.00 22.96     0.005 C 
BRANCH   3   4
ATOM      4  CD  LYS A 131      26.130  24.582  17.330  1.00 24.33     0.041 C 
BRANCH   4   5
ATOM      5  CE  LYS A 131      25.606  23.508  18.278  1.00 26.91     0.338 C 
ATOM      6  NZ  LYS A 131      24.969  22.409  17.514  1.00 27.40     0.618 N 
ENDBRANCH   4   5
ENDBRANCH   3   4
ENDBRANCH   2   3
ENDBRANCH   1   2
END_RES LYS A 131
BEGIN_RES LYS A 135
REMARK  4 active torsions:
REMARK  status: ('A' for Active; 'I' for Inactive)
REMARK    5  A    between atoms: CA   and  CB  
REMARK    6  A    between atoms: CB   and  CG  
REMARK    7  A    between atoms: CG   and  CD  
REMARK    8  A    between atoms: CD   and  CE  
ROOT
ATOM      7  CA  LYS A 135      33.193  34.663   9.290  1.00 25.02     0.186 C 
ENDROOT
BRANCH   7   8
ATOM      8  CB  LYS A 135      32.060  35.360  10.034  1.00 26.63     0.034 C 
BRANCH   8   9
ATOM      9  CG  LYS A 135      30.735  34.653   9.912  1.00 29.45     0.005 C 
BRANCH   9  10
ATOM     10  CD  LYS A 135      30.354  34.475   8.450  1.00 32.00     0.041 C 
BRANCH  10  11
ATOM     11  CE  LYS A 135      28.847  34.515   8.283  1.00 34.25     0.338 C 
ATOM     12  NZ  LYS A 135      28.199  35.209   9.430  1.00 35.99     0.618 N 
ENDBRANCH  10  11
ENDBRANCH   9  10
ENDBRANCH   8   9
ENDBRANCH   7   8
END_RES LYS A 135
