REMARK VINA RESULT:    -5.463      1.782      2.119
REMARK INTER + INTRA:         -21.674
REMARK INTER:                 -10.792
REMARK INTRA:                 -10.881
REMARK UNBOUND:                -8.226
REMARK SMILES CC(=O)N[C@@H]1[C@@H](O)C[C@](OC[C@H]2O[C@@H](O[C@H]3[C@H](O)[C@@H](O)[C@H](OCCN=[N+]=[N-])O[C@@H]3CO)[C@H](O)[C@@H](O)[C@H]2O)(C(=O)O)O[C@H]1C(O)[C@H](O)CNC(=O)OCc1cn(-c2ccccc2Br)nn1
REMARK SMILES IDX 9 1 8 2 6 3 5 4 42 5 41 6 10 7 11 8 12 9 14 10 13 11 32 12
REMARK SMILES IDX 34 13 36 14 15 15 16 16 29 17 28 18 21 19 17 20 19 21 30 22
REMARK SMILES IDX 31 23 22 25 23 26 24 27 25 28 26 29 27 30 18 31 20 33 33 35
REMARK SMILES IDX 35 37 37 39 38 41 39 42 40 43 7 45 43 47 44 48 45 50 46 51
REMARK SMILES IDX 47 53 48 54 49 55 50 57 51 58 52 59 53 60 54 61 64 62 55 63
REMARK SMILES IDX 63 64 56 65 57 66 61 67 58 68 60 69 62 70 59 71 4 72 2 73
REMARK SMILES IDX 1 75 3 76
REMARK H PARENT 31 24 18 32 20 34 33 36 35 38 37 40 40 44 7 46 44 49 46 52
REMARK H PARENT 48 56 4 74
REMARK Flexibility Score: inf
ROOT
ATOM      1  C   UNL     1      28.125  40.057   7.929  1.00  0.00     0.272 C 
ATOM      2  C   UNL     1      28.968  39.375   6.918  1.00  0.00     0.113 C 
ATOM      3  C   UNL     1      30.361  39.916   6.894  1.00  0.00     0.145 C 
ATOM      4  C   UNL     1      30.993  40.133   8.222  1.00  0.00     0.142 C 
ATOM      5  C   UNL     1      30.008  40.064   9.336  1.00  0.00     0.178 C 
ATOM      6  O   UNL     1      28.746  40.483   9.083  1.00  0.00    -0.332 OA
ENDROOT
BRANCH   1   7
ATOM      7  O   UNL     1      27.034  39.335   8.378  1.00  0.00    -0.338 OA
BRANCH   7   8
ATOM      8  C   UNL     1      26.887  38.069   7.922  1.00  0.00     0.199 C 
BRANCH   8   9
ATOM      9  C   UNL     1      25.375  37.854   7.664  1.00  0.00     0.179 C 
ATOM     10  C   UNL     1      23.634  36.666   8.611  1.00  0.00     0.282 C 
ATOM     11  O   UNL     1      24.933  36.695   8.177  1.00  0.00    -0.341 OA
ATOM     12  C   UNL     1      22.696  37.442   7.714  1.00  0.00     0.202 C 
ATOM     13  C   UNL     1      23.162  38.874   7.555  1.00  0.00     0.179 C 
ATOM     14  C   UNL     1      24.586  39.041   8.049  1.00  0.00     0.177 C 
BRANCH  10  15
ATOM     15  O   UNL     1      23.501  37.015   9.947  1.00  0.00    -0.341 OA
BRANCH  15  16
ATOM     16  C   UNL     1      23.732  35.988  10.832  1.00  0.00     0.184 C 
ATOM     17  C   UNL     1      22.600  35.732  11.796  1.00  0.00     0.178 C 
ATOM     18  O   UNL     1      22.800  34.459  12.307  1.00  0.00    -0.341 OA
ATOM     19  C   UNL     1      23.986  34.265  12.939  1.00  0.00     0.281 C 
ATOM     20  C   UNL     1      24.929  36.292  11.726  1.00  0.00     0.180 C 
ATOM     21  C   UNL     1      25.034  35.288  12.797  1.00  0.00     0.202 C 
BRANCH  17  22
ATOM     22  C   UNL     1      21.237  35.818  11.195  1.00  0.00     0.191 C 
BRANCH  22  23
ATOM     23  O   UNL     1      21.142  34.901  10.151  1.00  0.00    -0.394 OA
ATOM     24  H   UNL     1      21.932  34.961   9.586  1.00  0.00     0.210 HD
ENDBRANCH  22  23
ENDBRANCH  17  22
BRANCH  19  25
ATOM     25  O   UNL     1      24.495  33.036  12.457  1.00  0.00    -0.350 OA
BRANCH  25  26
ATOM     26  C   UNL     1      24.677  32.099  13.435  1.00  0.00     0.169 C 
BRANCH  26  27
ATOM     27  C   UNL     1      24.094  30.750  13.152  1.00  0.00     0.119 C 
BRANCH  27  28
ATOM     28  N   UNL     1      22.693  30.797  13.544  1.00  0.00    -0.092 NA
ATOM     29  N   UNL     1      21.834  30.346  12.801  1.00  0.00     0.001 N 
ATOM     30  N   UNL     1      20.964  29.837  12.105  1.00  0.00    -0.003 NA
ENDBRANCH  27  28
ENDBRANCH  26  27
ENDBRANCH  25  26
ENDBRANCH  19  25
BRANCH  20  31
ATOM     31  O   UNL     1      26.107  36.340  10.999  1.00  0.00    -0.387 OA
ATOM     32  H   UNL     1      26.659  35.529  11.095  1.00  0.00     0.211 HD
ENDBRANCH  20  31
BRANCH  21  33
ATOM     33  O   UNL     1      25.192  36.025  14.008  1.00  0.00    -0.385 OA
ATOM     34  H   UNL     1      24.541  36.763  14.058  1.00  0.00     0.211 HD
ENDBRANCH  21  33
ENDBRANCH  15  16
ENDBRANCH  10  15
BRANCH  12  35
ATOM     35  O   UNL     1      22.516  36.805   6.486  1.00  0.00    -0.385 OA
ATOM     36  H   UNL     1      21.845  37.271   5.930  1.00  0.00     0.211 HD
ENDBRANCH  12  35
BRANCH  13  37
ATOM     37  O   UNL     1      22.274  39.754   8.142  1.00  0.00    -0.387 OA
ATOM     38  H   UNL     1      22.119  40.530   7.566  1.00  0.00     0.211 HD
ENDBRANCH  13  37
BRANCH  14  39
ATOM     39  O   UNL     1      24.537  39.277   9.413  1.00  0.00    -0.387 OA
ATOM     40  H   UNL     1      25.127  38.676   9.930  1.00  0.00     0.211 HD
ENDBRANCH  14  39
ENDBRANCH   8   9
ENDBRANCH   7   8
ENDBRANCH   1   7
BRANCH   1  41
ATOM     41  C   UNL     1      27.660  41.346   7.276  1.00  0.00     0.364 C 
ATOM     42  O   UNL     1      26.861  41.231   6.321  1.00  0.00    -0.246 OA
BRANCH  41  43
ATOM     43  O   UNL     1      28.064  42.584   7.674  1.00  0.00    -0.477 OA
ATOM     44  H   UNL     1      27.595  43.427   7.307  1.00  0.00     0.296 HD
ENDBRANCH  41  43
ENDBRANCH   1  41
BRANCH   3  45
ATOM     45  O   UNL     1      31.149  39.059   6.092  1.00  0.00    -0.391 OA
ATOM     46  H   UNL     1      32.092  39.155   6.399  1.00  0.00     0.211 HD
ENDBRANCH   3  45
BRANCH   5  47
ATOM     47  C   UNL     1      30.107  38.738  10.090  1.00  0.00     0.176 C 
BRANCH  47  48
ATOM     48  O   UNL     1      28.927  38.352  10.674  1.00  0.00    -0.388 OA
ATOM     49  H   UNL     1      28.249  39.090  10.659  1.00  0.00     0.211 HD
ENDBRANCH  47  48
BRANCH  47  50
ATOM     50  C   UNL     1      31.176  38.808  11.194  1.00  0.00     0.165 C 
BRANCH  50  51
ATOM     51  O   UNL     1      30.996  37.725  12.016  1.00  0.00    -0.388 OA
ATOM     52  H   UNL     1      31.286  37.819  12.940  1.00  0.00     0.211 HD
ENDBRANCH  50  51
BRANCH  50  53
ATOM     53  C   UNL     1      31.062  40.094  11.946  1.00  0.00     0.154 C 
BRANCH  53  54
ATOM     54  N   UNL     1      30.248  39.973  13.107  1.00  0.00    -0.319 N 
ATOM     55  C   UNL     1      28.916  40.405  13.278  1.00  0.00     0.407 C 
ATOM     56  H   UNL     1      30.678  39.500  13.964  1.00  0.00     0.167 HD
ATOM     57  O   UNL     1      28.305  40.952  12.355  1.00  0.00    -0.225 OA
BRANCH  55  58
ATOM     58  O   UNL     1      28.262  40.222  14.496  1.00  0.00    -0.443 OA
BRANCH  58  59
ATOM     59  C   UNL     1      27.445  39.119  14.808  1.00  0.00     0.294 C 
BRANCH  59  60
ATOM     60  C   UNL     1      28.057  37.842  14.317  1.00  0.00     0.121 A 
ATOM     61  C   UNL     1      28.821  36.979  15.103  1.00  0.00     0.144 A 
ATOM     62  N   UNL     1      28.020  37.300  13.110  1.00  0.00    -0.131 NA
ATOM     63  N   UNL     1      29.202  35.960  14.319  1.00  0.00    -0.219 N 
ATOM     64  N   UNL     1      28.716  36.158  13.118  1.00  0.00    -0.062 NA
BRANCH  63  65
ATOM     65  C   UNL     1      29.996  34.851  14.704  1.00  0.00     0.081 A 
ATOM     66  C   UNL     1      31.371  34.888  14.634  1.00  0.00     0.029 A 
ATOM     67  C   UNL     1      29.402  33.706  15.161  1.00  0.00     0.043 A 
ATOM     68  C   UNL     1      32.118  33.779  15.022  1.00  0.00     0.002 A 
ATOM     69  C   UNL     1      30.134  32.608  15.545  1.00  0.00     0.018 A 
ATOM     70  Br  UNL     1      27.502  33.613  15.269  1.00  0.00    -0.048 Br
ATOM     71  C   UNL     1      31.507  32.632  15.481  1.00  0.00     0.001 A 
ENDBRANCH  63  65
ENDBRANCH  59  60
ENDBRANCH  58  59
ENDBRANCH  55  58
ENDBRANCH  53  54
ENDBRANCH  50  53
ENDBRANCH  47  50
ENDBRANCH   5  47
BRANCH   4  72
ATOM     72  N   UNL     1      31.750  41.362   8.298  1.00  0.00    -0.348 N 
ATOM     73  C   UNL     1      33.102  41.422   7.879  1.00  0.00     0.217 C 
ATOM     74  H   UNL     1      31.308  42.227   8.665  1.00  0.00     0.163 HD
ATOM     75  C   UNL     1      33.809  42.733   7.993  1.00  0.00     0.114 C 
ATOM     76  O   UNL     1      33.701  40.428   7.428  1.00  0.00    -0.275 OA
ENDBRANCH   4  72
TORSDOF 30
BEGIN_RES LYS A 131
REMARK  4 active torsions:
REMARK  status: ('A' for Active; 'I' for Inactive)
REMARK    1  A    between atoms: CA   and  CB  
REMARK    2  A    between atoms: CB   and  CG  
REMARK    3  A    between atoms: CG   and  CD  
REMARK    4  A    between atoms: CD   and  CE  
ROOT
ATOM      1  CA  LYS A 131      29.867  25.555  16.977  1.00 20.52     0.186 C 
ENDROOT
BRANCH   1   2
ATOM      2  CB  LYS A 131      28.345  25.722  17.026  1.00 20.94     0.034 C 
BRANCH   2   3
ATOM      3  CG  LYS A 131      27.601  24.402  16.894  1.00 22.96     0.005 C 
BRANCH   3   4
ATOM      4  CD  LYS A 131      26.563  24.227  17.968  1.00 24.33     0.041 C 
BRANCH   4   5
ATOM      5  CE  LYS A 131      25.175  24.211  17.336  1.00 26.91     0.338 C 
ATOM      6  NZ  LYS A 131      24.536  25.543  17.452  1.00 27.40     0.618 N 
ENDBRANCH   4   5
ENDBRANCH   3   4
ENDBRANCH   2   3
ENDBRANCH   1   2
END_RES LYS A 131
BEGIN_RES LYS A 135
REMARK  4 active torsions:
REMARK  status: ('A' for Active; 'I' for Inactive)
REMARK    5  A    between atoms: CA   and  CB  
REMARK    6  A    between atoms: CB   and  CG  
REMARK    7  A    between atoms: CG   and  CD  
REMARK    8  A    between atoms: CD   and  CE  
ROOT
ATOM      7  CA  LYS A 135      33.193  34.663   9.290  1.00 25.02     0.186 C 
ENDROOT
BRANCH   7   8
ATOM      8  CB  LYS A 135      32.060  35.360  10.034  1.00 26.63     0.034 C 
BRANCH   8   9
ATOM      9  CG  LYS A 135      30.785  35.457   9.236  1.00 29.45     0.005 C 
BRANCH   9  10
ATOM     10  CD  LYS A 135      30.156  34.083   9.061  1.00 32.00     0.041 C 
BRANCH  10  11
ATOM     11  CE  LYS A 135      28.704  34.103   9.498  1.00 34.25     0.338 C 
ATOM     12  NZ  LYS A 135      27.817  34.560   8.392  1.00 35.99     0.618 N 
ENDBRANCH  10  11
ENDBRANCH   9  10
ENDBRANCH   8   9
ENDBRANCH   7   8
END_RES LYS A 135
