REMARK VINA RESULT:    -5.130      2.309      7.456
REMARK INTER + INTRA:         -23.780
REMARK INTER:                 -14.922
REMARK INTRA:                  -8.858
REMARK UNBOUND:               -10.853
REMARK SMILES CC(=O)N[C@@H]1[C@@H](O)C[C@](OC[C@H]2O[C@@H](O[C@H]3[C@H](O)[C@@H](O)[C@H](OCCN=[N+]=[N-])O[C@@H]3CO)[C@H](O)[C@@H](O)[C@H]2O)(C(=O)O)O[C@H]1C(O)[C@H](O)CNC(=O)OCc1cn(-c2ncn3c2c(=O)n(C(C)C)c2ccccc23)nn1
REMARK SMILES IDX 9 1 8 2 6 3 5 4 42 5 41 6 10 7 11 8 12 9 14 10 13 11 32 12
REMARK SMILES IDX 34 13 36 14 15 15 16 16 29 17 28 18 21 19 17 20 19 21 30 22
REMARK SMILES IDX 31 23 22 25 23 26 24 27 25 28 26 29 27 30 18 31 20 33 33 35
REMARK SMILES IDX 35 37 37 39 38 41 39 42 40 43 7 45 43 47 44 48 45 50 46 51
REMARK SMILES IDX 47 53 48 54 49 55 50 57 51 58 52 59 53 60 54 61 74 62 55 63
REMARK SMILES IDX 73 64 56 65 57 66 60 67 58 68 59 69 61 70 72 71 63 72 62 73
REMARK SMILES IDX 71 74 67 75 70 76 68 77 69 78 64 79 65 80 66 81 4 82 2 83
REMARK SMILES IDX 1 85 3 86
REMARK H PARENT 31 24 18 32 20 34 33 36 35 38 37 40 40 44 7 46 44 49 46 52
REMARK H PARENT 48 56 4 84
REMARK Flexibility Score: inf
ROOT
ATOM      1  C   UNL     1      27.679  39.636   6.486  1.00  0.00     0.272 C 
ATOM      2  C   UNL     1      28.634  38.842   7.337  1.00  0.00     0.113 C 
ATOM      3  C   UNL     1      29.995  38.792   6.781  1.00  0.00     0.145 C 
ATOM      4  C   UNL     1      30.516  40.106   6.272  1.00  0.00     0.142 C 
ATOM      5  C   UNL     1      29.453  41.030   5.799  1.00  0.00     0.178 C 
ATOM      6  O   UNL     1      28.244  40.944   6.350  1.00  0.00    -0.332 OA
ENDROOT
BRANCH   1   7
ATOM      7  O   UNL     1      26.592  39.894   7.274  1.00  0.00    -0.338 OA
BRANCH   7   8
ATOM      8  C   UNL     1      25.428  39.311   7.233  1.00  0.00     0.199 C 
BRANCH   8   9
ATOM      9  C   UNL     1      24.808  38.493   8.314  1.00  0.00     0.179 C 
ATOM     10  C   UNL     1      23.050  36.977   8.498  1.00  0.00     0.282 C 
ATOM     11  O   UNL     1      23.746  37.797   7.649  1.00  0.00    -0.341 OA
ATOM     12  C   UNL     1      23.910  35.855   9.051  1.00  0.00     0.202 C 
ATOM     13  C   UNL     1      25.185  36.409   9.664  1.00  0.00     0.179 C 
ATOM     14  C   UNL     1      25.792  37.386   8.695  1.00  0.00     0.177 C 
BRANCH  10  15
ATOM     15  O   UNL     1      22.026  36.399   7.756  1.00  0.00    -0.341 OA
BRANCH  15  16
ATOM     16  C   UNL     1      20.857  37.101   7.896  1.00  0.00     0.184 C 
ATOM     17  C   UNL     1      20.608  37.423   9.324  1.00  0.00     0.178 C 
ATOM     18  O   UNL     1      19.744  36.593   9.993  1.00  0.00    -0.341 OA
ATOM     19  C   UNL     1      19.637  35.315   9.511  1.00  0.00     0.281 C 
ATOM     20  C   UNL     1      19.677  36.414   7.240  1.00  0.00     0.180 C 
ATOM     21  C   UNL     1      19.229  35.260   8.059  1.00  0.00     0.202 C 
BRANCH  17  22
ATOM     22  C   UNL     1      20.151  38.859   9.474  1.00  0.00     0.191 C 
BRANCH  22  23
ATOM     23  O   UNL     1      20.532  39.501   8.272  1.00  0.00    -0.394 OA
ATOM     24  H   UNL     1      19.946  39.135   7.570  1.00  0.00     0.210 HD
ENDBRANCH  22  23
ENDBRANCH  17  22
BRANCH  19  25
ATOM     25  O   UNL     1      18.597  34.689  10.221  1.00  0.00    -0.350 OA
BRANCH  25  26
ATOM     26  C   UNL     1      17.668  35.555  10.731  1.00  0.00     0.169 C 
BRANCH  26  27
ATOM     27  C   UNL     1      16.240  35.243  10.413  1.00  0.00     0.119 C 
BRANCH  27  28
ATOM     28  N   UNL     1      15.693  36.456   9.783  1.00  0.00    -0.092 NA
ATOM     29  N   UNL     1      15.643  36.628   8.584  1.00  0.00     0.001 N 
ATOM     30  N   UNL     1      15.803  37.017   7.423  1.00  0.00    -0.003 NA
ENDBRANCH  27  28
ENDBRANCH  26  27
ENDBRANCH  25  26
ENDBRANCH  19  25
BRANCH  20  31
ATOM     31  O   UNL     1      18.674  37.364   7.012  1.00  0.00    -0.387 OA
ATOM     32  H   UNL     1      18.899  38.126   7.623  1.00  0.00     0.211 HD
ENDBRANCH  20  31
BRANCH  21  33
ATOM     33  O   UNL     1      19.796  34.102   7.497  1.00  0.00    -0.385 OA
ATOM     34  H   UNL     1      19.352  33.279   7.830  1.00  0.00     0.211 HD
ENDBRANCH  21  33
ENDBRANCH  15  16
ENDBRANCH  10  15
BRANCH  12  35
ATOM     35  O   UNL     1      23.203  35.266  10.096  1.00  0.00    -0.385 OA
ATOM     36  H   UNL     1      23.781  34.719  10.679  1.00  0.00     0.211 HD
ENDBRANCH  12  35
BRANCH  13  37
ATOM     37  O   UNL     1      26.083  35.328   9.753  1.00  0.00    -0.387 OA
ATOM     38  H   UNL     1      26.273  34.967   8.843  1.00  0.00     0.211 HD
ENDBRANCH  13  37
BRANCH  14  39
ATOM     39  O   UNL     1      26.070  36.642   7.518  1.00  0.00    -0.387 OA
ATOM     40  H   UNL     1      26.820  36.021   7.678  1.00  0.00     0.211 HD
ENDBRANCH  14  39
ENDBRANCH   8   9
ENDBRANCH   7   8
ENDBRANCH   1   7
BRANCH   1  41
ATOM     41  C   UNL     1      27.473  39.113   5.143  1.00  0.00     0.364 C 
ATOM     42  O   UNL     1      27.366  39.803   4.130  1.00  0.00    -0.246 OA
BRANCH  41  43
ATOM     43  O   UNL     1      27.380  37.724   4.929  1.00  0.00    -0.477 OA
ATOM     44  H   UNL     1      26.499  37.253   5.096  1.00  0.00     0.296 HD
ENDBRANCH  41  43
ENDBRANCH   1  41
BRANCH   3  45
ATOM     45  O   UNL     1      30.843  38.330   7.821  1.00  0.00    -0.391 OA
ATOM     46  H   UNL     1      31.303  37.503   7.553  1.00  0.00     0.211 HD
ENDBRANCH   3  45
BRANCH   5  47
ATOM     47  C   UNL     1      29.902  42.481   5.818  1.00  0.00     0.176 C 
BRANCH  47  48
ATOM     48  O   UNL     1      31.102  42.588   6.486  1.00  0.00    -0.388 OA
ATOM     49  H   UNL     1      31.596  41.733   6.554  1.00  0.00     0.211 HD
ENDBRANCH  47  48
BRANCH  47  50
ATOM     50  C   UNL     1      28.900  43.432   6.372  1.00  0.00     0.165 C 
BRANCH  50  51
ATOM     51  O   UNL     1      28.507  44.454   5.550  1.00  0.00    -0.388 OA
ATOM     52  H   UNL     1      29.046  44.549   4.731  1.00  0.00     0.211 HD
ENDBRANCH  50  51
BRANCH  50  53
ATOM     53  C   UNL     1      29.254  43.962   7.728  1.00  0.00     0.154 C 
BRANCH  53  54
ATOM     54  N   UNL     1      29.000  42.950   8.760  1.00  0.00    -0.319 N 
ATOM     55  C   UNL     1      27.950  43.058   9.686  1.00  0.00     0.407 C 
ATOM     56  H   UNL     1      29.631  42.095   8.818  1.00  0.00     0.167 HD
ATOM     57  O   UNL     1      27.177  44.050   9.680  1.00  0.00    -0.225 OA
BRANCH  55  58
ATOM     58  O   UNL     1      27.785  42.028  10.623  1.00  0.00    -0.443 OA
BRANCH  58  59
ATOM     59  C   UNL     1      28.842  41.648  11.459  1.00  0.00     0.294 C 
BRANCH  59  60
ATOM     60  C   UNL     1      29.171  40.178  11.340  1.00  0.00     0.121 A 
ATOM     61  C   UNL     1      28.745  39.177  12.184  1.00  0.00     0.146 A 
ATOM     62  N   UNL     1      29.919  39.568  10.407  1.00  0.00    -0.131 NA
ATOM     63  N   UNL     1      29.240  37.980  11.751  1.00  0.00    -0.200 N 
ATOM     64  N   UNL     1      29.945  38.265  10.673  1.00  0.00    -0.060 NA
BRANCH  63  65
ATOM     65  C   UNL     1      29.011  36.713  12.367  1.00  0.00     0.186 A 
ATOM     66  N   UNL     1      27.869  36.012  12.278  1.00  0.00    -0.216 NA
ATOM     67  C   UNL     1      29.832  35.951  13.161  1.00  0.00     0.158 A 
ATOM     68  C   UNL     1      27.978  34.870  12.984  1.00  0.00     0.207 A 
ATOM     69  N   UNL     1      29.204  34.812  13.548  1.00  0.00    -0.291 N 
ATOM     70  C   UNL     1      31.115  36.191  13.579  1.00  0.00     0.279 A 
ATOM     71  C   UNL     1      29.812  33.907  14.335  1.00  0.00     0.071 A 
ATOM     72  N   UNL     1      31.755  35.295  14.374  1.00  0.00    -0.302 N 
ATOM     73  O   UNL     1      31.728  37.248  13.232  1.00  0.00    -0.267 OA
ATOM     74  C   UNL     1      29.178  32.760  14.730  1.00  0.00     0.029 A 
ATOM     75  C   UNL     1      31.101  34.171  14.742  1.00  0.00     0.068 A 
ATOM     76  C   UNL     1      29.811  31.818  15.557  1.00  0.00     0.002 A 
ATOM     77  C   UNL     1      31.720  33.241  15.555  1.00  0.00     0.028 A 
ATOM     78  C   UNL     1      31.098  32.070  15.971  1.00  0.00     0.002 A 
BRANCH  72  79
ATOM     79  C   UNL     1      33.128  35.546  14.813  1.00  0.00     0.085 C 
ATOM     80  C   UNL     1      33.277  35.622  16.297  1.00  0.00     0.031 C 
ATOM     81  C   UNL     1      34.121  34.640  14.131  1.00  0.00     0.031 C 
ENDBRANCH  72  79
ENDBRANCH  63  65
ENDBRANCH  59  60
ENDBRANCH  58  59
ENDBRANCH  55  58
ENDBRANCH  53  54
ENDBRANCH  50  53
ENDBRANCH  47  50
ENDBRANCH   5  47
BRANCH   4  82
ATOM     82  N   UNL     1      31.519  39.839   5.263  1.00  0.00    -0.348 N 
ATOM     83  C   UNL     1      32.909  39.922   5.505  1.00  0.00     0.217 C 
ATOM     84  H   UNL     1      31.221  39.568   4.294  1.00  0.00     0.163 HD
ATOM     85  C   UNL     1      33.932  39.645   4.455  1.00  0.00     0.114 C 
ATOM     86  O   UNL     1      33.284  40.249   6.669  1.00  0.00    -0.275 OA
ENDBRANCH   4  82
TORSDOF 31
BEGIN_RES LYS A 131
REMARK  4 active torsions:
REMARK  status: ('A' for Active; 'I' for Inactive)
REMARK    1  A    between atoms: CA   and  CB  
REMARK    2  A    between atoms: CB   and  CG  
REMARK    3  A    between atoms: CG   and  CD  
REMARK    4  A    between atoms: CD   and  CE  
ROOT
ATOM      1  CA  LYS A 131      29.867  25.555  16.977  1.00 20.52     0.186 C 
ENDROOT
BRANCH   1   2
ATOM      2  CB  LYS A 131      28.345  25.722  17.026  1.00 20.94     0.034 C 
BRANCH   2   3
ATOM      3  CG  LYS A 131      27.602  24.398  16.931  1.00 22.96     0.005 C 
BRANCH   3   4
ATOM      4  CD  LYS A 131      26.636  24.208  18.067  1.00 24.33     0.041 C 
BRANCH   4   5
ATOM      5  CE  LYS A 131      26.335  25.557  18.711  1.00 26.91     0.338 C 
ATOM      6  NZ  LYS A 131      25.546  25.376  19.952  1.00 27.40     0.618 N 
ENDBRANCH   4   5
ENDBRANCH   3   4
ENDBRANCH   2   3
ENDBRANCH   1   2
END_RES LYS A 131
BEGIN_RES LYS A 135
REMARK  4 active torsions:
REMARK  status: ('A' for Active; 'I' for Inactive)
REMARK    5  A    between atoms: CA   and  CB  
REMARK    6  A    between atoms: CB   and  CG  
REMARK    7  A    between atoms: CG   and  CD  
REMARK    8  A    between atoms: CD   and  CE  
ROOT
ATOM      7  CA  LYS A 135      33.193  34.663   9.290  1.00 25.02     0.186 C 
ENDROOT
BRANCH   7   8
ATOM      8  CB  LYS A 135      32.060  35.360  10.034  1.00 26.63     0.034 C 
BRANCH   8   9
ATOM      9  CG  LYS A 135      30.714  34.718   9.819  1.00 29.45     0.005 C 
BRANCH   9  10
ATOM     10  CD  LYS A 135      30.447  34.514   8.335  1.00 32.00     0.041 C 
BRANCH  10  11
ATOM     11  CE  LYS A 135      29.166  35.214   7.923  1.00 34.25     0.338 C 
ATOM     12  NZ  LYS A 135      29.078  35.343   6.442  1.00 35.99     0.618 N 
ENDBRANCH  10  11
ENDBRANCH   9  10
ENDBRANCH   8   9
ENDBRANCH   7   8
END_RES LYS A 135
