REMARK VINA RESULT:    -4.455      4.510     10.691
REMARK INTER + INTRA:         -22.919
REMARK INTER:                 -12.398
REMARK INTRA:                 -10.521
REMARK UNBOUND:               -10.521
REMARK SMILES CC(=O)N[C@@H]1[C@@H](O)C[C@](OC[C@H]2O[C@@H](O[C@H]3[C@H](O)[C@@H](O)[C@H](OCCN=[N+]=[N-])O[C@@H]3CO)[C@H](O)[C@@H](O)[C@H]2O)(C(=O)O)O[C@H]1C(O)[C@H](O)CNC(=O)OCc1cn(CCCCCC(=O)O)nn1
REMARK SMILES IDX 47 1 45 2 43 3 42 4 9 5 8 6 41 7 6 8 5 9 10 10 11 11 12 12
REMARK SMILES IDX 14 13 13 14 32 15 34 16 36 17 15 18 16 19 29 20 28 21 21 22
REMARK SMILES IDX 17 23 19 24 30 25 31 26 22 28 23 29 24 30 25 31 26 32 27 33
REMARK SMILES IDX 18 34 20 36 33 38 35 40 37 42 38 44 39 45 40 46 7 48 4 50
REMARK SMILES IDX 2 51 1 53 3 54 44 55 46 57 48 59 49 60 50 62 51 63 52 64
REMARK SMILES IDX 53 65 54 66 65 67 55 68 64 69 56 70 57 71 58 72 59 73 60 74
REMARK SMILES IDX 61 75 62 76 63 77
REMARK H PARENT 31 27 18 35 20 37 33 39 35 41 37 43 40 47 7 49 4 52 44 56
REMARK H PARENT 46 58 48 61 63 78
REMARK Flexibility Score: inf
ROOT
ATOM      1  C   UNL     1      28.616  38.772  10.484  1.00  0.00     0.154 C 
ENDROOT
BRANCH   1   2
ATOM      2  C   UNL     1      29.301  37.566  11.080  1.00  0.00     0.165 C 
BRANCH   2   3
ATOM      3  C   UNL     1      28.400  37.042  12.151  1.00  0.00     0.176 C 
BRANCH   3   4
ATOM      4  C   UNL     1      29.069  36.545  13.385  1.00  0.00     0.178 C 
ATOM      5  C   UNL     1      30.689  35.217  14.216  1.00  0.00     0.272 C 
ATOM      6  C   UNL     1      30.514  36.077  15.425  1.00  0.00     0.113 C 
ATOM      7  O   UNL     1      29.681  35.308  13.265  1.00  0.00    -0.332 OA
ATOM      8  C   UNL     1      29.139  36.493  15.784  1.00  0.00     0.145 C 
ATOM      9  C   UNL     1      28.169  36.430  14.596  1.00  0.00     0.142 C 
BRANCH   5  10
ATOM     10  O   UNL     1      30.978  33.892  14.535  1.00  0.00    -0.338 OA
BRANCH  10  11
ATOM     11  C   UNL     1      29.971  32.988  14.418  1.00  0.00     0.199 C 
BRANCH  11  12
ATOM     12  C   UNL     1      29.438  32.746  15.817  1.00  0.00     0.179 C 
ATOM     13  C   UNL     1      27.722  32.864  17.246  1.00  0.00     0.282 C 
ATOM     14  O   UNL     1      28.059  32.623  15.881  1.00  0.00    -0.341 OA
ATOM     15  C   UNL     1      28.688  32.355  18.218  1.00  0.00     0.202 C 
ATOM     16  C   UNL     1      29.656  31.307  17.744  1.00  0.00     0.179 C 
ATOM     17  C   UNL     1      29.979  31.405  16.278  1.00  0.00     0.177 C 
BRANCH  13  18
ATOM     18  O   UNL     1      26.370  32.595  17.445  1.00  0.00    -0.341 OA
BRANCH  18  19
ATOM     19  C   UNL     1      25.763  31.891  16.473  1.00  0.00     0.184 C 
ATOM     20  C   UNL     1      24.327  32.270  16.275  1.00  0.00     0.178 C 
ATOM     21  O   UNL     1      23.979  31.758  15.008  1.00  0.00    -0.341 OA
ATOM     22  C   UNL     1      23.933  30.405  15.024  1.00  0.00     0.281 C 
ATOM     23  C   UNL     1      25.657  30.382  16.884  1.00  0.00     0.180 C 
ATOM     24  C   UNL     1      24.399  29.798  16.293  1.00  0.00     0.202 C 
BRANCH  20  25
ATOM     25  C   UNL     1      24.088  33.756  16.227  1.00  0.00     0.191 C 
BRANCH  25  26
ATOM     26  O   UNL     1      23.544  34.130  15.017  1.00  0.00    -0.394 OA
ATOM     27  H   UNL     1      22.556  34.145  15.124  1.00  0.00     0.210 HD
ENDBRANCH  25  26
ENDBRANCH  20  25
BRANCH  22  28
ATOM     28  O   UNL     1      24.572  29.811  13.928  1.00  0.00    -0.350 OA
BRANCH  28  29
ATOM     29  C   UNL     1      23.868  29.957  12.760  1.00  0.00     0.169 C 
BRANCH  29  30
ATOM     30  C   UNL     1      22.631  29.071  12.795  1.00  0.00     0.119 C 
BRANCH  30  31
ATOM     31  N   UNL     1      21.460  29.801  12.338  1.00  0.00    -0.092 NA
ATOM     32  N   UNL     1      21.454  31.046  12.388  1.00  0.00     0.001 N 
ATOM     33  N   UNL     1      21.192  32.172  12.812  1.00  0.00    -0.003 NA
ENDBRANCH  30  31
ENDBRANCH  29  30
ENDBRANCH  28  29
ENDBRANCH  22  28
BRANCH  23  34
ATOM     34  O   UNL     1      26.739  29.700  16.329  1.00  0.00    -0.387 OA
ATOM     35  H   UNL     1      27.518  29.772  16.953  1.00  0.00     0.211 HD
ENDBRANCH  23  34
BRANCH  24  36
ATOM     36  O   UNL     1      23.387  29.615  17.245  1.00  0.00    -0.385 OA
ATOM     37  H   UNL     1      23.057  28.682  17.269  1.00  0.00     0.211 HD
ENDBRANCH  24  36
ENDBRANCH  18  19
ENDBRANCH  13  18
BRANCH  15  38
ATOM     38  O   UNL     1      29.503  33.397  18.747  1.00  0.00    -0.385 OA
ATOM     39  H   UNL     1      30.378  33.394  18.319  1.00  0.00     0.211 HD
ENDBRANCH  15  38
BRANCH  16  40
ATOM     40  O   UNL     1      29.189  30.000  17.972  1.00  0.00    -0.387 OA
ATOM     41  H   UNL     1      28.221  29.923  17.896  1.00  0.00     0.211 HD
ENDBRANCH  16  40
BRANCH  17  42
ATOM     42  O   UNL     1      29.233  30.425  15.574  1.00  0.00    -0.387 OA
ATOM     43  H   UNL     1      29.903  29.981  14.964  1.00  0.00     0.211 HD
ENDBRANCH  17  42
ENDBRANCH  11  12
ENDBRANCH  10  11
ENDBRANCH   5  10
BRANCH   5  44
ATOM     44  C   UNL     1      31.911  35.711  13.522  1.00  0.00     0.364 C 
ATOM     45  O   UNL     1      32.258  36.909  13.613  1.00  0.00    -0.246 OA
BRANCH  44  46
ATOM     46  O   UNL     1      32.673  34.852  12.770  1.00  0.00    -0.477 OA
ATOM     47  H   UNL     1      33.664  34.643  12.980  1.00  0.00     0.296 HD
ENDBRANCH  44  46
ENDBRANCH   5  44
BRANCH   8  48
ATOM     48  O   UNL     1      28.610  35.892  16.922  1.00  0.00    -0.391 OA
ATOM     49  H   UNL     1      28.063  36.562  17.389  1.00  0.00     0.211 HD
ENDBRANCH   8  48
BRANCH   9  50
ATOM     50  N   UNL     1      27.156  37.422  14.690  1.00  0.00    -0.348 N 
ATOM     51  C   UNL     1      25.824  37.099  14.337  1.00  0.00     0.217 C 
ATOM     52  H   UNL     1      27.372  38.375  15.013  1.00  0.00     0.163 HD
ATOM     53  C   UNL     1      24.745  38.117  14.429  1.00  0.00     0.114 C 
ATOM     54  O   UNL     1      25.494  35.946  13.934  1.00  0.00    -0.275 OA
ENDBRANCH   9  50
ENDBRANCH   3   4
BRANCH   3  55
ATOM     55  O   UNL     1      27.555  36.024  11.653  1.00  0.00    -0.388 OA
ATOM     56  H   UNL     1      26.751  35.954  12.215  1.00  0.00     0.211 HD
ENDBRANCH   3  55
ENDBRANCH   2   3
BRANCH   2  57
ATOM     57  O   UNL     1      30.513  37.983  11.617  1.00  0.00    -0.388 OA
ATOM     58  H   UNL     1      30.553  38.967  11.511  1.00  0.00     0.211 HD
ENDBRANCH   2  57
ENDBRANCH   1   2
BRANCH   1  59
ATOM     59  N   UNL     1      27.340  38.496   9.903  1.00  0.00    -0.319 N 
ATOM     60  C   UNL     1      27.199  38.629   8.485  1.00  0.00     0.407 C 
ATOM     61  H   UNL     1      26.519  38.206  10.457  1.00  0.00     0.167 HD
ATOM     62  O   UNL     1      28.176  38.979   7.777  1.00  0.00    -0.225 OA
BRANCH  60  63
ATOM     63  O   UNL     1      26.005  38.386   7.846  1.00  0.00    -0.443 OA
BRANCH  63  64
ATOM     64  C   UNL     1      25.488  37.128   7.586  1.00  0.00     0.294 C 
BRANCH  64  65
ATOM     65  C   UNL     1      25.105  36.316   8.747  1.00  0.00     0.120 A 
ATOM     66  C   UNL     1      23.876  36.245   9.350  1.00  0.00     0.138 A 
ATOM     67  N   UNL     1      25.930  35.495   9.437  1.00  0.00    -0.132 NA
ATOM     68  N   UNL     1      23.978  35.398  10.376  1.00  0.00    -0.252 N 
ATOM     69  N   UNL     1      25.223  34.967  10.398  1.00  0.00    -0.067 NA
BRANCH  68  70
ATOM     70  C   UNL     1      22.901  35.024  11.283  1.00  0.00     0.146 C 
BRANCH  70  71
ATOM     71  C   UNL     1      22.099  36.283  11.609  1.00  0.00     0.024 C 
BRANCH  71  72
ATOM     72  C   UNL     1      20.627  35.998  11.649  1.00  0.00     0.002 C 
BRANCH  72  73
ATOM     73  C   UNL     1      20.256  35.068  10.530  1.00  0.00     0.012 C 
BRANCH  73  74
ATOM     74  C   UNL     1      19.479  35.730   9.441  1.00  0.00     0.122 C 
BRANCH  74  75
ATOM     75  C   UNL     1      20.226  35.617   8.157  1.00  0.00     0.303 C 
ATOM     76  O   UNL     1      20.798  36.620   7.677  1.00  0.00    -0.252 OA
BRANCH  75  77
ATOM     77  O   UNL     1      20.301  34.407   7.475  1.00  0.00    -0.481 OA
ATOM     78  H   UNL     1      20.953  33.687   7.796  1.00  0.00     0.296 HD
ENDBRANCH  75  77
ENDBRANCH  74  75
ENDBRANCH  73  74
ENDBRANCH  72  73
ENDBRANCH  71  72
ENDBRANCH  70  71
ENDBRANCH  68  70
ENDBRANCH  64  65
ENDBRANCH  63  64
ENDBRANCH  60  63
ENDBRANCH   1  59
TORSDOF 36
BEGIN_RES LYS A 131
REMARK  4 active torsions:
REMARK  status: ('A' for Active; 'I' for Inactive)
REMARK    1  A    between atoms: CA   and  CB  
REMARK    2  A    between atoms: CB   and  CG  
REMARK    3  A    between atoms: CG   and  CD  
REMARK    4  A    between atoms: CD   and  CE  
ROOT
ATOM      1  CA  LYS A 131      29.867  25.555  16.977  1.00 20.52     0.186 C 
ENDROOT
BRANCH   1   2
ATOM      2  CB  LYS A 131      28.345  25.722  17.026  1.00 20.94     0.034 C 
BRANCH   2   3
ATOM      3  CG  LYS A 131      27.602  24.398  16.930  1.00 22.96     0.005 C 
BRANCH   3   4
ATOM      4  CD  LYS A 131      26.497  24.294  17.945  1.00 24.33     0.041 C 
BRANCH   4   5
ATOM      5  CE  LYS A 131      25.180  24.729  17.310  1.00 26.91     0.338 C 
ATOM      6  NZ  LYS A 131      24.826  26.103  17.738  1.00 27.40     0.618 N 
ENDBRANCH   4   5
ENDBRANCH   3   4
ENDBRANCH   2   3
ENDBRANCH   1   2
END_RES LYS A 131
BEGIN_RES LYS A 135
REMARK  4 active torsions:
REMARK  status: ('A' for Active; 'I' for Inactive)
REMARK    5  A    between atoms: CA   and  CB  
REMARK    6  A    between atoms: CB   and  CG  
REMARK    7  A    between atoms: CG   and  CD  
REMARK    8  A    between atoms: CD   and  CE  
ROOT
ATOM      7  CA  LYS A 135      33.193  34.663   9.290  1.00 25.02     0.186 C 
ENDROOT
BRANCH   7   8
ATOM      8  CB  LYS A 135      32.060  35.360  10.034  1.00 26.63     0.034 C 
BRANCH   8   9
ATOM      9  CG  LYS A 135      30.725  34.680   9.872  1.00 29.45     0.005 C 
BRANCH   9  10
ATOM     10  CD  LYS A 135      30.379  34.521   8.400  1.00 32.00     0.041 C 
BRANCH  10  11
ATOM     11  CE  LYS A 135      29.584  35.715   7.907  1.00 34.25     0.338 C 
ATOM     12  NZ  LYS A 135      28.446  35.284   7.049  1.00 35.99     0.618 N 
ENDBRANCH  10  11
ENDBRANCH   9  10
ENDBRANCH   8   9
ENDBRANCH   7   8
END_RES LYS A 135
