REMARK VINA RESULT:    -4.080      4.038      8.960
REMARK INTER + INTRA:         -21.220
REMARK INTER:                 -10.281
REMARK INTRA:                 -10.939
REMARK UNBOUND:               -10.939
REMARK SMILES CC(=O)N[C@@H]1[C@@H](O)C[C@](OC[C@H]2O[C@@H](O[C@H]3[C@H](O)[C@@H](O)[C@H](OCCN=[N+]=[N-])O[C@@H]3CO)[C@H](O)[C@@H](O)[C@H]2O)(C(=O)O)O[C@H]1C(O)[C@H](O)CNC(=O)OCc1cn(Cc2ccsc2)nn1
REMARK SMILES IDX 9 1 8 2 6 3 5 4 42 5 41 6 10 7 11 8 12 9 14 10 13 11 32 12
REMARK SMILES IDX 34 13 36 14 15 15 16 16 29 17 28 18 21 19 17 20 19 21 30 22
REMARK SMILES IDX 31 23 22 25 23 26 24 27 25 28 26 29 27 30 18 31 20 33 33 35
REMARK SMILES IDX 35 37 37 39 38 41 39 42 40 43 7 45 43 47 44 48 45 50 46 51
REMARK SMILES IDX 47 53 48 54 49 55 50 57 51 58 52 59 53 60 54 61 63 62 55 63
REMARK SMILES IDX 62 64 56 65 57 66 58 67 61 68 59 69 60 70 4 71 2 72 1 74
REMARK SMILES IDX 3 75
REMARK H PARENT 31 24 18 32 20 34 33 36 35 38 37 40 40 44 7 46 44 49 46 52
REMARK H PARENT 48 56 4 73
REMARK Flexibility Score: inf
ROOT
ATOM      1  C   UNL     1      30.470  33.326  15.042  1.00  0.00     0.272 C 
ATOM      2  C   UNL     1      31.687  33.628  15.864  1.00  0.00     0.113 C 
ATOM      3  C   UNL     1      31.911  35.088  16.151  1.00  0.00     0.145 C 
ATOM      4  C   UNL     1      30.672  35.809  16.514  1.00  0.00     0.142 C 
ATOM      5  C   UNL     1      29.402  35.222  15.928  1.00  0.00     0.178 C 
ATOM      6  O   UNL     1      29.368  33.879  15.806  1.00  0.00    -0.332 OA
ENDROOT
BRANCH   1   7
ATOM      7  O   UNL     1      30.197  32.005  15.095  1.00  0.00    -0.338 OA
BRANCH   7   8
ATOM      8  C   UNL     1      30.213  31.256  16.182  1.00  0.00     0.199 C 
BRANCH   8   9
ATOM      9  C   UNL     1      29.089  30.438  16.665  1.00  0.00     0.179 C 
ATOM     10  C   UNL     1      28.306  29.705  18.671  1.00  0.00     0.282 C 
ATOM     11  O   UNL     1      28.888  30.830  18.042  1.00  0.00    -0.341 OA
ATOM     12  C   UNL     1      27.141  29.160  17.918  1.00  0.00     0.202 C 
ATOM     13  C   UNL     1      26.686  29.942  16.739  1.00  0.00     0.179 C 
ATOM     14  C   UNL     1      27.736  30.772  16.059  1.00  0.00     0.177 C 
BRANCH  10  15
ATOM     15  O   UNL     1      28.013  30.054  19.965  1.00  0.00    -0.341 OA
BRANCH  15  16
ATOM     16  C   UNL     1      28.468  29.128  20.919  1.00  0.00     0.184 C 
ATOM     17  C   UNL     1      29.065  29.796  22.106  1.00  0.00     0.178 C 
ATOM     18  O   UNL     1      30.418  29.948  22.129  1.00  0.00    -0.341 OA
ATOM     19  C   UNL     1      31.081  29.528  20.963  1.00  0.00     0.281 C 
ATOM     20  C   UNL     1      29.293  28.045  20.299  1.00  0.00     0.180 C 
ATOM     21  C   UNL     1      30.741  28.071  20.807  1.00  0.00     0.202 C 
BRANCH  17  22
ATOM     22  C   UNL     1      28.634  29.154  23.415  1.00  0.00     0.191 C 
BRANCH  22  23
ATOM     23  O   UNL     1      29.795  28.926  24.152  1.00  0.00    -0.394 OA
ATOM     24  H   UNL     1      30.440  28.343  23.652  1.00  0.00     0.210 HD
ENDBRANCH  22  23
ENDBRANCH  17  22
BRANCH  19  25
ATOM     25  O   UNL     1      32.410  29.810  21.127  1.00  0.00    -0.350 OA
BRANCH  25  26
ATOM     26  C   UNL     1      32.702  30.506  22.284  1.00  0.00     0.169 C 
BRANCH  26  27
ATOM     27  C   UNL     1      33.299  31.862  22.093  1.00  0.00     0.119 C 
BRANCH  27  28
ATOM     28  N   UNL     1      32.281  32.851  21.860  1.00  0.00    -0.092 NA
ATOM     29  N   UNL     1      32.151  33.298  20.710  1.00  0.00     0.001 N 
ATOM     30  N   UNL     1      31.735  33.831  19.681  1.00  0.00    -0.003 NA
ENDBRANCH  27  28
ENDBRANCH  26  27
ENDBRANCH  25  26
ENDBRANCH  19  25
BRANCH  20  31
ATOM     31  O   UNL     1      28.755  26.781  20.415  1.00  0.00    -0.387 OA
ATOM     32  H   UNL     1      28.107  26.601  19.702  1.00  0.00     0.211 HD
ENDBRANCH  20  31
BRANCH  21  33
ATOM     33  O   UNL     1      31.604  27.411  19.971  1.00  0.00    -0.385 OA
ATOM     34  H   UNL     1      31.385  27.546  19.009  1.00  0.00     0.211 HD
ENDBRANCH  21  33
ENDBRANCH  15  16
ENDBRANCH  10  15
BRANCH  12  35
ATOM     35  O   UNL     1      27.328  27.790  17.596  1.00  0.00    -0.385 OA
ATOM     36  H   UNL     1      28.049  27.410  18.164  1.00  0.00     0.211 HD
ENDBRANCH  12  35
BRANCH  13  37
ATOM     37  O   UNL     1      25.669  30.827  17.149  1.00  0.00    -0.387 OA
ATOM     38  H   UNL     1      25.876  31.720  16.789  1.00  0.00     0.211 HD
ENDBRANCH  13  37
BRANCH  14  39
ATOM     39  O   UNL     1      27.543  32.146  16.347  1.00  0.00    -0.387 OA
ATOM     40  H   UNL     1      28.289  32.610  15.855  1.00  0.00     0.211 HD
ENDBRANCH  14  39
ENDBRANCH   8   9
ENDBRANCH   7   8
ENDBRANCH   1   7
BRANCH   1  41
ATOM     41  C   UNL     1      30.397  34.027  13.760  1.00  0.00     0.364 C 
ATOM     42  O   UNL     1      29.326  34.256  13.167  1.00  0.00    -0.246 OA
BRANCH  41  43
ATOM     43  O   UNL     1      31.548  34.496  13.099  1.00  0.00    -0.477 OA
ATOM     44  H   UNL     1      31.474  35.061  12.264  1.00  0.00     0.296 HD
ENDBRANCH  41  43
ENDBRANCH   1  41
BRANCH   3  45
ATOM     45  O   UNL     1      32.769  35.093  17.286  1.00  0.00    -0.391 OA
ATOM     46  H   UNL     1      33.697  34.854  17.009  1.00  0.00     0.211 HD
ENDBRANCH   3  45
BRANCH   5  47
ATOM     47  C   UNL     1      28.237  35.568  16.889  1.00  0.00     0.176 C 
BRANCH  47  48
ATOM     48  O   UNL     1      27.963  36.930  16.791  1.00  0.00    -0.388 OA
ATOM     49  H   UNL     1      28.159  37.248  15.881  1.00  0.00     0.211 HD
ENDBRANCH  47  48
BRANCH  47  50
ATOM     50  C   UNL     1      28.690  35.279  18.275  1.00  0.00     0.165 C 
BRANCH  50  51
ATOM     51  O   UNL     1      29.031  33.931  18.372  1.00  0.00    -0.388 OA
ATOM     52  H   UNL     1      29.038  33.502  17.482  1.00  0.00     0.211 HD
ENDBRANCH  50  51
BRANCH  50  53
ATOM     53  C   UNL     1      27.669  35.572  19.343  1.00  0.00     0.154 C 
BRANCH  53  54
ATOM     54  N   UNL     1      26.318  35.382  18.905  1.00  0.00    -0.319 N 
ATOM     55  C   UNL     1      25.673  34.146  18.776  1.00  0.00     0.407 C 
ATOM     56  H   UNL     1      25.761  36.254  18.655  1.00  0.00     0.167 HD
ATOM     57  O   UNL     1      26.296  33.101  19.060  1.00  0.00    -0.225 OA
BRANCH  55  58
ATOM     58  O   UNL     1      24.366  34.106  18.340  1.00  0.00    -0.443 OA
BRANCH  58  59
ATOM     59  C   UNL     1      23.764  35.100  17.562  1.00  0.00     0.294 C 
BRANCH  59  60
ATOM     60  C   UNL     1      24.484  35.214  16.277  1.00  0.00     0.120 A 
ATOM     61  C   UNL     1      24.661  34.234  15.351  1.00  0.00     0.138 A 
ATOM     62  N   UNL     1      25.080  36.325  15.823  1.00  0.00    -0.132 NA
ATOM     63  N   UNL     1      25.368  34.771  14.342  1.00  0.00    -0.248 N 
ATOM     64  N   UNL     1      25.617  36.031  14.635  1.00  0.00    -0.067 NA
BRANCH  63  65
ATOM     65  C   UNL     1      25.776  34.072  13.150  1.00  0.00     0.182 C 
BRANCH  65  66
ATOM     66  C   UNL     1      25.124  34.754  11.941  1.00  0.00    -0.016 A 
ATOM     67  C   UNL     1      25.802  35.381  11.001  1.00  0.00     0.017 A 
ATOM     68  C   UNL     1      23.735  34.697  11.850  1.00  0.00     0.070 A 
ATOM     69  C   UNL     1      25.163  35.979   9.930  1.00  0.00     0.065 A 
ATOM     70  S   UNL     1      23.414  35.601  10.322  1.00  0.00    -0.152 S 
ENDBRANCH  65  66
ENDBRANCH  63  65
ENDBRANCH  59  60
ENDBRANCH  58  59
ENDBRANCH  55  58
ENDBRANCH  53  54
ENDBRANCH  50  53
ENDBRANCH  47  50
ENDBRANCH   5  47
BRANCH   4  71
ATOM     71  N   UNL     1      30.679  37.208  16.210  1.00  0.00    -0.348 N 
ATOM     72  C   UNL     1      31.085  38.196  17.145  1.00  0.00     0.217 C 
ATOM     73  H   UNL     1      30.377  37.539  15.267  1.00  0.00     0.163 HD
ATOM     74  C   UNL     1      31.097  39.659  16.837  1.00  0.00     0.114 C 
ATOM     75  O   UNL     1      31.444  37.759  18.277  1.00  0.00    -0.275 OA
ENDBRANCH   4  71
TORSDOF 31
BEGIN_RES LYS A 131
REMARK  4 active torsions:
REMARK  status: ('A' for Active; 'I' for Inactive)
REMARK    1  A    between atoms: CA   and  CB  
REMARK    2  A    between atoms: CB   and  CG  
REMARK    3  A    between atoms: CG   and  CD  
REMARK    4  A    between atoms: CD   and  CE  
ROOT
ATOM      1  CA  LYS A 131      29.867  25.555  16.977  1.00 20.52     0.186 C 
ENDROOT
BRANCH   1   2
ATOM      2  CB  LYS A 131      28.345  25.722  17.026  1.00 20.94     0.034 C 
BRANCH   2   3
ATOM      3  CG  LYS A 131      27.599  24.456  16.633  1.00 22.96     0.005 C 
BRANCH   3   4
ATOM      4  CD  LYS A 131      26.927  23.806  17.810  1.00 24.33     0.041 C 
BRANCH   4   5
ATOM      5  CE  LYS A 131      25.441  23.631  17.516  1.00 26.91     0.338 C 
ATOM      6  NZ  LYS A 131      24.771  24.950  17.426  1.00 27.40     0.618 N 
ENDBRANCH   4   5
ENDBRANCH   3   4
ENDBRANCH   2   3
ENDBRANCH   1   2
END_RES LYS A 131
BEGIN_RES LYS A 135
REMARK  4 active torsions:
REMARK  status: ('A' for Active; 'I' for Inactive)
REMARK    5  A    between atoms: CA   and  CB  
REMARK    6  A    between atoms: CB   and  CG  
REMARK    7  A    between atoms: CG   and  CD  
REMARK    8  A    between atoms: CD   and  CE  
ROOT
ATOM      7  CA  LYS A 135      33.193  34.663   9.290  1.00 25.02     0.186 C 
ENDROOT
BRANCH   7   8
ATOM      8  CB  LYS A 135      32.060  35.360  10.034  1.00 26.63     0.034 C 
BRANCH   8   9
ATOM      9  CG  LYS A 135      30.705  34.754   9.773  1.00 29.45     0.005 C 
BRANCH   9  10
ATOM     10  CD  LYS A 135      30.534  34.440   8.295  1.00 32.00     0.041 C 
BRANCH  10  11
ATOM     11  CE  LYS A 135      29.411  35.268   7.701  1.00 34.25     0.338 C 
ATOM     12  NZ  LYS A 135      28.080  34.723   8.088  1.00 35.99     0.618 N 
ENDBRANCH  10  11
ENDBRANCH   9  10
ENDBRANCH   8   9
ENDBRANCH   7   8
END_RES LYS A 135
