REMARK VINA RESULT:    -4.927      3.759      7.787
REMARK INTER + INTRA:         -24.178
REMARK INTER:                 -10.327
REMARK INTRA:                 -13.851
REMARK UNBOUND:               -11.187
REMARK SMILES CC(=O)N[C@@H]1[C@@H](O)C[C@](OC[C@H]2O[C@@H](O[C@H]3[C@H](O)[C@@H](O)[C@H](OCCN=[N+]=[N-])O[C@@H]3CO)[C@H](O)[C@@H](O)[C@H]2O)(C(=O)O)O[C@H]1C(O)[C@H](O)CNC(=O)OCc1cn(-c2ccc(S(=O)(=O)Nc3nccs3)cc2)nn1
REMARK SMILES IDX 43 1 42 2 9 3 8 4 41 5 6 6 5 7 10 8 11 9 12 10 14 11 13 12
REMARK SMILES IDX 32 13 34 14 36 15 15 16 16 17 29 18 28 19 21 20 17 21 19 22
REMARK SMILES IDX 30 23 31 24 22 26 23 27 24 28 25 29 26 30 27 31 18 32 20 34
REMARK SMILES IDX 33 36 35 38 37 40 38 42 39 43 40 44 7 46 4 48 2 49 1 51 3 52
REMARK SMILES IDX 44 53 45 55 46 56 47 58 48 59 49 60 50 62 51 63 52 64 53 65
REMARK SMILES IDX 54 66 72 67 55 68 71 69 56 70 57 71 70 72 58 73 69 74 59 75
REMARK SMILES IDX 60 76 61 77 62 78 63 79 64 81 65 82 68 83 66 84 67 85
REMARK H PARENT 31 25 18 33 20 35 33 37 35 39 37 41 40 45 7 47 4 50 44 54
REMARK H PARENT 46 57 48 61 63 80
REMARK Flexibility Score: inf
ROOT
ATOM      1  C   UNL     1      29.336  34.314  16.689  1.00  0.00     0.176 C 
ENDROOT
BRANCH   1   2
ATOM      2  C   UNL     1      29.466  34.372  15.204  1.00  0.00     0.178 C 
ATOM      3  C   UNL     1      30.848  35.533  13.718  1.00  0.00     0.272 C 
ATOM      4  C   UNL     1      30.001  34.653  12.774  1.00  0.00     0.113 C 
ATOM      5  O   UNL     1      30.343  35.480  14.987  1.00  0.00    -0.332 OA
ATOM      6  C   UNL     1      28.542  34.804  12.983  1.00  0.00     0.145 C 
ATOM      7  C   UNL     1      28.207  34.774  14.476  1.00  0.00     0.142 C 
BRANCH   3   8
ATOM      8  O   UNL     1      30.821  36.838  13.293  1.00  0.00    -0.338 OA
BRANCH   8   9
ATOM      9  C   UNL     1      31.181  37.766  14.237  1.00  0.00     0.199 C 
BRANCH   9  10
ATOM     10  C   UNL     1      30.168  38.875  14.404  1.00  0.00     0.179 C 
ATOM     11  C   UNL     1      28.413  39.981  13.581  1.00  0.00     0.282 C 
ATOM     12  O   UNL     1      29.064  38.725  13.572  1.00  0.00    -0.341 OA
ATOM     13  C   UNL     1      27.621  40.037  14.865  1.00  0.00     0.202 C 
ATOM     14  C   UNL     1      28.110  38.949  15.826  1.00  0.00     0.179 C 
ATOM     15  C   UNL     1      29.627  38.910  15.824  1.00  0.00     0.177 C 
BRANCH  11  16
ATOM     16  O   UNL     1      27.608  40.166  12.509  1.00  0.00    -0.341 OA
BRANCH  16  17
ATOM     17  C   UNL     1      27.251  39.023  11.817  1.00  0.00     0.184 C 
ATOM     18  C   UNL     1      27.500  38.997  10.364  1.00  0.00     0.178 C 
ATOM     19  O   UNL     1      26.534  38.137   9.771  1.00  0.00    -0.341 OA
ATOM     20  C   UNL     1      25.288  38.774   9.693  1.00  0.00     0.281 C 
ATOM     21  C   UNL     1      25.812  38.627  12.122  1.00  0.00     0.180 C 
ATOM     22  C   UNL     1      24.837  39.184  11.083  1.00  0.00     0.202 C 
BRANCH  18  23
ATOM     23  C   UNL     1      28.825  38.355   9.950  1.00  0.00     0.191 C 
BRANCH  23  24
ATOM     24  O   UNL     1      29.658  38.061  10.987  1.00  0.00    -0.394 OA
ATOM     25  H   UNL     1      29.683  37.089  11.138  1.00  0.00     0.210 HD
ENDBRANCH  23  24
ENDBRANCH  18  23
BRANCH  20  26
ATOM     26  O   UNL     1      24.394  37.889   9.132  1.00  0.00    -0.350 OA
BRANCH  26  27
ATOM     27  C   UNL     1      23.152  37.853   9.712  1.00  0.00     0.169 C 
BRANCH  27  28
ATOM     28  C   UNL     1      22.238  36.803   9.126  1.00  0.00     0.119 C 
BRANCH  28  29
ATOM     29  N   UNL     1      22.056  35.786  10.128  1.00  0.00    -0.092 NA
ATOM     30  N   UNL     1      22.971  35.535  10.908  1.00  0.00     0.001 N 
ATOM     31  N   UNL     1      23.912  34.941  11.438  1.00  0.00    -0.003 NA
ENDBRANCH  28  29
ENDBRANCH  27  28
ENDBRANCH  26  27
ENDBRANCH  20  26
BRANCH  21  32
ATOM     32  O   UNL     1      25.662  37.242  12.105  1.00  0.00    -0.387 OA
ATOM     33  H   UNL     1      24.812  36.978  11.682  1.00  0.00     0.211 HD
ENDBRANCH  21  32
BRANCH  22  34
ATOM     34  O   UNL     1      24.677  40.556  11.221  1.00  0.00    -0.385 OA
ATOM     35  H   UNL     1      24.442  40.725  12.161  1.00  0.00     0.211 HD
ENDBRANCH  22  34
ENDBRANCH  16  17
ENDBRANCH  11  16
BRANCH  13  36
ATOM     36  O   UNL     1      27.855  41.237  15.583  1.00  0.00    -0.385 OA
ATOM     37  H   UNL     1      27.317  41.969  15.247  1.00  0.00     0.211 HD
ENDBRANCH  13  36
BRANCH  14  38
ATOM     38  O   UNL     1      27.539  37.724  15.511  1.00  0.00    -0.387 OA
ATOM     39  H   UNL     1      26.556  37.724  15.652  1.00  0.00     0.211 HD
ENDBRANCH  14  38
BRANCH  15  40
ATOM     40  O   UNL     1      30.024  37.801  16.553  1.00  0.00    -0.387 OA
ATOM     41  H   UNL     1      29.584  36.971  16.306  1.00  0.00     0.211 HD
ENDBRANCH  15  40
ENDBRANCH   9  10
ENDBRANCH   8   9
ENDBRANCH   3   8
BRANCH   3  42
ATOM     42  C   UNL     1      32.200  34.973  13.659  1.00  0.00     0.364 C 
ATOM     43  O   UNL     1      32.795  34.531  14.694  1.00  0.00    -0.246 OA
BRANCH  42  44
ATOM     44  O   UNL     1      32.923  34.882  12.482  1.00  0.00    -0.477 OA
ATOM     45  H   UNL     1      33.826  35.367  12.402  1.00  0.00     0.296 HD
ENDBRANCH  42  44
ENDBRANCH   3  42
BRANCH   6  46
ATOM     46  O   UNL     1      28.015  35.946  12.380  1.00  0.00    -0.391 OA
ATOM     47  H   UNL     1      28.484  36.744  12.722  1.00  0.00     0.211 HD
ENDBRANCH   6  46
BRANCH   7  48
ATOM     48  N   UNL     1      27.067  33.960  14.705  1.00  0.00    -0.348 N 
ATOM     49  C   UNL     1      25.766  34.539  14.724  1.00  0.00     0.217 C 
ATOM     50  H   UNL     1      27.140  32.936  14.860  1.00  0.00     0.163 HD
ATOM     51  C   UNL     1      24.535  33.766  14.952  1.00  0.00     0.114 C 
ATOM     52  O   UNL     1      25.648  35.798  14.534  1.00  0.00    -0.275 OA
ENDBRANCH   7  48
ENDBRANCH   1   2
BRANCH   1  53
ATOM     53  O   UNL     1      28.468  35.373  17.102  1.00  0.00    -0.388 OA
ATOM     54  H   UNL     1      28.617  36.172  16.564  1.00  0.00     0.211 HD
ENDBRANCH   1  53
BRANCH   1  55
ATOM     55  C   UNL     1      30.607  34.398  17.484  1.00  0.00     0.165 C 
BRANCH  55  56
ATOM     56  O   UNL     1      31.396  33.311  16.974  1.00  0.00    -0.388 OA
ATOM     57  H   UNL     1      31.183  33.187  16.013  1.00  0.00     0.211 HD
ENDBRANCH  55  56
BRANCH  55  58
ATOM     58  C   UNL     1      30.389  34.006  18.940  1.00  0.00     0.154 C 
BRANCH  58  59
ATOM     59  N   UNL     1      29.255  33.121  18.969  1.00  0.00    -0.319 N 
ATOM     60  C   UNL     1      29.362  31.714  19.131  1.00  0.00     0.407 C 
ATOM     61  H   UNL     1      28.259  33.506  18.869  1.00  0.00     0.167 HD
ATOM     62  O   UNL     1      30.466  31.175  19.276  1.00  0.00    -0.225 OA
BRANCH  60  63
ATOM     63  O   UNL     1      28.237  30.898  19.129  1.00  0.00    -0.443 OA
BRANCH  63  64
ATOM     64  C   UNL     1      27.987  29.839  18.246  1.00  0.00     0.294 C 
BRANCH  64  65
ATOM     65  C   UNL     1      27.315  30.216  16.991  1.00  0.00     0.121 A 
ATOM     66  C   UNL     1      26.023  29.847  16.602  1.00  0.00     0.144 A 
ATOM     67  N   UNL     1      27.762  30.967  15.987  1.00  0.00    -0.131 NA
ATOM     68  N   UNL     1      25.736  30.383  15.388  1.00  0.00    -0.220 N 
ATOM     69  N   UNL     1      26.815  31.059  15.039  1.00  0.00    -0.062 NA
BRANCH  68  70
ATOM     70  C   UNL     1      24.494  30.216  14.682  1.00  0.00     0.066 A 
ATOM     71  C   UNL     1      24.410  30.278  13.321  1.00  0.00     0.030 A 
ATOM     72  C   UNL     1      23.346  29.997  15.423  1.00  0.00     0.030 A 
ATOM     73  C   UNL     1      23.179  30.123  12.685  1.00  0.00     0.024 A 
ATOM     74  C   UNL     1      22.110  29.838  14.843  1.00  0.00     0.024 A 
ATOM     75  C   UNL     1      22.062  29.907  13.457  1.00  0.00     0.088 A 
BRANCH  75  76
ATOM     76  S   UNL     1      20.504  29.716  12.691  1.00  0.00     0.263 S 
ATOM     77  O   UNL     1      19.514  29.302  13.763  1.00  0.00    -0.201 OA
ATOM     78  O   UNL     1      20.630  28.571  11.726  1.00  0.00    -0.201 OA
BRANCH  76  79
ATOM     79  N   UNL     1      20.051  31.163  11.917  1.00  0.00    -0.255 N 
ATOM     80  H   UNL     1      19.693  31.110  10.947  1.00  0.00     0.182 HD
BRANCH  79  81
ATOM     81  C   UNL     1      20.167  32.370  12.587  1.00  0.00     0.196 A 
ATOM     82  N   UNL     1      21.052  33.238  12.890  1.00  0.00    -0.228 NA
ATOM     83  S   UNL     1      18.688  33.164  13.380  1.00  0.00    -0.105 S 
ATOM     84  C   UNL     1      20.859  34.315  13.558  1.00  0.00     0.125 A 
ATOM     85  C   UNL     1      19.603  34.612  14.013  1.00  0.00     0.089 A 
ENDBRANCH  79  81
ENDBRANCH  76  79
ENDBRANCH  75  76
ENDBRANCH  68  70
ENDBRANCH  64  65
ENDBRANCH  63  64
ENDBRANCH  60  63
ENDBRANCH  58  59
ENDBRANCH  55  58
ENDBRANCH   1  55
TORSDOF 33
BEGIN_RES LYS A 131
REMARK  4 active torsions:
REMARK  status: ('A' for Active; 'I' for Inactive)
REMARK    1  A    between atoms: CA   and  CB  
REMARK    2  A    between atoms: CB   and  CG  
REMARK    3  A    between atoms: CG   and  CD  
REMARK    4  A    between atoms: CD   and  CE  
ROOT
ATOM      1  CA  LYS A 131      29.867  25.555  16.977  1.00 20.52     0.186 C 
ENDROOT
BRANCH   1   2
ATOM      2  CB  LYS A 131      28.345  25.722  17.026  1.00 20.94     0.034 C 
BRANCH   2   3
ATOM      3  CG  LYS A 131      27.602  24.398  16.940  1.00 22.96     0.005 C 
BRANCH   3   4
ATOM      4  CD  LYS A 131      26.157  24.532  17.330  1.00 24.33     0.041 C 
BRANCH   4   5
ATOM      5  CE  LYS A 131      25.709  23.274  18.068  1.00 26.91     0.338 C 
ATOM      6  NZ  LYS A 131      24.523  22.680  17.407  1.00 27.40     0.618 N 
ENDBRANCH   4   5
ENDBRANCH   3   4
ENDBRANCH   2   3
ENDBRANCH   1   2
END_RES LYS A 131
BEGIN_RES LYS A 135
REMARK  4 active torsions:
REMARK  status: ('A' for Active; 'I' for Inactive)
REMARK    5  A    between atoms: CA   and  CB  
REMARK    6  A    between atoms: CB   and  CG  
REMARK    7  A    between atoms: CG   and  CD  
REMARK    8  A    between atoms: CD   and  CE  
ROOT
ATOM      7  CA  LYS A 135      33.193  34.663   9.290  1.00 25.02     0.186 C 
ENDROOT
BRANCH   7   8
ATOM      8  CB  LYS A 135      32.060  35.360  10.034  1.00 26.63     0.034 C 
BRANCH   8   9
ATOM      9  CG  LYS A 135      30.801  35.503   9.218  1.00 29.45     0.005 C 
BRANCH   9  10
ATOM     10  CD  LYS A 135      30.086  34.166   9.095  1.00 32.00     0.041 C 
BRANCH  10  11
ATOM     11  CE  LYS A 135      28.630  34.373   8.725  1.00 34.25     0.338 C 
ATOM     12  NZ  LYS A 135      27.730  33.631   9.650  1.00 35.99     0.618 N 
ENDBRANCH  10  11
ENDBRANCH   9  10
ENDBRANCH   8   9
ENDBRANCH   7   8
END_RES LYS A 135
