REMARK VINA RESULT:    -3.060      3.059      6.635
REMARK INTER + INTRA:         -22.333
REMARK INTER:                 -12.910
REMARK INTRA:                  -9.424
REMARK UNBOUND:               -13.729
REMARK SMILES CCOC(CCn1cc(COC(=O)NC[C@@H](O)C(O)[C@@H]2O[C@@](OC[C@H]3O[C@@H](O[C@H]4[C@H](O)[C@@H](O)[C@H](OCCN=[N+]=[N-])O[C@@H]4CO)[C@H](O)[C@@H](O)[C@H]3O)(C(=O)O)C[C@H](O)[C@H]2NC(C)=O)nn1)OCC
REMARK SMILES IDX 18 1 20 2 22 3 54 4 21 5 55 6 57 7 23 8 24 9 25 10 27 11
REMARK SMILES IDX 26 12 45 13 47 14 49 15 28 16 29 17 42 18 41 19 34 20 30 21
REMARK SMILES IDX 32 22 43 23 44 24 35 26 36 27 37 28 38 29 39 30 40 31 31 32
REMARK SMILES IDX 33 34 46 36 48 38 50 40 51 42 52 43 53 44 56 46 58 48 59 49
REMARK SMILES IDX 60 51 61 52 19 53 16 55 17 56 15 58 14 59 12 60 13 62 11 63
REMARK SMILES IDX 10 64 9 65 8 66 62 67 7 68 63 69 6 70 5 71 4 72 3 73 2 74
REMARK SMILES IDX 1 75 64 76 65 77 66 78
REMARK H PARENT 44 25 31 33 33 35 46 37 48 39 50 41 53 45 56 47 58 50 19 54
REMARK H PARENT 17 57 14 61
REMARK Flexibility Score: inf
ROOT
ATOM      1  C   UNL     1      23.244  34.382  12.488  1.00  0.00     0.176 C 
ENDROOT
BRANCH   1   2
ATOM      2  C   UNL     1      23.987  35.550  11.912  1.00  0.00     0.178 C 
ATOM      3  C   UNL     1      24.712  36.528   9.945  1.00  0.00     0.272 C 
ATOM      4  C   UNL     1      25.116  37.569  10.927  1.00  0.00     0.113 C 
ATOM      5  O   UNL     1      24.094  35.404  10.538  1.00  0.00    -0.332 OA
ATOM      6  C   UNL     1      25.805  37.083  12.155  1.00  0.00     0.145 C 
ATOM      7  C   UNL     1      25.434  35.616  12.411  1.00  0.00     0.142 C 
BRANCH   3   8
ATOM      8  O   UNL     1      25.620  36.083   9.072  1.00  0.00    -0.338 OA
BRANCH   8   9
ATOM      9  C   UNL     1      26.062  34.813   9.085  1.00  0.00     0.199 C 
BRANCH   9  10
ATOM     10  C   UNL     1      27.505  34.729   8.640  1.00  0.00     0.179 C 
ATOM     11  C   UNL     1      29.142  35.623   7.390  1.00  0.00     0.282 C 
ATOM     12  O   UNL     1      28.028  35.936   8.214  1.00  0.00    -0.341 OA
ATOM     13  C   UNL     1      30.229  35.116   8.262  1.00  0.00     0.202 C 
ATOM     14  C   UNL     1      29.739  33.920   9.045  1.00  0.00     0.179 C 
ATOM     15  C   UNL     1      28.407  34.130   9.714  1.00  0.00     0.177 C 
BRANCH  11  16
ATOM     16  O   UNL     1      29.467  36.750   6.627  1.00  0.00    -0.341 OA
BRANCH  16  17
ATOM     17  C   UNL     1      29.141  37.868   7.328  1.00  0.00     0.184 C 
ATOM     18  C   UNL     1      28.308  38.904   6.676  1.00  0.00     0.178 C 
ATOM     19  O   UNL     1      27.787  39.734   7.678  1.00  0.00    -0.341 OA
ATOM     20  C   UNL     1      28.813  40.480   8.276  1.00  0.00     0.281 C 
ATOM     21  C   UNL     1      30.430  38.635   7.764  1.00  0.00     0.180 C 
ATOM     22  C   UNL     1      29.911  39.601   8.838  1.00  0.00     0.202 C 
BRANCH  18  23
ATOM     23  C   UNL     1      27.159  38.296   5.928  1.00  0.00     0.191 C 
BRANCH  23  24
ATOM     24  O   UNL     1      26.311  37.567   6.761  1.00  0.00    -0.394 OA
ATOM     25  H   UNL     1      25.910  36.799   6.317  1.00  0.00     0.210 HD
ENDBRANCH  23  24
ENDBRANCH  18  23
BRANCH  20  26
ATOM     26  O   UNL     1      28.238  41.169   9.329  1.00  0.00    -0.350 OA
BRANCH  26  27
ATOM     27  C   UNL     1      27.365  40.474  10.110  1.00  0.00     0.169 C 
BRANCH  27  28
ATOM     28  C   UNL     1      27.564  40.825  11.561  1.00  0.00     0.119 C 
BRANCH  28  29
ATOM     29  N   UNL     1      28.537  39.906  12.147  1.00  0.00    -0.092 NA
ATOM     30  N   UNL     1      29.635  40.426  12.436  1.00  0.00     0.001 N 
ATOM     31  N   UNL     1      30.853  40.621  12.432  1.00  0.00    -0.003 NA
ENDBRANCH  28  29
ENDBRANCH  27  28
ENDBRANCH  26  27
ENDBRANCH  20  26
BRANCH  21  32
ATOM     32  O   UNL     1      31.361  37.780   8.291  1.00  0.00    -0.387 OA
ATOM     33  H   UNL     1      31.802  37.218   7.608  1.00  0.00     0.211 HD
ENDBRANCH  21  32
BRANCH  22  34
ATOM     34  O   UNL     1      30.918  40.392   9.322  1.00  0.00    -0.385 OA
ATOM     35  H   UNL     1      30.485  41.102   9.891  1.00  0.00     0.211 HD
ENDBRANCH  22  34
ENDBRANCH  16  17
ENDBRANCH  11  16
BRANCH  13  36
ATOM     36  O   UNL     1      31.319  34.654   7.507  1.00  0.00    -0.385 OA
ATOM     37  H   UNL     1      31.181  33.733   7.194  1.00  0.00     0.211 HD
ENDBRANCH  13  36
BRANCH  14  38
ATOM     38  O   UNL     1      30.705  33.442   9.923  1.00  0.00    -0.387 OA
ATOM     39  H   UNL     1      30.506  32.510  10.206  1.00  0.00     0.211 HD
ENDBRANCH  14  38
BRANCH  15  40
ATOM     40  O   UNL     1      28.481  35.000  10.791  1.00  0.00    -0.387 OA
ATOM     41  H   UNL     1      28.062  35.864  10.577  1.00  0.00     0.211 HD
ENDBRANCH  15  40
ENDBRANCH   9  10
ENDBRANCH   8   9
ENDBRANCH   3   8
BRANCH   3  42
ATOM     42  C   UNL     1      23.605  37.126   9.132  1.00  0.00     0.364 C 
ATOM     43  O   UNL     1      23.669  37.200   7.891  1.00  0.00    -0.246 OA
BRANCH  42  44
ATOM     44  O   UNL     1      22.454  37.625   9.733  1.00  0.00    -0.477 OA
ATOM     45  H   UNL     1      21.557  37.397   9.318  1.00  0.00     0.296 HD
ENDBRANCH  42  44
ENDBRANCH   3  42
BRANCH   6  46
ATOM     46  O   UNL     1      27.167  37.253  12.161  1.00  0.00    -0.391 OA
ATOM     47  H   UNL     1      27.465  38.163  11.912  1.00  0.00     0.211 HD
ENDBRANCH   6  46
BRANCH   7  48
ATOM     48  N   UNL     1      25.580  35.250  13.782  1.00  0.00    -0.348 N 
ATOM     49  C   UNL     1      26.818  34.684  14.200  1.00  0.00     0.217 C 
ATOM     50  H   UNL     1      24.832  35.376  14.491  1.00  0.00     0.163 HD
ATOM     51  C   UNL     1      27.000  34.291  15.621  1.00  0.00     0.114 C 
ATOM     52  O   UNL     1      27.778  34.507  13.376  1.00  0.00    -0.275 OA
ENDBRANCH   7  48
ENDBRANCH   1   2
BRANCH   1  53
ATOM     53  O   UNL     1      22.827  34.769  13.774  1.00  0.00    -0.388 OA
ATOM     54  H   UNL     1      23.545  34.579  14.446  1.00  0.00     0.211 HD
ENDBRANCH   1  53
BRANCH   1  55
ATOM     55  C   UNL     1      21.987  34.178  11.665  1.00  0.00     0.165 C 
BRANCH  55  56
ATOM     56  O   UNL     1      21.401  35.371  11.354  1.00  0.00    -0.388 OA
ATOM     57  H   UNL     1      21.338  35.561  10.385  1.00  0.00     0.211 HD
ENDBRANCH  55  56
BRANCH  55  58
ATOM     58  C   UNL     1      21.023  33.285  12.394  1.00  0.00     0.154 C 
BRANCH  58  59
ATOM     59  N   UNL     1      21.513  31.979  12.724  1.00  0.00    -0.319 N 
ATOM     60  C   UNL     1      20.822  30.776  12.509  1.00  0.00     0.407 C 
ATOM     61  H   UNL     1      22.481  31.952  13.169  1.00  0.00     0.167 HD
ATOM     62  O   UNL     1      19.694  30.723  11.990  1.00  0.00    -0.225 OA
BRANCH  60  63
ATOM     63  O   UNL     1      21.399  29.543  12.884  1.00  0.00    -0.443 OA
BRANCH  63  64
ATOM     64  C   UNL     1      22.737  29.245  12.458  1.00  0.00     0.294 C 
BRANCH  64  65
ATOM     65  C   UNL     1      23.682  29.748  13.488  1.00  0.00     0.120 A 
ATOM     66  C   UNL     1      23.886  29.245  14.751  1.00  0.00     0.138 A 
ATOM     67  N   UNL     1      24.499  30.796  13.360  1.00  0.00    -0.132 NA
ATOM     68  N   UNL     1      24.825  30.020  15.334  1.00  0.00    -0.252 N 
ATOM     69  N   UNL     1      25.175  30.949  14.463  1.00  0.00    -0.067 NA
BRANCH  68  70
ATOM     70  C   UNL     1      25.319  29.820  16.665  1.00  0.00     0.151 C 
BRANCH  70  71
ATOM     71  C   UNL     1      26.102  30.974  17.225  1.00  0.00     0.086 C 
BRANCH  71  72
ATOM     72  C   UNL     1      27.431  30.456  17.772  1.00  0.00     0.251 C 
BRANCH  72  73
ATOM     73  O   UNL     1      27.330  30.491  19.150  1.00  0.00    -0.353 OA
BRANCH  73  74
ATOM     74  C   UNL     1      28.419  29.900  19.776  1.00  0.00     0.160 C 
ATOM     75  C   UNL     1      28.283  28.390  19.820  1.00  0.00     0.035 C 
ENDBRANCH  73  74
ENDBRANCH  72  73
BRANCH  72  76
ATOM     76  O   UNL     1      28.500  31.106  17.233  1.00  0.00    -0.353 OA
BRANCH  76  77
ATOM     77  C   UNL     1      28.856  30.778  15.953  1.00  0.00     0.160 C 
ATOM     78  C   UNL     1      29.828  31.808  15.427  1.00  0.00     0.035 C 
ENDBRANCH  76  77
ENDBRANCH  72  76
ENDBRANCH  71  72
ENDBRANCH  70  71
ENDBRANCH  68  70
ENDBRANCH  64  65
ENDBRANCH  63  64
ENDBRANCH  60  63
ENDBRANCH  58  59
ENDBRANCH  55  58
ENDBRANCH   1  55
TORSDOF 36
BEGIN_RES LYS A 131
REMARK  4 active torsions:
REMARK  status: ('A' for Active; 'I' for Inactive)
REMARK    1  A    between atoms: CA   and  CB  
REMARK    2  A    between atoms: CB   and  CG  
REMARK    3  A    between atoms: CG   and  CD  
REMARK    4  A    between atoms: CD   and  CE  
ROOT
ATOM      1  CA  LYS A 131      29.867  25.555  16.977  1.00 20.52     0.186 C 
ENDROOT
BRANCH   1   2
ATOM      2  CB  LYS A 131      28.345  25.722  17.026  1.00 20.94     0.034 C 
BRANCH   2   3
ATOM      3  CG  LYS A 131      27.600  24.408  16.848  1.00 22.96     0.005 C 
BRANCH   3   4
ATOM      4  CD  LYS A 131      26.230  24.446  17.465  1.00 24.33     0.041 C 
BRANCH   4   5
ATOM      5  CE  LYS A 131      26.002  25.805  18.117  1.00 26.91     0.338 C 
ATOM      6  NZ  LYS A 131      24.706  26.378  17.684  1.00 27.40     0.618 N 
ENDBRANCH   4   5
ENDBRANCH   3   4
ENDBRANCH   2   3
ENDBRANCH   1   2
END_RES LYS A 131
BEGIN_RES LYS A 135
REMARK  4 active torsions:
REMARK  status: ('A' for Active; 'I' for Inactive)
REMARK    5  A    between atoms: CA   and  CB  
REMARK    6  A    between atoms: CB   and  CG  
REMARK    7  A    between atoms: CG   and  CD  
REMARK    8  A    between atoms: CD   and  CE  
ROOT
ATOM      7  CA  LYS A 135      33.193  34.663   9.290  1.00 25.02     0.186 C 
ENDROOT
BRANCH   7   8
ATOM      8  CB  LYS A 135      32.060  35.360  10.034  1.00 26.63     0.034 C 
BRANCH   8   9
ATOM      9  CG  LYS A 135      32.501  36.036  11.306  1.00 29.45     0.005 C 
BRANCH   9  10
ATOM     10  CD  LYS A 135      31.585  37.204  11.639  1.00 32.00     0.041 C 
BRANCH  10  11
ATOM     11  CE  LYS A 135      30.787  36.914  12.896  1.00 34.25     0.338 C 
ATOM     12  NZ  LYS A 135      31.465  37.468  14.101  1.00 35.99     0.618 N 
ENDBRANCH  10  11
ENDBRANCH   9  10
ENDBRANCH   8   9
ENDBRANCH   7   8
END_RES LYS A 135
