REMARK VINA RESULT:    -5.288      3.178      7.142
REMARK INTER + INTRA:         -24.405
REMARK INTER:                 -13.505
REMARK INTRA:                 -10.901
REMARK UNBOUND:               -10.617
REMARK SMILES CC(=O)N[C@@H]1[C@@H](O)C[C@](OC[C@H]2O[C@@H](O[C@H]3[C@H](O)[C@@H](O)[C@H](OCCN=[N+]=[N-])O[C@@H]3CO)[C@H](O)[C@@H](O)[C@H]2O)(C(=O)O)O[C@H]1C(O)[C@H](O)CNC(=O)OCc1cn(-c2ccc(S(=O)(=O)c3ccc(N)cc3)cc2)nn1
REMARK SMILES IDX 43 1 42 2 9 3 8 4 41 5 6 6 5 7 10 8 11 9 12 10 14 11 13 12
REMARK SMILES IDX 32 13 34 14 36 15 15 16 16 17 29 18 28 19 21 20 17 21 19 22
REMARK SMILES IDX 30 23 31 24 22 26 23 27 24 28 25 29 26 30 27 31 18 32 20 34
REMARK SMILES IDX 33 36 35 38 37 40 38 42 39 43 40 44 7 46 4 48 2 49 1 51 3 52
REMARK SMILES IDX 44 53 45 55 46 56 47 58 48 59 49 60 50 62 51 63 52 64 53 65
REMARK SMILES IDX 54 66 73 67 55 68 72 69 56 70 57 71 71 72 58 73 70 74 59 75
REMARK SMILES IDX 60 76 61 77 62 78 63 79 64 80 69 81 65 82 68 83 66 84 67 85
REMARK H PARENT 31 25 18 33 20 35 33 37 35 39 37 41 40 45 7 47 4 50 44 54
REMARK H PARENT 46 57 48 61 67 86 67 87
REMARK Flexibility Score: inf
ROOT
ATOM      1  C   UNL     1      21.718  39.748   8.555  1.00  0.00     0.176 C 
ENDROOT
BRANCH   1   2
ATOM      2  C   UNL     1      21.769  38.307   9.063  1.00  0.00     0.178 C 
ATOM      3  C   UNL     1      23.092  36.413   9.177  1.00  0.00     0.272 C 
ATOM      4  C   UNL     1      21.926  35.557   8.800  1.00  0.00     0.113 C 
ATOM      5  O   UNL     1      22.933  37.718   8.674  1.00  0.00    -0.332 OA
ATOM      6  C   UNL     1      21.045  36.336   7.837  1.00  0.00     0.145 C 
ATOM      7  C   UNL     1      20.538  37.551   8.537  1.00  0.00     0.142 C 
BRANCH   3   8
ATOM      8  O   UNL     1      24.321  35.998   8.657  1.00  0.00    -0.338 OA
BRANCH   8   9
ATOM      9  C   UNL     1      25.083  36.957   8.062  1.00  0.00     0.199 C 
BRANCH   9  10
ATOM     10  C   UNL     1      26.379  36.345   7.581  1.00  0.00     0.179 C 
ATOM     11  C   UNL     1      28.516  36.823   6.935  1.00  0.00     0.282 C 
ATOM     12  O   UNL     1      27.344  37.357   7.532  1.00  0.00    -0.341 OA
ATOM     13  C   UNL     1      29.108  35.911   7.972  1.00  0.00     0.202 C 
ATOM     14  C   UNL     1      28.185  34.729   8.167  1.00  0.00     0.179 C 
ATOM     15  C   UNL     1      26.788  35.233   8.485  1.00  0.00     0.177 C 
BRANCH  11  16
ATOM     16  O   UNL     1      29.306  37.875   6.553  1.00  0.00    -0.341 OA
BRANCH  16  17
ATOM     17  C   UNL     1      28.752  39.103   6.986  1.00  0.00     0.184 C 
ATOM     18  C   UNL     1      28.836  40.070   5.848  1.00  0.00     0.178 C 
ATOM     19  O   UNL     1      29.441  41.265   6.133  1.00  0.00    -0.341 OA
ATOM     20  C   UNL     1      30.657  41.225   6.750  1.00  0.00     0.281 C 
ATOM     21  C   UNL     1      29.635  39.527   8.152  1.00  0.00     0.180 C 
ATOM     22  C   UNL     1      30.945  39.959   7.523  1.00  0.00     0.202 C 
BRANCH  18  23
ATOM     23  C   UNL     1      27.378  40.418   5.490  1.00  0.00     0.191 C 
BRANCH  23  24
ATOM     24  O   UNL     1      26.478  39.501   5.972  1.00  0.00    -0.394 OA
ATOM     25  H   UNL     1      26.296  39.569   6.942  1.00  0.00     0.210 HD
ENDBRANCH  23  24
ENDBRANCH  18  23
BRANCH  20  26
ATOM     26  O   UNL     1      30.698  42.269   7.668  1.00  0.00    -0.350 OA
BRANCH  26  27
ATOM     27  C   UNL     1      31.945  42.603   8.122  1.00  0.00     0.169 C 
BRANCH  27  28
ATOM     28  C   UNL     1      31.931  42.872   9.589  1.00  0.00     0.119 C 
BRANCH  28  29
ATOM     29  N   UNL     1      32.446  41.694  10.309  1.00  0.00    -0.092 NA
ATOM     30  N   UNL     1      31.714  41.027  11.038  1.00  0.00     0.001 N 
ATOM     31  N   UNL     1      30.939  40.122  11.395  1.00  0.00    -0.003 NA
ENDBRANCH  28  29
ENDBRANCH  27  28
ENDBRANCH  26  27
ENDBRANCH  20  26
BRANCH  21  32
ATOM     32  O   UNL     1      29.078  40.598   8.809  1.00  0.00    -0.387 OA
ATOM     33  H   UNL     1      29.338  40.594   9.770  1.00  0.00     0.211 HD
ENDBRANCH  21  32
BRANCH  22  34
ATOM     34  O   UNL     1      31.522  38.968   6.763  1.00  0.00    -0.385 OA
ATOM     35  H   UNL     1      31.987  39.319   5.958  1.00  0.00     0.211 HD
ENDBRANCH  22  34
ENDBRANCH  16  17
ENDBRANCH  11  16
BRANCH  13  36
ATOM     36  O   UNL     1      30.402  35.505   7.653  1.00  0.00    -0.385 OA
ATOM     37  H   UNL     1      30.741  34.988   8.451  1.00  0.00     0.211 HD
ENDBRANCH  13  36
BRANCH  14  38
ATOM     38  O   UNL     1      28.601  34.029   9.308  1.00  0.00    -0.387 OA
ATOM     39  H   UNL     1      29.147  34.603   9.877  1.00  0.00     0.211 HD
ENDBRANCH  14  38
BRANCH  15  40
ATOM     40  O   UNL     1      26.680  35.583   9.823  1.00  0.00    -0.387 OA
ATOM     41  H   UNL     1      25.760  35.437  10.142  1.00  0.00     0.211 HD
ENDBRANCH  15  40
ENDBRANCH   9  10
ENDBRANCH   8   9
ENDBRANCH   3   8
BRANCH   3  42
ATOM     42  C   UNL     1      23.286  36.538  10.646  1.00  0.00     0.364 C 
ATOM     43  O   UNL     1      22.531  36.057  11.522  1.00  0.00    -0.246 OA
BRANCH  42  44
ATOM     44  O   UNL     1      24.383  37.240  11.117  1.00  0.00    -0.477 OA
ATOM     45  H   UNL     1      24.494  38.251  10.944  1.00  0.00     0.296 HD
ENDBRANCH  42  44
ENDBRANCH   3  42
BRANCH   6  46
ATOM     46  O   UNL     1      21.889  36.762   6.806  1.00  0.00    -0.391 OA
ATOM     47  H   UNL     1      21.389  36.916   5.959  1.00  0.00     0.211 HD
ENDBRANCH   6  46
BRANCH   7  48
ATOM     48  N   UNL     1      19.619  37.312   9.603  1.00  0.00    -0.348 N 
ATOM     49  C   UNL     1      18.333  37.915   9.706  1.00  0.00     0.217 C 
ATOM     50  H   UNL     1      19.890  36.647  10.367  1.00  0.00     0.163 HD
ATOM     51  C   UNL     1      17.466  37.584  10.864  1.00  0.00     0.114 C 
ATOM     52  O   UNL     1      17.987  38.700   8.813  1.00  0.00    -0.275 OA
ENDBRANCH   7  48
ENDBRANCH   1   2
BRANCH   1  53
ATOM     53  O   UNL     1      20.522  40.005   7.905  1.00  0.00    -0.388 OA
ATOM     54  H   UNL     1      20.444  40.984   7.699  1.00  0.00     0.211 HD
ENDBRANCH   1  53
BRANCH   1  55
ATOM     55  C   UNL     1      22.070  40.736   9.600  1.00  0.00     0.165 C 
BRANCH  55  56
ATOM     56  O   UNL     1      21.335  41.914   9.447  1.00  0.00    -0.388 OA
ATOM     57  H   UNL     1      20.504  41.932   9.948  1.00  0.00     0.211 HD
ENDBRANCH  55  56
BRANCH  55  58
ATOM     58  C   UNL     1      23.524  41.143   9.504  1.00  0.00     0.154 C 
BRANCH  58  59
ATOM     59  N   UNL     1      24.425  40.217  10.130  1.00  0.00    -0.319 N 
ATOM     60  C   UNL     1      25.753  40.123   9.643  1.00  0.00     0.407 C 
ATOM     61  H   UNL     1      24.130  39.622  10.920  1.00  0.00     0.167 HD
ATOM     62  O   UNL     1      26.099  40.868   8.681  1.00  0.00    -0.225 OA
BRANCH  60  63
ATOM     63  O   UNL     1      26.709  39.269  10.143  1.00  0.00    -0.443 OA
BRANCH  63  64
ATOM     64  C   UNL     1      27.255  39.355  11.442  1.00  0.00     0.294 C 
BRANCH  64  65
ATOM     65  C   UNL     1      27.791  38.024  11.818  1.00  0.00     0.121 A 
ATOM     66  C   UNL     1      27.589  37.267  12.954  1.00  0.00     0.144 A 
ATOM     67  N   UNL     1      28.620  37.258  11.039  1.00  0.00    -0.131 NA
ATOM     68  N   UNL     1      28.281  36.093  12.836  1.00  0.00    -0.220 N 
ATOM     69  N   UNL     1      28.882  36.136  11.672  1.00  0.00    -0.062 NA
BRANCH  68  70
ATOM     70  C   UNL     1      28.342  35.023  13.755  1.00  0.00     0.066 A 
ATOM     71  C   UNL     1      29.461  34.185  13.796  1.00  0.00     0.030 A 
ATOM     72  C   UNL     1      27.338  34.738  14.644  1.00  0.00     0.030 A 
ATOM     73  C   UNL     1      29.569  33.133  14.670  1.00  0.00     0.023 A 
ATOM     74  C   UNL     1      27.441  33.668  15.536  1.00  0.00     0.023 A 
ATOM     75  C   UNL     1      28.553  32.857  15.558  1.00  0.00     0.072 A 
BRANCH  75  76
ATOM     76  S   UNL     1      28.682  31.519  16.680  1.00  0.00     0.206 S 
ATOM     77  O   UNL     1      29.394  30.374  15.977  1.00  0.00    -0.219 OA
ATOM     78  O   UNL     1      27.365  31.089  17.232  1.00  0.00    -0.219 OA
BRANCH  76  79
ATOM     79  C   UNL     1      29.750  31.992  18.002  1.00  0.00     0.072 A 
ATOM     80  C   UNL     1      30.367  33.213  17.989  1.00  0.00     0.023 A 
ATOM     81  C   UNL     1      29.978  31.142  19.059  1.00  0.00     0.023 A 
ATOM     82  C   UNL     1      31.192  33.568  19.016  1.00  0.00     0.027 A 
ATOM     83  C   UNL     1      30.811  31.512  20.084  1.00  0.00     0.027 A 
ATOM     84  C   UNL     1      31.440  32.725  20.098  1.00  0.00     0.031 A 
BRANCH  84  85
ATOM     85  N   UNL     1      32.304  33.131  21.138  1.00  0.00    -0.399 N 
ATOM     86  H   UNL     1      32.985  32.480  21.552  1.00  0.00     0.156 HD
ATOM     87  H   UNL     1      32.254  34.102  21.494  1.00  0.00     0.156 HD
ENDBRANCH  84  85
ENDBRANCH  76  79
ENDBRANCH  75  76
ENDBRANCH  68  70
ENDBRANCH  64  65
ENDBRANCH  63  64
ENDBRANCH  60  63
ENDBRANCH  58  59
ENDBRANCH  55  58
ENDBRANCH   1  55
TORSDOF 33
BEGIN_RES LYS A 131
REMARK  4 active torsions:
REMARK  status: ('A' for Active; 'I' for Inactive)
REMARK    1  A    between atoms: CA   and  CB  
REMARK    2  A    between atoms: CB   and  CG  
REMARK    3  A    between atoms: CG   and  CD  
REMARK    4  A    between atoms: CD   and  CE  
ROOT
ATOM      1  CA  LYS A 131      29.867  25.555  16.977  1.00 20.52     0.186 C 
ENDROOT
BRANCH   1   2
ATOM      2  CB  LYS A 131      28.345  25.722  17.026  1.00 20.94     0.034 C 
BRANCH   2   3
ATOM      3  CG  LYS A 131      27.601  24.402  16.896  1.00 22.96     0.005 C 
BRANCH   3   4
ATOM      4  CD  LYS A 131      26.153  24.527  17.282  1.00 24.33     0.041 C 
BRANCH   4   5
ATOM      5  CE  LYS A 131      25.965  25.761  18.158  1.00 26.91     0.338 C 
ATOM      6  NZ  LYS A 131      25.740  25.367  19.569  1.00 27.40     0.618 N 
ENDBRANCH   4   5
ENDBRANCH   3   4
ENDBRANCH   2   3
ENDBRANCH   1   2
END_RES LYS A 131
BEGIN_RES LYS A 135
REMARK  4 active torsions:
REMARK  status: ('A' for Active; 'I' for Inactive)
REMARK    5  A    between atoms: CA   and  CB  
REMARK    6  A    between atoms: CB   and  CG  
REMARK    7  A    between atoms: CG   and  CD  
REMARK    8  A    between atoms: CD   and  CE  
ROOT
ATOM      7  CA  LYS A 135      33.193  34.663   9.290  1.00 25.02     0.186 C 
ENDROOT
BRANCH   7   8
ATOM      8  CB  LYS A 135      32.060  35.360  10.034  1.00 26.63     0.034 C 
BRANCH   8   9
ATOM      9  CG  LYS A 135      32.251  35.392  11.528  1.00 29.45     0.005 C 
BRANCH   9  10
ATOM     10  CD  LYS A 135      32.481  36.817  12.009  1.00 32.00     0.041 C 
BRANCH  10  11
ATOM     11  CE  LYS A 135      31.750  37.062  13.316  1.00 34.25     0.338 C 
ATOM     12  NZ  LYS A 135      32.431  36.374  14.448  1.00 35.99     0.618 N 
ENDBRANCH  10  11
ENDBRANCH   9  10
ENDBRANCH   8   9
ENDBRANCH   7   8
END_RES LYS A 135
