REMARK VINA RESULT:    -5.021      2.000      3.012
REMARK INTER + INTRA:         -21.788
REMARK INTER:                 -12.360
REMARK INTRA:                  -9.428
REMARK UNBOUND:                -9.428
REMARK SMILES CC(=O)N[C@@H]1[C@@H](O)C[C@](OC[C@H]2O[C@@H](O[C@H]3[C@H](O)[C@@H](O)[C@H](OCCN=[N+]=[N-])O[C@@H]3CO)[C@H](O)[C@@H](O)[C@H]2O)(C(=O)O)O[C@H]1C(O)[C@H](O)CNC(=O)OCc1cn(-c2ccc(C)cc2)nn1
REMARK SMILES IDX 9 1 8 2 6 3 5 4 42 5 41 6 10 7 11 8 12 9 14 10 13 11 32 12
REMARK SMILES IDX 34 13 36 14 15 15 16 16 29 17 28 18 21 19 17 20 19 21 30 22
REMARK SMILES IDX 31 23 22 25 23 26 24 27 25 28 26 29 27 30 18 31 20 33 33 35
REMARK SMILES IDX 35 37 37 39 38 41 39 42 40 43 7 45 43 47 44 48 45 50 46 51
REMARK SMILES IDX 47 53 48 54 49 55 50 57 51 58 52 59 53 60 54 61 64 62 55 63
REMARK SMILES IDX 63 64 56 65 57 66 62 67 58 68 61 69 59 70 60 71 4 72 2 73
REMARK SMILES IDX 1 75 3 76
REMARK H PARENT 31 24 18 32 20 34 33 36 35 38 37 40 40 44 7 46 44 49 46 52
REMARK H PARENT 48 56 4 74
REMARK Flexibility Score: inf
ROOT
ATOM      1  C   UNL     1      27.665  38.557   6.679  1.00  0.00     0.272 C 
ATOM      2  C   UNL     1      28.045  38.036   8.060  1.00  0.00     0.113 C 
ATOM      3  C   UNL     1      29.473  38.275   8.370  1.00  0.00     0.145 C 
ATOM      4  C   UNL     1      30.061  39.506   7.778  1.00  0.00     0.142 C 
ATOM      5  C   UNL     1      29.086  40.438   7.066  1.00  0.00     0.178 C 
ATOM      6  O   UNL     1      28.135  39.749   6.394  1.00  0.00    -0.332 OA
ENDROOT
BRANCH   1   7
ATOM      7  O   UNL     1      26.241  38.660   6.739  1.00  0.00    -0.338 OA
BRANCH   7   8
ATOM      8  C   UNL     1      25.849  38.494   8.069  1.00  0.00     0.199 C 
BRANCH   8   9
ATOM      9  C   UNL     1      24.930  37.346   8.251  1.00  0.00     0.179 C 
ATOM     10  C   UNL     1      24.295  35.673   9.684  1.00  0.00     0.282 C 
ATOM     11  O   UNL     1      24.971  36.883   9.568  1.00  0.00    -0.341 OA
ATOM     12  C   UNL     1      22.836  35.881   9.527  1.00  0.00     0.202 C 
ATOM     13  C   UNL     1      22.556  37.239   8.944  1.00  0.00     0.179 C 
ATOM     14  C   UNL     1      23.512  37.626   7.835  1.00  0.00     0.177 C 
BRANCH  10  15
ATOM     15  O   UNL     1      24.553  35.121  10.936  1.00  0.00    -0.341 OA
BRANCH  15  16
ATOM     16  C   UNL     1      25.338  35.970  11.717  1.00  0.00     0.184 C 
ATOM     17  C   UNL     1      26.555  35.318  12.312  1.00  0.00     0.178 C 
ATOM     18  O   UNL     1      26.476  35.326  13.709  1.00  0.00    -0.341 OA
ATOM     19  C   UNL     1      25.409  34.541  14.107  1.00  0.00     0.281 C 
ATOM     20  C   UNL     1      24.448  36.416  12.857  1.00  0.00     0.180 C 
ATOM     21  C   UNL     1      24.098  35.136  13.631  1.00  0.00     0.202 C 
BRANCH  17  22
ATOM     22  C   UNL     1      27.809  36.152  11.999  1.00  0.00     0.191 C 
BRANCH  22  23
ATOM     23  O   UNL     1      27.452  37.394  11.479  1.00  0.00    -0.394 OA
ATOM     24  H   UNL     1      26.726  37.225  10.807  1.00  0.00     0.210 HD
ENDBRANCH  22  23
ENDBRANCH  17  22
BRANCH  19  25
ATOM     25  O   UNL     1      25.370  34.346  15.479  1.00  0.00    -0.350 OA
BRANCH  25  26
ATOM     26  C   UNL     1      25.443  33.028  15.853  1.00  0.00     0.169 C 
BRANCH  26  27
ATOM     27  C   UNL     1      25.573  32.047  14.722  1.00  0.00     0.119 C 
BRANCH  27  28
ATOM     28  N   UNL     1      25.971  30.740  15.185  1.00  0.00    -0.092 NA
ATOM     29  N   UNL     1      25.221  30.085  15.889  1.00  0.00     0.001 N 
ATOM     30  N   UNL     1      24.439  29.374  16.522  1.00  0.00    -0.003 NA
ENDBRANCH  27  28
ENDBRANCH  26  27
ENDBRANCH  25  26
ENDBRANCH  19  25
BRANCH  20  31
ATOM     31  O   UNL     1      25.067  37.324  13.703  1.00  0.00    -0.387 OA
ATOM     32  H   UNL     1      25.459  36.806  14.448  1.00  0.00     0.211 HD
ENDBRANCH  20  31
BRANCH  21  33
ATOM     33  O   UNL     1      23.582  34.259  12.655  1.00  0.00    -0.385 OA
ATOM     34  H   UNL     1      22.948  33.608  13.033  1.00  0.00     0.211 HD
ENDBRANCH  21  33
ENDBRANCH  15  16
ENDBRANCH  10  15
BRANCH  12  35
ATOM     35  O   UNL     1      22.238  34.875   8.746  1.00  0.00    -0.385 OA
ATOM     36  H   UNL     1      21.983  34.160   9.416  1.00  0.00     0.211 HD
ENDBRANCH  12  35
BRANCH  13  37
ATOM     37  O   UNL     1      22.468  38.160   9.959  1.00  0.00    -0.387 OA
ATOM     38  H   UNL     1      22.460  39.120   9.644  1.00  0.00     0.211 HD
ENDBRANCH  13  37
BRANCH  14  39
ATOM     39  O   UNL     1      23.394  38.981   7.594  1.00  0.00    -0.387 OA
ATOM     40  H   UNL     1      23.706  39.559   8.321  1.00  0.00     0.211 HD
ENDBRANCH  14  39
ENDBRANCH   8   9
ENDBRANCH   7   8
ENDBRANCH   1   7
BRANCH   1  41
ATOM     41  C   UNL     1      28.053  37.484   5.742  1.00  0.00     0.364 C 
ATOM     42  O   UNL     1      29.189  37.393   5.224  1.00  0.00    -0.246 OA
BRANCH  41  43
ATOM     43  O   UNL     1      27.082  36.514   5.428  1.00  0.00    -0.477 OA
ATOM     44  H   UNL     1      27.252  35.896   4.633  1.00  0.00     0.296 HD
ENDBRANCH  41  43
ENDBRANCH   1  41
BRANCH   3  45
ATOM     45  O   UNL     1      29.705  38.176   9.761  1.00  0.00    -0.391 OA
ATOM     46  H   UNL     1      28.941  37.613  10.109  1.00  0.00     0.211 HD
ENDBRANCH   3  45
BRANCH   5  47
ATOM     47  C   UNL     1      28.526  41.419   8.077  1.00  0.00     0.176 C 
BRANCH  47  48
ATOM     48  O   UNL     1      27.970  40.822   9.198  1.00  0.00    -0.388 OA
ATOM     49  H   UNL     1      28.714  40.723   9.848  1.00  0.00     0.211 HD
ENDBRANCH  47  48
BRANCH  47  50
ATOM     50  C   UNL     1      29.245  42.647   8.379  1.00  0.00     0.165 C 
BRANCH  50  51
ATOM     51  O   UNL     1      30.327  42.960   7.531  1.00  0.00    -0.388 OA
ATOM     52  H   UNL     1      30.160  43.826   7.072  1.00  0.00     0.211 HD
ENDBRANCH  50  51
BRANCH  50  53
ATOM     53  C   UNL     1      29.658  42.997   9.765  1.00  0.00     0.154 C 
BRANCH  53  54
ATOM     54  N   UNL     1      30.568  42.064  10.375  1.00  0.00    -0.319 N 
ATOM     55  C   UNL     1      30.154  41.226  11.452  1.00  0.00     0.407 C 
ATOM     56  H   UNL     1      31.553  41.989  10.033  1.00  0.00     0.167 HD
ATOM     57  O   UNL     1      28.968  41.301  11.858  1.00  0.00    -0.225 OA
BRANCH  55  58
ATOM     58  O   UNL     1      31.054  40.359  12.031  1.00  0.00    -0.443 OA
BRANCH  58  59
ATOM     59  C   UNL     1      30.840  39.719  13.243  1.00  0.00     0.294 C 
BRANCH  59  60
ATOM     60  C   UNL     1      31.104  38.282  13.149  1.00  0.00     0.121 A 
ATOM     61  C   UNL     1      30.776  37.312  14.114  1.00  0.00     0.144 A 
ATOM     62  N   UNL     1      31.691  37.601  12.175  1.00  0.00    -0.131 NA
ATOM     63  N   UNL     1      31.180  36.124  13.666  1.00  0.00    -0.220 N 
ATOM     64  N   UNL     1      31.734  36.321  12.488  1.00  0.00    -0.062 NA
BRANCH  63  65
ATOM     65  C   UNL     1      31.017  34.892  14.393  1.00  0.00     0.066 A 
ATOM     66  C   UNL     1      30.022  34.009  14.036  1.00  0.00     0.029 A 
ATOM     67  C   UNL     1      31.842  34.546  15.442  1.00  0.00     0.029 A 
ATOM     68  C   UNL     1      29.864  32.803  14.725  1.00  0.00     0.005 A 
ATOM     69  C   UNL     1      31.686  33.339  16.132  1.00  0.00     0.005 A 
ATOM     70  C   UNL     1      30.690  32.461  15.772  1.00  0.00    -0.051 A 
ATOM     71  C   UNL     1      30.529  31.163  16.503  1.00  0.00     0.044 C 
ENDBRANCH  63  65
ENDBRANCH  59  60
ENDBRANCH  58  59
ENDBRANCH  55  58
ENDBRANCH  53  54
ENDBRANCH  50  53
ENDBRANCH  47  50
ENDBRANCH   5  47
BRANCH   4  72
ATOM     72  N   UNL     1      31.247  39.239   6.987  1.00  0.00    -0.348 N 
ATOM     73  C   UNL     1      32.462  39.981   7.104  1.00  0.00     0.217 C 
ATOM     74  H   UNL     1      31.255  38.478   6.279  1.00  0.00     0.163 HD
ATOM     75  C   UNL     1      33.654  39.669   6.256  1.00  0.00     0.114 C 
ATOM     76  O   UNL     1      32.450  40.899   7.961  1.00  0.00    -0.275 OA
ENDBRANCH   4  72
TORSDOF 30
BEGIN_RES LYS A 131
REMARK  4 active torsions:
REMARK  status: ('A' for Active; 'I' for Inactive)
REMARK    1  A    between atoms: CA   and  CB  
REMARK    2  A    between atoms: CB   and  CG  
REMARK    3  A    between atoms: CG   and  CD  
REMARK    4  A    between atoms: CD   and  CE  
ROOT
ATOM      1  CA  LYS A 131      29.867  25.555  16.977  1.00 20.52     0.186 C 
ENDROOT
BRANCH   1   2
ATOM      2  CB  LYS A 131      28.345  25.722  17.026  1.00 20.94     0.034 C 
BRANCH   2   3
ATOM      3  CG  LYS A 131      27.601  24.401  16.898  1.00 22.96     0.005 C 
BRANCH   3   4
ATOM      4  CD  LYS A 131      26.650  24.174  18.040  1.00 24.33     0.041 C 
BRANCH   4   5
ATOM      5  CE  LYS A 131      25.906  25.469  18.349  1.00 26.91     0.338 C 
ATOM      6  NZ  LYS A 131      25.942  25.754  19.803  1.00 27.40     0.618 N 
ENDBRANCH   4   5
ENDBRANCH   3   4
ENDBRANCH   2   3
ENDBRANCH   1   2
END_RES LYS A 131
BEGIN_RES LYS A 135
REMARK  4 active torsions:
REMARK  status: ('A' for Active; 'I' for Inactive)
REMARK    5  A    between atoms: CA   and  CB  
REMARK    6  A    between atoms: CB   and  CG  
REMARK    7  A    between atoms: CG   and  CD  
REMARK    8  A    between atoms: CD   and  CE  
ROOT
ATOM      7  CA  LYS A 135      33.193  34.663   9.290  1.00 25.02     0.186 C 
ENDROOT
BRANCH   7   8
ATOM      8  CB  LYS A 135      32.060  35.360  10.034  1.00 26.63     0.034 C 
BRANCH   8   9
ATOM      9  CG  LYS A 135      30.727  34.674   9.880  1.00 29.45     0.005 C 
BRANCH   9  10
ATOM     10  CD  LYS A 135      30.337  34.581   8.413  1.00 32.00     0.041 C 
BRANCH  10  11
ATOM     11  CE  LYS A 135      28.828  34.550   8.264  1.00 34.25     0.338 C 
ATOM     12  NZ  LYS A 135      28.196  33.769   9.363  1.00 35.99     0.618 N 
ENDBRANCH  10  11
ENDBRANCH   9  10
ENDBRANCH   8   9
ENDBRANCH   7   8
END_RES LYS A 135
