REMARK VINA RESULT:    -4.336      4.101      9.832
REMARK INTER + INTRA:         -22.687
REMARK INTER:                 -12.306
REMARK INTRA:                 -10.380
REMARK UNBOUND:               -11.507
REMARK SMILES COc1ccc(Cn2cc(COC(=O)NC[C@@H](O)C(O)[C@@H]3O[C@@](OC[C@H]4O[C@@H](O[C@H]5[C@H](O)[C@@H](O)[C@H](OCCN=[N+]=[N-])O[C@@H]5CO)[C@H](O)[C@@H](O)[C@H]4O)(C(=O)O)C[C@H](O)[C@H]3NC(C)=O)nn2)cc1
REMARK SMILES IDX 23 1 55 2 56 3 58 4 21 5 22 6 24 7 25 8 26 9 28 10 27 11
REMARK SMILES IDX 46 12 48 13 50 14 29 15 30 16 43 17 42 18 35 19 31 20 33 21
REMARK SMILES IDX 44 22 45 23 36 25 37 26 38 27 39 28 40 29 41 30 32 31 34 33
REMARK SMILES IDX 47 35 49 37 51 39 52 41 53 42 54 43 57 45 19 47 20 48 17 50
REMARK SMILES IDX 18 51 16 53 15 54 13 55 14 57 12 58 11 59 10 60 9 61 63 62
REMARK SMILES IDX 8 63 64 64 7 65 6 66 5 67 65 68 4 69 66 70 3 71 2 72 1 73
REMARK SMILES IDX 59 74 60 75 61 77 62 78
REMARK H PARENT 45 24 32 32 34 34 47 36 49 38 51 40 54 44 57 46 20 49 18 52
REMARK H PARENT 15 56 59 76
REMARK Flexibility Score: inf
ROOT
ATOM      1  C   UNL     1      23.444  36.776   8.724  1.00  0.00     0.272 C 
ATOM      2  C   UNL     1      22.804  37.708   9.732  1.00  0.00     0.113 C 
ATOM      3  C   UNL     1      22.079  36.901  10.790  1.00  0.00     0.145 C 
ATOM      4  C   UNL     1      22.880  35.750  11.324  1.00  0.00     0.142 C 
ATOM      5  C   UNL     1      24.217  35.570  10.625  1.00  0.00     0.178 C 
ATOM      6  O   UNL     1      24.115  35.753   9.260  1.00  0.00    -0.332 OA
ENDROOT
BRANCH   1   7
ATOM      7  O   UNL     1      24.009  37.448   7.695  1.00  0.00    -0.338 OA
BRANCH   7   8
ATOM      8  C   UNL     1      24.910  38.425   7.849  1.00  0.00     0.199 C 
BRANCH   8   9
ATOM      9  C   UNL     1      26.118  38.270   6.951  1.00  0.00     0.179 C 
ATOM     10  C   UNL     1      27.947  39.478   6.334  1.00  0.00     0.282 C 
ATOM     11  O   UNL     1      27.184  39.069   7.451  1.00  0.00    -0.341 OA
ATOM     12  C   UNL     1      28.132  38.376   5.357  1.00  0.00     0.202 C 
ATOM     13  C   UNL     1      27.817  36.996   5.826  1.00  0.00     0.179 C 
ATOM     14  C   UNL     1      26.666  36.900   6.808  1.00  0.00     0.177 C 
BRANCH  10  15
ATOM     15  O   UNL     1      29.052  40.192   6.701  1.00  0.00    -0.341 OA
BRANCH  15  16
ATOM     16  C   UNL     1      29.091  40.657   7.999  1.00  0.00     0.184 C 
ATOM     17  C   UNL     1      29.676  42.038   8.164  1.00  0.00     0.178 C 
ATOM     18  O   UNL     1      30.270  42.180   9.418  1.00  0.00    -0.341 OA
ATOM     19  C   UNL     1      29.629  41.422  10.414  1.00  0.00     0.281 C 
ATOM     20  C   UNL     1      30.119  39.758   8.714  1.00  0.00     0.180 C 
ATOM     21  C   UNL     1      29.863  39.916  10.188  1.00  0.00     0.202 C 
BRANCH  17  22
ATOM     22  C   UNL     1      28.698  43.160   8.014  1.00  0.00     0.191 C 
BRANCH  22  23
ATOM     23  O   UNL     1      27.420  42.638   7.829  1.00  0.00    -0.394 OA
ATOM     24  H   UNL     1      27.263  42.589   6.843  1.00  0.00     0.210 HD
ENDBRANCH  22  23
ENDBRANCH  17  22
BRANCH  19  25
ATOM     25  O   UNL     1      28.307  41.692  10.566  1.00  0.00    -0.350 OA
BRANCH  25  26
ATOM     26  C   UNL     1      27.512  40.800  11.217  1.00  0.00     0.169 C 
BRANCH  26  27
ATOM     27  C   UNL     1      26.164  40.535  10.662  1.00  0.00     0.119 C 
BRANCH  27  28
ATOM     28  N   UNL     1      25.581  41.627   9.963  1.00  0.00    -0.092 NA
ATOM     29  N   UNL     1      24.485  41.589   9.387  1.00  0.00     0.001 N 
ATOM     30  N   UNL     1      23.273  41.809   9.161  1.00  0.00    -0.003 NA
ENDBRANCH  27  28
ENDBRANCH  26  27
ENDBRANCH  25  26
ENDBRANCH  19  25
BRANCH  20  31
ATOM     31  O   UNL     1      30.089  38.469   8.260  1.00  0.00    -0.387 OA
ATOM     32  H   UNL     1      29.234  38.260   7.765  1.00  0.00     0.211 HD
ENDBRANCH  20  31
BRANCH  21  33
ATOM     33  O   UNL     1      30.934  39.446  10.947  1.00  0.00    -0.385 OA
ATOM     34  H   UNL     1      31.767  39.527  10.413  1.00  0.00     0.211 HD
ENDBRANCH  21  33
ENDBRANCH  15  16
ENDBRANCH  10  15
BRANCH  12  35
ATOM     35  O   UNL     1      27.464  38.636   4.133  1.00  0.00    -0.385 OA
ATOM     36  H   UNL     1      26.666  39.221   4.312  1.00  0.00     0.211 HD
ENDBRANCH  12  35
BRANCH  13  37
ATOM     37  O   UNL     1      28.966  36.340   6.330  1.00  0.00    -0.387 OA
ATOM     38  H   UNL     1      29.746  36.930   6.168  1.00  0.00     0.211 HD
ENDBRANCH  13  37
BRANCH  14  39
ATOM     39  O   UNL     1      27.066  36.337   8.015  1.00  0.00    -0.387 OA
ATOM     40  H   UNL     1      26.541  35.531   8.245  1.00  0.00     0.211 HD
ENDBRANCH  14  39
ENDBRANCH   8   9
ENDBRANCH   7   8
ENDBRANCH   1   7
BRANCH   1  41
ATOM     41  C   UNL     1      22.187  36.208   7.985  1.00  0.00     0.364 C 
ATOM     42  O   UNL     1      21.741  35.084   8.300  1.00  0.00    -0.246 OA
BRANCH  41  43
ATOM     43  O   UNL     1      21.542  36.883   7.007  1.00  0.00    -0.477 OA
ATOM     44  H   UNL     1      21.801  37.719   6.545  1.00  0.00     0.296 HD
ENDBRANCH  41  43
ENDBRANCH   1  41
BRANCH   3  45
ATOM     45  O   UNL     1      21.845  37.847  11.831  1.00  0.00    -0.391 OA
ATOM     46  H   UNL     1      22.592  37.829  12.482  1.00  0.00     0.211 HD
ENDBRANCH   3  45
BRANCH   5  47
ATOM     47  C   UNL     1      25.220  36.368  11.364  1.00  0.00     0.176 C 
BRANCH  47  48
ATOM     48  O   UNL     1      26.256  36.893  10.537  1.00  0.00    -0.388 OA
ATOM     49  H   UNL     1      26.248  37.868  10.641  1.00  0.00     0.211 HD
ENDBRANCH  47  48
BRANCH  47  50
ATOM     50  C   UNL     1      26.123  35.519  12.306  1.00  0.00     0.165 C 
BRANCH  50  51
ATOM     51  O   UNL     1      25.614  34.386  12.801  1.00  0.00    -0.388 OA
ATOM     52  H   UNL     1      24.777  34.555  13.302  1.00  0.00     0.211 HD
ENDBRANCH  50  51
BRANCH  50  53
ATOM     53  C   UNL     1      26.580  36.470  13.434  1.00  0.00     0.154 C 
BRANCH  53  54
ATOM     54  N   UNL     1      27.758  37.201  13.100  1.00  0.00    -0.319 N 
ATOM     55  C   UNL     1      28.117  38.354  13.871  1.00  0.00     0.407 C 
ATOM     56  H   UNL     1      28.358  36.923  12.316  1.00  0.00     0.167 HD
ATOM     57  O   UNL     1      27.382  38.699  14.837  1.00  0.00    -0.225 OA
BRANCH  55  58
ATOM     58  O   UNL     1      29.264  39.044  13.522  1.00  0.00    -0.443 OA
BRANCH  58  59
ATOM     59  C   UNL     1      30.437  38.931  14.350  1.00  0.00     0.294 C 
BRANCH  59  60
ATOM     60  C   UNL     1      31.072  37.627  14.069  1.00  0.00     0.120 A 
ATOM     61  C   UNL     1      31.791  36.831  14.966  1.00  0.00     0.138 A 
ATOM     62  N   UNL     1      31.092  36.963  12.907  1.00  0.00    -0.132 NA
ATOM     63  N   UNL     1      32.199  35.747  14.295  1.00  0.00    -0.248 N 
ATOM     64  N   UNL     1      31.768  35.840  13.046  1.00  0.00    -0.067 NA
BRANCH  63  65
ATOM     65  C   UNL     1      32.979  34.661  14.834  1.00  0.00     0.181 C 
BRANCH  65  66
ATOM     66  C   UNL     1      32.114  33.828  15.698  1.00  0.00    -0.026 A 
ATOM     67  C   UNL     1      31.519  32.682  15.177  1.00  0.00     0.009 A 
ATOM     68  C   UNL     1      31.875  34.121  17.015  1.00  0.00     0.009 A 
ATOM     69  C   UNL     1      30.718  31.861  15.942  1.00  0.00     0.047 A 
ATOM     70  C   UNL     1      31.061  33.287  17.790  1.00  0.00     0.047 A 
ATOM     71  C   UNL     1      30.479  32.161  17.275  1.00  0.00     0.118 A 
BRANCH  71  72
ATOM     72  O   UNL     1      29.669  31.307  17.999  1.00  0.00    -0.497 OA
ATOM     73  C   UNL     1      29.873  30.950  19.335  1.00  0.00     0.278 C 
ENDBRANCH  71  72
ENDBRANCH  65  66
ENDBRANCH  63  65
ENDBRANCH  59  60
ENDBRANCH  58  59
ENDBRANCH  55  58
ENDBRANCH  53  54
ENDBRANCH  50  53
ENDBRANCH  47  50
ENDBRANCH   5  47
BRANCH   4  74
ATOM     74  N   UNL     1      22.158  34.502  11.445  1.00  0.00    -0.348 N 
ATOM     75  C   UNL     1      22.225  33.635  12.570  1.00  0.00     0.217 C 
ATOM     76  H   UNL     1      21.560  34.196  10.663  1.00  0.00     0.163 HD
ATOM     77  C   UNL     1      21.428  32.349  12.583  1.00  0.00     0.114 C 
ATOM     78  O   UNL     1      22.945  33.939  13.550  1.00  0.00    -0.275 OA
ENDBRANCH   4  74
TORSDOF 32
BEGIN_RES LYS A 131
REMARK  4 active torsions:
REMARK  status: ('A' for Active; 'I' for Inactive)
REMARK    1  A    between atoms: CA   and  CB  
REMARK    2  A    between atoms: CB   and  CG  
REMARK    3  A    between atoms: CG   and  CD  
REMARK    4  A    between atoms: CD   and  CE  
ROOT
ATOM      1  CA  LYS A 131      29.867  25.555  16.977  1.00 20.52     0.186 C 
ENDROOT
BRANCH   1   2
ATOM      2  CB  LYS A 131      28.345  25.722  17.026  1.00 20.94     0.034 C 
BRANCH   2   3
ATOM      3  CG  LYS A 131      27.601  24.402  16.892  1.00 22.96     0.005 C 
BRANCH   3   4
ATOM      4  CD  LYS A 131      26.725  24.123  18.082  1.00 24.33     0.041 C 
BRANCH   4   5
ATOM      5  CE  LYS A 131      26.429  25.428  18.814  1.00 26.91     0.338 C 
ATOM      6  NZ  LYS A 131      25.165  25.318  19.579  1.00 27.40     0.618 N 
ENDBRANCH   4   5
ENDBRANCH   3   4
ENDBRANCH   2   3
ENDBRANCH   1   2
END_RES LYS A 131
BEGIN_RES LYS A 135
REMARK  4 active torsions:
REMARK  status: ('A' for Active; 'I' for Inactive)
REMARK    5  A    between atoms: CA   and  CB  
REMARK    6  A    between atoms: CB   and  CG  
REMARK    7  A    between atoms: CG   and  CD  
REMARK    8  A    between atoms: CD   and  CE  
ROOT
ATOM      7  CA  LYS A 135      33.193  34.663   9.290  1.00 25.02     0.186 C 
ENDROOT
BRANCH   7   8
ATOM      8  CB  LYS A 135      32.060  35.360  10.034  1.00 26.63     0.034 C 
BRANCH   8   9
ATOM      9  CG  LYS A 135      30.800  35.499   9.219  1.00 29.45     0.005 C 
BRANCH   9  10
ATOM     10  CD  LYS A 135      30.313  34.138   8.747  1.00 32.00     0.041 C 
BRANCH  10  11
ATOM     11  CE  LYS A 135      28.932  33.844   9.300  1.00 34.25     0.338 C 
ATOM     12  NZ  LYS A 135      28.739  34.487  10.629  1.00 35.99     0.618 N 
ENDBRANCH  10  11
ENDBRANCH   9  10
ENDBRANCH   8   9
ENDBRANCH   7   8
END_RES LYS A 135
