REMARK VINA RESULT:    -5.706      0.000      0.000
REMARK INTER + INTRA:         -22.153
REMARK INTER:                 -10.141
REMARK INTRA:                 -12.012
REMARK UNBOUND:                -8.107
REMARK SMILES CC(=O)N[C@@H]1[C@@H](O)C[C@](OC[C@H]2O[C@@H](O[C@H]3[C@H](O)[C@@H](O)[C@H](OCCN=[N+]=[N-])O[C@@H]3CO)[C@H](O)[C@@H](O)[C@H]2O)(C(=O)O)O[C@H]1C(O)[C@H](O)CNC(=O)OCc1cn(C2CCN(C)CC2)nn1
REMARK SMILES IDX 9 1 8 2 6 3 5 4 42 5 41 6 10 7 11 8 12 9 14 10 13 11 32 12
REMARK SMILES IDX 34 13 36 14 15 15 16 16 29 17 28 18 21 19 17 20 19 21 30 22
REMARK SMILES IDX 31 23 22 25 23 26 24 27 25 28 26 29 27 30 18 31 20 33 33 35
REMARK SMILES IDX 35 37 37 39 38 41 39 42 40 43 7 45 43 47 44 48 45 50 46 51
REMARK SMILES IDX 47 53 48 54 49 55 50 57 51 58 52 59 53 60 54 61 64 62 55 63
REMARK SMILES IDX 63 64 56 65 57 66 62 67 58 68 61 69 59 70 60 71 4 72 2 73
REMARK SMILES IDX 1 75 3 76
REMARK H PARENT 31 24 18 32 20 34 33 36 35 38 37 40 40 44 7 46 44 49 46 52
REMARK H PARENT 48 56 4 74
REMARK Flexibility Score: inf
ROOT
ATOM      1  C   UNL     1      28.300  36.778   8.088  1.00  0.00     0.272 C 
ATOM      2  C   UNL     1      29.390  37.251   9.033  1.00  0.00     0.113 C 
ATOM      3  C   UNL     1      30.503  37.998   8.426  1.00  0.00     0.145 C 
ATOM      4  C   UNL     1      30.101  38.954   7.324  1.00  0.00     0.142 C 
ATOM      5  C   UNL     1      28.797  38.628   6.707  1.00  0.00     0.178 C 
ATOM      6  O   UNL     1      27.875  37.947   7.377  1.00  0.00    -0.332 OA
ENDROOT
BRANCH   1   7
ATOM      7  O   UNL     1      27.213  36.474   8.814  1.00  0.00    -0.338 OA
BRANCH   7   8
ATOM      8  C   UNL     1      27.036  35.847   9.927  1.00  0.00     0.199 C 
BRANCH   8   9
ATOM      9  C   UNL     1      26.183  36.347  11.052  1.00  0.00     0.179 C 
ATOM     10  C   UNL     1      23.973  36.670  10.210  1.00  0.00     0.282 C 
ATOM     11  O   UNL     1      25.214  37.131  10.489  1.00  0.00    -0.341 OA
ATOM     12  C   UNL     1      23.765  35.247  10.495  1.00  0.00     0.202 C 
ATOM     13  C   UNL     1      24.214  35.045  11.953  1.00  0.00     0.179 C 
ATOM     14  C   UNL     1      25.682  35.276  11.962  1.00  0.00     0.177 C 
BRANCH  10  15
ATOM     15  O   UNL     1      23.722  37.123   8.921  1.00  0.00    -0.341 OA
BRANCH  15  16
ATOM     16  C   UNL     1      23.413  38.410   8.762  1.00  0.00     0.184 C 
ATOM     17  C   UNL     1      22.158  38.578   7.977  1.00  0.00     0.178 C 
ATOM     18  O   UNL     1      21.663  39.867   8.199  1.00  0.00    -0.341 OA
ATOM     19  C   UNL     1      22.510  40.796   7.641  1.00  0.00     0.281 C 
ATOM     20  C   UNL     1      24.455  39.209   7.964  1.00  0.00     0.180 C 
ATOM     21  C   UNL     1      23.957  40.650   8.027  1.00  0.00     0.202 C 
BRANCH  17  22
ATOM     22  C   UNL     1      21.126  37.525   8.191  1.00  0.00     0.191 C 
BRANCH  22  23
ATOM     23  O   UNL     1      21.257  36.561   7.201  1.00  0.00    -0.394 OA
ATOM     24  H   UNL     1      21.193  35.642   7.565  1.00  0.00     0.210 HD
ENDBRANCH  22  23
ENDBRANCH  17  22
BRANCH  19  25
ATOM     25  O   UNL     1      22.107  42.045   8.133  1.00  0.00    -0.350 OA
BRANCH  25  26
ATOM     26  C   UNL     1      20.859  42.435   7.719  1.00  0.00     0.169 C 
BRANCH  26  27
ATOM     27  C   UNL     1      20.754  42.647   6.222  1.00  0.00     0.119 C 
BRANCH  27  28
ATOM     28  N   UNL     1      21.611  43.734   5.789  1.00  0.00    -0.092 NA
ATOM     29  N   UNL     1      22.671  43.510   5.206  1.00  0.00     0.001 N 
ATOM     30  N   UNL     1      23.892  43.445   5.054  1.00  0.00    -0.003 NA
ENDBRANCH  27  28
ENDBRANCH  26  27
ENDBRANCH  25  26
ENDBRANCH  19  25
BRANCH  20  31
ATOM     31  O   UNL     1      25.699  39.198   8.536  1.00  0.00    -0.387 OA
ATOM     32  H   UNL     1      25.883  38.299   8.886  1.00  0.00     0.211 HD
ENDBRANCH  20  31
BRANCH  21  33
ATOM     33  O   UNL     1      24.747  41.438   7.226  1.00  0.00    -0.385 OA
ATOM     34  H   UNL     1      25.364  41.995   7.728  1.00  0.00     0.211 HD
ENDBRANCH  21  33
ENDBRANCH  15  16
ENDBRANCH  10  15
BRANCH  12  35
ATOM     35  O   UNL     1      22.435  34.835  10.513  1.00  0.00    -0.385 OA
ATOM     36  H   UNL     1      22.338  34.013  11.056  1.00  0.00     0.211 HD
ENDBRANCH  12  35
BRANCH  13  37
ATOM     37  O   UNL     1      23.862  33.814  12.448  1.00  0.00    -0.387 OA
ATOM     38  H   UNL     1      23.936  33.853  13.435  1.00  0.00     0.211 HD
ENDBRANCH  13  37
BRANCH  14  39
ATOM     39  O   UNL     1      26.318  34.079  11.643  1.00  0.00    -0.387 OA
ATOM     40  H   UNL     1      26.924  34.156  10.871  1.00  0.00     0.211 HD
ENDBRANCH  14  39
ENDBRANCH   8   9
ENDBRANCH   7   8
ENDBRANCH   1   7
BRANCH   1  41
ATOM     41  C   UNL     1      28.873  35.842   7.132  1.00  0.00     0.364 C 
ATOM     42  O   UNL     1      28.220  35.662   6.025  1.00  0.00    -0.246 OA
BRANCH  41  43
ATOM     43  O   UNL     1      30.013  35.086   7.192  1.00  0.00    -0.477 OA
ATOM     44  H   UNL     1      30.895  35.339   6.748  1.00  0.00     0.296 HD
ENDBRANCH  41  43
ENDBRANCH   1  41
BRANCH   3  45
ATOM     45  O   UNL     1      31.166  38.741   9.448  1.00  0.00    -0.391 OA
ATOM     46  H   UNL     1      31.899  38.221   9.839  1.00  0.00     0.211 HD
ENDBRANCH   3  45
BRANCH   5  47
ATOM     47  C   UNL     1      28.108  39.913   6.168  1.00  0.00     0.176 C 
BRANCH  47  48
ATOM     48  O   UNL     1      27.654  40.667   7.242  1.00  0.00    -0.388 OA
ATOM     49  H   UNL     1      26.737  40.990   7.125  1.00  0.00     0.211 HD
ENDBRANCH  47  48
BRANCH  47  50
ATOM     50  C   UNL     1      27.030  39.573   5.245  1.00  0.00     0.165 C 
BRANCH  50  51
ATOM     51  O   UNL     1      27.489  38.415   4.504  1.00  0.00    -0.388 OA
ATOM     52  H   UNL     1      28.177  38.703   3.857  1.00  0.00     0.211 HD
ENDBRANCH  50  51
BRANCH  50  53
ATOM     53  C   UNL     1      26.543  40.546   4.259  1.00  0.00     0.154 C 
BRANCH  53  54
ATOM     54  N   UNL     1      26.474  41.924   4.506  1.00  0.00    -0.319 N 
ATOM     55  C   UNL     1      27.449  42.904   4.194  1.00  0.00     0.407 C 
ATOM     56  H   UNL     1      25.584  42.292   4.988  1.00  0.00     0.167 HD
ATOM     57  O   UNL     1      28.504  42.606   3.601  1.00  0.00    -0.225 OA
BRANCH  55  58
ATOM     58  O   UNL     1      27.201  44.242   4.574  1.00  0.00    -0.443 OA
BRANCH  58  59
ATOM     59  C   UNL     1      28.019  44.830   5.553  1.00  0.00     0.294 C 
BRANCH  59  60
ATOM     60  C   UNL     1      27.729  44.191   6.859  1.00  0.00     0.120 A 
ATOM     61  C   UNL     1      28.654  43.991   7.900  1.00  0.00     0.138 A 
ATOM     62  N   UNL     1      26.587  43.686   7.347  1.00  0.00    -0.132 NA
ATOM     63  N   UNL     1      28.046  43.393   8.938  1.00  0.00    -0.249 N 
ATOM     64  N   UNL     1      26.801  43.221   8.578  1.00  0.00    -0.067 NA
BRANCH  63  65
ATOM     65  C   UNL     1      28.657  43.022  10.193  1.00  0.00     0.111 C 
ATOM     66  C   UNL     1      27.807  41.951  10.815  1.00  0.00     0.043 C 
ATOM     67  C   UNL     1      30.057  42.505  10.014  1.00  0.00     0.043 C 
ATOM     68  C   UNL     1      28.477  40.610  10.623  1.00  0.00     0.086 C 
ATOM     69  C   UNL     1      30.542  41.691  11.183  1.00  0.00     0.086 C 
ATOM     70  N   UNL     1      29.661  40.580  11.480  1.00  0.00    -0.306 NA
ATOM     71  C   UNL     1      29.210  40.686  12.857  1.00  0.00     0.105 C 
ENDBRANCH  63  65
ENDBRANCH  59  60
ENDBRANCH  58  59
ENDBRANCH  55  58
ENDBRANCH  53  54
ENDBRANCH  50  53
ENDBRANCH  47  50
ENDBRANCH   5  47
BRANCH   4  72
ATOM     72  N   UNL     1      31.144  39.085   6.325  1.00  0.00    -0.348 N 
ATOM     73  C   UNL     1      32.083  40.134   6.439  1.00  0.00     0.217 C 
ATOM     74  H   UNL     1      31.227  38.425   5.513  1.00  0.00     0.163 HD
ATOM     75  C   UNL     1      33.177  40.316   5.431  1.00  0.00     0.114 C 
ATOM     76  O   UNL     1      32.008  40.949   7.414  1.00  0.00    -0.275 OA
ENDBRANCH   4  72
TORSDOF 30
BEGIN_RES LYS A 131
REMARK  4 active torsions:
REMARK  status: ('A' for Active; 'I' for Inactive)
REMARK    1  A    between atoms: CA   and  CB  
REMARK    2  A    between atoms: CB   and  CG  
REMARK    3  A    between atoms: CG   and  CD  
REMARK    4  A    between atoms: CD   and  CE  
ROOT
ATOM      1  CA  LYS A 131      29.867  25.555  16.977  1.00 20.52     0.186 C 
ENDROOT
BRANCH   1   2
ATOM      2  CB  LYS A 131      28.345  25.722  17.026  1.00 20.94     0.034 C 
BRANCH   2   3
ATOM      3  CG  LYS A 131      27.601  24.403  16.886  1.00 22.96     0.005 C 
BRANCH   3   4
ATOM      4  CD  LYS A 131      26.161  24.518  17.302  1.00 24.33     0.041 C 
BRANCH   4   5
ATOM      5  CE  LYS A 131      25.955  23.794  18.629  1.00 26.91     0.338 C 
ATOM      6  NZ  LYS A 131      25.574  24.755  19.691  1.00 27.40     0.618 N 
ENDBRANCH   4   5
ENDBRANCH   3   4
ENDBRANCH   2   3
ENDBRANCH   1   2
END_RES LYS A 131
BEGIN_RES LYS A 135
REMARK  4 active torsions:
REMARK  status: ('A' for Active; 'I' for Inactive)
REMARK    5  A    between atoms: CA   and  CB  
REMARK    6  A    between atoms: CB   and  CG  
REMARK    7  A    between atoms: CG   and  CD  
REMARK    8  A    between atoms: CD   and  CE  
ROOT
ATOM      7  CA  LYS A 135      33.193  34.663   9.290  1.00 25.02     0.186 C 
ENDROOT
BRANCH   7   8
ATOM      8  CB  LYS A 135      32.060  35.360  10.034  1.00 26.63     0.034 C 
BRANCH   8   9
ATOM      9  CG  LYS A 135      31.001  34.415  10.541  1.00 29.45     0.005 C 
BRANCH   9  10
ATOM     10  CD  LYS A 135      30.231  35.041  11.694  1.00 32.00     0.041 C 
BRANCH  10  11
ATOM     11  CE  LYS A 135      30.994  34.881  12.994  1.00 34.25     0.338 C 
ATOM     12  NZ  LYS A 135      30.344  33.873  13.877  1.00 35.99     0.618 N 
ENDBRANCH  10  11
ENDBRANCH   9  10
ENDBRANCH   8   9
ENDBRANCH   7   8
END_RES LYS A 135
