REMARK VINA RESULT:    -5.270      0.000      0.000
REMARK INTER + INTRA:         -22.094
REMARK INTER:                 -11.846
REMARK INTRA:                 -10.249
REMARK UNBOUND:                -9.122
REMARK SMILES CC(=O)N[C@@H]1[C@@H](O)C[C@](OC[C@H]2O[C@@H](O[C@H]3[C@H](O)[C@@H](O)[C@H](OCCN=[N+]=[N-])O[C@@H]3CO)[C@H](O)[C@@H](O)[C@H]2O)(C(=O)O)O[C@H]1C(O)[C@H](O)CNC(=O)OCc1cn(-c2ccc(Cl)cc2)nn1
REMARK SMILES IDX 9 1 8 2 6 3 5 4 42 5 41 6 10 7 11 8 12 9 14 10 13 11 32 12
REMARK SMILES IDX 34 13 36 14 15 15 16 16 29 17 28 18 21 19 17 20 19 21 30 22
REMARK SMILES IDX 31 23 22 25 23 26 24 27 25 28 26 29 27 30 18 31 20 33 33 35
REMARK SMILES IDX 35 37 37 39 38 41 39 42 40 43 7 45 43 47 44 48 45 50 46 51
REMARK SMILES IDX 47 53 48 54 49 55 50 57 51 58 52 59 53 60 54 61 64 62 55 63
REMARK SMILES IDX 63 64 56 65 57 66 62 67 58 68 61 69 59 70 60 71 4 72 2 73
REMARK SMILES IDX 1 75 3 76
REMARK H PARENT 31 24 18 32 20 34 33 36 35 38 37 40 40 44 7 46 44 49 46 52
REMARK H PARENT 48 56 4 74
REMARK Flexibility Score: inf
ROOT
ATOM      1  C   UNL     1      26.754  36.798  11.493  1.00  0.00     0.272 C 
ATOM      2  C   UNL     1      26.156  38.018  12.060  1.00  0.00     0.113 C 
ATOM      3  C   UNL     1      26.961  38.891  12.934  1.00  0.00     0.145 C 
ATOM      4  C   UNL     1      28.406  38.440  12.941  1.00  0.00     0.142 C 
ATOM      5  C   UNL     1      28.333  36.909  13.128  1.00  0.00     0.178 C 
ATOM      6  O   UNL     1      28.059  36.503  11.786  1.00  0.00    -0.332 OA
ENDROOT
BRANCH   1   7
ATOM      7  O   UNL     1      26.621  36.888  10.079  1.00  0.00    -0.338 OA
BRANCH   7   8
ATOM      8  C   UNL     1      25.673  37.788   9.678  1.00  0.00     0.199 C 
BRANCH   8   9
ATOM      9  C   UNL     1      24.488  37.104   9.002  1.00  0.00     0.179 C 
ATOM     10  C   UNL     1      22.184  37.557   9.132  1.00  0.00     0.282 C 
ATOM     11  O   UNL     1      23.363  37.155   9.760  1.00  0.00    -0.341 OA
ATOM     12  C   UNL     1      22.388  38.912   8.595  1.00  0.00     0.202 C 
ATOM     13  C   UNL     1      23.509  38.884   7.565  1.00  0.00     0.179 C 
ATOM     14  C   UNL     1      24.288  37.608   7.591  1.00  0.00     0.177 C 
BRANCH  10  15
ATOM     15  O   UNL     1      21.222  37.406  10.129  1.00  0.00    -0.341 OA
BRANCH  15  16
ATOM     16  C   UNL     1      20.231  36.549   9.906  1.00  0.00     0.184 C 
ATOM     17  C   UNL     1      20.531  35.147  10.298  1.00  0.00     0.178 C 
ATOM     18  O   UNL     1      19.374  34.376  10.337  1.00  0.00    -0.341 OA
ATOM     19  C   UNL     1      18.685  34.289   9.170  1.00  0.00     0.281 C 
ATOM     20  C   UNL     1      19.763  36.475   8.438  1.00  0.00     0.180 C 
ATOM     21  C   UNL     1      19.289  35.110   8.090  1.00  0.00     0.202 C 
BRANCH  17  22
ATOM     22  C   UNL     1      21.283  34.945  11.576  1.00  0.00     0.191 C 
BRANCH  22  23
ATOM     23  O   UNL     1      22.663  34.917  11.380  1.00  0.00    -0.394 OA
ATOM     24  H   UNL     1      23.114  35.197  12.211  1.00  0.00     0.210 HD
ENDBRANCH  22  23
ENDBRANCH  17  22
BRANCH  19  25
ATOM     25  O   UNL     1      17.367  34.723   9.352  1.00  0.00    -0.350 OA
BRANCH  25  26
ATOM     26  C   UNL     1      16.457  33.697   9.148  1.00  0.00     0.169 C 
BRANCH  26  27
ATOM     27  C   UNL     1      15.672  33.826   7.879  1.00  0.00     0.119 C 
BRANCH  27  28
ATOM     28  N   UNL     1      16.446  33.168   6.829  1.00  0.00    -0.092 NA
ATOM     29  N   UNL     1      16.851  32.024   7.105  1.00  0.00     0.001 N 
ATOM     30  N   UNL     1      16.964  30.783   7.196  1.00  0.00    -0.003 NA
ENDBRANCH  27  28
ENDBRANCH  26  27
ENDBRANCH  25  26
ENDBRANCH  19  25
BRANCH  20  31
ATOM     31  O   UNL     1      18.722  37.378   8.312  1.00  0.00    -0.387 OA
ATOM     32  H   UNL     1      18.922  37.926   7.488  1.00  0.00     0.211 HD
ENDBRANCH  20  31
BRANCH  21  33
ATOM     33  O   UNL     1      20.269  34.354   7.417  1.00  0.00    -0.385 OA
ATOM     34  H   UNL     1      19.772  33.810   6.766  1.00  0.00     0.211 HD
ENDBRANCH  21  33
ENDBRANCH  15  16
ENDBRANCH  10  15
BRANCH  12  35
ATOM     35  O   UNL     1      21.271  39.496   7.994  1.00  0.00    -0.385 OA
ATOM     36  H   UNL     1      21.493  40.407   7.618  1.00  0.00     0.211 HD
ENDBRANCH  12  35
BRANCH  13  37
ATOM     37  O   UNL     1      24.293  40.021   7.749  1.00  0.00    -0.387 OA
ATOM     38  H   UNL     1      25.074  39.892   8.309  1.00  0.00     0.211 HD
ENDBRANCH  13  37
BRANCH  14  39
ATOM     39  O   UNL     1      25.594  37.843   7.095  1.00  0.00    -0.387 OA
ATOM     40  H   UNL     1      25.489  38.218   6.202  1.00  0.00     0.211 HD
ENDBRANCH  14  39
ENDBRANCH   8   9
ENDBRANCH   7   8
ENDBRANCH   1   7
BRANCH   1  41
ATOM     41  C   UNL     1      25.902  35.618  11.888  1.00  0.00     0.364 C 
ATOM     42  O   UNL     1      25.869  34.570  11.206  1.00  0.00    -0.246 OA
BRANCH  41  43
ATOM     43  O   UNL     1      25.141  35.693  13.028  1.00  0.00    -0.477 OA
ATOM     44  H   UNL     1      25.470  35.409  13.948  1.00  0.00     0.296 HD
ENDBRANCH  41  43
ENDBRANCH   1  41
BRANCH   3  45
ATOM     45  O   UNL     1      26.955  40.209  12.478  1.00  0.00    -0.391 OA
ATOM     46  H   UNL     1      26.077  40.393  12.095  1.00  0.00     0.211 HD
ENDBRANCH   3  45
BRANCH   5  47
ATOM     47  C   UNL     1      29.628  36.310  13.544  1.00  0.00     0.176 C 
BRANCH  47  48
ATOM     48  O   UNL     1      29.618  36.189  14.927  1.00  0.00    -0.388 OA
ATOM     49  H   UNL     1      29.381  37.019  15.408  1.00  0.00     0.211 HD
ENDBRANCH  47  48
BRANCH  47  50
ATOM     50  C   UNL     1      30.106  35.081  12.897  1.00  0.00     0.165 C 
BRANCH  50  51
ATOM     51  O   UNL     1      28.976  34.184  12.933  1.00  0.00    -0.388 OA
ATOM     52  H   UNL     1      29.258  33.309  13.289  1.00  0.00     0.211 HD
ENDBRANCH  50  51
BRANCH  50  53
ATOM     53  C   UNL     1      31.134  34.321  13.723  1.00  0.00     0.154 C 
BRANCH  53  54
ATOM     54  N   UNL     1      30.597  33.208  14.456  1.00  0.00    -0.319 N 
ATOM     55  C   UNL     1      30.682  33.217  15.872  1.00  0.00     0.407 C 
ATOM     56  H   UNL     1      30.145  32.381  13.998  1.00  0.00     0.167 HD
ATOM     57  O   UNL     1      31.231  34.169  16.505  1.00  0.00    -0.225 OA
BRANCH  55  58
ATOM     58  O   UNL     1      30.164  32.176  16.619  1.00  0.00    -0.443 OA
BRANCH  58  59
ATOM     59  C   UNL     1      28.894  32.267  17.270  1.00  0.00     0.294 C 
BRANCH  59  60
ATOM     60  C   UNL     1      27.827  32.581  16.276  1.00  0.00     0.121 A 
ATOM     61  C   UNL     1      26.862  31.689  15.829  1.00  0.00     0.144 A 
ATOM     62  N   UNL     1      27.602  33.741  15.644  1.00  0.00    -0.131 NA
ATOM     63  N   UNL     1      26.087  32.331  14.945  1.00  0.00    -0.220 N 
ATOM     64  N   UNL     1      26.548  33.546  14.856  1.00  0.00    -0.062 NA
BRANCH  63  65
ATOM     65  C   UNL     1      24.987  31.702  14.285  1.00  0.00     0.066 A 
ATOM     66  C   UNL     1      24.786  30.347  14.367  1.00  0.00     0.030 A 
ATOM     67  C   UNL     1      24.103  32.445  13.553  1.00  0.00     0.030 A 
ATOM     68  C   UNL     1      23.720  29.704  13.734  1.00  0.00     0.023 A 
ATOM     69  C   UNL     1      23.035  31.833  12.913  1.00  0.00     0.023 A 
ATOM     70  C   UNL     1      22.839  30.454  13.001  1.00  0.00     0.041 A 
ATOM     71  Cl  UNL     1      21.477  29.687  12.181  1.00  0.00    -0.084 Cl
ENDBRANCH  63  65
ENDBRANCH  59  60
ENDBRANCH  58  59
ENDBRANCH  55  58
ENDBRANCH  53  54
ENDBRANCH  50  53
ENDBRANCH  47  50
ENDBRANCH   5  47
BRANCH   4  72
ATOM     72  N   UNL     1      29.161  39.123  13.921  1.00  0.00    -0.348 N 
ATOM     73  C   UNL     1      30.031  40.200  13.527  1.00  0.00     0.217 C 
ATOM     74  H   UNL     1      29.138  38.925  14.934  1.00  0.00     0.163 HD
ATOM     75  C   UNL     1      30.841  40.941  14.536  1.00  0.00     0.114 C 
ATOM     76  O   UNL     1      30.091  40.502  12.308  1.00  0.00    -0.275 OA
ENDBRANCH   4  72
TORSDOF 30
BEGIN_RES LYS A 131
REMARK  4 active torsions:
REMARK  status: ('A' for Active; 'I' for Inactive)
REMARK    1  A    between atoms: CA   and  CB  
REMARK    2  A    between atoms: CB   and  CG  
REMARK    3  A    between atoms: CG   and  CD  
REMARK    4  A    between atoms: CD   and  CE  
ROOT
ATOM      1  CA  LYS A 131      29.867  25.555  16.977  1.00 20.52     0.186 C 
ENDROOT
BRANCH   1   2
ATOM      2  CB  LYS A 131      28.345  25.722  17.026  1.00 20.94     0.034 C 
BRANCH   2   3
ATOM      3  CG  LYS A 131      27.604  24.394  17.000  1.00 22.96     0.005 C 
BRANCH   3   4
ATOM      4  CD  LYS A 131      26.132  24.562  17.256  1.00 24.33     0.041 C 
BRANCH   4   5
ATOM      5  CE  LYS A 131      25.868  24.526  18.758  1.00 26.91     0.338 C 
ATOM      6  NZ  LYS A 131      25.539  23.148  19.194  1.00 27.40     0.618 N 
ENDBRANCH   4   5
ENDBRANCH   3   4
ENDBRANCH   2   3
ENDBRANCH   1   2
END_RES LYS A 131
BEGIN_RES LYS A 135
REMARK  4 active torsions:
REMARK  status: ('A' for Active; 'I' for Inactive)
REMARK    5  A    between atoms: CA   and  CB  
REMARK    6  A    between atoms: CB   and  CG  
REMARK    7  A    between atoms: CG   and  CD  
REMARK    8  A    between atoms: CD   and  CE  
ROOT
ATOM      7  CA  LYS A 135      33.193  34.663   9.290  1.00 25.02     0.186 C 
ENDROOT
BRANCH   7   8
ATOM      8  CB  LYS A 135      32.060  35.360  10.034  1.00 26.63     0.034 C 
BRANCH   8   9
ATOM      9  CG  LYS A 135      30.798  35.494   9.221  1.00 29.45     0.005 C 
BRANCH   9  10
ATOM     10  CD  LYS A 135      30.158  34.133   8.996  1.00 32.00     0.041 C 
BRANCH  10  11
ATOM     11  CE  LYS A 135      28.652  34.267   8.870  1.00 34.25     0.338 C 
ATOM     12  NZ  LYS A 135      28.281  35.003   7.630  1.00 35.99     0.618 N 
ENDBRANCH  10  11
ENDBRANCH   9  10
ENDBRANCH   8   9
ENDBRANCH   7   8
END_RES LYS A 135
