REMARK VINA RESULT:    -5.132      4.069      9.248
REMARK INTER + INTRA:         -22.344
REMARK INTER:                 -12.520
REMARK INTRA:                  -9.824
REMARK UNBOUND:                -9.712
REMARK SMILES CC(=O)N[C@@H]1[C@@H](O)C[C@](OC[C@H]2O[C@@H](O[C@H]3[C@H](O)[C@@H](O)[C@H](OCCN=[N+]=[N-])O[C@@H]3CO)[C@H](O)[C@@H](O)[C@H]2O)(C(=O)O)O[C@H]1C(O)[C@H](O)CNC(=O)OCc1cn(C2CCCCC2)nn1
REMARK SMILES IDX 9 1 8 2 6 3 5 4 42 5 41 6 10 7 11 8 12 9 14 10 13 11 32 12
REMARK SMILES IDX 34 13 36 14 15 15 16 16 29 17 28 18 21 19 17 20 19 21 30 22
REMARK SMILES IDX 31 23 22 25 23 26 24 27 25 28 26 29 27 30 18 31 20 33 33 35
REMARK SMILES IDX 35 37 37 39 38 41 39 42 40 43 7 45 43 47 44 48 45 50 46 51
REMARK SMILES IDX 47 53 48 54 49 55 50 57 51 58 52 59 53 60 54 61 63 62 55 63
REMARK SMILES IDX 62 64 56 65 57 66 61 67 58 68 60 69 59 70 4 71 2 72 1 74
REMARK SMILES IDX 3 75
REMARK H PARENT 31 24 18 32 20 34 33 36 35 38 37 40 40 44 7 46 44 49 46 52
REMARK H PARENT 48 56 4 73
REMARK Flexibility Score: inf
ROOT
ATOM      1  C   UNL     1      22.455  36.383   9.117  1.00  0.00     0.272 C 
ATOM      2  C   UNL     1      22.419  36.716   7.579  1.00  0.00     0.113 C 
ATOM      3  C   UNL     1      23.352  37.854   7.298  1.00  0.00     0.145 C 
ATOM      4  C   UNL     1      23.017  39.051   8.146  1.00  0.00     0.142 C 
ATOM      5  C   UNL     1      22.593  38.702   9.530  1.00  0.00     0.178 C 
ATOM      6  O   UNL     1      22.213  37.482   9.851  1.00  0.00    -0.332 OA
ENDROOT
BRANCH   1   7
ATOM      7  O   UNL     1      23.669  35.880   9.286  1.00  0.00    -0.338 OA
BRANCH   7   8
ATOM      8  C   UNL     1      24.395  35.561  10.304  1.00  0.00     0.199 C 
BRANCH   8   9
ATOM      9  C   UNL     1      25.736  34.859  10.169  1.00  0.00     0.179 C 
ATOM     10  C   UNL     1      27.384  35.536   8.644  1.00  0.00     0.282 C 
ATOM     11  O   UNL     1      26.200  34.851   8.893  1.00  0.00    -0.341 OA
ATOM     12  C   UNL     1      28.438  35.061   9.571  1.00  0.00     0.202 C 
ATOM     13  C   UNL     1      28.019  35.052  11.021  1.00  0.00     0.179 C 
ATOM     14  C   UNL     1      26.646  35.591  11.150  1.00  0.00     0.177 C 
BRANCH  10  15
ATOM     15  O   UNL     1      27.092  36.848   8.584  1.00  0.00    -0.341 OA
BRANCH  15  16
ATOM     16  C   UNL     1      27.988  37.730   8.074  1.00  0.00     0.184 C 
ATOM     17  C   UNL     1      28.655  37.079   6.881  1.00  0.00     0.178 C 
ATOM     18  O   UNL     1      29.371  37.982   6.118  1.00  0.00    -0.341 OA
ATOM     19  C   UNL     1      29.824  39.076   6.807  1.00  0.00     0.281 C 
ATOM     20  C   UNL     1      29.122  38.071   9.017  1.00  0.00     0.180 C 
ATOM     21  C   UNL     1      30.200  38.750   8.205  1.00  0.00     0.202 C 
BRANCH  17  22
ATOM     22  C   UNL     1      27.727  36.226   6.064  1.00  0.00     0.191 C 
BRANCH  22  23
ATOM     23  O   UNL     1      26.775  37.069   5.491  1.00  0.00    -0.394 OA
ATOM     24  H   UNL     1      26.222  37.523   6.170  1.00  0.00     0.210 HD
ENDBRANCH  22  23
ENDBRANCH  17  22
BRANCH  19  25
ATOM     25  O   UNL     1      28.953  40.119   6.634  1.00  0.00    -0.350 OA
BRANCH  25  26
ATOM     26  C   UNL     1      28.693  40.437   5.310  1.00  0.00     0.169 C 
BRANCH  26  27
ATOM     27  C   UNL     1      27.228  40.481   4.970  1.00  0.00     0.119 C 
BRANCH  27  28
ATOM     28  N   UNL     1      26.483  39.994   6.113  1.00  0.00    -0.092 NA
ATOM     29  N   UNL     1      25.619  40.757   6.567  1.00  0.00     0.001 N 
ATOM     30  N   UNL     1      25.155  41.556   7.400  1.00  0.00    -0.003 NA
ENDBRANCH  27  28
ENDBRANCH  26  27
ENDBRANCH  25  26
ENDBRANCH  19  25
BRANCH  20  31
ATOM     31  O   UNL     1      28.758  38.909  10.043  1.00  0.00    -0.387 OA
ATOM     32  H   UNL     1      29.333  39.710  10.116  1.00  0.00     0.211 HD
ENDBRANCH  20  31
BRANCH  21  33
ATOM     33  O   UNL     1      31.272  37.826   8.135  1.00  0.00    -0.385 OA
ATOM     34  H   UNL     1      30.937  36.924   7.909  1.00  0.00     0.211 HD
ENDBRANCH  21  33
ENDBRANCH  15  16
ENDBRANCH  10  15
BRANCH  12  35
ATOM     35  O   UNL     1      28.678  33.704   9.229  1.00  0.00    -0.385 OA
ATOM     36  H   UNL     1      29.639  33.502   9.207  1.00  0.00     0.211 HD
ENDBRANCH  12  35
BRANCH  13  37
ATOM     37  O   UNL     1      28.909  35.808  11.809  1.00  0.00    -0.387 OA
ATOM     38  H   UNL     1      28.551  36.705  11.906  1.00  0.00     0.211 HD
ENDBRANCH  13  37
BRANCH  14  39
ATOM     39  O   UNL     1      26.507  36.951  11.121  1.00  0.00    -0.387 OA
ATOM     40  H   UNL     1      27.304  37.334  10.684  1.00  0.00     0.211 HD
ENDBRANCH  14  39
ENDBRANCH   8   9
ENDBRANCH   7   8
ENDBRANCH   1   7
BRANCH   1  41
ATOM     41  C   UNL     1      21.271  35.468   9.278  1.00  0.00     0.364 C 
ATOM     42  O   UNL     1      20.704  35.242  10.340  1.00  0.00    -0.246 OA
BRANCH  41  43
ATOM     43  O   UNL     1      20.749  34.808   8.148  1.00  0.00    -0.477 OA
ATOM     44  H   UNL     1      20.258  35.326   7.438  1.00  0.00     0.296 HD
ENDBRANCH  41  43
ENDBRANCH   1  41
BRANCH   3  45
ATOM     45  O   UNL     1      24.681  37.471   7.430  1.00  0.00    -0.391 OA
ATOM     46  H   UNL     1      24.698  36.477   7.549  1.00  0.00     0.211 HD
ENDBRANCH   3  45
BRANCH   5  47
ATOM     47  C   UNL     1      23.707  39.111  10.542  1.00  0.00     0.176 C 
BRANCH  47  48
ATOM     48  O   UNL     1      24.365  40.252  10.043  1.00  0.00    -0.388 OA
ATOM     49  H   UNL     1      24.343  40.284   9.066  1.00  0.00     0.211 HD
ENDBRANCH  47  48
BRANCH  47  50
ATOM     50  C   UNL     1      23.158  39.332  11.909  1.00  0.00     0.165 C 
BRANCH  50  51
ATOM     51  O   UNL     1      22.016  40.153  11.754  1.00  0.00    -0.388 OA
ATOM     52  H   UNL     1      21.209  39.624  11.600  1.00  0.00     0.211 HD
ENDBRANCH  50  51
BRANCH  50  53
ATOM     53  C   UNL     1      24.039  40.014  12.887  1.00  0.00     0.154 C 
BRANCH  53  54
ATOM     54  N   UNL     1      25.323  39.404  13.108  1.00  0.00    -0.319 N 
ATOM     55  C   UNL     1      26.544  39.972  12.656  1.00  0.00     0.407 C 
ATOM     56  H   UNL     1      25.371  38.508  13.625  1.00  0.00     0.167 HD
ATOM     57  O   UNL     1      26.537  41.061  12.029  1.00  0.00    -0.225 OA
BRANCH  55  58
ATOM     58  O   UNL     1      27.751  39.370  12.878  1.00  0.00    -0.443 OA
BRANCH  58  59
ATOM     59  C   UNL     1      28.372  39.158  14.123  1.00  0.00     0.294 C 
BRANCH  59  60
ATOM     60  C   UNL     1      28.291  37.721  14.460  1.00  0.00     0.120 A 
ATOM     61  C   UNL     1      29.312  37.041  15.061  1.00  0.00     0.138 A 
ATOM     62  N   UNL     1      27.296  36.849  14.265  1.00  0.00    -0.132 NA
ATOM     63  N   UNL     1      28.925  35.755  15.226  1.00  0.00    -0.249 N 
ATOM     64  N   UNL     1      27.693  35.668  14.731  1.00  0.00    -0.067 NA
BRANCH  63  65
ATOM     65  C   UNL     1      29.715  34.695  15.823  1.00  0.00     0.109 C 
ATOM     66  C   UNL     1      30.861  34.436  14.849  1.00  0.00     0.027 C 
ATOM     67  C   UNL     1      28.896  33.430  15.941  1.00  0.00     0.027 C 
ATOM     68  C   UNL     1      31.797  33.389  15.453  1.00  0.00     0.002 C 
ATOM     69  C   UNL     1      29.588  32.230  15.327  1.00  0.00     0.002 C 
ATOM     70  C   UNL     1      31.015  32.157  15.779  1.00  0.00     0.000 C 
ENDBRANCH  63  65
ENDBRANCH  59  60
ENDBRANCH  58  59
ENDBRANCH  55  58
ENDBRANCH  53  54
ENDBRANCH  50  53
ENDBRANCH  47  50
ENDBRANCH   5  47
BRANCH   4  71
ATOM     71  N   UNL     1      22.126  39.956   7.469  1.00  0.00    -0.348 N 
ATOM     72  C   UNL     1      21.738  41.213   7.962  1.00  0.00     0.217 C 
ATOM     73  H   UNL     1      21.700  39.704   6.520  1.00  0.00     0.163 HD
ATOM     74  C   UNL     1      20.813  42.115   7.194  1.00  0.00     0.114 C 
ATOM     75  O   UNL     1      22.138  41.633   9.048  1.00  0.00    -0.275 OA
ENDBRANCH   4  71
TORSDOF 30
BEGIN_RES LYS A 131
REMARK  4 active torsions:
REMARK  status: ('A' for Active; 'I' for Inactive)
REMARK    1  A    between atoms: CA   and  CB  
REMARK    2  A    between atoms: CB   and  CG  
REMARK    3  A    between atoms: CG   and  CD  
REMARK    4  A    between atoms: CD   and  CE  
ROOT
ATOM      1  CA  LYS A 131      29.867  25.555  16.977  1.00 20.52     0.186 C 
ENDROOT
BRANCH   1   2
ATOM      2  CB  LYS A 131      28.345  25.722  17.026  1.00 20.94     0.034 C 
BRANCH   2   3
ATOM      3  CG  LYS A 131      27.601  24.402  16.892  1.00 22.96     0.005 C 
BRANCH   3   4
ATOM      4  CD  LYS A 131      26.158  24.522  17.297  1.00 24.33     0.041 C 
BRANCH   4   5
ATOM      5  CE  LYS A 131      25.901  23.656  18.526  1.00 26.91     0.338 C 
ATOM      6  NZ  LYS A 131      25.525  24.499  19.685  1.00 27.40     0.618 N 
ENDBRANCH   4   5
ENDBRANCH   3   4
ENDBRANCH   2   3
ENDBRANCH   1   2
END_RES LYS A 131
BEGIN_RES LYS A 135
REMARK  4 active torsions:
REMARK  status: ('A' for Active; 'I' for Inactive)
REMARK    5  A    between atoms: CA   and  CB  
REMARK    6  A    between atoms: CB   and  CG  
REMARK    7  A    between atoms: CG   and  CD  
REMARK    8  A    between atoms: CD   and  CE  
ROOT
ATOM      7  CA  LYS A 135      33.193  34.663   9.290  1.00 25.02     0.186 C 
ENDROOT
BRANCH   7   8
ATOM      8  CB  LYS A 135      32.060  35.360  10.034  1.00 26.63     0.034 C 
BRANCH   8   9
ATOM      9  CG  LYS A 135      32.123  35.184  11.529  1.00 29.45     0.005 C 
BRANCH   9  10
ATOM     10  CD  LYS A 135      32.487  36.495  12.209  1.00 32.00     0.041 C 
BRANCH  10  11
ATOM     11  CE  LYS A 135      31.955  37.672  11.414  1.00 34.25     0.338 C 
ATOM     12  NZ  LYS A 135      31.308  38.674  12.306  1.00 35.99     0.618 N 
ENDBRANCH  10  11
ENDBRANCH   9  10
ENDBRANCH   8   9
ENDBRANCH   7   8
END_RES LYS A 135
