REMARK VINA RESULT:    -4.282      2.614      6.989
REMARK INTER + INTRA:         -21.482
REMARK INTER:                  -9.559
REMARK INTRA:                 -11.924
REMARK UNBOUND:               -10.943
REMARK SMILES CC(=O)N[C@@H]1[C@@H](O)C[C@](OC[C@H]2O[C@@H](O[C@H]3[C@H](O)[C@@H](O)[C@H](OCCN=[N+]=[N-])O[C@@H]3CO)[C@H](O)[C@@H](O)[C@H]2O)(C(=O)O)O[C@H]1C(O)[C@H](O)CNC(=O)OCc1cn([C@@H]2C[C@H]3CC[C@@H](C2)N3C)nn1
REMARK SMILES IDX 9 1 8 2 6 3 5 4 42 5 41 6 10 7 11 8 12 9 14 10 13 11 32 12
REMARK SMILES IDX 34 13 36 14 15 15 16 16 29 17 28 18 21 19 17 20 19 21 30 22
REMARK SMILES IDX 31 23 22 25 23 26 24 27 25 28 26 29 27 30 18 31 20 33 33 35
REMARK SMILES IDX 35 37 37 39 38 41 39 42 40 43 7 45 43 47 44 48 45 50 46 51
REMARK SMILES IDX 47 53 48 54 49 55 50 57 51 58 52 59 53 60 54 61 66 62 55 63
REMARK SMILES IDX 65 64 56 65 62 66 57 67 61 68 58 69 63 70 60 71 59 72 64 73
REMARK SMILES IDX 4 74 2 75 1 77 3 78
REMARK H PARENT 31 24 18 32 20 34 33 36 35 38 37 40 40 44 7 46 44 49 46 52
REMARK H PARENT 48 56 4 76
REMARK Flexibility Score: inf
ROOT
ATOM      1  C   UNL     1      30.043  34.699  18.521  1.00  0.00     0.272 C 
ATOM      2  C   UNL     1      29.590  35.739  17.578  1.00  0.00     0.113 C 
ATOM      3  C   UNL     1      29.113  35.143  16.262  1.00  0.00     0.145 C 
ATOM      4  C   UNL     1      30.219  34.225  15.690  1.00  0.00     0.142 C 
ATOM      5  C   UNL     1      30.840  33.403  16.747  1.00  0.00     0.178 C 
ATOM      6  O   UNL     1      30.029  33.438  17.863  1.00  0.00    -0.332 OA
ENDROOT
BRANCH   1   7
ATOM      7  O   UNL     1      29.491  34.549  19.742  1.00  0.00    -0.338 OA
BRANCH   7   8
ATOM      8  C   UNL     1      28.541  33.778  20.165  1.00  0.00     0.199 C 
BRANCH   8   9
ATOM      9  C   UNL     1      28.754  33.064  21.491  1.00  0.00     0.179 C 
ATOM     10  C   UNL     1      28.002  30.855  21.777  1.00  0.00     0.282 C 
ATOM     11  O   UNL     1      27.681  32.175  21.656  1.00  0.00    -0.341 OA
ATOM     12  C   UNL     1      28.975  30.560  22.869  1.00  0.00     0.202 C 
ATOM     13  C   UNL     1      30.169  31.430  22.684  1.00  0.00     0.179 C 
ATOM     14  C   UNL     1      30.073  32.362  21.526  1.00  0.00     0.177 C 
BRANCH  10  15
ATOM     15  O   UNL     1      28.300  30.242  20.572  1.00  0.00    -0.341 OA
BRANCH  15  16
ATOM     16  C   UNL     1      27.579  29.092  20.324  1.00  0.00     0.184 C 
ATOM     17  C   UNL     1      28.445  27.960  19.935  1.00  0.00     0.178 C 
ATOM     18  O   UNL     1      27.737  26.758  19.845  1.00  0.00    -0.341 OA
ATOM     19  C   UNL     1      26.353  26.936  19.805  1.00  0.00     0.281 C 
ATOM     20  C   UNL     1      26.683  29.338  19.063  1.00  0.00     0.180 C 
ATOM     21  C   UNL     1      25.908  28.070  18.904  1.00  0.00     0.202 C 
BRANCH  17  22
ATOM     22  C   UNL     1      29.696  27.751  20.715  1.00  0.00     0.191 C 
BRANCH  22  23
ATOM     23  O   UNL     1      30.670  28.669  20.332  1.00  0.00    -0.394 OA
ATOM     24  H   UNL     1      31.304  28.795  21.080  1.00  0.00     0.210 HD
ENDBRANCH  22  23
ENDBRANCH  17  22
BRANCH  19  25
ATOM     25  O   UNL     1      25.790  26.943  21.050  1.00  0.00    -0.350 OA
BRANCH  25  26
ATOM     26  C   UNL     1      24.480  27.234  21.199  1.00  0.00     0.169 C 
BRANCH  26  27
ATOM     27  C   UNL     1      24.164  28.276  22.207  1.00  0.00     0.119 C 
BRANCH  27  28
ATOM     28  N   UNL     1      24.052  29.603  21.709  1.00  0.00    -0.092 NA
ATOM     29  N   UNL     1      23.165  29.975  20.934  1.00  0.00     0.001 N 
ATOM     30  N   UNL     1      22.716  30.471  19.895  1.00  0.00    -0.003 NA
ENDBRANCH  27  28
ENDBRANCH  26  27
ENDBRANCH  25  26
ENDBRANCH  19  25
BRANCH  20  31
ATOM     31  O   UNL     1      25.826  30.390  19.265  1.00  0.00    -0.387 OA
ATOM     32  H   UNL     1      25.434  30.692  18.402  1.00  0.00     0.211 HD
ENDBRANCH  20  31
BRANCH  21  33
ATOM     33  O   UNL     1      25.954  27.627  17.578  1.00  0.00    -0.385 OA
ATOM     34  H   UNL     1      26.477  28.258  17.062  1.00  0.00     0.211 HD
ENDBRANCH  21  33
ENDBRANCH  15  16
ENDBRANCH  10  15
BRANCH  12  35
ATOM     35  O   UNL     1      28.372  30.836  24.114  1.00  0.00    -0.385 OA
ATOM     36  H   UNL     1      27.389  30.837  23.971  1.00  0.00     0.211 HD
ENDBRANCH  12  35
BRANCH  13  37
ATOM     37  O   UNL     1      31.340  30.651  22.528  1.00  0.00    -0.387 OA
ATOM     38  H   UNL     1      32.121  31.136  22.889  1.00  0.00     0.211 HD
ENDBRANCH  13  37
BRANCH  14  39
ATOM     39  O   UNL     1      30.389  31.687  20.341  1.00  0.00    -0.387 OA
ATOM     40  H   UNL     1      31.271  31.243  20.509  1.00  0.00     0.211 HD
ENDBRANCH  14  39
ENDBRANCH   8   9
ENDBRANCH   7   8
ENDBRANCH   1   7
BRANCH   1  41
ATOM     41  C   UNL     1      31.502  34.977  18.823  1.00  0.00     0.364 C 
ATOM     42  O   UNL     1      32.129  35.975  18.434  1.00  0.00    -0.246 OA
BRANCH  41  43
ATOM     43  O   UNL     1      32.230  34.067  19.595  1.00  0.00    -0.477 OA
ATOM     44  H   UNL     1      31.780  33.214  19.948  1.00  0.00     0.296 HD
ENDBRANCH  41  43
ENDBRANCH   1  41
BRANCH   3  45
ATOM     45  O   UNL     1      27.897  34.501  16.336  1.00  0.00    -0.391 OA
ATOM     46  H   UNL     1      27.915  33.724  15.700  1.00  0.00     0.211 HD
ENDBRANCH   3  45
BRANCH   5  47
ATOM     47  C   UNL     1      30.774  31.874  16.376  1.00  0.00     0.176 C 
BRANCH  47  48
ATOM     48  O   UNL     1      30.425  31.910  14.958  1.00  0.00    -0.388 OA
ATOM     49  H   UNL     1      29.516  32.338  14.933  1.00  0.00     0.211 HD
ENDBRANCH  47  48
BRANCH  47  50
ATOM     50  C   UNL     1      29.586  31.196  16.971  1.00  0.00     0.165 C 
BRANCH  50  51
ATOM     51  O   UNL     1      29.962  30.381  18.015  1.00  0.00    -0.388 OA
ATOM     52  H   UNL     1      30.710  29.787  17.845  1.00  0.00     0.211 HD
ENDBRANCH  50  51
BRANCH  50  53
ATOM     53  C   UNL     1      28.645  30.572  16.010  1.00  0.00     0.154 C 
BRANCH  53  54
ATOM     54  N   UNL     1      27.533  31.475  15.717  1.00  0.00    -0.319 N 
ATOM     55  C   UNL     1      26.223  30.998  15.602  1.00  0.00     0.407 C 
ATOM     56  H   UNL     1      27.744  32.477  15.599  1.00  0.00     0.167 HD
ATOM     57  O   UNL     1      26.014  29.758  15.757  1.00  0.00    -0.225 OA
BRANCH  55  58
ATOM     58  O   UNL     1      25.137  31.821  15.325  1.00  0.00    -0.443 OA
BRANCH  58  59
ATOM     59  C   UNL     1      24.716  32.806  16.260  1.00  0.00     0.294 C 
BRANCH  59  60
ATOM     60  C   UNL     1      24.487  34.104  15.553  1.00  0.00     0.120 A 
ATOM     61  C   UNL     1      23.682  34.326  14.455  1.00  0.00     0.138 A 
ATOM     62  N   UNL     1      25.022  35.284  15.848  1.00  0.00    -0.132 NA
ATOM     63  N   UNL     1      23.745  35.621  14.113  1.00  0.00    -0.249 N 
ATOM     64  N   UNL     1      24.587  36.182  15.001  1.00  0.00    -0.067 NA
BRANCH  63  65
ATOM     65  C   UNL     1      23.094  36.344  13.048  1.00  0.00     0.112 C 
ATOM     66  C   UNL     1      23.876  37.524  12.551  1.00  0.00     0.046 C 
ATOM     67  C   UNL     1      22.951  35.388  11.853  1.00  0.00     0.046 C 
ATOM     68  C   UNL     1      25.100  37.074  11.797  1.00  0.00     0.058 C 
ATOM     69  C   UNL     1      24.325  34.986  11.356  1.00  0.00     0.058 C 
ATOM     70  N   UNL     1      25.328  35.678  12.147  1.00  0.00    -0.300 NA
ATOM     71  C   UNL     1      24.868  37.028  10.310  1.00  0.00     0.021 C 
ATOM     72  C   UNL     1      24.571  35.590   9.986  1.00  0.00     0.021 C 
ATOM     73  C   UNL     1      26.663  35.339  11.757  1.00  0.00     0.105 C 
ENDBRANCH  63  65
ENDBRANCH  59  60
ENDBRANCH  58  59
ENDBRANCH  55  58
ENDBRANCH  53  54
ENDBRANCH  50  53
ENDBRANCH  47  50
ENDBRANCH   5  47
BRANCH   4  74
ATOM     74  N   UNL     1      31.136  35.087  14.934  1.00  0.00    -0.348 N 
ATOM     75  C   UNL     1      31.184  35.026  13.490  1.00  0.00     0.217 C 
ATOM     76  H   UNL     1      31.787  35.771  15.364  1.00  0.00     0.163 HD
ATOM     77  C   UNL     1      32.069  35.851  12.664  1.00  0.00     0.114 C 
ATOM     78  O   UNL     1      30.411  34.210  12.945  1.00  0.00    -0.275 OA
ENDBRANCH   4  74
TORSDOF 30
BEGIN_RES LYS A 131
REMARK  4 active torsions:
REMARK  status: ('A' for Active; 'I' for Inactive)
REMARK    1  A    between atoms: CA   and  CB  
REMARK    2  A    between atoms: CB   and  CG  
REMARK    3  A    between atoms: CG   and  CD  
REMARK    4  A    between atoms: CD   and  CE  
ROOT
ATOM      1  CA  LYS A 131      29.867  25.555  16.977  1.00 20.52     0.186 C 
ENDROOT
BRANCH   1   2
ATOM      2  CB  LYS A 131      28.345  25.722  17.026  1.00 20.94     0.034 C 
BRANCH   2   3
ATOM      3  CG  LYS A 131      27.599  24.441  16.686  1.00 22.96     0.005 C 
BRANCH   3   4
ATOM      4  CD  LYS A 131      26.978  23.808  17.900  1.00 24.33     0.041 C 
BRANCH   4   5
ATOM      5  CE  LYS A 131      25.554  23.369  17.573  1.00 26.91     0.338 C 
ATOM      6  NZ  LYS A 131      24.819  24.458  16.888  1.00 27.40     0.618 N 
ENDBRANCH   4   5
ENDBRANCH   3   4
ENDBRANCH   2   3
ENDBRANCH   1   2
END_RES LYS A 131
BEGIN_RES LYS A 135
REMARK  4 active torsions:
REMARK  status: ('A' for Active; 'I' for Inactive)
REMARK    5  A    between atoms: CA   and  CB  
REMARK    6  A    between atoms: CB   and  CG  
REMARK    7  A    between atoms: CG   and  CD  
REMARK    8  A    between atoms: CD   and  CE  
ROOT
ATOM      7  CA  LYS A 135      33.193  34.663   9.290  1.00 25.02     0.186 C 
ENDROOT
BRANCH   7   8
ATOM      8  CB  LYS A 135      32.060  35.360  10.034  1.00 26.63     0.034 C 
BRANCH   8   9
ATOM      9  CG  LYS A 135      30.856  35.640   9.172  1.00 29.45     0.005 C 
BRANCH   9  10
ATOM     10  CD  LYS A 135      29.634  34.906   9.702  1.00 32.00     0.041 C 
BRANCH  10  11
ATOM     11  CE  LYS A 135      28.887  34.228   8.569  1.00 34.25     0.338 C 
ATOM     12  NZ  LYS A 135      27.709  35.034   8.146  1.00 35.99     0.618 N 
ENDBRANCH  10  11
ENDBRANCH   9  10
ENDBRANCH   8   9
ENDBRANCH   7   8
END_RES LYS A 135
