REMARK VINA RESULT:    -4.771      3.949      9.881
REMARK INTER + INTRA:         -23.538
REMARK INTER:                 -13.140
REMARK INTRA:                 -10.398
REMARK UNBOUND:               -10.398
REMARK SMILES CC(=O)N[C@@H]1[C@@H](O)C[C@](OC[C@H]2O[C@@H](O[C@H]3[C@H](O)[C@@H](O)[C@H](OCCN=[N+]=[N-])O[C@@H]3CO)[C@H](O)[C@@H](O)[C@H]2O)(C(=O)O)O[C@H]1C(O)[C@H](O)CNC(=O)OCc1cn([C@@H](CCC(=O)O)C(=O)O)nn1
REMARK SMILES IDX 43 1 42 2 9 3 8 4 41 5 6 6 5 7 10 8 11 9 12 10 14 11 13 12
REMARK SMILES IDX 32 13 34 14 36 15 15 16 16 17 29 18 28 19 21 20 17 21 19 22
REMARK SMILES IDX 30 23 31 24 22 26 23 27 24 28 25 29 26 30 27 31 18 32 20 34
REMARK SMILES IDX 33 36 35 38 37 40 38 42 39 43 40 44 7 46 4 48 2 49 1 51 3 52
REMARK SMILES IDX 44 53 45 55 46 56 47 58 48 59 49 60 50 62 51 63 52 64 53 65
REMARK SMILES IDX 54 66 66 67 55 68 65 69 56 70 57 71 58 72 59 73 60 74 61 75
REMARK SMILES IDX 62 77 63 78 64 79
REMARK H PARENT 31 25 18 33 20 35 33 37 35 39 37 41 40 45 7 47 4 50 44 54
REMARK H PARENT 46 57 48 61 61 76 64 80
REMARK Flexibility Score: inf
ROOT
ATOM      1  C   UNL     1      28.352  27.392  21.067  1.00  0.00     0.176 C 
ENDROOT
BRANCH   1   2
ATOM      2  C   UNL     1      29.531  28.055  21.780  1.00  0.00     0.178 C 
ATOM      3  C   UNL     1      31.035  29.780  21.226  1.00  0.00     0.272 C 
ATOM      4  C   UNL     1      32.240  28.935  21.336  1.00  0.00     0.113 C 
ATOM      5  O   UNL     1      30.017  28.906  20.787  1.00  0.00    -0.332 OA
ATOM      6  C   UNL     1      31.907  27.469  21.400  1.00  0.00     0.145 C 
ATOM      7  C   UNL     1      30.643  27.093  22.087  1.00  0.00     0.142 C 
BRANCH   3   8
ATOM      8  O   UNL     1      31.166  30.731  20.234  1.00  0.00    -0.338 OA
BRANCH   8   9
ATOM      9  C   UNL     1      30.476  30.775  19.124  1.00  0.00     0.199 C 
BRANCH   9  10
ATOM     10  C   UNL     1      30.064  32.049  18.440  1.00  0.00     0.179 C 
ATOM     11  C   UNL     1      30.962  33.205  16.624  1.00  0.00     0.282 C 
ATOM     12  O   UNL     1      31.119  32.723  17.898  1.00  0.00    -0.341 OA
ATOM     13  C   UNL     1      30.672  32.041  15.703  1.00  0.00     0.202 C 
ATOM     14  C   UNL     1      29.356  31.444  16.085  1.00  0.00     0.179 C 
ATOM     15  C   UNL     1      28.922  31.791  17.465  1.00  0.00     0.177 C 
BRANCH  11  16
ATOM     16  O   UNL     1      32.163  33.797  16.224  1.00  0.00    -0.341 OA
BRANCH  16  17
ATOM     17  C   UNL     1      32.333  35.099  16.619  1.00  0.00     0.184 C 
ATOM     18  C   UNL     1      31.113  35.952  16.284  1.00  0.00     0.178 C 
ATOM     19  O   UNL     1      31.494  36.966  15.409  1.00  0.00    -0.341 OA
ATOM     20  C   UNL     1      31.811  36.409  14.138  1.00  0.00     0.281 C 
ATOM     21  C   UNL     1      33.497  35.661  15.828  1.00  0.00     0.180 C 
ATOM     22  C   UNL     1      33.074  35.630  14.344  1.00  0.00     0.202 C 
BRANCH  18  23
ATOM     23  C   UNL     1      30.601  36.618  17.550  1.00  0.00     0.191 C 
BRANCH  23  24
ATOM     24  O   UNL     1      29.360  37.198  17.366  1.00  0.00    -0.394 OA
ATOM     25  H   UNL     1      28.723  36.580  16.921  1.00  0.00     0.210 HD
ENDBRANCH  23  24
ENDBRANCH  18  23
BRANCH  20  26
ATOM     26  O   UNL     1      31.878  37.446  13.253  1.00  0.00    -0.350 OA
BRANCH  26  27
ATOM     27  C   UNL     1      31.019  37.378  12.191  1.00  0.00     0.169 C 
BRANCH  27  28
ATOM     28  C   UNL     1      29.608  37.830  12.505  1.00  0.00     0.119 C 
BRANCH  28  29
ATOM     29  N   UNL     1      28.748  36.725  12.881  1.00  0.00    -0.092 NA
ATOM     30  N   UNL     1      27.996  36.148  12.103  1.00  0.00     0.001 N 
ATOM     31  N   UNL     1      27.430  35.530  11.227  1.00  0.00    -0.003 NA
ENDBRANCH  28  29
ENDBRANCH  27  28
ENDBRANCH  26  27
ENDBRANCH  20  26
BRANCH  21  32
ATOM     32  O   UNL     1      33.833  36.953  16.211  1.00  0.00    -0.387 OA
ATOM     33  H   UNL     1      34.167  37.510  15.439  1.00  0.00     0.211 HD
ENDBRANCH  21  32
BRANCH  22  34
ATOM     34  O   UNL     1      32.757  34.269  14.114  1.00  0.00    -0.385 OA
ATOM     35  H   UNL     1      31.842  34.241  13.732  1.00  0.00     0.211 HD
ENDBRANCH  22  34
ENDBRANCH  16  17
ENDBRANCH  11  16
BRANCH  13  36
ATOM     36  O   UNL     1      30.655  32.461  14.371  1.00  0.00    -0.385 OA
ATOM     37  H   UNL     1      31.071  31.708  13.843  1.00  0.00     0.211 HD
ENDBRANCH  13  36
BRANCH  14  38
ATOM     38  O   UNL     1      29.327  30.059  15.899  1.00  0.00    -0.387 OA
ATOM     39  H   UNL     1      30.261  29.736  15.729  1.00  0.00     0.211 HD
ENDBRANCH  14  38
BRANCH  15  40
ATOM     40  O   UNL     1      28.179  30.706  17.937  1.00  0.00    -0.387 OA
ATOM     41  H   UNL     1      27.230  30.943  18.032  1.00  0.00     0.211 HD
ENDBRANCH  15  40
ENDBRANCH   9  10
ENDBRANCH   8   9
ENDBRANCH   3   8
BRANCH   3  42
ATOM     42  C   UNL     1      30.556  30.464  22.420  1.00  0.00     0.364 C 
ATOM     43  O   UNL     1      29.809  31.497  22.261  1.00  0.00    -0.246 OA
BRANCH  42  44
ATOM     44  O   UNL     1      30.798  30.157  23.745  1.00  0.00    -0.477 OA
ATOM     45  H   UNL     1      31.322  29.359  24.019  1.00  0.00     0.296 HD
ENDBRANCH  42  44
ENDBRANCH   3  42
BRANCH   6  46
ATOM     46  O   UNL     1      31.764  27.030  20.054  1.00  0.00    -0.391 OA
ATOM     47  H   UNL     1      32.083  26.098  19.951  1.00  0.00     0.211 HD
ENDBRANCH   6  46
BRANCH   7  48
ATOM     48  N   UNL     1      30.952  26.846  23.452  1.00  0.00    -0.348 N 
ATOM     49  C   UNL     1      30.243  25.939  24.277  1.00  0.00     0.217 C 
ATOM     50  H   UNL     1      31.752  27.317  23.919  1.00  0.00     0.163 HD
ATOM     51  C   UNL     1      30.623  25.730  25.719  1.00  0.00     0.114 C 
ATOM     52  O   UNL     1      29.294  25.299  23.830  1.00  0.00    -0.275 OA
ENDBRANCH   7  48
ENDBRANCH   1   2
BRANCH   1  53
ATOM     53  O   UNL     1      28.807  26.764  19.913  1.00  0.00    -0.388 OA
ATOM     54  H   UNL     1      29.767  26.524  20.013  1.00  0.00     0.211 HD
ENDBRANCH   1  53
BRANCH   1  55
ATOM     55  C   UNL     1      27.186  28.222  20.796  1.00  0.00     0.165 C 
BRANCH  55  56
ATOM     56  O   UNL     1      27.253  28.651  19.437  1.00  0.00    -0.388 OA
ATOM     57  H   UNL     1      27.985  28.152  19.003  1.00  0.00     0.211 HD
ENDBRANCH  55  56
BRANCH  55  58
ATOM     58  C   UNL     1      27.013  29.484  21.587  1.00  0.00     0.154 C 
BRANCH  58  59
ATOM     59  N   UNL     1      27.177  30.681  20.798  1.00  0.00    -0.319 N 
ATOM     60  C   UNL     1      26.522  31.915  21.086  1.00  0.00     0.407 C 
ATOM     61  H   UNL     1      27.791  30.656  19.969  1.00  0.00     0.167 HD
ATOM     62  O   UNL     1      25.765  32.016  22.051  1.00  0.00    -0.225 OA
BRANCH  60  63
ATOM     63  O   UNL     1      26.759  32.982  20.256  1.00  0.00    -0.443 OA
BRANCH  63  64
ATOM     64  C   UNL     1      25.756  33.674  19.572  1.00  0.00     0.294 C 
BRANCH  64  65
ATOM     65  C   UNL     1      25.559  33.068  18.231  1.00  0.00     0.120 A 
ATOM     66  C   UNL     1      24.982  31.861  17.896  1.00  0.00     0.139 A 
ATOM     67  N   UNL     1      25.952  33.620  17.052  1.00  0.00    -0.132 NA
ATOM     68  N   UNL     1      25.037  31.709  16.541  1.00  0.00    -0.238 N 
ATOM     69  N   UNL     1      25.636  32.804  16.068  1.00  0.00    -0.066 NA
BRANCH  68  70
ATOM     70  C   UNL     1      24.533  30.617  15.792  1.00  0.00     0.219 C 
BRANCH  70  71
ATOM     71  C   UNL     1      24.695  30.603  14.317  1.00  0.00     0.051 C 
BRANCH  71  72
ATOM     72  C   UNL     1      23.518  30.753  13.446  1.00  0.00     0.125 C 
BRANCH  72  73
ATOM     73  C   UNL     1      23.052  29.627  12.665  1.00  0.00     0.303 C 
ATOM     74  O   UNL     1      23.651  28.574  12.383  1.00  0.00    -0.252 OA
BRANCH  73  75
ATOM     75  O   UNL     1      21.731  29.675  12.117  1.00  0.00    -0.481 OA
ATOM     76  H   UNL     1      21.572  30.206  11.276  1.00  0.00     0.296 HD
ENDBRANCH  73  75
ENDBRANCH  72  73
ENDBRANCH  71  72
ENDBRANCH  70  71
BRANCH  70  77
ATOM     77  C   UNL     1      25.123  29.355  16.338  1.00  0.00     0.328 C 
ATOM     78  O   UNL     1      24.386  28.439  16.749  1.00  0.00    -0.250 OA
BRANCH  77  79
ATOM     79  O   UNL     1      26.490  29.158  16.406  1.00  0.00    -0.480 OA
ATOM     80  H   UNL     1      27.052  28.995  15.569  1.00  0.00     0.296 HD
ENDBRANCH  77  79
ENDBRANCH  70  77
ENDBRANCH  68  70
ENDBRANCH  64  65
ENDBRANCH  63  64
ENDBRANCH  60  63
ENDBRANCH  58  59
ENDBRANCH  55  58
ENDBRANCH   1  55
TORSDOF 36
BEGIN_RES LYS A 131
REMARK  4 active torsions:
REMARK  status: ('A' for Active; 'I' for Inactive)
REMARK    1  A    between atoms: CA   and  CB  
REMARK    2  A    between atoms: CB   and  CG  
REMARK    3  A    between atoms: CG   and  CD  
REMARK    4  A    between atoms: CD   and  CE  
ROOT
ATOM      1  CA  LYS A 131      29.867  25.555  16.977  1.00 20.52     0.186 C 
ENDROOT
BRANCH   1   2
ATOM      2  CB  LYS A 131      28.345  25.722  17.026  1.00 20.94     0.034 C 
BRANCH   2   3
ATOM      3  CG  LYS A 131      27.601  24.402  16.889  1.00 22.96     0.005 C 
BRANCH   3   4
ATOM      4  CD  LYS A 131      26.652  24.166  18.031  1.00 24.33     0.041 C 
BRANCH   4   5
ATOM      5  CE  LYS A 131      25.533  23.234  17.578  1.00 26.91     0.338 C 
ATOM      6  NZ  LYS A 131      24.480  23.996  16.865  1.00 27.40     0.618 N 
ENDBRANCH   4   5
ENDBRANCH   3   4
ENDBRANCH   2   3
ENDBRANCH   1   2
END_RES LYS A 131
BEGIN_RES LYS A 135
REMARK  4 active torsions:
REMARK  status: ('A' for Active; 'I' for Inactive)
REMARK    5  A    between atoms: CA   and  CB  
REMARK    6  A    between atoms: CB   and  CG  
REMARK    7  A    between atoms: CG   and  CD  
REMARK    8  A    between atoms: CD   and  CE  
ROOT
ATOM      7  CA  LYS A 135      33.193  34.663   9.290  1.00 25.02     0.186 C 
ENDROOT
BRANCH   7   8
ATOM      8  CB  LYS A 135      32.060  35.360  10.034  1.00 26.63     0.034 C 
BRANCH   8   9
ATOM      9  CG  LYS A 135      30.709  34.736   9.796  1.00 29.45     0.005 C 
BRANCH   9  10
ATOM     10  CD  LYS A 135      30.470  34.524   8.309  1.00 32.00     0.041 C 
BRANCH  10  11
ATOM     11  CE  LYS A 135      29.029  34.830   7.952  1.00 34.25     0.338 C 
ATOM     12  NZ  LYS A 135      28.938  35.534   6.643  1.00 35.99     0.618 N 
ENDBRANCH  10  11
ENDBRANCH   9  10
ENDBRANCH   8   9
ENDBRANCH   7   8
END_RES LYS A 135
