REMARK VINA RESULT:    -5.179      4.343      8.623
REMARK INTER + INTRA:         -21.870
REMARK INTER:                 -10.799
REMARK INTRA:                 -11.071
REMARK UNBOUND:                -9.122
REMARK SMILES CC(=O)N[C@@H]1[C@@H](O)C[C@](OC[C@H]2O[C@@H](O[C@H]3[C@H](O)[C@@H](O)[C@H](OCCN=[N+]=[N-])O[C@@H]3CO)[C@H](O)[C@@H](O)[C@H]2O)(C(=O)O)O[C@H]1C(O)[C@H](O)CNC(=O)OCc1cn(-c2ccc(Cl)cc2)nn1
REMARK SMILES IDX 9 1 8 2 6 3 5 4 42 5 41 6 10 7 11 8 12 9 14 10 13 11 32 12
REMARK SMILES IDX 34 13 36 14 15 15 16 16 29 17 28 18 21 19 17 20 19 21 30 22
REMARK SMILES IDX 31 23 22 25 23 26 24 27 25 28 26 29 27 30 18 31 20 33 33 35
REMARK SMILES IDX 35 37 37 39 38 41 39 42 40 43 7 45 43 47 44 48 45 50 46 51
REMARK SMILES IDX 47 53 48 54 49 55 50 57 51 58 52 59 53 60 54 61 64 62 55 63
REMARK SMILES IDX 63 64 56 65 57 66 62 67 58 68 61 69 59 70 60 71 4 72 2 73
REMARK SMILES IDX 1 75 3 76
REMARK H PARENT 31 24 18 32 20 34 33 36 35 38 37 40 40 44 7 46 44 49 46 52
REMARK H PARENT 48 56 4 74
REMARK Flexibility Score: inf
ROOT
ATOM      1  C   UNL     1      30.643  33.742  16.362  1.00  0.00     0.272 C 
ATOM      2  C   UNL     1      31.214  33.910  17.709  1.00  0.00     0.113 C 
ATOM      3  C   UNL     1      32.351  34.824  17.914  1.00  0.00     0.145 C 
ATOM      4  C   UNL     1      32.625  35.615  16.653  1.00  0.00     0.142 C 
ATOM      5  C   UNL     1      32.592  34.564  15.522  1.00  0.00     0.178 C 
ATOM      6  O   UNL     1      31.182  34.453  15.322  1.00  0.00    -0.332 OA
ENDROOT
BRANCH   1   7
ATOM      7  O   UNL     1      29.259  34.062  16.454  1.00  0.00    -0.338 OA
BRANCH   7   8
ATOM      8  C   UNL     1      28.703  33.729  17.658  1.00  0.00     0.199 C 
BRANCH   8   9
ATOM      9  C   UNL     1      27.179  33.805  17.621  1.00  0.00     0.179 C 
ATOM     10  C   UNL     1      25.717  34.323  15.852  1.00  0.00     0.282 C 
ATOM     11  O   UNL     1      26.731  34.722  16.724  1.00  0.00    -0.341 OA
ATOM     12  C   UNL     1      26.208  33.177  15.069  1.00  0.00     0.202 C 
ATOM     13  C   UNL     1      26.529  32.023  16.009  1.00  0.00     0.179 C 
ATOM     14  C   UNL     1      26.560  32.437  17.446  1.00  0.00     0.177 C 
BRANCH  10  15
ATOM     15  O   UNL     1      25.420  35.491  15.152  1.00  0.00    -0.341 OA
BRANCH  15  16
ATOM     16  C   UNL     1      26.228  36.533  15.318  1.00  0.00     0.184 C 
ATOM     17  C   UNL     1      25.530  37.842  15.415  1.00  0.00     0.178 C 
ATOM     18  O   UNL     1      26.381  38.833  15.894  1.00  0.00    -0.341 OA
ATOM     19  C   UNL     1      27.491  39.066  15.149  1.00  0.00     0.281 C 
ATOM     20  C   UNL     1      27.282  36.711  14.206  1.00  0.00     0.180 C 
ATOM     21  C   UNL     1      27.601  38.146  13.988  1.00  0.00     0.202 C 
BRANCH  17  22
ATOM     22  C   UNL     1      24.261  37.878  16.207  1.00  0.00     0.191 C 
BRANCH  22  23
ATOM     23  O   UNL     1      24.373  37.197  17.419  1.00  0.00    -0.394 OA
ATOM     24  H   UNL     1      24.002  36.289  17.315  1.00  0.00     0.210 HD
ENDBRANCH  22  23
ENDBRANCH  17  22
BRANCH  19  25
ATOM     25  O   UNL     1      28.642  38.908  15.930  1.00  0.00    -0.350 OA
BRANCH  25  26
ATOM     26  C   UNL     1      29.347  40.097  16.047  1.00  0.00     0.169 C 
BRANCH  26  27
ATOM     27  C   UNL     1      30.457  40.244  15.052  1.00  0.00     0.119 C 
BRANCH  27  28
ATOM     28  N   UNL     1      30.235  41.505  14.349  1.00  0.00    -0.092 NA
ATOM     29  N   UNL     1      29.420  41.454  13.411  1.00  0.00     0.001 N 
ATOM     30  N   UNL     1      28.380  41.529  12.722  1.00  0.00    -0.003 NA
ENDBRANCH  27  28
ENDBRANCH  26  27
ENDBRANCH  25  26
ENDBRANCH  19  25
BRANCH  20  31
ATOM     31  O   UNL     1      28.416  36.040  14.630  1.00  0.00    -0.387 OA
ATOM     32  H   UNL     1      28.208  35.056  14.548  1.00  0.00     0.211 HD
ENDBRANCH  20  31
BRANCH  21  33
ATOM     33  O   UNL     1      26.907  38.691  12.889  1.00  0.00    -0.385 OA
ATOM     34  H   UNL     1      26.314  37.972  12.577  1.00  0.00     0.211 HD
ENDBRANCH  21  33
ENDBRANCH  15  16
ENDBRANCH  10  15
BRANCH  12  35
ATOM     35  O   UNL     1      25.335  32.699  14.090  1.00  0.00    -0.385 OA
ATOM     36  H   UNL     1      24.503  33.271  14.032  1.00  0.00     0.211 HD
ENDBRANCH  12  35
BRANCH  13  37
ATOM     37  O   UNL     1      27.712  31.429  15.575  1.00  0.00    -0.387 OA
ATOM     38  H   UNL     1      28.519  31.782  15.981  1.00  0.00     0.211 HD
ENDBRANCH  13  37
BRANCH  14  39
ATOM     39  O   UNL     1      27.398  31.557  18.173  1.00  0.00    -0.387 OA
ATOM     40  H   UNL     1      28.302  31.913  18.102  1.00  0.00     0.211 HD
ENDBRANCH  14  39
ENDBRANCH   8   9
ENDBRANCH   7   8
ENDBRANCH   1   7
BRANCH   1  41
ATOM     41  C   UNL     1      30.679  32.279  16.004  1.00  0.00     0.364 C 
ATOM     42  O   UNL     1      30.731  31.386  16.878  1.00  0.00    -0.246 OA
BRANCH  41  43
ATOM     43  O   UNL     1      30.655  31.912  14.681  1.00  0.00    -0.477 OA
ATOM     44  H   UNL     1      31.265  32.312  13.971  1.00  0.00     0.296 HD
ENDBRANCH  41  43
ENDBRANCH   1  41
BRANCH   3  45
ATOM     45  O   UNL     1      32.081  35.753  18.919  1.00  0.00    -0.391 OA
ATOM     46  H   UNL     1      32.580  36.567  18.721  1.00  0.00     0.211 HD
ENDBRANCH   3  45
BRANCH   5  47
ATOM     47  C   UNL     1      33.208  35.047  14.259  1.00  0.00     0.176 C 
BRANCH  47  48
ATOM     48  O   UNL     1      34.128  34.095  13.842  1.00  0.00    -0.388 OA
ATOM     49  H   UNL     1      34.769  33.813  14.539  1.00  0.00     0.211 HD
ENDBRANCH  47  48
BRANCH  47  50
ATOM     50  C   UNL     1      32.351  35.493  13.151  1.00  0.00     0.165 C 
BRANCH  50  51
ATOM     51  O   UNL     1      33.242  35.608  12.022  1.00  0.00    -0.388 OA
ATOM     52  H   UNL     1      33.958  36.254  12.227  1.00  0.00     0.211 HD
ENDBRANCH  50  51
BRANCH  50  53
ATOM     53  C   UNL     1      31.856  36.923  13.306  1.00  0.00     0.154 C 
BRANCH  53  54
ATOM     54  N   UNL     1      30.675  37.225  12.546  1.00  0.00    -0.319 N 
ATOM     55  C   UNL     1      30.622  38.441  11.818  1.00  0.00     0.407 C 
ATOM     56  H   UNL     1      29.841  36.592  12.501  1.00  0.00     0.167 HD
ATOM     57  O   UNL     1      31.579  39.273  11.832  1.00  0.00    -0.225 OA
BRANCH  55  58
ATOM     58  O   UNL     1      29.513  38.764  11.059  1.00  0.00    -0.443 OA
BRANCH  58  59
ATOM     59  C   UNL     1      29.203  38.085   9.839  1.00  0.00     0.294 C 
BRANCH  59  60
ATOM     60  C   UNL     1      27.946  37.297   9.993  1.00  0.00     0.121 A 
ATOM     61  C   UNL     1      26.776  37.509   9.278  1.00  0.00     0.144 A 
ATOM     62  N   UNL     1      27.711  36.271  10.822  1.00  0.00    -0.131 NA
ATOM     63  N   UNL     1      25.873  36.611   9.693  1.00  0.00    -0.220 N 
ATOM     64  N   UNL     1      26.455  35.890  10.608  1.00  0.00    -0.062 NA
BRANCH  63  65
ATOM     65  C   UNL     1      24.549  36.547   9.160  1.00  0.00     0.066 A 
ATOM     66  C   UNL     1      23.614  35.685   9.675  1.00  0.00     0.030 A 
ATOM     67  C   UNL     1      24.183  37.351   8.116  1.00  0.00     0.030 A 
ATOM     68  C   UNL     1      22.312  35.599   9.176  1.00  0.00     0.023 A 
ATOM     69  C   UNL     1      22.897  37.287   7.600  1.00  0.00     0.023 A 
ATOM     70  C   UNL     1      21.952  36.407   8.131  1.00  0.00     0.041 A 
ATOM     71  Cl  UNL     1      20.319  36.335   7.464  1.00  0.00    -0.084 Cl
ENDBRANCH  63  65
ENDBRANCH  59  60
ENDBRANCH  58  59
ENDBRANCH  55  58
ENDBRANCH  53  54
ENDBRANCH  50  53
ENDBRANCH  47  50
ENDBRANCH   5  47
BRANCH   4  72
ATOM     72  N   UNL     1      33.830  36.347  16.748  1.00  0.00    -0.348 N 
ATOM     73  C   UNL     1      33.784  37.772  16.949  1.00  0.00     0.217 C 
ATOM     74  H   UNL     1      34.779  35.941  16.698  1.00  0.00     0.163 HD
ATOM     75  C   UNL     1      35.037  38.574  17.053  1.00  0.00     0.114 C 
ATOM     76  O   UNL     1      32.658  38.325  17.035  1.00  0.00    -0.275 OA
ENDBRANCH   4  72
TORSDOF 30
BEGIN_RES LYS A 131
REMARK  4 active torsions:
REMARK  status: ('A' for Active; 'I' for Inactive)
REMARK    1  A    between atoms: CA   and  CB  
REMARK    2  A    between atoms: CB   and  CG  
REMARK    3  A    between atoms: CG   and  CD  
REMARK    4  A    between atoms: CD   and  CE  
ROOT
ATOM      1  CA  LYS A 131      29.867  25.555  16.977  1.00 20.52     0.186 C 
ENDROOT
BRANCH   1   2
ATOM      2  CB  LYS A 131      28.345  25.722  17.026  1.00 20.94     0.034 C 
BRANCH   2   3
ATOM      3  CG  LYS A 131      27.602  24.400  16.916  1.00 22.96     0.005 C 
BRANCH   3   4
ATOM      4  CD  LYS A 131      26.523  24.268  17.955  1.00 24.33     0.041 C 
BRANCH   4   5
ATOM      5  CE  LYS A 131      25.230  23.807  17.291  1.00 26.91     0.338 C 
ATOM      6  NZ  LYS A 131      24.945  22.394  17.636  1.00 27.40     0.618 N 
ENDBRANCH   4   5
ENDBRANCH   3   4
ENDBRANCH   2   3
ENDBRANCH   1   2
END_RES LYS A 131
BEGIN_RES LYS A 135
REMARK  4 active torsions:
REMARK  status: ('A' for Active; 'I' for Inactive)
REMARK    5  A    between atoms: CA   and  CB  
REMARK    6  A    between atoms: CB   and  CG  
REMARK    7  A    between atoms: CG   and  CD  
REMARK    8  A    between atoms: CD   and  CE  
ROOT
ATOM      7  CA  LYS A 135      33.193  34.663   9.290  1.00 25.02     0.186 C 
ENDROOT
BRANCH   7   8
ATOM      8  CB  LYS A 135      32.060  35.360  10.034  1.00 26.63     0.034 C 
BRANCH   8   9
ATOM      9  CG  LYS A 135      30.708  34.743   9.787  1.00 29.45     0.005 C 
BRANCH   9  10
ATOM     10  CD  LYS A 135      30.495  34.493   8.302  1.00 32.00     0.041 C 
BRANCH  10  11
ATOM     11  CE  LYS A 135      29.036  34.680   7.933  1.00 34.25     0.338 C 
ATOM     12  NZ  LYS A 135      28.889  35.606   6.776  1.00 35.99     0.618 N 
ENDBRANCH  10  11
ENDBRANCH   9  10
ENDBRANCH   8   9
ENDBRANCH   7   8
END_RES LYS A 135
