REMARK VINA RESULT:    -4.976      5.005     11.166
REMARK INTER + INTRA:         -21.657
REMARK INTER:                 -10.635
REMARK INTRA:                 -11.023
REMARK UNBOUND:                -9.408
REMARK SMILES CC(=O)N[C@@H]1[C@@H](O)C[C@](OC[C@H]2O[C@@H](O[C@H]3[C@H](O)[C@@H](O)[C@H](OCCN=[N+]=[N-])O[C@@H]3CO)[C@H](O)[C@@H](O)[C@H]2O)(C(=O)O)O[C@H]1C(O)[C@H](O)CNC(=O)OCc1cn(-c2cccc(Cl)c2)nn1
REMARK SMILES IDX 9 1 8 2 6 3 5 4 42 5 41 6 10 7 11 8 12 9 14 10 13 11 32 12
REMARK SMILES IDX 34 13 36 14 15 15 16 16 29 17 28 18 21 19 17 20 19 21 30 22
REMARK SMILES IDX 31 23 22 25 23 26 24 27 25 28 26 29 27 30 18 31 20 33 33 35
REMARK SMILES IDX 35 37 37 39 38 41 39 42 40 43 7 45 43 47 44 48 45 50 46 51
REMARK SMILES IDX 47 53 48 54 49 55 50 57 51 58 52 59 53 60 54 61 64 62 55 63
REMARK SMILES IDX 63 64 56 65 57 66 62 67 58 68 60 69 59 70 61 71 4 72 2 73
REMARK SMILES IDX 1 75 3 76
REMARK H PARENT 31 24 18 32 20 34 33 36 35 38 37 40 40 44 7 46 44 49 46 52
REMARK H PARENT 48 56 4 74
REMARK Flexibility Score: inf
ROOT
ATOM      1  C   UNL     1      24.235  38.060   8.082  1.00  0.00     0.272 C 
ATOM      2  C   UNL     1      23.630  39.044   7.184  1.00  0.00     0.113 C 
ATOM      3  C   UNL     1      23.960  40.487   7.370  1.00  0.00     0.145 C 
ATOM      4  C   UNL     1      24.868  40.749   8.545  1.00  0.00     0.142 C 
ATOM      5  C   UNL     1      24.443  39.721   9.607  1.00  0.00     0.178 C 
ATOM      6  O   UNL     1      24.967  38.541   9.170  1.00  0.00    -0.332 OA
ENDROOT
BRANCH   1   7
ATOM      7  O   UNL     1      24.965  37.028   7.576  1.00  0.00    -0.338 OA
BRANCH   7   8
ATOM      8  C   UNL     1      26.187  37.150   7.060  1.00  0.00     0.199 C 
BRANCH   8   9
ATOM      9  C   UNL     1      27.261  36.179   7.423  1.00  0.00     0.179 C 
ATOM     10  C   UNL     1      29.461  36.059   8.113  1.00  0.00     0.282 C 
ATOM     11  O   UNL     1      28.363  36.914   7.907  1.00  0.00    -0.341 OA
ATOM     12  C   UNL     1      29.100  35.037   9.147  1.00  0.00     0.202 C 
ATOM     13  C   UNL     1      27.801  34.319   8.964  1.00  0.00     0.179 C 
ATOM     14  C   UNL     1      26.739  35.337   8.611  1.00  0.00     0.177 C 
BRANCH  10  15
ATOM     15  O   UNL     1      30.428  36.863   8.657  1.00  0.00    -0.341 OA
BRANCH  15  16
ATOM     16  C   UNL     1      30.184  38.235   8.698  1.00  0.00     0.184 C 
ATOM     17  C   UNL     1      31.091  39.047   7.897  1.00  0.00     0.178 C 
ATOM     18  O   UNL     1      31.588  40.153   8.545  1.00  0.00    -0.341 OA
ATOM     19  C   UNL     1      31.821  39.984   9.906  1.00  0.00     0.281 C 
ATOM     20  C   UNL     1      29.922  38.557  10.128  1.00  0.00     0.180 C 
ATOM     21  C   UNL     1      30.420  39.917  10.506  1.00  0.00     0.202 C 
BRANCH  17  22
ATOM     22  C   UNL     1      30.371  39.613   6.661  1.00  0.00     0.191 C 
BRANCH  22  23
ATOM     23  O   UNL     1      29.981  38.501   5.872  1.00  0.00    -0.394 OA
ATOM     24  H   UNL     1      29.528  37.853   6.442  1.00  0.00     0.210 HD
ENDBRANCH  22  23
ENDBRANCH  17  22
BRANCH  19  25
ATOM     25  O   UNL     1      32.480  41.085  10.375  1.00  0.00    -0.350 OA
BRANCH  25  26
ATOM     26  C   UNL     1      32.790  42.052   9.453  1.00  0.00     0.169 C 
BRANCH  26  27
ATOM     27  C   UNL     1      34.261  42.322   9.277  1.00  0.00     0.119 C 
BRANCH  27  28
ATOM     28  N   UNL     1      34.481  42.576   7.845  1.00  0.00    -0.092 NA
ATOM     29  N   UNL     1      34.455  41.574   7.099  1.00  0.00     0.001 N 
ATOM     30  N   UNL     1      34.044  40.740   6.272  1.00  0.00    -0.003 NA
ENDBRANCH  27  28
ENDBRANCH  26  27
ENDBRANCH  25  26
ENDBRANCH  19  25
BRANCH  20  31
ATOM     31  O   UNL     1      28.550  38.418  10.417  1.00  0.00    -0.387 OA
ATOM     32  H   UNL     1      28.495  37.718  11.114  1.00  0.00     0.211 HD
ENDBRANCH  20  31
BRANCH  21  33
ATOM     33  O   UNL     1      30.507  39.974  11.901  1.00  0.00    -0.385 OA
ATOM     34  H   UNL     1      29.779  39.501  12.334  1.00  0.00     0.211 HD
ENDBRANCH  21  33
ENDBRANCH  15  16
ENDBRANCH  10  15
BRANCH  12  35
ATOM     35  O   UNL     1      30.075  34.031   9.232  1.00  0.00    -0.385 OA
ATOM     36  H   UNL     1      30.601  33.959   8.404  1.00  0.00     0.211 HD
ENDBRANCH  12  35
BRANCH  13  37
ATOM     37  O   UNL     1      27.438  33.750  10.186  1.00  0.00    -0.387 OA
ATOM     38  H   UNL     1      27.670  34.286  10.963  1.00  0.00     0.211 HD
ENDBRANCH  13  37
BRANCH  14  39
ATOM     39  O   UNL     1      26.729  36.261   9.682  1.00  0.00    -0.387 OA
ATOM     40  H   UNL     1      27.534  36.227  10.220  1.00  0.00     0.211 HD
ENDBRANCH  14  39
ENDBRANCH   8   9
ENDBRANCH   7   8
ENDBRANCH   1   7
BRANCH   1  41
ATOM     41  C   UNL     1      23.063  37.347   8.774  1.00  0.00     0.364 C 
ATOM     42  O   UNL     1      23.221  36.529   9.697  1.00  0.00    -0.246 OA
BRANCH  41  43
ATOM     43  O   UNL     1      21.758  37.630   8.352  1.00  0.00    -0.477 OA
ATOM     44  H   UNL     1      21.087  37.958   9.056  1.00  0.00     0.296 HD
ENDBRANCH  41  43
ENDBRANCH   1  41
BRANCH   3  45
ATOM     45  O   UNL     1      24.507  41.085   6.248  1.00  0.00    -0.391 OA
ATOM     46  H   UNL     1      25.277  40.584   5.894  1.00  0.00     0.211 HD
ENDBRANCH   3  45
BRANCH   5  47
ATOM     47  C   UNL     1      24.880  40.150  10.997  1.00  0.00     0.176 C 
BRANCH  47  48
ATOM     48  O   UNL     1      23.656  40.433  11.657  1.00  0.00    -0.388 OA
ATOM     49  H   UNL     1      23.217  41.177  11.147  1.00  0.00     0.211 HD
ENDBRANCH  47  48
BRANCH  47  50
ATOM     50  C   UNL     1      25.463  38.951  11.715  1.00  0.00     0.165 C 
BRANCH  50  51
ATOM     51  O   UNL     1      24.475  38.003  11.920  1.00  0.00    -0.388 OA
ATOM     52  H   UNL     1      24.820  37.136  12.231  1.00  0.00     0.211 HD
ENDBRANCH  50  51
BRANCH  50  53
ATOM     53  C   UNL     1      25.958  39.394  13.096  1.00  0.00     0.154 C 
BRANCH  53  54
ATOM     54  N   UNL     1      26.356  38.278  13.909  1.00  0.00    -0.319 N 
ATOM     55  C   UNL     1      27.656  37.761  14.021  1.00  0.00     0.407 C 
ATOM     56  H   UNL     1      25.596  37.793  14.483  1.00  0.00     0.167 HD
ATOM     57  O   UNL     1      28.600  38.297  13.393  1.00  0.00    -0.225 OA
BRANCH  55  58
ATOM     58  O   UNL     1      27.944  36.631  14.837  1.00  0.00    -0.443 OA
BRANCH  58  59
ATOM     59  C   UNL     1      28.020  35.356  14.256  1.00  0.00     0.294 C 
BRANCH  59  60
ATOM     60  C   UNL     1      26.813  34.972  13.479  1.00  0.00     0.121 A 
ATOM     61  C   UNL     1      25.923  33.929  13.754  1.00  0.00     0.144 A 
ATOM     62  N   UNL     1      26.322  35.517  12.353  1.00  0.00    -0.131 NA
ATOM     63  N   UNL     1      24.964  33.890  12.812  1.00  0.00    -0.220 N 
ATOM     64  N   UNL     1      25.217  34.857  11.969  1.00  0.00    -0.062 NA
BRANCH  63  65
ATOM     65  C   UNL     1      23.917  32.929  12.811  1.00  0.00     0.068 A 
ATOM     66  C   UNL     1      22.580  33.256  12.811  1.00  0.00     0.028 A 
ATOM     67  C   UNL     1      24.216  31.556  12.810  1.00  0.00     0.049 A 
ATOM     68  C   UNL     1      21.591  32.277  12.809  1.00  0.00     0.004 A 
ATOM     69  C   UNL     1      23.238  30.592  12.809  1.00  0.00     0.043 A 
ATOM     70  C   UNL     1      21.905  30.935  12.809  1.00  0.00     0.020 A 
ATOM     71  Cl  UNL     1      23.630  28.878  12.807  1.00  0.00    -0.084 Cl
ENDBRANCH  63  65
ENDBRANCH  59  60
ENDBRANCH  58  59
ENDBRANCH  55  58
ENDBRANCH  53  54
ENDBRANCH  50  53
ENDBRANCH  47  50
ENDBRANCH   5  47
BRANCH   4  72
ATOM     72  N   UNL     1      24.818  42.096   9.006  1.00  0.00    -0.348 N 
ATOM     73  C   UNL     1      25.793  43.070   8.589  1.00  0.00     0.217 C 
ATOM     74  H   UNL     1      24.094  42.481   9.660  1.00  0.00     0.163 HD
ATOM     75  C   UNL     1      25.763  44.465   9.050  1.00  0.00     0.114 C 
ATOM     76  O   UNL     1      26.694  42.701   7.805  1.00  0.00    -0.275 OA
ENDBRANCH   4  72
TORSDOF 30
BEGIN_RES LYS A 131
REMARK  4 active torsions:
REMARK  status: ('A' for Active; 'I' for Inactive)
REMARK    1  A    between atoms: CA   and  CB  
REMARK    2  A    between atoms: CB   and  CG  
REMARK    3  A    between atoms: CG   and  CD  
REMARK    4  A    between atoms: CD   and  CE  
ROOT
ATOM      1  CA  LYS A 131      29.867  25.555  16.977  1.00 20.52     0.186 C 
ENDROOT
BRANCH   1   2
ATOM      2  CB  LYS A 131      28.345  25.722  17.026  1.00 20.94     0.034 C 
BRANCH   2   3
ATOM      3  CG  LYS A 131      27.606  24.393  17.060  1.00 22.96     0.005 C 
BRANCH   3   4
ATOM      4  CD  LYS A 131      26.448  24.414  18.020  1.00 24.33     0.041 C 
BRANCH   4   5
ATOM      5  CE  LYS A 131      25.190  23.926  17.310  1.00 26.91     0.338 C 
ATOM      6  NZ  LYS A 131      25.134  22.446  17.310  1.00 27.40     0.618 N 
ENDBRANCH   4   5
ENDBRANCH   3   4
ENDBRANCH   2   3
ENDBRANCH   1   2
END_RES LYS A 131
BEGIN_RES LYS A 135
REMARK  4 active torsions:
REMARK  status: ('A' for Active; 'I' for Inactive)
REMARK    5  A    between atoms: CA   and  CB  
REMARK    6  A    between atoms: CB   and  CG  
REMARK    7  A    between atoms: CG   and  CD  
REMARK    8  A    between atoms: CD   and  CE  
ROOT
ATOM      7  CA  LYS A 135      33.193  34.663   9.290  1.00 25.02     0.186 C 
ENDROOT
BRANCH   7   8
ATOM      8  CB  LYS A 135      32.060  35.360  10.034  1.00 26.63     0.034 C 
BRANCH   8   9
ATOM      9  CG  LYS A 135      32.223  35.344  11.532  1.00 29.45     0.005 C 
BRANCH   9  10
ATOM     10  CD  LYS A 135      32.255  36.761  12.084  1.00 32.00     0.041 C 
BRANCH  10  11
ATOM     11  CE  LYS A 135      31.687  36.798  13.490  1.00 34.25     0.338 C 
ATOM     12  NZ  LYS A 135      31.697  35.443  14.108  1.00 35.99     0.618 N 
ENDBRANCH  10  11
ENDBRANCH   9  10
ENDBRANCH   8   9
ENDBRANCH   7   8
END_RES LYS A 135
