REMARK VINA RESULT:    -4.863      1.594      2.679
REMARK INTER + INTRA:         -22.341
REMARK INTER:                 -10.964
REMARK INTRA:                 -11.376
REMARK UNBOUND:                -9.660
REMARK SMILES CC(=O)N[C@@H]1[C@@H](O)C[C@](OC[C@H]2O[C@@H](O[C@H]3[C@H](O)[C@@H](O)[C@H](OCCN=[N+]=[N-])O[C@@H]3CO)[C@H](O)[C@@H](O)[C@H]2O)(C(=O)O)O[C@H]1C(O)[C@H](O)CNC(=O)OCc1cn(CCC(=O)O)nn1
REMARK SMILES IDX 43 1 42 2 9 3 8 4 41 5 6 6 5 7 10 8 11 9 12 10 14 11 13 12
REMARK SMILES IDX 32 13 34 14 36 15 15 16 16 17 29 18 28 19 21 20 17 21 19 22
REMARK SMILES IDX 30 23 31 24 22 26 23 27 24 28 25 29 26 30 27 31 18 32 20 34
REMARK SMILES IDX 33 36 35 38 37 40 38 42 39 43 40 44 7 46 4 48 2 49 1 51 3 52
REMARK SMILES IDX 44 53 45 55 46 56 47 58 48 59 49 60 50 62 51 63 52 64 53 65
REMARK SMILES IDX 54 66 62 67 55 68 61 69 56 70 57 71 58 72 59 73 60 74
REMARK H PARENT 31 25 18 33 20 35 33 37 35 39 37 41 40 45 7 47 4 50 44 54
REMARK H PARENT 46 57 48 61 60 75
REMARK Flexibility Score: inf
ROOT
ATOM      1  C   UNL     1      28.695  37.334  11.285  1.00  0.00     0.176 C 
ENDROOT
BRANCH   1   2
ATOM      2  C   UNL     1      28.471  36.103  10.440  1.00  0.00     0.178 C 
ATOM      3  C   UNL     1      28.895  35.251   8.296  1.00  0.00     0.272 C 
ATOM      4  C   UNL     1      28.326  34.071   9.063  1.00  0.00     0.113 C 
ATOM      5  O   UNL     1      28.450  36.370   9.096  1.00  0.00    -0.332 OA
ATOM      6  C   UNL     1      26.942  34.407   9.655  1.00  0.00     0.145 C 
ATOM      7  C   UNL     1      27.141  35.434  10.763  1.00  0.00     0.142 C 
BRANCH   3   8
ATOM      8  O   UNL     1      28.338  35.342   7.074  1.00  0.00    -0.338 OA
BRANCH   8   9
ATOM      9  C   UNL     1      28.605  36.167   6.100  1.00  0.00     0.199 C 
BRANCH   9  10
ATOM     10  C   UNL     1      27.993  37.477   5.848  1.00  0.00     0.179 C 
ATOM     11  C   UNL     1      26.430  39.080   6.361  1.00  0.00     0.282 C 
ATOM     12  O   UNL     1      26.868  37.801   6.555  1.00  0.00    -0.341 OA
ATOM     13  C   UNL     1      27.222  39.906   5.386  1.00  0.00     0.202 C 
ATOM     14  C   UNL     1      28.715  39.789   5.623  1.00  0.00     0.179 C 
ATOM     15  C   UNL     1      29.053  38.516   6.366  1.00  0.00     0.177 C 
BRANCH  11  16
ATOM     16  O   UNL     1      26.349  39.827   7.535  1.00  0.00    -0.341 OA
BRANCH  16  17
ATOM     17  C   UNL     1      25.224  39.534   8.302  1.00  0.00     0.184 C 
ATOM     18  C   UNL     1      24.049  39.408   7.396  1.00  0.00     0.178 C 
ATOM     19  O   UNL     1      23.084  40.415   7.573  1.00  0.00    -0.341 OA
ATOM     20  C   UNL     1      23.805  41.623   7.482  1.00  0.00     0.281 C 
ATOM     21  C   UNL     1      25.096  40.610   9.340  1.00  0.00     0.180 C 
ATOM     22  C   UNL     1      24.402  41.843   8.853  1.00  0.00     0.202 C 
BRANCH  18  23
ATOM     23  C   UNL     1      23.358  38.065   7.568  1.00  0.00     0.191 C 
BRANCH  23  24
ATOM     24  O   UNL     1      24.238  37.136   8.118  1.00  0.00    -0.394 OA
ATOM     25  H   UNL     1      24.387  36.420   7.457  1.00  0.00     0.210 HD
ENDBRANCH  23  24
ENDBRANCH  18  23
BRANCH  20  26
ATOM     26  O   UNL     1      23.006  42.669   7.085  1.00  0.00    -0.350 OA
BRANCH  26  27
ATOM     27  C   UNL     1      23.213  42.917   5.731  1.00  0.00     0.169 C 
BRANCH  27  28
ATOM     28  C   UNL     1      24.644  42.546   5.367  1.00  0.00     0.119 C 
BRANCH  28  29
ATOM     29  N   UNL     1      25.467  43.680   5.734  1.00  0.00    -0.092 NA
ATOM     30  N   UNL     1      26.679  43.511   5.853  1.00  0.00     0.001 N 
ATOM     31  N   UNL     1      27.918  43.643   5.946  1.00  0.00    -0.003 NA
ENDBRANCH  28  29
ENDBRANCH  27  28
ENDBRANCH  26  27
ENDBRANCH  20  26
BRANCH  21  32
ATOM     32  O   UNL     1      24.367  40.080  10.399  1.00  0.00    -0.387 OA
ATOM     33  H   UNL     1      24.277  40.769  11.087  1.00  0.00     0.211 HD
ENDBRANCH  21  32
BRANCH  22  34
ATOM     34  O   UNL     1      25.267  42.939   8.854  1.00  0.00    -0.385 OA
ATOM     35  H   UNL     1      26.205  42.637   9.005  1.00  0.00     0.211 HD
ENDBRANCH  22  34
ENDBRANCH  16  17
ENDBRANCH  11  16
BRANCH  13  36
ATOM     36  O   UNL     1      26.885  39.656   4.047  1.00  0.00    -0.385 OA
ATOM     37  H   UNL     1      27.015  38.716   3.847  1.00  0.00     0.211 HD
ENDBRANCH  13  36
BRANCH  14  38
ATOM     38  O   UNL     1      29.196  40.921   6.242  1.00  0.00    -0.387 OA
ATOM     39  H   UNL     1      29.809  40.692   6.969  1.00  0.00     0.211 HD
ENDBRANCH  14  38
BRANCH  15  40
ATOM     40  O   UNL     1      28.834  38.615   7.719  1.00  0.00    -0.387 OA
ATOM     41  H   UNL     1      29.467  38.113   8.282  1.00  0.00     0.211 HD
ENDBRANCH  15  40
ENDBRANCH   9  10
ENDBRANCH   8   9
ENDBRANCH   3   8
BRANCH   3  42
ATOM     42  C   UNL     1      30.359  35.319   8.304  1.00  0.00     0.364 C 
ATOM     43  O   UNL     1      31.039  34.267   8.217  1.00  0.00    -0.246 OA
BRANCH  42  44
ATOM     44  O   UNL     1      31.021  36.516   8.405  1.00  0.00    -0.477 OA
ATOM     45  H   UNL     1      31.981  36.675   8.177  1.00  0.00     0.296 HD
ENDBRANCH  42  44
ENDBRANCH   3  42
BRANCH   6  46
ATOM     46  O   UNL     1      26.203  34.990   8.649  1.00  0.00    -0.391 OA
ATOM     47  H   UNL     1      26.764  35.705   8.229  1.00  0.00     0.211 HD
ENDBRANCH   6  46
BRANCH   7  48
ATOM     48  N   UNL     1      27.147  34.803  12.042  1.00  0.00    -0.348 N 
ATOM     49  C   UNL     1      25.987  34.868  12.859  1.00  0.00     0.217 C 
ATOM     50  H   UNL     1      27.974  34.289  12.415  1.00  0.00     0.163 HD
ATOM     51  C   UNL     1      25.908  34.243  14.201  1.00  0.00     0.114 C 
ATOM     52  O   UNL     1      24.949  35.477  12.464  1.00  0.00    -0.275 OA
ENDBRANCH   7  48
ENDBRANCH   1   2
BRANCH   1  53
ATOM     53  O   UNL     1      29.853  37.966  10.830  1.00  0.00    -0.388 OA
ATOM     54  H   UNL     1      29.798  38.172   9.875  1.00  0.00     0.211 HD
ENDBRANCH   1  53
BRANCH   1  55
ATOM     55  C   UNL     1      27.572  38.322  11.264  1.00  0.00     0.165 C 
BRANCH  55  56
ATOM     56  O   UNL     1      27.816  39.253  10.249  1.00  0.00    -0.388 OA
ATOM     57  H   UNL     1      28.442  38.853   9.599  1.00  0.00     0.211 HD
ENDBRANCH  55  56
BRANCH  55  58
ATOM     58  C   UNL     1      27.627  39.079  12.595  1.00  0.00     0.154 C 
BRANCH  58  59
ATOM     59  N   UNL     1      28.871  39.786  12.730  1.00  0.00    -0.319 N 
ATOM     60  C   UNL     1      29.042  41.174  12.473  1.00  0.00     0.407 C 
ATOM     61  H   UNL     1      29.749  39.274  13.047  1.00  0.00     0.167 HD
ATOM     62  O   UNL     1      28.035  41.826  12.100  1.00  0.00    -0.225 OA
BRANCH  60  63
ATOM     63  O   UNL     1      30.261  41.811  12.618  1.00  0.00    -0.443 OA
BRANCH  63  64
ATOM     64  C   UNL     1      31.413  41.225  12.064  1.00  0.00     0.294 C 
BRANCH  64  65
ATOM     65  C   UNL     1      31.343  41.216  10.591  1.00  0.00     0.120 A 
ATOM     66  C   UNL     1      32.256  41.885   9.786  1.00  0.00     0.138 A 
ATOM     67  N   UNL     1      30.451  40.586   9.789  1.00  0.00    -0.132 NA
ATOM     68  N   UNL     1      31.875  41.628   8.512  1.00  0.00    -0.252 N 
ATOM     69  N   UNL     1      30.799  40.855   8.548  1.00  0.00    -0.067 NA
BRANCH  68  70
ATOM     70  C   UNL     1      32.526  42.105   7.311  1.00  0.00     0.158 C 
BRANCH  70  71
ATOM     71  C   UNL     1      32.626  41.053   6.229  1.00  0.00     0.146 C 
BRANCH  71  72
ATOM     72  C   UNL     1      33.305  39.879   6.792  1.00  0.00     0.305 C 
ATOM     73  O   UNL     1      34.552  39.870   6.885  1.00  0.00    -0.252 OA
BRANCH  72  74
ATOM     74  O   UNL     1      32.598  38.760   7.231  1.00  0.00    -0.481 OA
ATOM     75  H   UNL     1      32.014  38.195   6.623  1.00  0.00     0.296 HD
ENDBRANCH  72  74
ENDBRANCH  71  72
ENDBRANCH  70  71
ENDBRANCH  68  70
ENDBRANCH  64  65
ENDBRANCH  63  64
ENDBRANCH  60  63
ENDBRANCH  58  59
ENDBRANCH  55  58
ENDBRANCH   1  55
TORSDOF 33
BEGIN_RES LYS A 131
REMARK  4 active torsions:
REMARK  status: ('A' for Active; 'I' for Inactive)
REMARK    1  A    between atoms: CA   and  CB  
REMARK    2  A    between atoms: CB   and  CG  
REMARK    3  A    between atoms: CG   and  CD  
REMARK    4  A    between atoms: CD   and  CE  
ROOT
ATOM      1  CA  LYS A 131      29.867  25.555  16.977  1.00 20.52     0.186 C 
ENDROOT
BRANCH   1   2
ATOM      2  CB  LYS A 131      28.345  25.722  17.026  1.00 20.94     0.034 C 
BRANCH   2   3
ATOM      3  CG  LYS A 131      27.601  24.402  16.891  1.00 22.96     0.005 C 
BRANCH   3   4
ATOM      4  CD  LYS A 131      26.157  24.522  17.294  1.00 24.33     0.041 C 
BRANCH   4   5
ATOM      5  CE  LYS A 131      25.900  23.662  18.527  1.00 26.91     0.338 C 
ATOM      6  NZ  LYS A 131      25.531  24.511  19.684  1.00 27.40     0.618 N 
ENDBRANCH   4   5
ENDBRANCH   3   4
ENDBRANCH   2   3
ENDBRANCH   1   2
END_RES LYS A 131
BEGIN_RES LYS A 135
REMARK  4 active torsions:
REMARK  status: ('A' for Active; 'I' for Inactive)
REMARK    5  A    between atoms: CA   and  CB  
REMARK    6  A    between atoms: CB   and  CG  
REMARK    7  A    between atoms: CG   and  CD  
REMARK    8  A    between atoms: CD   and  CE  
ROOT
ATOM      7  CA  LYS A 135      33.193  34.663   9.290  1.00 25.02     0.186 C 
ENDROOT
BRANCH   7   8
ATOM      8  CB  LYS A 135      32.060  35.360  10.034  1.00 26.63     0.034 C 
BRANCH   8   9
ATOM      9  CG  LYS A 135      32.459  35.877  11.392  1.00 29.45     0.005 C 
BRANCH   9  10
ATOM     10  CD  LYS A 135      31.590  35.261  12.477  1.00 32.00     0.041 C 
BRANCH  10  11
ATOM     11  CE  LYS A 135      32.154  35.570  13.851  1.00 34.25     0.338 C 
ATOM     12  NZ  LYS A 135      32.080  34.379  14.742  1.00 35.99     0.618 N 
ENDBRANCH  10  11
ENDBRANCH   9  10
ENDBRANCH   8   9
ENDBRANCH   7   8
END_RES LYS A 135
