REMARK VINA RESULT:    -4.200      4.001      7.679
REMARK INTER + INTRA:         -21.833
REMARK INTER:                  -8.818
REMARK INTRA:                 -13.015
REMARK UNBOUND:               -11.125
REMARK SMILES CC(=O)N[C@@H]1[C@@H](O)C[C@](OC[C@H]2O[C@@H](O[C@H]3[C@H](O)[C@@H](O)[C@H](OCCN=[N+]=[N-])O[C@@H]3CO)[C@H](O)[C@@H](O)[C@H]2O)(C(=O)O)O[C@H]1C(O)[C@H](O)CNC(=O)OCc1cn([C@@H](C)C(=O)O)nn1
REMARK SMILES IDX 9 1 8 2 6 3 5 4 42 5 41 6 10 7 11 8 12 9 14 10 13 11 32 12
REMARK SMILES IDX 34 13 36 14 15 15 16 16 29 17 28 18 21 19 17 20 19 21 30 22
REMARK SMILES IDX 31 23 22 25 23 26 24 27 25 28 26 29 27 30 18 31 20 33 33 35
REMARK SMILES IDX 35 37 37 39 38 41 39 42 40 43 7 45 43 47 44 48 45 50 46 51
REMARK SMILES IDX 47 53 48 54 49 55 50 57 51 58 52 59 53 60 54 61 62 62 55 63
REMARK SMILES IDX 61 64 56 65 57 66 58 67 59 68 60 69 4 71 2 72 1 74 3 75
REMARK H PARENT 31 24 18 32 20 34 33 36 35 38 37 40 40 44 7 46 44 49 46 52
REMARK H PARENT 48 56 60 70 4 73
REMARK Flexibility Score: inf
ROOT
ATOM      1  C   UNL     1      32.655  34.983  14.741  1.00  0.00     0.272 C 
ATOM      2  C   UNL     1      33.639  35.396  15.765  1.00  0.00     0.113 C 
ATOM      3  C   UNL     1      32.859  35.978  16.922  1.00  0.00     0.145 C 
ATOM      4  C   UNL     1      32.382  37.360  16.350  1.00  0.00     0.142 C 
ATOM      5  C   UNL     1      31.905  37.214  14.986  1.00  0.00     0.178 C 
ATOM      6  O   UNL     1      31.669  35.949  14.518  1.00  0.00    -0.332 OA
ENDROOT
BRANCH   1   7
ATOM      7  O   UNL     1      32.100  33.768  14.999  1.00  0.00    -0.338 OA
BRANCH   7   8
ATOM      8  C   UNL     1      31.037  33.359  14.283  1.00  0.00     0.199 C 
BRANCH   8   9
ATOM      9  C   UNL     1      30.142  32.404  15.111  1.00  0.00     0.179 C 
ATOM     10  C   UNL     1      30.227  31.156  17.052  1.00  0.00     0.282 C 
ATOM     11  O   UNL     1      30.824  32.139  16.270  1.00  0.00    -0.341 OA
ATOM     12  C   UNL     1      28.859  30.778  16.563  1.00  0.00     0.202 C 
ATOM     13  C   UNL     1      28.041  32.014  16.243  1.00  0.00     0.179 C 
ATOM     14  C   UNL     1      28.810  33.009  15.391  1.00  0.00     0.177 C 
BRANCH  10  15
ATOM     15  O   UNL     1      30.094  31.537  18.394  1.00  0.00    -0.341 OA
BRANCH  15  16
ATOM     16  C   UNL     1      29.946  30.438  19.228  1.00  0.00     0.184 C 
ATOM     17  C   UNL     1      28.694  30.567  20.036  1.00  0.00     0.178 C 
ATOM     18  O   UNL     1      28.955  30.790  21.388  1.00  0.00    -0.341 OA
ATOM     19  C   UNL     1      29.840  31.858  21.563  1.00  0.00     0.281 C 
ATOM     20  C   UNL     1      31.156  30.378  20.130  1.00  0.00     0.180 C 
ATOM     21  C   UNL     1      31.232  31.512  21.114  1.00  0.00     0.202 C 
BRANCH  17  22
ATOM     22  C   UNL     1      27.822  29.337  19.932  1.00  0.00     0.191 C 
BRANCH  22  23
ATOM     23  O   UNL     1      28.527  28.236  19.450  1.00  0.00    -0.394 OA
ATOM     24  H   UNL     1      28.063  27.411  19.696  1.00  0.00     0.210 HD
ENDBRANCH  22  23
ENDBRANCH  17  22
BRANCH  19  25
ATOM     25  O   UNL     1      29.863  32.126  22.920  1.00  0.00    -0.350 OA
BRANCH  25  26
ATOM     26  C   UNL     1      29.439  31.011  23.613  1.00  0.00     0.169 C 
BRANCH  26  27
ATOM     27  C   UNL     1      30.482  30.581  24.623  1.00  0.00     0.119 C 
BRANCH  27  28
ATOM     28  N   UNL     1      31.236  29.464  24.058  1.00  0.00    -0.092 NA
ATOM     29  N   UNL     1      32.452  29.519  23.873  1.00  0.00     0.001 N 
ATOM     30  N   UNL     1      33.666  29.578  23.956  1.00  0.00    -0.003 NA
ENDBRANCH  27  28
ENDBRANCH  26  27
ENDBRANCH  25  26
ENDBRANCH  19  25
BRANCH  20  31
ATOM     31  O   UNL     1      31.240  29.166  20.813  1.00  0.00    -0.387 OA
ATOM     32  H   UNL     1      30.945  29.217  21.748  1.00  0.00     0.211 HD
ENDBRANCH  20  31
BRANCH  21  33
ATOM     33  O   UNL     1      31.790  32.637  20.510  1.00  0.00    -0.385 OA
ATOM     34  H   UNL     1      32.234  32.406  19.662  1.00  0.00     0.211 HD
ENDBRANCH  21  33
ENDBRANCH  15  16
ENDBRANCH  10  15
BRANCH  12  35
ATOM     35  O   UNL     1      28.854  29.846  15.553  1.00  0.00    -0.385 OA
ATOM     36  H   UNL     1      27.994  29.909  15.031  1.00  0.00     0.211 HD
ENDBRANCH  12  35
BRANCH  13  37
ATOM     37  O   UNL     1      27.729  32.622  17.479  1.00  0.00    -0.387 OA
ATOM     38  H   UNL     1      28.498  32.562  18.105  1.00  0.00     0.211 HD
ENDBRANCH  13  37
BRANCH  14  39
ATOM     39  O   UNL     1      28.933  34.234  16.047  1.00  0.00    -0.387 OA
ATOM     40  H   UNL     1      28.679  34.128  17.000  1.00  0.00     0.211 HD
ENDBRANCH  14  39
ENDBRANCH   8   9
ENDBRANCH   7   8
ENDBRANCH   1   7
BRANCH   1  41
ATOM     41  C   UNL     1      33.366  34.929  13.436  1.00  0.00     0.364 C 
ATOM     42  O   UNL     1      32.992  35.643  12.494  1.00  0.00    -0.246 OA
BRANCH  41  43
ATOM     43  O   UNL     1      34.452  34.088  13.241  1.00  0.00    -0.477 OA
ATOM     44  H   UNL     1      35.016  33.761  14.039  1.00  0.00     0.296 HD
ENDBRANCH  41  43
ENDBRANCH   1  41
BRANCH   3  45
ATOM     45  O   UNL     1      31.695  35.234  17.068  1.00  0.00    -0.391 OA
ATOM     46  H   UNL     1      31.792  34.470  17.661  1.00  0.00     0.211 HD
ENDBRANCH   3  45
BRANCH   5  47
ATOM     47  C   UNL     1      30.700  38.055  14.594  1.00  0.00     0.176 C 
BRANCH  47  48
ATOM     48  O   UNL     1      30.677  39.179  15.496  1.00  0.00    -0.388 OA
ATOM     49  H   UNL     1      29.779  39.285  15.850  1.00  0.00     0.211 HD
ENDBRANCH  47  48
BRANCH  47  50
ATOM     50  C   UNL     1      29.368  37.384  14.864  1.00  0.00     0.165 C 
BRANCH  50  51
ATOM     51  O   UNL     1      28.929  36.526  13.904  1.00  0.00    -0.388 OA
ATOM     52  H   UNL     1      28.205  35.907  14.148  1.00  0.00     0.211 HD
ENDBRANCH  50  51
BRANCH  50  53
ATOM     53  C   UNL     1      28.356  38.333  15.410  1.00  0.00     0.154 C 
BRANCH  53  54
ATOM     54  N   UNL     1      27.821  38.049  16.689  1.00  0.00    -0.319 N 
ATOM     55  C   UNL     1      27.003  36.949  17.057  1.00  0.00     0.407 C 
ATOM     56  H   UNL     1      28.060  38.744  17.464  1.00  0.00     0.167 HD
ATOM     57  O   UNL     1      26.703  36.107  16.201  1.00  0.00    -0.225 OA
BRANCH  55  58
ATOM     58  O   UNL     1      26.547  36.830  18.381  1.00  0.00    -0.443 OA
BRANCH  58  59
ATOM     59  C   UNL     1      26.838  35.687  19.140  1.00  0.00     0.294 C 
BRANCH  59  60
ATOM     60  C   UNL     1      28.250  35.587  19.528  1.00  0.00     0.120 A 
ATOM     61  C   UNL     1      28.941  36.283  20.495  1.00  0.00     0.139 A 
ATOM     62  N   UNL     1      29.125  34.728  18.941  1.00  0.00    -0.132 NA
ATOM     63  N   UNL     1      30.197  35.834  20.470  1.00  0.00    -0.238 N 
ATOM     64  N   UNL     1      30.314  34.898  19.536  1.00  0.00    -0.066 NA
BRANCH  63  65
ATOM     65  C   UNL     1      31.275  36.292  21.323  1.00  0.00     0.215 C 
ATOM     66  C   UNL     1      31.335  35.450  22.559  1.00  0.00     0.046 C 
BRANCH  65  67
ATOM     67  C   UNL     1      32.576  36.253  20.614  1.00  0.00     0.328 C 
ATOM     68  O   UNL     1      33.075  37.335  20.219  1.00  0.00    -0.250 OA
BRANCH  67  69
ATOM     69  O   UNL     1      33.257  35.070  20.374  1.00  0.00    -0.480 OA
ATOM     70  H   UNL     1      34.264  35.004  20.469  1.00  0.00     0.296 HD
ENDBRANCH  67  69
ENDBRANCH  65  67
ENDBRANCH  63  65
ENDBRANCH  59  60
ENDBRANCH  58  59
ENDBRANCH  55  58
ENDBRANCH  53  54
ENDBRANCH  50  53
ENDBRANCH  47  50
ENDBRANCH   5  47
BRANCH   4  71
ATOM     71  N   UNL     1      33.463  38.305  16.558  1.00  0.00    -0.348 N 
ATOM     72  C   UNL     1      33.433  39.456  17.344  1.00  0.00     0.217 C 
ATOM     73  H   UNL     1      34.367  38.084  16.050  1.00  0.00     0.163 HD
ATOM     74  C   UNL     1      34.610  40.348  17.474  1.00  0.00     0.114 C 
ATOM     75  O   UNL     1      32.388  39.745  17.955  1.00  0.00    -0.275 OA
ENDBRANCH   4  71
TORSDOF 32
BEGIN_RES LYS A 131
REMARK  4 active torsions:
REMARK  status: ('A' for Active; 'I' for Inactive)
REMARK    1  A    between atoms: CA   and  CB  
REMARK    2  A    between atoms: CB   and  CG  
REMARK    3  A    between atoms: CG   and  CD  
REMARK    4  A    between atoms: CD   and  CE  
ROOT
ATOM      1  CA  LYS A 131      29.867  25.555  16.977  1.00 20.52     0.186 C 
ENDROOT
BRANCH   1   2
ATOM      2  CB  LYS A 131      28.345  25.722  17.026  1.00 20.94     0.034 C 
BRANCH   2   3
ATOM      3  CG  LYS A 131      27.601  24.401  16.906  1.00 22.96     0.005 C 
BRANCH   3   4
ATOM      4  CD  LYS A 131      26.221  24.472  17.497  1.00 24.33     0.041 C 
BRANCH   4   5
ATOM      5  CE  LYS A 131      25.657  23.062  17.645  1.00 26.91     0.338 C 
ATOM      6  NZ  LYS A 131      25.179  22.837  19.030  1.00 27.40     0.618 N 
ENDBRANCH   4   5
ENDBRANCH   3   4
ENDBRANCH   2   3
ENDBRANCH   1   2
END_RES LYS A 131
BEGIN_RES LYS A 135
REMARK  4 active torsions:
REMARK  status: ('A' for Active; 'I' for Inactive)
REMARK    5  A    between atoms: CA   and  CB  
REMARK    6  A    between atoms: CB   and  CG  
REMARK    7  A    between atoms: CG   and  CD  
REMARK    8  A    between atoms: CD   and  CE  
ROOT
ATOM      7  CA  LYS A 135      33.193  34.663   9.290  1.00 25.02     0.186 C 
ENDROOT
BRANCH   7   8
ATOM      8  CB  LYS A 135      32.060  35.360  10.034  1.00 26.63     0.034 C 
BRANCH   8   9
ATOM      9  CG  LYS A 135      30.799  35.495   9.221  1.00 29.45     0.005 C 
BRANCH   9  10
ATOM     10  CD  LYS A 135      30.161  34.134   8.989  1.00 32.00     0.041 C 
BRANCH  10  11
ATOM     11  CE  LYS A 135      28.682  34.283   8.687  1.00 34.25     0.338 C 
ATOM     12  NZ  LYS A 135      28.461  35.161   7.505  1.00 35.99     0.618 N 
ENDBRANCH  10  11
ENDBRANCH   9  10
ENDBRANCH   8   9
ENDBRANCH   7   8
END_RES LYS A 135
