REMARK VINA RESULT:    -4.431      2.765      5.669
REMARK INTER + INTRA:         -23.317
REMARK INTER:                 -15.772
REMARK INTRA:                  -7.544
REMARK UNBOUND:               -12.409
REMARK SMILES CC(=O)N[C@@H]1[C@@H](O)C[C@](OC[C@H]2O[C@@H](O[C@H]3[C@H](O)[C@@H](O)[C@H](OCCN=[N+]=[N-])O[C@@H]3CO)[C@H](O)[C@@H](O)[C@H]2O)(C(=O)O)O[C@H]1C(O)[C@H](O)CNC(=O)OCc1cn(C2c3ccccc3-c3ccccc32)nn1
REMARK SMILES IDX 9 1 8 2 6 3 5 4 42 5 41 6 10 7 11 8 12 9 14 10 13 11 32 12
REMARK SMILES IDX 34 13 36 14 15 15 16 16 29 17 28 18 21 19 17 20 19 21 30 22
REMARK SMILES IDX 31 23 22 25 23 26 24 27 25 28 26 29 27 30 18 31 20 33 33 35
REMARK SMILES IDX 35 37 37 39 38 41 39 42 40 43 7 45 43 47 44 48 45 50 46 51
REMARK SMILES IDX 47 53 48 54 49 55 50 57 51 58 52 59 53 60 54 61 70 62 55 63
REMARK SMILES IDX 69 64 56 65 57 66 68 67 58 68 62 69 63 70 67 71 59 72 61 73
REMARK SMILES IDX 64 74 66 75 60 76 65 77 4 78 2 79 1 81 3 82
REMARK H PARENT 31 24 18 32 20 34 33 36 35 38 37 40 40 44 7 46 44 49 46 52
REMARK H PARENT 48 56 4 80
REMARK Flexibility Score: inf
ROOT
ATOM      1  C   UNL     1      28.920  41.055   5.929  1.00  0.00     0.272 C 
ATOM      2  C   UNL     1      27.614  41.675   6.219  1.00  0.00     0.113 C 
ATOM      3  C   UNL     1      26.706  40.789   6.985  1.00  0.00     0.145 C 
ATOM      4  C   UNL     1      27.049  39.329   6.889  1.00  0.00     0.142 C 
ATOM      5  C   UNL     1      27.718  39.075   5.583  1.00  0.00     0.178 C 
ATOM      6  O   UNL     1      28.827  39.805   5.299  1.00  0.00    -0.332 OA
ENDROOT
BRANCH   1   7
ATOM      7  O   UNL     1      29.716  40.915   7.035  1.00  0.00    -0.338 OA
BRANCH   7   8
ATOM      8  C   UNL     1      29.830  42.003   7.858  1.00  0.00     0.199 C 
BRANCH   8   9
ATOM      9  C   UNL     1      30.288  41.567   9.232  1.00  0.00     0.179 C 
ATOM     10  C   UNL     1      32.535  42.073   8.795  1.00  0.00     0.282 C 
ATOM     11  O   UNL     1      31.593  41.143   9.133  1.00  0.00    -0.341 OA
ATOM     12  C   UNL     1      32.355  43.327   9.562  1.00  0.00     0.202 C 
ATOM     13  C   UNL     1      31.560  42.933  10.821  1.00  0.00     0.179 C 
ATOM     14  C   UNL     1      30.147  42.654  10.262  1.00  0.00     0.177 C 
BRANCH  10  15
ATOM     15  O   UNL     1      32.702  42.169   7.440  1.00  0.00    -0.341 OA
BRANCH  15  16
ATOM     16  C   UNL     1      33.702  41.417   6.886  1.00  0.00     0.184 C 
ATOM     17  C   UNL     1      34.635  42.264   6.104  1.00  0.00     0.178 C 
ATOM     18  O   UNL     1      35.070  41.668   4.925  1.00  0.00    -0.341 OA
ATOM     19  C   UNL     1      35.199  40.320   5.002  1.00  0.00     0.281 C 
ATOM     20  C   UNL     1      32.977  40.389   6.022  1.00  0.00     0.180 C 
ATOM     21  C   UNL     1      33.799  39.715   5.003  1.00  0.00     0.202 C 
BRANCH  17  22
ATOM     22  C   UNL     1      35.871  42.632   6.896  1.00  0.00     0.191 C 
BRANCH  22  23
ATOM     23  O   UNL     1      35.536  43.513   7.953  1.00  0.00    -0.394 OA
ATOM     24  H   UNL     1      36.061  44.364   7.856  1.00  0.00     0.210 HD
ENDBRANCH  22  23
ENDBRANCH  17  22
BRANCH  19  25
ATOM     25  O   UNL     1      35.845  39.819   6.117  1.00  0.00    -0.350 OA
BRANCH  25  26
ATOM     26  C   UNL     1      37.052  39.235   5.858  1.00  0.00     0.169 C 
BRANCH  26  27
ATOM     27  C   UNL     1      38.219  39.737   6.635  1.00  0.00     0.119 C 
BRANCH  27  28
ATOM     28  N   UNL     1      37.937  39.915   8.045  1.00  0.00    -0.092 NA
ATOM     29  N   UNL     1      38.885  39.743   8.821  1.00  0.00     0.001 N 
ATOM     30  N   UNL     1      39.753  39.489   9.664  1.00  0.00    -0.003 NA
ENDBRANCH  27  28
ENDBRANCH  26  27
ENDBRANCH  25  26
ENDBRANCH  19  25
BRANCH  20  31
ATOM     31  O   UNL     1      32.425  39.389   6.867  1.00  0.00    -0.387 OA
ATOM     32  H   UNL     1      31.618  39.736   7.324  1.00  0.00     0.211 HD
ENDBRANCH  20  31
BRANCH  21  33
ATOM     33  O   UNL     1      33.268  39.933   3.724  1.00  0.00    -0.385 OA
ATOM     34  H   UNL     1      33.452  40.847   3.386  1.00  0.00     0.211 HD
ENDBRANCH  21  33
ENDBRANCH  15  16
ENDBRANCH  10  15
BRANCH  12  35
ATOM     35  O   UNL     1      33.548  43.862  10.045  1.00  0.00    -0.385 OA
ATOM     36  H   UNL     1      33.599  44.808   9.774  1.00  0.00     0.211 HD
ENDBRANCH  12  35
BRANCH  13  37
ATOM     37  O   UNL     1      31.442  43.986  11.697  1.00  0.00    -0.387 OA
ATOM     38  H   UNL     1      31.398  43.627  12.617  1.00  0.00     0.211 HD
ENDBRANCH  13  37
BRANCH  14  39
ATOM     39  O   UNL     1      29.756  43.826   9.641  1.00  0.00    -0.387 OA
ATOM     40  H   UNL     1      30.520  44.376   9.338  1.00  0.00     0.211 HD
ENDBRANCH  14  39
ENDBRANCH   8   9
ENDBRANCH   7   8
ENDBRANCH   1   7
BRANCH   1  41
ATOM     41  C   UNL     1      29.665  41.876   4.878  1.00  0.00     0.364 C 
ATOM     42  O   UNL     1      30.543  41.306   4.222  1.00  0.00    -0.246 OA
BRANCH  41  43
ATOM     43  O   UNL     1      29.377  43.201   4.661  1.00  0.00    -0.477 OA
ATOM     44  H   UNL     1      29.750  43.937   5.272  1.00  0.00     0.296 HD
ENDBRANCH  41  43
ENDBRANCH   1  41
BRANCH   3  45
ATOM     45  O   UNL     1      26.550  41.128   8.330  1.00  0.00    -0.391 OA
ATOM     46  H   UNL     1      25.890  40.589   8.790  1.00  0.00     0.211 HD
ENDBRANCH   3  45
BRANCH   5  47
ATOM     47  C   UNL     1      28.076  37.592   5.501  1.00  0.00     0.176 C 
BRANCH  47  48
ATOM     48  O   UNL     1      26.958  36.871   5.168  1.00  0.00    -0.388 OA
ATOM     49  H   UNL     1      26.722  36.988   4.199  1.00  0.00     0.211 HD
ENDBRANCH  47  48
BRANCH  47  50
ATOM     50  C   UNL     1      28.648  37.174   6.821  1.00  0.00     0.165 C 
BRANCH  50  51
ATOM     51  O   UNL     1      29.960  37.664   6.941  1.00  0.00    -0.388 OA
ATOM     52  H   UNL     1      29.969  38.646   6.893  1.00  0.00     0.211 HD
ENDBRANCH  50  51
BRANCH  50  53
ATOM     53  C   UNL     1      28.797  35.649   6.775  1.00  0.00     0.154 C 
BRANCH  53  54
ATOM     54  N   UNL     1      28.445  35.132   8.062  1.00  0.00    -0.319 N 
ATOM     55  C   UNL     1      29.434  34.631   8.934  1.00  0.00     0.407 C 
ATOM     56  H   UNL     1      27.441  35.127   8.363  1.00  0.00     0.167 HD
ATOM     57  O   UNL     1      30.647  34.613   8.603  1.00  0.00    -0.225 OA
BRANCH  55  58
ATOM     58  O   UNL     1      29.123  34.140  10.186  1.00  0.00    -0.443 OA
BRANCH  58  59
ATOM     59  C   UNL     1      28.316  34.847  11.115  1.00  0.00     0.294 C 
BRANCH  59  60
ATOM     60  C   UNL     1      29.031  34.844  12.416  1.00  0.00     0.120 A 
ATOM     61  C   UNL     1      30.149  34.105  12.778  1.00  0.00     0.139 A 
ATOM     62  N   UNL     1      28.723  35.573  13.499  1.00  0.00    -0.132 NA
ATOM     63  N   UNL     1      30.480  34.402  14.044  1.00  0.00    -0.240 N 
ATOM     64  N   UNL     1      29.595  35.296  14.454  1.00  0.00    -0.066 NA
BRANCH  63  65
ATOM     65  C   UNL     1      31.596  33.847  14.812  1.00  0.00     0.170 C 
ATOM     66  C   UNL     1      31.049  32.932  15.818  1.00  0.00    -0.011 A 
ATOM     67  C   UNL     1      32.250  34.903  15.607  1.00  0.00    -0.011 A 
ATOM     68  C   UNL     1      30.329  31.750  15.704  1.00  0.00     0.007 A 
ATOM     69  C   UNL     1      31.329  33.374  17.083  1.00  0.00    -0.012 A 
ATOM     70  C   UNL     1      32.086  34.616  16.941  1.00  0.00    -0.012 A 
ATOM     71  C   UNL     1      32.948  36.043  15.258  1.00  0.00     0.007 A 
ATOM     72  C   UNL     1      29.922  31.061  16.825  1.00  0.00     0.000 A 
ATOM     73  C   UNL     1      30.918  32.679  18.211  1.00  0.00     0.009 A 
ATOM     74  C   UNL     1      32.603  35.441  17.915  1.00  0.00     0.009 A 
ATOM     75  C   UNL     1      33.473  36.881  16.215  1.00  0.00     0.000 A 
ATOM     76  C   UNL     1      30.205  31.508  18.107  1.00  0.00     0.001 A 
ATOM     77  C   UNL     1      33.299  36.579  17.549  1.00  0.00     0.001 A 
ENDBRANCH  63  65
ENDBRANCH  59  60
ENDBRANCH  58  59
ENDBRANCH  55  58
ENDBRANCH  53  54
ENDBRANCH  50  53
ENDBRANCH  47  50
ENDBRANCH   5  47
BRANCH   4  78
ATOM     78  N   UNL     1      25.763  38.607   6.838  1.00  0.00    -0.348 N 
ATOM     79  C   UNL     1      25.197  38.013   7.994  1.00  0.00     0.217 C 
ATOM     80  H   UNL     1      25.287  38.546   5.928  1.00  0.00     0.163 HD
ATOM     81  C   UNL     1      23.891  37.284   7.926  1.00  0.00     0.114 C 
ATOM     82  O   UNL     1      25.826  38.118   9.084  1.00  0.00    -0.275 OA
ENDBRANCH   4  78
TORSDOF 30
BEGIN_RES LYS A 131
REMARK  4 active torsions:
REMARK  status: ('A' for Active; 'I' for Inactive)
REMARK    1  A    between atoms: CA   and  CB  
REMARK    2  A    between atoms: CB   and  CG  
REMARK    3  A    between atoms: CG   and  CD  
REMARK    4  A    between atoms: CD   and  CE  
ROOT
ATOM      1  CA  LYS A 131      29.867  25.555  16.977  1.00 20.52     0.186 C 
ENDROOT
BRANCH   1   2
ATOM      2  CB  LYS A 131      28.345  25.722  17.026  1.00 20.94     0.034 C 
BRANCH   2   3
ATOM      3  CG  LYS A 131      27.604  24.393  17.024  1.00 22.96     0.005 C 
BRANCH   3   4
ATOM      4  CD  LYS A 131      26.113  24.576  17.087  1.00 24.33     0.041 C 
BRANCH   4   5
ATOM      5  CE  LYS A 131      25.670  24.638  18.546  1.00 26.91     0.338 C 
ATOM      6  NZ  LYS A 131      25.831  23.315  19.193  1.00 27.40     0.618 N 
ENDBRANCH   4   5
ENDBRANCH   3   4
ENDBRANCH   2   3
ENDBRANCH   1   2
END_RES LYS A 131
BEGIN_RES LYS A 135
REMARK  4 active torsions:
REMARK  status: ('A' for Active; 'I' for Inactive)
REMARK    5  A    between atoms: CA   and  CB  
REMARK    6  A    between atoms: CB   and  CG  
REMARK    7  A    between atoms: CG   and  CD  
REMARK    8  A    between atoms: CD   and  CE  
ROOT
ATOM      7  CA  LYS A 135      33.193  34.663   9.290  1.00 25.02     0.186 C 
ENDROOT
BRANCH   7   8
ATOM      8  CB  LYS A 135      32.060  35.360  10.034  1.00 26.63     0.034 C 
BRANCH   8   9
ATOM      9  CG  LYS A 135      32.502  36.039  11.305  1.00 29.45     0.005 C 
BRANCH   9  10
ATOM     10  CD  LYS A 135      31.801  37.378  11.469  1.00 32.00     0.041 C 
BRANCH  10  11
ATOM     11  CE  LYS A 135      31.127  37.789  10.174  1.00 34.25     0.338 C 
ATOM     12  NZ  LYS A 135      29.683  38.082  10.391  1.00 35.99     0.618 N 
ENDBRANCH  10  11
ENDBRANCH   9  10
ENDBRANCH   8   9
ENDBRANCH   7   8
END_RES LYS A 135
