REMARK VINA RESULT:    -3.935      2.584      5.298
REMARK INTER + INTRA:         -22.228
REMARK INTER:                 -11.655
REMARK INTRA:                 -10.573
REMARK UNBOUND:               -12.543
REMARK SMILES CC(=O)N[C@@H]1[C@@H](O)C[C@](OC[C@H]2O[C@@H](O[C@H]3[C@H](O)[C@@H](O)[C@H](OCCN=[N+]=[N-])O[C@@H]3CO)[C@H](O)[C@@H](O)[C@H]2O)(C(=O)O)O[C@H]1C(O)[C@H](O)CNC(=O)OCc1cn(-c2ccncc2)nn1
REMARK SMILES IDX 9 1 8 2 6 3 5 4 42 5 41 6 10 7 11 8 12 9 14 10 13 11 32 12
REMARK SMILES IDX 34 13 36 14 15 15 16 16 29 17 28 18 21 19 17 20 19 21 30 22
REMARK SMILES IDX 31 23 22 25 23 26 24 27 25 28 26 29 27 30 18 31 20 33 33 35
REMARK SMILES IDX 35 37 37 39 38 41 39 42 40 43 7 45 43 47 44 48 45 50 46 51
REMARK SMILES IDX 47 53 48 54 49 55 50 57 51 58 52 59 53 60 54 61 63 62 55 63
REMARK SMILES IDX 62 64 56 65 57 66 61 67 58 68 60 69 59 70 4 71 2 72 1 74
REMARK SMILES IDX 3 75
REMARK H PARENT 31 24 18 32 20 34 33 36 35 38 37 40 40 44 7 46 44 49 46 52
REMARK H PARENT 48 56 4 73
REMARK Flexibility Score: inf
ROOT
ATOM      1  C   UNL     1      32.379  34.923  15.212  1.00  0.00     0.272 C 
ATOM      2  C   UNL     1      33.073  35.338  16.525  1.00  0.00     0.113 C 
ATOM      3  C   UNL     1      32.243  36.405  17.246  1.00  0.00     0.145 C 
ATOM      4  C   UNL     1      32.340  37.691  16.356  1.00  0.00     0.142 C 
ATOM      5  C   UNL     1      31.952  37.256  14.973  1.00  0.00     0.178 C 
ATOM      6  O   UNL     1      31.447  35.964  15.035  1.00  0.00    -0.332 OA
ENDROOT
BRANCH   1   7
ATOM      7  O   UNL     1      31.655  33.836  15.391  1.00  0.00    -0.338 OA
BRANCH   7   8
ATOM      8  C   UNL     1      31.434  32.883  16.184  1.00  0.00     0.199 C 
BRANCH   8   9
ATOM      9  C   UNL     1      30.102  32.707  16.848  1.00  0.00     0.179 C 
ATOM     10  C   UNL     1      27.853  32.735  16.168  1.00  0.00     0.282 C 
ATOM     11  O   UNL     1      29.165  32.858  15.776  1.00  0.00    -0.341 OA
ATOM     12  C   UNL     1      27.572  31.360  16.688  1.00  0.00     0.202 C 
ATOM     13  C   UNL     1      28.565  31.023  17.803  1.00  0.00     0.179 C 
ATOM     14  C   UNL     1      29.950  31.243  17.273  1.00  0.00     0.177 C 
BRANCH  10  15
ATOM     15  O   UNL     1      27.126  32.949  14.968  1.00  0.00    -0.341 OA
BRANCH  15  16
ATOM     16  C   UNL     1      26.851  34.254  14.730  1.00  0.00     0.184 C 
ATOM     17  C   UNL     1      25.425  34.545  14.488  1.00  0.00     0.178 C 
ATOM     18  O   UNL     1      25.223  35.936  14.365  1.00  0.00    -0.341 OA
ATOM     19  C   UNL     1      25.667  36.180  13.010  1.00  0.00     0.281 C 
ATOM     20  C   UNL     1      27.653  34.681  13.462  1.00  0.00     0.180 C 
ATOM     21  C   UNL     1      27.144  36.041  13.022  1.00  0.00     0.202 C 
BRANCH  17  22
ATOM     22  C   UNL     1      24.519  34.005  15.528  1.00  0.00     0.191 C 
BRANCH  22  23
ATOM     23  O   UNL     1      24.343  32.617  15.419  1.00  0.00    -0.394 OA
ATOM     24  H   UNL     1      23.519  32.395  15.944  1.00  0.00     0.210 HD
ENDBRANCH  22  23
ENDBRANCH  17  22
BRANCH  19  25
ATOM     25  O   UNL     1      25.278  37.464  12.746  1.00  0.00    -0.350 OA
BRANCH  25  26
ATOM     26  C   UNL     1      24.108  37.806  13.353  1.00  0.00     0.169 C 
BRANCH  26  27
ATOM     27  C   UNL     1      22.869  37.699  12.524  1.00  0.00     0.119 C 
BRANCH  27  28
ATOM     28  N   UNL     1      21.952  36.686  13.008  1.00  0.00    -0.092 NA
ATOM     29  N   UNL     1      22.139  35.482  12.904  1.00  0.00     0.001 N 
ATOM     30  N   UNL     1      22.285  34.318  12.520  1.00  0.00    -0.003 NA
ENDBRANCH  27  28
ENDBRANCH  26  27
ENDBRANCH  25  26
ENDBRANCH  19  25
BRANCH  20  31
ATOM     31  O   UNL     1      28.961  34.812  13.861  1.00  0.00    -0.387 OA
ATOM     32  H   UNL     1      29.581  34.277  13.271  1.00  0.00     0.211 HD
ENDBRANCH  20  31
BRANCH  21  33
ATOM     33  O   UNL     1      27.665  36.369  11.780  1.00  0.00    -0.385 OA
ATOM     34  H   UNL     1      27.809  35.535  11.262  1.00  0.00     0.211 HD
ENDBRANCH  21  33
ENDBRANCH  15  16
ENDBRANCH  10  15
BRANCH  12  35
ATOM     35  O   UNL     1      26.282  31.292  17.266  1.00  0.00    -0.385 OA
ATOM     36  H   UNL     1      26.084  32.209  17.572  1.00  0.00     0.211 HD
ENDBRANCH  12  35
BRANCH  13  37
ATOM     37  O   UNL     1      28.435  29.733  18.260  1.00  0.00    -0.387 OA
ATOM     38  H   UNL     1      28.387  29.085  17.489  1.00  0.00     0.211 HD
ENDBRANCH  13  37
BRANCH  14  39
ATOM     39  O   UNL     1      30.171  30.488  16.110  1.00  0.00    -0.387 OA
ATOM     40  H   UNL     1      31.043  29.995  16.197  1.00  0.00     0.211 HD
ENDBRANCH  14  39
ENDBRANCH   8   9
ENDBRANCH   7   8
ENDBRANCH   1   7
BRANCH   1  41
ATOM     41  C   UNL     1      33.344  34.851  14.110  1.00  0.00     0.364 C 
ATOM     42  O   UNL     1      34.600  34.790  14.318  1.00  0.00    -0.246 OA
BRANCH  41  43
ATOM     43  O   UNL     1      32.977  34.846  12.785  1.00  0.00    -0.477 OA
ATOM     44  H   UNL     1      32.097  35.123  12.409  1.00  0.00     0.296 HD
ENDBRANCH  41  43
ENDBRANCH   1  41
BRANCH   3  45
ATOM     45  O   UNL     1      30.928  36.029  17.270  1.00  0.00    -0.391 OA
ATOM     46  H   UNL     1      30.356  36.696  17.696  1.00  0.00     0.211 HD
ENDBRANCH   3  45
BRANCH   5  47
ATOM     47  C   UNL     1      30.762  38.038  14.400  1.00  0.00     0.176 C 
BRANCH  47  48
ATOM     48  O   UNL     1      29.665  37.444  15.165  1.00  0.00    -0.388 OA
ATOM     49  H   UNL     1      29.711  36.455  14.998  1.00  0.00     0.211 HD
ENDBRANCH  47  48
BRANCH  47  50
ATOM     50  C   UNL     1      30.448  37.843  12.982  1.00  0.00     0.165 C 
BRANCH  50  51
ATOM     51  O   UNL     1      30.608  36.588  12.444  1.00  0.00    -0.388 OA
ATOM     52  H   UNL     1      31.427  36.146  12.790  1.00  0.00     0.211 HD
ENDBRANCH  50  51
BRANCH  50  53
ATOM     53  C   UNL     1      30.706  38.995  12.091  1.00  0.00     0.154 C 
BRANCH  53  54
ATOM     54  N   UNL     1      30.041  38.968  10.814  1.00  0.00    -0.319 N 
ATOM     55  C   UNL     1      30.531  39.720   9.720  1.00  0.00     0.407 C 
ATOM     56  H   UNL     1      29.186  38.390  10.734  1.00  0.00     0.167 HD
ATOM     57  O   UNL     1      31.563  40.402   9.911  1.00  0.00    -0.225 OA
BRANCH  55  58
ATOM     58  O   UNL     1      29.952  39.745   8.483  1.00  0.00    -0.443 OA
BRANCH  58  59
ATOM     59  C   UNL     1      30.043  38.738   7.498  1.00  0.00     0.294 C 
BRANCH  59  60
ATOM     60  C   UNL     1      28.737  38.023   7.311  1.00  0.00     0.121 A 
ATOM     61  C   UNL     1      27.665  37.917   8.169  1.00  0.00     0.144 A 
ATOM     62  N   UNL     1      28.382  37.323   6.208  1.00  0.00    -0.131 NA
ATOM     63  N   UNL     1      26.710  37.175   7.580  1.00  0.00    -0.220 N 
ATOM     64  N   UNL     1      27.172  36.823   6.379  1.00  0.00    -0.062 NA
BRANCH  63  65
ATOM     65  C   UNL     1      25.454  36.845   8.156  1.00  0.00     0.069 A 
ATOM     66  C   UNL     1      25.272  35.868   9.111  1.00  0.00     0.048 A 
ATOM     67  C   UNL     1      24.346  37.548   7.737  1.00  0.00     0.048 A 
ATOM     68  C   UNL     1      24.028  35.582   9.650  1.00  0.00     0.113 A 
ATOM     69  C   UNL     1      23.106  37.255   8.281  1.00  0.00     0.113 A 
ATOM     70  N   UNL     1      22.969  36.299   9.208  1.00  0.00    -0.265 NA
ENDBRANCH  63  65
ENDBRANCH  59  60
ENDBRANCH  58  59
ENDBRANCH  55  58
ENDBRANCH  53  54
ENDBRANCH  50  53
ENDBRANCH  47  50
ENDBRANCH   5  47
BRANCH   4  71
ATOM     71  N   UNL     1      33.729  38.059  16.486  1.00  0.00    -0.348 N 
ATOM     72  C   UNL     1      34.213  39.102  17.305  1.00  0.00     0.217 C 
ATOM     73  H   UNL     1      34.437  37.531  15.944  1.00  0.00     0.163 HD
ATOM     74  C   UNL     1      35.655  39.387  17.357  1.00  0.00     0.114 C 
ATOM     75  O   UNL     1      33.421  39.782  17.987  1.00  0.00    -0.275 OA
ENDBRANCH   4  71
TORSDOF 30
BEGIN_RES LYS A 131
REMARK  4 active torsions:
REMARK  status: ('A' for Active; 'I' for Inactive)
REMARK    1  A    between atoms: CA   and  CB  
REMARK    2  A    between atoms: CB   and  CG  
REMARK    3  A    between atoms: CG   and  CD  
REMARK    4  A    between atoms: CD   and  CE  
ROOT
ATOM      1  CA  LYS A 131      29.867  25.555  16.977  1.00 20.52     0.186 C 
ENDROOT
BRANCH   1   2
ATOM      2  CB  LYS A 131      28.345  25.722  17.026  1.00 20.94     0.034 C 
BRANCH   2   3
ATOM      3  CG  LYS A 131      27.602  24.400  16.917  1.00 22.96     0.005 C 
BRANCH   3   4
ATOM      4  CD  LYS A 131      26.153  24.531  17.297  1.00 24.33     0.041 C 
BRANCH   4   5
ATOM      5  CE  LYS A 131      26.047  25.070  18.720  1.00 26.91     0.338 C 
ATOM      6  NZ  LYS A 131      25.105  26.213  18.773  1.00 27.40     0.618 N 
ENDBRANCH   4   5
ENDBRANCH   3   4
ENDBRANCH   2   3
ENDBRANCH   1   2
END_RES LYS A 131
BEGIN_RES LYS A 135
REMARK  4 active torsions:
REMARK  status: ('A' for Active; 'I' for Inactive)
REMARK    5  A    between atoms: CA   and  CB  
REMARK    6  A    between atoms: CB   and  CG  
REMARK    7  A    between atoms: CG   and  CD  
REMARK    8  A    between atoms: CD   and  CE  
ROOT
ATOM      7  CA  LYS A 135      33.193  34.663   9.290  1.00 25.02     0.186 C 
ENDROOT
BRANCH   7   8
ATOM      8  CB  LYS A 135      32.060  35.360  10.034  1.00 26.63     0.034 C 
BRANCH   8   9
ATOM      9  CG  LYS A 135      30.800  35.498   9.220  1.00 29.45     0.005 C 
BRANCH   9  10
ATOM     10  CD  LYS A 135      30.163  34.138   8.981  1.00 32.00     0.041 C 
BRANCH  10  11
ATOM     11  CE  LYS A 135      28.693  34.290   8.641  1.00 34.25     0.338 C 
ATOM     12  NZ  LYS A 135      27.834  33.635   9.667  1.00 35.99     0.618 N 
ENDBRANCH  10  11
ENDBRANCH   9  10
ENDBRANCH   8   9
ENDBRANCH   7   8
END_RES LYS A 135
