REMARK VINA RESULT:    -4.179      8.509     14.588
REMARK INTER + INTRA:         -21.529
REMARK INTER:                  -9.799
REMARK INTRA:                 -11.730
REMARK UNBOUND:               -11.242
REMARK SMILES CC(=O)N[C@@H]1[C@@H](O)C[C@](OC[C@H]2O[C@@H](O[C@H]3[C@H](O)[C@@H](O)[C@H](OCCN=[N+]=[N-])O[C@@H]3CO)[C@H](O)[C@@H](O)[C@H]2O)(C(=O)O)O[C@H]1C(O)[C@H](O)CNC(=O)OCc1cn(-c2c(C)cc(C)cc2C)nn1
REMARK SMILES IDX 9 1 8 2 6 3 5 4 42 5 41 6 10 7 11 8 12 9 14 10 13 11 32 12
REMARK SMILES IDX 34 13 36 14 15 15 16 16 29 17 28 18 21 19 17 20 19 21 30 22
REMARK SMILES IDX 31 23 22 25 23 26 24 27 25 28 26 29 27 30 18 31 20 33 33 35
REMARK SMILES IDX 35 37 37 39 38 41 39 42 40 43 7 45 43 47 44 48 45 50 46 51
REMARK SMILES IDX 47 53 48 54 49 55 50 57 51 58 52 59 53 60 54 61 66 62 55 63
REMARK SMILES IDX 65 64 56 65 57 66 63 67 58 68 59 69 62 70 64 71 60 72 61 73
REMARK SMILES IDX 4 74 2 75 1 77 3 78
REMARK H PARENT 31 24 18 32 20 34 33 36 35 38 37 40 40 44 7 46 44 49 46 52
REMARK H PARENT 48 56 4 76
REMARK Flexibility Score: inf
ROOT
ATOM      1  C   UNL     1      25.606  38.383   9.226  1.00  0.00     0.272 C 
ATOM      2  C   UNL     1      25.571  39.539   8.304  1.00  0.00     0.113 C 
ATOM      3  C   UNL     1      26.686  39.626   7.291  1.00  0.00     0.145 C 
ATOM      4  C   UNL     1      27.952  39.089   7.879  1.00  0.00     0.142 C 
ATOM      5  C   UNL     1      27.790  39.231   9.397  1.00  0.00     0.178 C 
ATOM      6  O   UNL     1      26.880  38.211   9.786  1.00  0.00    -0.332 OA
ENDROOT
BRANCH   1   7
ATOM      7  O   UNL     1      25.138  37.189   8.766  1.00  0.00    -0.338 OA
BRANCH   7   8
ATOM      8  C   UNL     1      24.017  37.132   8.024  1.00  0.00     0.199 C 
BRANCH   8   9
ATOM      9  C   UNL     1      23.113  36.050   8.633  1.00  0.00     0.179 C 
ATOM     10  C   UNL     1      22.606  35.270  10.739  1.00  0.00     0.282 C 
ATOM     11  O   UNL     1      23.610  35.631   9.852  1.00  0.00    -0.341 OA
ATOM     12  C   UNL     1      21.908  36.549  11.121  1.00  0.00     0.202 C 
ATOM     13  C   UNL     1      21.206  37.037   9.863  1.00  0.00     0.179 C 
ATOM     14  C   UNL     1      21.669  36.390   8.606  1.00  0.00     0.177 C 
BRANCH  10  15
ATOM     15  O   UNL     1      23.018  34.492  11.753  1.00  0.00    -0.341 OA
BRANCH  15  16
ATOM     16  C   UNL     1      24.091  34.861  12.480  1.00  0.00     0.184 C 
ATOM     17  C   UNL     1      25.195  33.831  12.312  1.00  0.00     0.178 C 
ATOM     18  O   UNL     1      25.316  32.995  13.380  1.00  0.00    -0.341 OA
ATOM     19  C   UNL     1      25.666  33.617  14.568  1.00  0.00     0.281 C 
ATOM     20  C   UNL     1      23.687  34.927  13.956  1.00  0.00     0.180 C 
ATOM     21  C   UNL     1      24.923  34.874  14.836  1.00  0.00     0.202 C 
BRANCH  17  22
ATOM     22  C   UNL     1      26.503  34.496  11.918  1.00  0.00     0.191 C 
BRANCH  22  23
ATOM     23  O   UNL     1      26.270  35.756  11.374  1.00  0.00    -0.394 OA
ATOM     24  H   UNL     1      25.529  36.241  11.804  1.00  0.00     0.210 HD
ENDBRANCH  22  23
ENDBRANCH  17  22
BRANCH  19  25
ATOM     25  O   UNL     1      27.044  33.874  14.615  1.00  0.00    -0.350 OA
BRANCH  25  26
ATOM     26  C   UNL     1      27.583  33.765  15.872  1.00  0.00     0.169 C 
BRANCH  26  27
ATOM     27  C   UNL     1      27.472  32.411  16.501  1.00  0.00     0.119 C 
BRANCH  27  28
ATOM     28  N   UNL     1      28.205  31.399  15.762  1.00  0.00    -0.092 NA
ATOM     29  N   UNL     1      29.433  31.252  15.927  1.00  0.00     0.001 N 
ATOM     30  N   UNL     1      30.618  31.224  16.277  1.00  0.00    -0.003 NA
ENDBRANCH  27  28
ENDBRANCH  26  27
ENDBRANCH  25  26
ENDBRANCH  19  25
BRANCH  20  31
ATOM     31  O   UNL     1      22.987  36.063  14.274  1.00  0.00    -0.387 OA
ATOM     32  H   UNL     1      22.328  35.955  15.008  1.00  0.00     0.211 HD
ENDBRANCH  20  31
BRANCH  21  33
ATOM     33  O   UNL     1      24.478  34.867  16.157  1.00  0.00    -0.385 OA
ATOM     34  H   UNL     1      24.183  35.777  16.440  1.00  0.00     0.211 HD
ENDBRANCH  21  33
ENDBRANCH  15  16
ENDBRANCH  10  15
BRANCH  12  35
ATOM     35  O   UNL     1      20.928  36.356  12.090  1.00  0.00    -0.385 OA
ATOM     36  H   UNL     1      20.215  35.784  11.670  1.00  0.00     0.211 HD
ENDBRANCH  12  35
BRANCH  13  37
ATOM     37  O   UNL     1      21.316  38.420   9.726  1.00  0.00    -0.387 OA
ATOM     38  H   UNL     1      21.658  38.700   8.839  1.00  0.00     0.211 HD
ENDBRANCH  13  37
BRANCH  14  39
ATOM     39  O   UNL     1      21.414  37.296   7.548  1.00  0.00    -0.387 OA
ATOM     40  H   UNL     1      21.879  37.013   6.727  1.00  0.00     0.211 HD
ENDBRANCH  14  39
ENDBRANCH   8   9
ENDBRANCH   7   8
ENDBRANCH   1   7
BRANCH   1  41
ATOM     41  C   UNL     1      24.778  38.783  10.427  1.00  0.00     0.364 C 
ATOM     42  O   UNL     1      23.993  39.731  10.322  1.00  0.00    -0.246 OA
BRANCH  41  43
ATOM     43  O   UNL     1      24.882  38.112  11.631  1.00  0.00    -0.477 OA
ATOM     44  H   UNL     1      25.431  37.285  11.782  1.00  0.00     0.296 HD
ENDBRANCH  41  43
ENDBRANCH   1  41
BRANCH   3  45
ATOM     45  O   UNL     1      26.258  38.945   6.152  1.00  0.00    -0.391 OA
ATOM     46  H   UNL     1      26.336  39.569   5.360  1.00  0.00     0.211 HD
ENDBRANCH   3  45
BRANCH   5  47
ATOM     47  C   UNL     1      29.009  38.953  10.184  1.00  0.00     0.176 C 
BRANCH  47  48
ATOM     48  O   UNL     1      28.716  37.787  10.981  1.00  0.00    -0.388 OA
ATOM     49  H   UNL     1      29.025  36.985  10.486  1.00  0.00     0.211 HD
ENDBRANCH  47  48
BRANCH  47  50
ATOM     50  C   UNL     1      29.403  39.959  11.248  1.00  0.00     0.165 C 
BRANCH  50  51
ATOM     51  O   UNL     1      29.909  39.095  12.293  1.00  0.00    -0.388 OA
ATOM     52  H   UNL     1      29.951  39.599  13.128  1.00  0.00     0.211 HD
ENDBRANCH  50  51
BRANCH  50  53
ATOM     53  C   UNL     1      28.195  40.587  11.898  1.00  0.00     0.154 C 
BRANCH  53  54
ATOM     54  N   UNL     1      27.259  39.685  12.497  1.00  0.00    -0.319 N 
ATOM     55  C   UNL     1      26.854  39.887  13.852  1.00  0.00     0.407 C 
ATOM     56  H   UNL     1      26.865  38.868  11.951  1.00  0.00     0.167 HD
ATOM     57  O   UNL     1      27.370  40.868  14.455  1.00  0.00    -0.225 OA
BRANCH  55  58
ATOM     58  O   UNL     1      25.940  39.057  14.491  1.00  0.00    -0.443 OA
BRANCH  58  59
ATOM     59  C   UNL     1      26.333  37.882  15.159  1.00  0.00     0.294 C 
BRANCH  59  60
ATOM     60  C   UNL     1      27.713  37.435  14.829  1.00  0.00     0.121 A 
ATOM     61  C   UNL     1      28.820  37.403  15.645  1.00  0.00     0.144 A 
ATOM     62  N   UNL     1      28.147  36.966  13.623  1.00  0.00    -0.131 NA
ATOM     63  N   UNL     1      29.867  36.932  14.947  1.00  0.00    -0.220 N 
ATOM     64  N   UNL     1      29.406  36.680  13.722  1.00  0.00    -0.062 NA
BRANCH  63  65
ATOM     65  C   UNL     1      31.224  36.731  15.384  1.00  0.00     0.072 A 
ATOM     66  C   UNL     1      31.741  35.467  15.244  1.00  0.00    -0.025 A 
ATOM     67  C   UNL     1      31.928  37.760  15.907  1.00  0.00    -0.025 A 
ATOM     68  C   UNL     1      30.924  34.349  14.658  1.00  0.00     0.047 C 
ATOM     69  C   UNL     1      33.040  35.254  15.660  1.00  0.00     0.009 A 
ATOM     70  C   UNL     1      33.240  37.495  16.316  1.00  0.00     0.009 A 
ATOM     71  C   UNL     1      31.403  39.140  16.073  1.00  0.00     0.047 C 
ATOM     72  C   UNL     1      33.811  36.251  16.200  1.00  0.00    -0.050 A 
ATOM     73  C   UNL     1      35.201  35.958  16.626  1.00  0.00     0.044 C 
ENDBRANCH  63  65
ENDBRANCH  59  60
ENDBRANCH  58  59
ENDBRANCH  55  58
ENDBRANCH  53  54
ENDBRANCH  50  53
ENDBRANCH  47  50
ENDBRANCH   5  47
BRANCH   4  74
ATOM     74  N   UNL     1      29.149  39.618   7.385  1.00  0.00    -0.348 N 
ATOM     75  C   UNL     1      29.773  39.165   6.187  1.00  0.00     0.217 C 
ATOM     76  H   UNL     1      29.619  40.395   7.884  1.00  0.00     0.163 HD
ATOM     77  C   UNL     1      31.052  39.754   5.685  1.00  0.00     0.114 C 
ATOM     78  O   UNL     1      29.212  38.252   5.558  1.00  0.00    -0.275 OA
ENDBRANCH   4  74
TORSDOF 30
BEGIN_RES LYS A 131
REMARK  4 active torsions:
REMARK  status: ('A' for Active; 'I' for Inactive)
REMARK    1  A    between atoms: CA   and  CB  
REMARK    2  A    between atoms: CB   and  CG  
REMARK    3  A    between atoms: CG   and  CD  
REMARK    4  A    between atoms: CD   and  CE  
ROOT
ATOM      1  CA  LYS A 131      29.867  25.555  16.977  1.00 20.52     0.186 C 
ENDROOT
BRANCH   1   2
ATOM      2  CB  LYS A 131      28.345  25.722  17.026  1.00 20.94     0.034 C 
BRANCH   2   3
ATOM      3  CG  LYS A 131      27.601  24.401  16.904  1.00 22.96     0.005 C 
BRANCH   3   4
ATOM      4  CD  LYS A 131      26.532  24.254  17.951  1.00 24.33     0.041 C 
BRANCH   4   5
ATOM      5  CE  LYS A 131      25.230  23.814  17.290  1.00 26.91     0.338 C 
ATOM      6  NZ  LYS A 131      24.748  22.545  17.885  1.00 27.40     0.618 N 
ENDBRANCH   4   5
ENDBRANCH   3   4
ENDBRANCH   2   3
ENDBRANCH   1   2
END_RES LYS A 131
BEGIN_RES LYS A 135
REMARK  4 active torsions:
REMARK  status: ('A' for Active; 'I' for Inactive)
REMARK    5  A    between atoms: CA   and  CB  
REMARK    6  A    between atoms: CB   and  CG  
REMARK    7  A    between atoms: CG   and  CD  
REMARK    8  A    between atoms: CD   and  CE  
ROOT
ATOM      7  CA  LYS A 135      33.193  34.663   9.290  1.00 25.02     0.186 C 
ENDROOT
BRANCH   7   8
ATOM      8  CB  LYS A 135      32.060  35.360  10.034  1.00 26.63     0.034 C 
BRANCH   8   9
ATOM      9  CG  LYS A 135      30.748  34.623   9.960  1.00 29.45     0.005 C 
BRANCH   9  10
ATOM     10  CD  LYS A 135      30.277  34.509   8.518  1.00 32.00     0.041 C 
BRANCH  10  11
ATOM     11  CE  LYS A 135      28.761  34.496   8.453  1.00 34.25     0.338 C 
ATOM     12  NZ  LYS A 135      28.258  35.499   7.474  1.00 35.99     0.618 N 
ENDBRANCH  10  11
ENDBRANCH   9  10
ENDBRANCH   8   9
ENDBRANCH   7   8
END_RES LYS A 135
