REMARK VINA RESULT:    -3.926      2.979      8.671
REMARK INTER + INTRA:         -23.882
REMARK INTER:                  -8.408
REMARK INTRA:                 -15.473
REMARK UNBOUND:               -13.184
REMARK SMILES CC(=O)N[C@@H]1[C@@H](O)C[C@](OC[C@H]2O[C@@H](O[C@H]3[C@H](O)[C@@H](O)[C@H](OCCN=[N+]=[N-])O[C@@H]3CO)[C@H](O)[C@@H](O)[C@H]2O)(C(=O)O)O[C@H]1C(O)[C@H](O)CNC(=O)OCc1cn(CC(O)Cn2ccnc2[N+](=O)[O-])nn1
REMARK SMILES IDX 43 1 42 2 9 3 8 4 41 5 6 6 5 7 10 8 11 9 12 10 14 11 13 12
REMARK SMILES IDX 32 13 34 14 36 15 15 16 16 17 29 18 28 19 21 20 17 21 19 22
REMARK SMILES IDX 30 23 31 24 22 26 23 27 24 28 25 29 26 30 27 31 18 32 20 34
REMARK SMILES IDX 33 36 35 38 37 40 38 42 39 43 40 44 7 46 4 48 2 49 1 51 3 52
REMARK SMILES IDX 44 53 45 55 46 56 47 58 48 59 49 60 50 62 51 63 52 64 53 65
REMARK SMILES IDX 54 66 69 67 55 68 68 69 56 70 57 71 58 72 59 74 60 75 61 76
REMARK SMILES IDX 64 77 62 78 63 79 65 80 66 81 67 82
REMARK H PARENT 31 25 18 33 20 35 33 37 35 39 37 41 40 45 7 47 4 50 44 54
REMARK H PARENT 46 57 48 61 58 73
REMARK Flexibility Score: inf
ROOT
ATOM      1  C   UNL     1      30.659  36.836  13.453  1.00  0.00     0.176 C 
ENDROOT
BRANCH   1   2
ATOM      2  C   UNL     1      31.170  36.910  14.924  1.00  0.00     0.178 C 
ATOM      3  C   UNL     1      32.059  35.383  16.417  1.00  0.00     0.272 C 
ATOM      4  C   UNL     1      31.234  35.969  17.525  1.00  0.00     0.113 C 
ATOM      5  O   UNL     1      31.425  35.563  15.192  1.00  0.00    -0.332 OA
ATOM      6  C   UNL     1      29.887  36.464  17.013  1.00  0.00     0.145 C 
ATOM      7  C   UNL     1      30.082  37.368  15.803  1.00  0.00     0.142 C 
BRANCH   3   8
ATOM      8  O   UNL     1      32.197  34.003  16.511  1.00  0.00    -0.338 OA
BRANCH   8   9
ATOM      9  C   UNL     1      31.849  33.234  15.467  1.00  0.00     0.199 C 
BRANCH   9  10
ATOM     10  C   UNL     1      30.761  32.228  15.788  1.00  0.00     0.179 C 
ATOM     11  C   UNL     1      29.772  31.119  17.455  1.00  0.00     0.282 C 
ATOM     12  O   UNL     1      30.276  32.398  17.114  1.00  0.00    -0.341 OA
ATOM     13  C   UNL     1      28.666  30.715  16.512  1.00  0.00     0.202 C 
ATOM     14  C   UNL     1      28.277  31.964  15.724  1.00  0.00     0.179 C 
ATOM     15  C   UNL     1      29.522  32.383  14.936  1.00  0.00     0.177 C 
BRANCH  11  16
ATOM     16  O   UNL     1      29.315  31.077  18.756  1.00  0.00    -0.341 OA
BRANCH  16  17
ATOM     17  C   UNL     1      30.223  31.755  19.538  1.00  0.00     0.184 C 
ATOM     18  C   UNL     1      30.828  30.912  20.650  1.00  0.00     0.178 C 
ATOM     19  O   UNL     1      31.968  31.621  21.042  1.00  0.00    -0.341 OA
ATOM     20  C   UNL     1      31.707  32.815  21.657  1.00  0.00     0.281 C 
ATOM     21  C   UNL     1      29.593  32.941  20.253  1.00  0.00     0.180 C 
ATOM     22  C   UNL     1      30.565  33.615  21.146  1.00  0.00     0.202 C 
BRANCH  18  23
ATOM     23  C   UNL     1      31.169  29.523  20.246  1.00  0.00     0.191 C 
BRANCH  23  24
ATOM     24  O   UNL     1      30.473  28.645  21.067  1.00  0.00    -0.394 OA
ATOM     25  H   UNL     1      30.239  29.039  21.945  1.00  0.00     0.210 HD
ENDBRANCH  23  24
ENDBRANCH  18  23
BRANCH  20  26
ATOM     26  O   UNL     1      32.873  33.607  21.479  1.00  0.00    -0.350 OA
BRANCH  26  27
ATOM     27  C   UNL     1      32.821  34.383  20.349  1.00  0.00     0.169 C 
BRANCH  27  28
ATOM     28  C   UNL     1      33.667  35.627  20.649  1.00  0.00     0.119 C 
BRANCH  28  29
ATOM     29  N   UNL     1      32.884  36.824  20.662  1.00  0.00    -0.092 NA
ATOM     30  N   UNL     1      31.717  36.840  21.117  1.00  0.00     0.001 N 
ATOM     31  N   UNL     1      30.782  37.152  21.835  1.00  0.00    -0.003 NA
ENDBRANCH  28  29
ENDBRANCH  27  28
ENDBRANCH  26  27
ENDBRANCH  20  26
BRANCH  21  32
ATOM     32  O   UNL     1      29.139  33.867  19.292  1.00  0.00    -0.387 OA
ATOM     33  H   UNL     1      29.657  34.680  19.434  1.00  0.00     0.211 HD
ENDBRANCH  21  32
BRANCH  22  34
ATOM     34  O   UNL     1      29.828  34.038  22.281  1.00  0.00    -0.385 OA
ATOM     35  H   UNL     1      29.614  33.267  22.869  1.00  0.00     0.211 HD
ENDBRANCH  22  34
ENDBRANCH  16  17
ENDBRANCH  11  16
BRANCH  13  36
ATOM     36  O   UNL     1      29.149  29.723  15.660  1.00  0.00    -0.385 OA
ATOM     37  H   UNL     1      28.899  28.812  15.981  1.00  0.00     0.211 HD
ENDBRANCH  13  36
BRANCH  14  38
ATOM     38  O   UNL     1      28.048  32.974  16.641  1.00  0.00    -0.387 OA
ATOM     39  H   UNL     1      27.448  32.665  17.341  1.00  0.00     0.211 HD
ENDBRANCH  14  38
BRANCH  15  40
ATOM     40  O   UNL     1      29.296  33.686  14.552  1.00  0.00    -0.387 OA
ATOM     41  H   UNL     1      28.384  33.995  14.781  1.00  0.00     0.211 HD
ENDBRANCH  15  40
ENDBRANCH   9  10
ENDBRANCH   8   9
ENDBRANCH   3   8
BRANCH   3  42
ATOM     42  C   UNL     1      33.389  36.003  16.361  1.00  0.00     0.364 C 
ATOM     43  O   UNL     1      34.293  35.598  15.550  1.00  0.00    -0.246 OA
BRANCH  42  44
ATOM     44  O   UNL     1      33.782  37.057  17.163  1.00  0.00    -0.477 OA
ATOM     45  H   UNL     1      34.349  37.841  16.826  1.00  0.00     0.296 HD
ENDBRANCH  42  44
ENDBRANCH   3  42
BRANCH   6  46
ATOM     46  O   UNL     1      29.022  35.422  16.744  1.00  0.00    -0.391 OA
ATOM     47  H   UNL     1      28.231  35.439  17.339  1.00  0.00     0.211 HD
ENDBRANCH   6  46
BRANCH   7  48
ATOM     48  N   UNL     1      30.055  38.743  16.190  1.00  0.00    -0.348 N 
ATOM     49  C   UNL     1      29.395  39.804  15.582  1.00  0.00     0.217 C 
ATOM     50  H   UNL     1      30.620  39.024  17.099  1.00  0.00     0.163 HD
ATOM     51  C   UNL     1      29.455  41.207  16.165  1.00  0.00     0.114 C 
ATOM     52  O   UNL     1      28.723  39.700  14.553  1.00  0.00    -0.275 OA
ENDBRANCH   7  48
ENDBRANCH   1   2
BRANCH   1  53
ATOM     53  O   UNL     1      31.084  35.585  12.940  1.00  0.00    -0.388 OA
ATOM     54  H   UNL     1      30.377  35.119  12.469  1.00  0.00     0.211 HD
ENDBRANCH   1  53
BRANCH   1  55
ATOM     55  C   UNL     1      31.094  37.921  12.584  1.00  0.00     0.165 C 
BRANCH  55  56
ATOM     56  O   UNL     1      31.474  39.099  13.175  1.00  0.00    -0.388 OA
ATOM     57  H   UNL     1      31.911  39.734  12.566  1.00  0.00     0.211 HD
ENDBRANCH  55  56
BRANCH  55  58
ATOM     58  C   UNL     1      30.081  38.236  11.457  1.00  0.00     0.154 C 
BRANCH  58  59
ATOM     59  N   UNL     1      28.980  37.298  11.647  1.00  0.00    -0.319 N 
ATOM     60  C   UNL     1      27.976  37.104  10.643  1.00  0.00     0.407 C 
ATOM     61  H   UNL     1      28.903  36.745  12.530  1.00  0.00     0.167 HD
ATOM     62  O   UNL     1      28.039  37.749   9.574  1.00  0.00    -0.225 OA
BRANCH  60  63
ATOM     63  O   UNL     1      26.934  36.221  10.832  1.00  0.00    -0.443 OA
BRANCH  63  64
ATOM     64  C   UNL     1      27.000  34.947  11.396  1.00  0.00     0.294 C 
BRANCH  64  65
ATOM     65  C   UNL     1      26.664  35.014  12.840  1.00  0.00     0.120 A 
ATOM     66  C   UNL     1      25.528  34.512  13.449  1.00  0.00     0.138 A 
ATOM     67  N   UNL     1      27.373  35.556  13.841  1.00  0.00    -0.132 NA
ATOM     68  N   UNL     1      25.598  34.768  14.779  1.00  0.00    -0.249 N 
ATOM     69  N   UNL     1      26.724  35.401  14.986  1.00  0.00    -0.067 NA
BRANCH  68  70
ATOM     70  C   UNL     1      24.577  34.335  15.728  1.00  0.00     0.181 C 
BRANCH  70  71
ATOM     71  C   UNL     1      23.703  35.564  15.964  1.00  0.00     0.170 C 
BRANCH  71  72
ATOM     72  O   UNL     1      22.403  35.244  15.653  1.00  0.00    -0.388 OA
ATOM     73  H   UNL     1      22.182  34.344  15.994  1.00  0.00     0.211 HD
ENDBRANCH  71  72
BRANCH  71  74
ATOM     74  C   UNL     1      23.874  36.066  17.365  1.00  0.00     0.239 C 
BRANCH  74  75
ATOM     75  N   UNL     1      24.942  37.052  17.404  1.00  0.00    -0.227 N 
ATOM     76  C   UNL     1      24.852  38.246  16.733  1.00  0.00     0.204 A 
ATOM     77  C   UNL     1      26.101  37.000  18.060  1.00  0.00     0.434 A 
ATOM     78  C   UNL     1      26.009  38.945  16.997  1.00  0.00     0.245 A 
ATOM     79  N   UNL     1      26.755  38.168  17.807  1.00  0.00    -0.074 NA
BRANCH  77  80
ATOM     80  N   UNL     1      26.580  35.931  18.859  1.00  0.00    -0.047 N 
ATOM     81  O   UNL     1      26.935  36.128  20.063  1.00  0.00    -0.390 OA
ATOM     82  O   UNL     1      26.702  34.646  18.409  1.00  0.00    -0.390 OA
ENDBRANCH  77  80
ENDBRANCH  74  75
ENDBRANCH  71  74
ENDBRANCH  70  71
ENDBRANCH  68  70
ENDBRANCH  64  65
ENDBRANCH  63  64
ENDBRANCH  60  63
ENDBRANCH  58  59
ENDBRANCH  55  58
ENDBRANCH   1  55
TORSDOF 35
BEGIN_RES LYS A 131
REMARK  4 active torsions:
REMARK  status: ('A' for Active; 'I' for Inactive)
REMARK    1  A    between atoms: CA   and  CB  
REMARK    2  A    between atoms: CB   and  CG  
REMARK    3  A    between atoms: CG   and  CD  
REMARK    4  A    between atoms: CD   and  CE  
ROOT
ATOM      1  CA  LYS A 131      29.867  25.555  16.977  1.00 20.52     0.186 C 
ENDROOT
BRANCH   1   2
ATOM      2  CB  LYS A 131      28.345  25.722  17.026  1.00 20.94     0.034 C 
BRANCH   2   3
ATOM      3  CG  LYS A 131      27.602  24.400  16.914  1.00 22.96     0.005 C 
BRANCH   3   4
ATOM      4  CD  LYS A 131      26.150  24.533  17.283  1.00 24.33     0.041 C 
BRANCH   4   5
ATOM      5  CE  LYS A 131      26.006  25.527  18.431  1.00 26.91     0.338 C 
ATOM      6  NZ  LYS A 131      24.935  26.508  18.137  1.00 27.40     0.618 N 
ENDBRANCH   4   5
ENDBRANCH   3   4
ENDBRANCH   2   3
ENDBRANCH   1   2
END_RES LYS A 131
BEGIN_RES LYS A 135
REMARK  4 active torsions:
REMARK  status: ('A' for Active; 'I' for Inactive)
REMARK    5  A    between atoms: CA   and  CB  
REMARK    6  A    between atoms: CB   and  CG  
REMARK    7  A    between atoms: CG   and  CD  
REMARK    8  A    between atoms: CD   and  CE  
ROOT
ATOM      7  CA  LYS A 135      33.193  34.663   9.290  1.00 25.02     0.186 C 
ENDROOT
BRANCH   7   8
ATOM      8  CB  LYS A 135      32.060  35.360  10.034  1.00 26.63     0.034 C 
BRANCH   8   9
ATOM      9  CG  LYS A 135      30.704  34.758   9.768  1.00 29.45     0.005 C 
BRANCH   9  10
ATOM     10  CD  LYS A 135      30.480  34.579   8.275  1.00 32.00     0.041 C 
BRANCH  10  11
ATOM     11  CE  LYS A 135      29.023  34.813   7.923  1.00 34.25     0.338 C 
ATOM     12  NZ  LYS A 135      28.895  35.585   6.657  1.00 35.99     0.618 N 
ENDBRANCH  10  11
ENDBRANCH   9  10
ENDBRANCH   8   9
ENDBRANCH   7   8
END_RES LYS A 135
