REMARK VINA RESULT:    -3.686      5.114      9.400
REMARK INTER + INTRA:         -22.008
REMARK INTER:                 -11.336
REMARK INTRA:                 -10.671
REMARK UNBOUND:               -11.857
REMARK SMILES CC[N+](C)(CC)CCCn1cc(COC(=O)NC[C@@H](O)C(O)[C@@H]2O[C@@](OC[C@H]3O[C@@H](O[C@H]4[C@H](O)[C@@H](O)[C@H](OCCN=[N+]=[N-])O[C@@H]4CO)[C@H](O)[C@@H](O)[C@H]3O)(C(=O)O)C[C@H](O)[C@H]2NC(C)=O)nn1
REMARK SMILES IDX 21 1 23 2 25 3 57 4 24 5 58 6 60 7 26 8 27 9 28 10 30 11
REMARK SMILES IDX 29 12 48 13 50 14 52 15 31 16 32 17 45 18 44 19 37 20 33 21
REMARK SMILES IDX 35 22 46 23 47 24 38 26 39 27 40 28 41 29 42 30 43 31 34 32
REMARK SMILES IDX 36 34 49 36 51 38 53 40 54 42 55 43 56 44 59 46 61 48 62 49
REMARK SMILES IDX 63 51 64 52 22 53 19 55 20 56 18 58 17 59 15 60 16 62 14 63
REMARK SMILES IDX 13 64 12 65 11 66 65 67 10 68 66 69 9 70 8 71 7 72 3 73 4 74
REMARK SMILES IDX 2 75 1 76 5 77 6 78
REMARK H PARENT 47 25 34 33 36 35 49 37 51 39 53 41 56 45 59 47 61 50 22 54
REMARK H PARENT 20 57 17 61
REMARK Flexibility Score: inf
ROOT
ATOM      1  C   UNL     1      20.935  31.669  15.755  1.00  0.00     0.176 C 
ENDROOT
BRANCH   1   2
ATOM      2  C   UNL     1      22.018  30.956  14.950  1.00  0.00     0.178 C 
ATOM      3  C   UNL     1      23.906  31.465  13.631  1.00  0.00     0.272 C 
ATOM      4  C   UNL     1      23.514  30.233  12.886  1.00  0.00     0.113 C 
ATOM      5  O   UNL     1      22.717  31.923  14.264  1.00  0.00    -0.332 OA
ATOM      6  C   UNL     1      22.025  30.129  12.680  1.00  0.00     0.145 C 
ATOM      7  C   UNL     1      21.375  29.951  14.049  1.00  0.00     0.142 C 
BRANCH   3   8
ATOM      8  O   UNL     1      24.251  32.526  12.821  1.00  0.00    -0.338 OA
BRANCH   8   9
ATOM      9  C   UNL     1      23.540  33.665  12.852  1.00  0.00     0.199 C 
BRANCH   9  10
ATOM     10  C   UNL     1      24.471  34.901  12.972  1.00  0.00     0.179 C 
ATOM     11  C   UNL     1      22.991  36.673  12.490  1.00  0.00     0.282 C 
ATOM     12  O   UNL     1      24.112  35.916  12.175  1.00  0.00    -0.341 OA
ATOM     13  C   UNL     1      22.742  36.807  13.945  1.00  0.00     0.202 C 
ATOM     14  C   UNL     1      24.142  36.743  14.595  1.00  0.00     0.179 C 
ATOM     15  C   UNL     1      24.556  35.296  14.447  1.00  0.00     0.177 C 
BRANCH  11  16
ATOM     16  O   UNL     1      21.897  36.275  11.709  1.00  0.00    -0.341 OA
BRANCH  16  17
ATOM     17  C   UNL     1      21.802  36.971  10.539  1.00  0.00     0.184 C 
ATOM     18  C   UNL     1      20.699  37.913  10.328  1.00  0.00     0.178 C 
ATOM     19  O   UNL     1      20.964  38.693   9.217  1.00  0.00    -0.341 OA
ATOM     20  C   UNL     1      21.854  38.265   8.299  1.00  0.00     0.281 C 
ATOM     21  C   UNL     1      21.746  35.997   9.339  1.00  0.00     0.180 C 
ATOM     22  C   UNL     1      21.957  36.778   8.069  1.00  0.00     0.202 C 
BRANCH  18  23
ATOM     23  C   UNL     1      20.380  38.848  11.477  1.00  0.00     0.191 C 
BRANCH  23  24
ATOM     24  O   UNL     1      19.820  38.206  12.573  1.00  0.00    -0.394 OA
ATOM     25  H   UNL     1      19.950  38.830  13.358  1.00  0.00     0.210 HD
ENDBRANCH  23  24
ENDBRANCH  18  23
BRANCH  20  26
ATOM     26  O   UNL     1      23.090  38.860   8.481  1.00  0.00    -0.350 OA
BRANCH  26  27
ATOM     27  C   UNL     1      24.112  38.347   7.752  1.00  0.00     0.169 C 
BRANCH  27  28
ATOM     28  C   UNL     1      25.307  37.928   8.584  1.00  0.00     0.119 C 
BRANCH  28  29
ATOM     29  N   UNL     1      25.904  36.737   8.003  1.00  0.00    -0.092 NA
ATOM     30  N   UNL     1      26.597  36.761   6.989  1.00  0.00     0.001 N 
ATOM     31  N   UNL     1      27.313  36.766   5.986  1.00  0.00    -0.003 NA
ENDBRANCH  28  29
ENDBRANCH  27  28
ENDBRANCH  26  27
ENDBRANCH  20  26
BRANCH  21  32
ATOM     32  O   UNL     1      22.672  35.011   9.585  1.00  0.00    -0.387 OA
ATOM     33  H   UNL     1      23.431  34.982   8.981  1.00  0.00     0.211 HD
ENDBRANCH  21  32
BRANCH  22  34
ATOM     34  O   UNL     1      21.072  36.316   7.108  1.00  0.00    -0.385 OA
ATOM     35  H   UNL     1      21.162  35.347   6.911  1.00  0.00     0.211 HD
ENDBRANCH  22  34
ENDBRANCH  16  17
ENDBRANCH  11  16
BRANCH  13  36
ATOM     36  O   UNL     1      22.209  38.051  14.315  1.00  0.00    -0.385 OA
ATOM     37  H   UNL     1      22.306  38.647  13.542  1.00  0.00     0.211 HD
ENDBRANCH  13  36
BRANCH  14  38
ATOM     38  O   UNL     1      24.042  37.088  15.943  1.00  0.00    -0.387 OA
ATOM     39  H   UNL     1      24.400  37.995  16.031  1.00  0.00     0.211 HD
ENDBRANCH  14  38
BRANCH  15  40
ATOM     40  O   UNL     1      23.591  34.550  15.121  1.00  0.00    -0.387 OA
ATOM     41  H   UNL     1      23.727  34.459  16.076  1.00  0.00     0.211 HD
ENDBRANCH  15  40
ENDBRANCH   9  10
ENDBRANCH   8   9
ENDBRANCH   3   8
BRANCH   3  42
ATOM     42  C   UNL     1      24.947  31.262  14.653  1.00  0.00     0.364 C 
ATOM     43  O   UNL     1      25.413  32.214  15.319  1.00  0.00    -0.246 OA
BRANCH  42  44
ATOM     44  O   UNL     1      25.450  30.010  14.910  1.00  0.00    -0.477 OA
ATOM     45  H   UNL     1      26.083  29.809  15.683  1.00  0.00     0.296 HD
ENDBRANCH  42  44
ENDBRANCH   3  42
BRANCH   6  46
ATOM     46  O   UNL     1      21.480  31.225  12.054  1.00  0.00    -0.391 OA
ATOM     47  H   UNL     1      21.057  31.860  12.709  1.00  0.00     0.211 HD
ENDBRANCH   6  46
BRANCH   7  48
ATOM     48  N   UNL     1      21.784  28.603  14.480  1.00  0.00    -0.348 N 
ATOM     49  C   UNL     1      20.933  27.790  15.280  1.00  0.00     0.217 C 
ATOM     50  H   UNL     1      22.701  28.178  14.233  1.00  0.00     0.163 HD
ATOM     51  C   UNL     1      21.301  26.426  15.734  1.00  0.00     0.114 C 
ATOM     52  O   UNL     1      19.825  28.247  15.612  1.00  0.00    -0.275 OA
ENDBRANCH   7  48
ENDBRANCH   1   2
BRANCH   1  53
ATOM     53  O   UNL     1      20.884  33.038  15.322  1.00  0.00    -0.388 OA
ATOM     54  H   UNL     1      20.196  33.075  14.606  1.00  0.00     0.211 HD
ENDBRANCH   1  53
BRANCH   1  55
ATOM     55  C   UNL     1      21.282  31.703  17.208  1.00  0.00     0.165 C 
BRANCH  55  56
ATOM     56  O   UNL     1      19.988  31.912  17.842  1.00  0.00    -0.388 OA
ATOM     57  H   UNL     1      20.146  32.531  18.620  1.00  0.00     0.211 HD
ENDBRANCH  55  56
BRANCH  55  58
ATOM     58  C   UNL     1      22.182  32.784  17.680  1.00  0.00     0.154 C 
BRANCH  58  59
ATOM     59  N   UNL     1      23.563  32.630  17.774  1.00  0.00    -0.319 N 
ATOM     60  C   UNL     1      24.349  32.415  18.930  1.00  0.00     0.407 C 
ATOM     61  H   UNL     1      24.136  32.682  16.834  1.00  0.00     0.167 HD
ATOM     62  O   UNL     1      23.882  32.330  20.076  1.00  0.00    -0.225 OA
BRANCH  60  63
ATOM     63  O   UNL     1      25.756  32.296  18.812  1.00  0.00    -0.443 OA
BRANCH  63  64
ATOM     64  C   UNL     1      26.331  31.028  19.180  1.00  0.00     0.294 C 
BRANCH  64  65
ATOM     65  C   UNL     1      27.302  30.760  18.055  1.00  0.00     0.120 A 
ATOM     66  C   UNL     1      28.504  31.390  17.836  1.00  0.00     0.138 A 
ATOM     67  N   UNL     1      27.220  29.838  17.089  1.00  0.00    -0.132 NA
ATOM     68  N   UNL     1      29.108  30.823  16.742  1.00  0.00    -0.252 N 
ATOM     69  N   UNL     1      28.286  29.881  16.317  1.00  0.00    -0.067 NA
BRANCH  68  70
ATOM     70  C   UNL     1      30.414  31.179  16.217  1.00  0.00     0.152 C 
BRANCH  70  71
ATOM     71  C   UNL     1      30.669  32.623  16.255  1.00  0.00     0.085 C 
BRANCH  71  72
ATOM     72  C   UNL     1      30.071  33.518  15.250  1.00  0.00     0.265 C 
BRANCH  72  73
ATOM     73  N   UNL     1      30.879  34.533  14.660  1.00  0.00    -0.326 N 
ATOM     74  C   UNL     1      30.581  35.812  15.246  1.00  0.00     0.334 C 
BRANCH  73  75
ATOM     75  C   UNL     1      30.845  34.601  13.227  1.00  0.00     0.260 C 
ATOM     76  C   UNL     1      29.475  34.930  12.682  1.00  0.00     0.071 C 
ENDBRANCH  73  75
BRANCH  73  77
ATOM     77  C   UNL     1      32.262  34.235  15.067  1.00  0.00     0.260 C 
ATOM     78  C   UNL     1      33.296  34.902  14.230  1.00  0.00     0.071 C 
ENDBRANCH  73  77
ENDBRANCH  72  73
ENDBRANCH  71  72
ENDBRANCH  70  71
ENDBRANCH  68  70
ENDBRANCH  64  65
ENDBRANCH  63  64
ENDBRANCH  60  63
ENDBRANCH  58  59
ENDBRANCH  55  58
ENDBRANCH   1  55
TORSDOF 35
BEGIN_RES LYS A 131
REMARK  4 active torsions:
REMARK  status: ('A' for Active; 'I' for Inactive)
REMARK    1  A    between atoms: CA   and  CB  
REMARK    2  A    between atoms: CB   and  CG  
REMARK    3  A    between atoms: CG   and  CD  
REMARK    4  A    between atoms: CD   and  CE  
ROOT
ATOM      1  CA  LYS A 131      29.867  25.555  16.977  1.00 20.52     0.186 C 
ENDROOT
BRANCH   1   2
ATOM      2  CB  LYS A 131      28.345  25.722  17.026  1.00 20.94     0.034 C 
BRANCH   2   3
ATOM      3  CG  LYS A 131      27.601  24.402  16.890  1.00 22.96     0.005 C 
BRANCH   3   4
ATOM      4  CD  LYS A 131      26.484  24.276  17.888  1.00 24.33     0.041 C 
BRANCH   4   5
ATOM      5  CE  LYS A 131      25.161  24.633  17.220  1.00 26.91     0.338 C 
ATOM      6  NZ  LYS A 131      24.187  25.122  18.224  1.00 27.40     0.618 N 
ENDBRANCH   4   5
ENDBRANCH   3   4
ENDBRANCH   2   3
ENDBRANCH   1   2
END_RES LYS A 131
BEGIN_RES LYS A 135
REMARK  4 active torsions:
REMARK  status: ('A' for Active; 'I' for Inactive)
REMARK    5  A    between atoms: CA   and  CB  
REMARK    6  A    between atoms: CB   and  CG  
REMARK    7  A    between atoms: CG   and  CD  
REMARK    8  A    between atoms: CD   and  CE  
ROOT
ATOM      7  CA  LYS A 135      33.193  34.663   9.290  1.00 25.02     0.186 C 
ENDROOT
BRANCH   7   8
ATOM      8  CB  LYS A 135      32.060  35.360  10.034  1.00 26.63     0.034 C 
BRANCH   8   9
ATOM      9  CG  LYS A 135      30.802  35.504   9.217  1.00 29.45     0.005 C 
BRANCH   9  10
ATOM     10  CD  LYS A 135      30.137  34.152   9.013  1.00 32.00     0.041 C 
BRANCH  10  11
ATOM     11  CE  LYS A 135      28.687  34.328   8.604  1.00 34.25     0.338 C 
ATOM     12  NZ  LYS A 135      27.769  33.722   9.608  1.00 35.99     0.618 N 
ENDBRANCH  10  11
ENDBRANCH   9  10
ENDBRANCH   8   9
ENDBRANCH   7   8
END_RES LYS A 135
