REMARK VINA RESULT:    -5.481      4.655     10.782
REMARK INTER + INTRA:         -21.597
REMARK INTER:                 -12.234
REMARK INTRA:                  -9.363
REMARK UNBOUND:                -8.107
REMARK SMILES CC(=O)N[C@@H]1[C@@H](O)C[C@](OC[C@H]2O[C@@H](O[C@H]3[C@H](O)[C@@H](O)[C@H](OCCN=[N+]=[N-])O[C@@H]3CO)[C@H](O)[C@@H](O)[C@H]2O)(C(=O)O)O[C@H]1C(O)[C@H](O)CNC(=O)OCc1cn(C2CCN(C)CC2)nn1
REMARK SMILES IDX 9 1 8 2 6 3 5 4 42 5 41 6 10 7 11 8 12 9 14 10 13 11 32 12
REMARK SMILES IDX 34 13 36 14 15 15 16 16 29 17 28 18 21 19 17 20 19 21 30 22
REMARK SMILES IDX 31 23 22 25 23 26 24 27 25 28 26 29 27 30 18 31 20 33 33 35
REMARK SMILES IDX 35 37 37 39 38 41 39 42 40 43 7 45 43 47 44 48 45 50 46 51
REMARK SMILES IDX 47 53 48 54 49 55 50 57 51 58 52 59 53 60 54 61 64 62 55 63
REMARK SMILES IDX 63 64 56 65 57 66 62 67 58 68 61 69 59 70 60 71 4 72 2 73
REMARK SMILES IDX 1 75 3 76
REMARK H PARENT 31 24 18 32 20 34 33 36 35 38 37 40 40 44 7 46 44 49 46 52
REMARK H PARENT 48 56 4 74
REMARK Flexibility Score: inf
ROOT
ATOM      1  C   UNL     1      20.009  36.659   9.118  1.00  0.00     0.272 C 
ATOM      2  C   UNL     1      18.692  36.785   8.373  1.00  0.00     0.113 C 
ATOM      3  C   UNL     1      18.002  35.526   8.048  1.00  0.00     0.145 C 
ATOM      4  C   UNL     1      18.071  34.467   9.126  1.00  0.00     0.142 C 
ATOM      5  C   UNL     1      19.196  34.656  10.068  1.00  0.00     0.178 C 
ATOM      6  O   UNL     1      19.722  35.857  10.270  1.00  0.00    -0.332 OA
ENDROOT
BRANCH   1   7
ATOM      7  O   UNL     1      20.301  37.850   9.663  1.00  0.00    -0.338 OA
BRANCH   7   8
ATOM      8  C   UNL     1      20.630  38.995   9.170  1.00  0.00     0.199 C 
BRANCH   8   9
ATOM      9  C   UNL     1      21.862  39.757   9.552  1.00  0.00     0.179 C 
ATOM     10  C   UNL     1      23.759  38.465   8.892  1.00  0.00     0.282 C 
ATOM     11  O   UNL     1      22.832  38.828   9.809  1.00  0.00    -0.341 OA
ATOM     12  C   UNL     1      23.602  39.096   7.577  1.00  0.00     0.202 C 
ATOM     13  C   UNL     1      23.522  40.609   7.848  1.00  0.00     0.179 C 
ATOM     14  C   UNL     1      22.248  40.822   8.581  1.00  0.00     0.177 C 
BRANCH  10  15
ATOM     15  O   UNL     1      23.777  37.078   8.954  1.00  0.00    -0.341 OA
BRANCH  15  16
ATOM     16  C   UNL     1      24.415  36.509   9.977  1.00  0.00     0.184 C 
ATOM     17  C   UNL     1      25.460  35.557   9.508  1.00  0.00     0.178 C 
ATOM     18  O   UNL     1      26.355  35.325  10.559  1.00  0.00    -0.341 OA
ATOM     19  C   UNL     1      25.725  34.631  11.565  1.00  0.00     0.281 C 
ATOM     20  C   UNL     1      23.512  35.650  10.876  1.00  0.00     0.180 C 
ATOM     21  C   UNL     1      24.420  35.222  12.026  1.00  0.00     0.202 C 
BRANCH  17  22
ATOM     22  C   UNL     1      26.151  35.939   8.245  1.00  0.00     0.191 C 
BRANCH  22  23
ATOM     23  O   UNL     1      26.790  37.157   8.434  1.00  0.00    -0.394 OA
ATOM     24  H   UNL     1      27.772  37.052   8.522  1.00  0.00     0.210 HD
ENDBRANCH  22  23
ENDBRANCH  17  22
BRANCH  19  25
ATOM     25  O   UNL     1      26.580  34.677  12.674  1.00  0.00    -0.350 OA
BRANCH  25  26
ATOM     26  C   UNL     1      27.364  35.801  12.733  1.00  0.00     0.169 C 
BRANCH  26  27
ATOM     27  C   UNL     1      27.804  36.162  14.137  1.00  0.00     0.119 C 
BRANCH  27  28
ATOM     28  N   UNL     1      29.249  36.117  14.257  1.00  0.00    -0.092 NA
ATOM     29  N   UNL     1      29.891  35.161  13.824  1.00  0.00     0.001 N 
ATOM     30  N   UNL     1      30.576  34.138  13.870  1.00  0.00    -0.003 NA
ENDBRANCH  27  28
ENDBRANCH  26  27
ENDBRANCH  25  26
ENDBRANCH  19  25
BRANCH  20  31
ATOM     31  O   UNL     1      22.478  36.353  11.433  1.00  0.00    -0.387 OA
ATOM     32  H   UNL     1      21.635  36.062  11.024  1.00  0.00     0.211 HD
ENDBRANCH  20  31
BRANCH  21  33
ATOM     33  O   UNL     1      23.749  34.332  12.827  1.00  0.00    -0.385 OA
ATOM     34  H   UNL     1      23.470  34.715  13.674  1.00  0.00     0.211 HD
ENDBRANCH  21  33
ENDBRANCH  15  16
ENDBRANCH  10  15
BRANCH  12  35
ATOM     35  O   UNL     1      24.705  38.984   6.732  1.00  0.00    -0.385 OA
ATOM     36  H   UNL     1      24.561  38.257   6.077  1.00  0.00     0.211 HD
ENDBRANCH  12  35
BRANCH  13  37
ATOM     37  O   UNL     1      23.612  41.356   6.700  1.00  0.00    -0.387 OA
ATOM     38  H   UNL     1      22.704  41.416   6.308  1.00  0.00     0.211 HD
ENDBRANCH  13  37
BRANCH  14  39
ATOM     39  O   UNL     1      21.224  40.975   7.650  1.00  0.00    -0.387 OA
ATOM     40  H   UNL     1      20.429  40.432   7.855  1.00  0.00     0.211 HD
ENDBRANCH  14  39
ENDBRANCH   8   9
ENDBRANCH   7   8
ENDBRANCH   1   7
BRANCH   1  41
ATOM     41  C   UNL     1      20.960  35.941   8.283  1.00  0.00     0.364 C 
ATOM     42  O   UNL     1      21.137  36.389   7.078  1.00  0.00    -0.246 OA
BRANCH  41  43
ATOM     43  O   UNL     1      21.727  34.837   8.545  1.00  0.00    -0.477 OA
ATOM     44  H   UNL     1      22.398  34.434   7.891  1.00  0.00     0.296 HD
ENDBRANCH  41  43
ENDBRANCH   1  41
BRANCH   3  45
ATOM     45  O   UNL     1      16.629  35.813   7.786  1.00  0.00    -0.391 OA
ATOM     46  H   UNL     1      16.504  36.761   7.571  1.00  0.00     0.211 HD
ENDBRANCH   3  45
BRANCH   5  47
ATOM     47  C   UNL     1      18.846  34.074  11.466  1.00  0.00     0.176 C 
BRANCH  47  48
ATOM     48  O   UNL     1      18.321  35.085  12.259  1.00  0.00    -0.388 OA
ATOM     49  H   UNL     1      17.475  34.838  12.688  1.00  0.00     0.211 HD
ENDBRANCH  47  48
BRANCH  47  50
ATOM     50  C   UNL     1      20.017  33.453  12.076  1.00  0.00     0.165 C 
BRANCH  50  51
ATOM     51  O   UNL     1      21.134  33.768  11.208  1.00  0.00    -0.388 OA
ATOM     52  H   UNL     1      21.879  34.108  11.758  1.00  0.00     0.211 HD
ENDBRANCH  50  51
BRANCH  50  53
ATOM     53  C   UNL     1      20.064  32.008  12.327  1.00  0.00     0.154 C 
BRANCH  53  54
ATOM     54  N   UNL     1      21.253  31.265  12.333  1.00  0.00    -0.319 N 
ATOM     55  C   UNL     1      21.387  29.856  12.278  1.00  0.00     0.407 C 
ATOM     56  H   UNL     1      22.176  31.818  12.389  1.00  0.00     0.167 HD
ATOM     57  O   UNL     1      20.394  29.111  12.174  1.00  0.00    -0.225 OA
BRANCH  55  58
ATOM     58  O   UNL     1      22.686  29.303  12.345  1.00  0.00    -0.443 OA
BRANCH  58  59
ATOM     59  C   UNL     1      23.220  28.979  13.603  1.00  0.00     0.294 C 
BRANCH  59  60
ATOM     60  C   UNL     1      24.086  30.096  14.052  1.00  0.00     0.120 A 
ATOM     61  C   UNL     1      24.990  30.054  15.127  1.00  0.00     0.138 A 
ATOM     62  N   UNL     1      24.220  31.341  13.571  1.00  0.00    -0.132 NA
ATOM     63  N   UNL     1      25.613  31.240  15.243  1.00  0.00    -0.249 N 
ATOM     64  N   UNL     1      25.129  31.996  14.292  1.00  0.00    -0.067 NA
BRANCH  63  65
ATOM     65  C   UNL     1      26.612  31.592  16.224  1.00  0.00     0.111 C 
ATOM     66  C   UNL     1      27.485  30.388  16.437  1.00  0.00     0.043 C 
ATOM     67  C   UNL     1      27.463  32.750  15.781  1.00  0.00     0.043 C 
ATOM     68  C   UNL     1      28.795  30.586  15.710  1.00  0.00     0.086 C 
ATOM     69  C   UNL     1      28.770  32.842  16.521  1.00  0.00     0.086 C 
ATOM     70  N   UNL     1      29.543  31.621  16.421  1.00  0.00    -0.306 NA
ATOM     71  C   UNL     1      29.820  31.124  17.757  1.00  0.00     0.105 C 
ENDBRANCH  63  65
ENDBRANCH  59  60
ENDBRANCH  58  59
ENDBRANCH  55  58
ENDBRANCH  53  54
ENDBRANCH  50  53
ENDBRANCH  47  50
ENDBRANCH   5  47
BRANCH   4  72
ATOM     72  N   UNL     1      18.070  33.131   8.561  1.00  0.00    -0.348 N 
ATOM     73  C   UNL     1      16.849  32.429   8.449  1.00  0.00     0.217 C 
ATOM     74  H   UNL     1      18.949  32.662   8.231  1.00  0.00     0.163 HD
ATOM     75  C   UNL     1      16.794  31.045   7.876  1.00  0.00     0.114 C 
ATOM     76  O   UNL     1      15.766  32.972   8.839  1.00  0.00    -0.275 OA
ENDBRANCH   4  72
TORSDOF 30
BEGIN_RES LYS A 131
REMARK  4 active torsions:
REMARK  status: ('A' for Active; 'I' for Inactive)
REMARK    1  A    between atoms: CA   and  CB  
REMARK    2  A    between atoms: CB   and  CG  
REMARK    3  A    between atoms: CG   and  CD  
REMARK    4  A    between atoms: CD   and  CE  
ROOT
ATOM      1  CA  LYS A 131      29.867  25.555  16.977  1.00 20.52     0.186 C 
ENDROOT
BRANCH   1   2
ATOM      2  CB  LYS A 131      28.345  25.722  17.026  1.00 20.94     0.034 C 
BRANCH   2   3
ATOM      3  CG  LYS A 131      27.602  24.399  16.922  1.00 22.96     0.005 C 
BRANCH   3   4
ATOM      4  CD  LYS A 131      26.141  24.543  17.248  1.00 24.33     0.041 C 
BRANCH   4   5
ATOM      5  CE  LYS A 131      25.955  24.549  18.761  1.00 26.91     0.338 C 
ATOM      6  NZ  LYS A 131      25.517  23.214  19.235  1.00 27.40     0.618 N 
ENDBRANCH   4   5
ENDBRANCH   3   4
ENDBRANCH   2   3
ENDBRANCH   1   2
END_RES LYS A 131
BEGIN_RES LYS A 135
REMARK  4 active torsions:
REMARK  status: ('A' for Active; 'I' for Inactive)
REMARK    5  A    between atoms: CA   and  CB  
REMARK    6  A    between atoms: CB   and  CG  
REMARK    7  A    between atoms: CG   and  CD  
REMARK    8  A    between atoms: CD   and  CE  
ROOT
ATOM      7  CA  LYS A 135      33.193  34.663   9.290  1.00 25.02     0.186 C 
ENDROOT
BRANCH   7   8
ATOM      8  CB  LYS A 135      32.060  35.360  10.034  1.00 26.63     0.034 C 
BRANCH   8   9
ATOM      9  CG  LYS A 135      30.920  34.442  10.393  1.00 29.45     0.005 C 
BRANCH   9  10
ATOM     10  CD  LYS A 135      29.606  34.979   9.848  1.00 32.00     0.041 C 
BRANCH  10  11
ATOM     11  CE  LYS A 135      29.206  34.231   8.590  1.00 34.25     0.338 C 
ATOM     12  NZ  LYS A 135      29.587  34.994   7.369  1.00 35.99     0.618 N 
ENDBRANCH  10  11
ENDBRANCH   9  10
ENDBRANCH   8   9
ENDBRANCH   7   8
END_RES LYS A 135
