REMARK VINA RESULT:    -3.836      6.483     12.205
REMARK INTER + INTRA:         -23.634
REMARK INTER:                  -8.383
REMARK INTRA:                 -15.251
REMARK UNBOUND:               -13.184
REMARK SMILES CC(=O)N[C@@H]1[C@@H](O)C[C@](OC[C@H]2O[C@@H](O[C@H]3[C@H](O)[C@@H](O)[C@H](OCCN=[N+]=[N-])O[C@@H]3CO)[C@H](O)[C@@H](O)[C@H]2O)(C(=O)O)O[C@H]1C(O)[C@H](O)CNC(=O)OCc1cn(CC(O)Cn2ccnc2[N+](=O)[O-])nn1
REMARK SMILES IDX 43 1 42 2 9 3 8 4 41 5 6 6 5 7 10 8 11 9 12 10 14 11 13 12
REMARK SMILES IDX 32 13 34 14 36 15 15 16 16 17 29 18 28 19 21 20 17 21 19 22
REMARK SMILES IDX 30 23 31 24 22 26 23 27 24 28 25 29 26 30 27 31 18 32 20 34
REMARK SMILES IDX 33 36 35 38 37 40 38 42 39 43 40 44 7 46 4 48 2 49 1 51 3 52
REMARK SMILES IDX 44 53 45 55 46 56 47 58 48 59 49 60 50 62 51 63 52 64 53 65
REMARK SMILES IDX 54 66 69 67 55 68 68 69 56 70 57 71 58 72 59 74 60 75 61 76
REMARK SMILES IDX 64 77 62 78 63 79 65 80 66 81 67 82
REMARK H PARENT 31 25 18 33 20 35 33 37 35 39 37 41 40 45 7 47 4 50 44 54
REMARK H PARENT 46 57 48 61 58 73
REMARK Flexibility Score: inf
ROOT
ATOM      1  C   UNL     1      28.416  38.144   6.814  1.00  0.00     0.176 C 
ENDROOT
BRANCH   1   2
ATOM      2  C   UNL     1      28.060  37.402   8.138  1.00  0.00     0.178 C 
ATOM      3  C   UNL     1      26.125  36.504   9.032  1.00  0.00     0.272 C 
ATOM      4  C   UNL     1      26.478  37.058  10.381  1.00  0.00     0.113 C 
ATOM      5  O   UNL     1      26.672  37.292   8.025  1.00  0.00    -0.332 OA
ATOM      6  C   UNL     1      27.208  38.389  10.262  1.00  0.00     0.145 C 
ATOM      7  C   UNL     1      28.373  38.267   9.287  1.00  0.00     0.142 C 
BRANCH   3   8
ATOM      8  O   UNL     1      24.761  36.540   8.767  1.00  0.00    -0.338 OA
BRANCH   8   9
ATOM      9  C   UNL     1      24.322  37.160   7.659  1.00  0.00     0.199 C 
BRANCH   9  10
ATOM     10  C   UNL     1      23.382  38.315   7.941  1.00  0.00     0.179 C 
ATOM     11  C   UNL     1      22.083  39.238   9.506  1.00  0.00     0.282 C 
ATOM     12  O   UNL     1      23.350  38.630   9.326  1.00  0.00    -0.341 OA
ATOM     13  C   UNL     1      21.966  40.480   8.657  1.00  0.00     0.202 C 
ATOM     14  C   UNL     1      23.370  40.805   8.151  1.00  0.00     0.179 C 
ATOM     15  C   UNL     1      23.806  39.614   7.293  1.00  0.00     0.177 C 
BRANCH  11  16
ATOM     16  O   UNL     1      21.847  39.552  10.829  1.00  0.00    -0.341 OA
BRANCH  16  17
ATOM     17  C   UNL     1      22.387  38.547  11.597  1.00  0.00     0.184 C 
ATOM     18  C   UNL     1      21.361  37.777  12.414  1.00  0.00     0.178 C 
ATOM     19  O   UNL     1      22.021  36.599  12.781  1.00  0.00    -0.341 OA
ATOM     20  C   UNL     1      23.053  36.780  13.659  1.00  0.00     0.281 C 
ATOM     21  C   UNL     1      23.377  39.077  12.625  1.00  0.00     0.180 C 
ATOM     22  C   UNL     1      23.893  37.992  13.492  1.00  0.00     0.202 C 
BRANCH  18  23
ATOM     23  C   UNL     1      20.098  37.484  11.687  1.00  0.00     0.191 C 
BRANCH  23  24
ATOM     24  O   UNL     1      19.284  38.608  11.754  1.00  0.00    -0.394 OA
ATOM     25  H   UNL     1      18.567  38.526  12.431  1.00  0.00     0.210 HD
ENDBRANCH  23  24
ENDBRANCH  18  23
BRANCH  20  26
ATOM     26  O   UNL     1      23.911  35.660  13.487  1.00  0.00    -0.350 OA
BRANCH  26  27
ATOM     27  C   UNL     1      23.388  34.505  14.011  1.00  0.00     0.169 C 
BRANCH  27  28
ATOM     28  C   UNL     1      23.565  33.431  12.929  1.00  0.00     0.119 C 
BRANCH  28  29
ATOM     29  N   UNL     1      24.139  32.228  13.449  1.00  0.00    -0.092 NA
ATOM     30  N   UNL     1      25.087  32.254  14.268  1.00  0.00     0.001 N 
ATOM     31  N   UNL     1      25.694  32.067  15.309  1.00  0.00    -0.003 NA
ENDBRANCH  28  29
ENDBRANCH  27  28
ENDBRANCH  26  27
ENDBRANCH  20  26
BRANCH  21  32
ATOM     32  O   UNL     1      24.461  39.676  11.950  1.00  0.00    -0.387 OA
ATOM     33  H   UNL     1      25.110  39.910  12.637  1.00  0.00     0.211 HD
ENDBRANCH  21  32
BRANCH  22  34
ATOM     34  O   UNL     1      24.046  38.560  14.783  1.00  0.00    -0.385 OA
ATOM     35  H   UNL     1      24.097  37.851  15.475  1.00  0.00     0.211 HD
ENDBRANCH  22  34
ENDBRANCH  16  17
ENDBRANCH  11  16
BRANCH  13  36
ATOM     36  O   UNL     1      21.106  40.210   7.593  1.00  0.00    -0.385 OA
ATOM     37  H   UNL     1      21.387  39.392   7.095  1.00  0.00     0.211 HD
ENDBRANCH  13  36
BRANCH  14  38
ATOM     38  O   UNL     1      24.211  40.814   9.248  1.00  0.00    -0.387 OA
ATOM     39  H   UNL     1      24.131  39.980   9.742  1.00  0.00     0.211 HD
ENDBRANCH  14  38
BRANCH  15  40
ATOM     40  O   UNL     1      25.173  39.728   7.169  1.00  0.00    -0.387 OA
ATOM     41  H   UNL     1      25.646  39.550   8.021  1.00  0.00     0.211 HD
ENDBRANCH  15  40
ENDBRANCH   9  10
ENDBRANCH   8   9
ENDBRANCH   3   8
BRANCH   3  42
ATOM     42  C   UNL     1      26.615  35.128   8.879  1.00  0.00     0.364 C 
ATOM     43  O   UNL     1      26.966  34.655   7.742  1.00  0.00    -0.246 OA
BRANCH  42  44
ATOM     44  O   UNL     1      26.737  34.233   9.924  1.00  0.00    -0.477 OA
ATOM     45  H   UNL     1      27.494  33.547   9.994  1.00  0.00     0.296 HD
ENDBRANCH  42  44
ENDBRANCH   3  42
BRANCH   6  46
ATOM     46  O   UNL     1      26.355  39.419   9.918  1.00  0.00    -0.391 OA
ATOM     47  H   UNL     1      25.790  39.698  10.681  1.00  0.00     0.211 HD
ENDBRANCH   6  46
BRANCH   7  48
ATOM     48  N   UNL     1      29.597  38.047   9.989  1.00  0.00    -0.348 N 
ATOM     49  C   UNL     1      30.874  38.496   9.671  1.00  0.00     0.217 C 
ATOM     50  H   UNL     1      29.548  37.451  10.920  1.00  0.00     0.163 HD
ATOM     51  C   UNL     1      32.063  38.187  10.566  1.00  0.00     0.114 C 
ATOM     52  O   UNL     1      31.141  39.164   8.670  1.00  0.00    -0.275 OA
ENDBRANCH   7  48
ENDBRANCH   1   2
BRANCH   1  53
ATOM     53  O   UNL     1      28.680  39.491   7.165  1.00  0.00    -0.388 OA
ATOM     54  H   UNL     1      29.086  39.573   8.042  1.00  0.00     0.211 HD
ENDBRANCH   1  53
BRANCH   1  55
ATOM     55  C   UNL     1      27.406  38.075   5.767  1.00  0.00     0.165 C 
BRANCH  55  56
ATOM     56  O   UNL     1      27.023  36.833   5.329  1.00  0.00    -0.388 OA
ATOM     57  H   UNL     1      27.772  36.236   5.104  1.00  0.00     0.211 HD
ENDBRANCH  55  56
BRANCH  55  58
ATOM     58  C   UNL     1      27.749  38.951   4.538  1.00  0.00     0.154 C 
BRANCH  58  59
ATOM     59  N   UNL     1      26.992  40.186   4.713  1.00  0.00    -0.319 N 
ATOM     60  C   UNL     1      27.639  41.464   4.765  1.00  0.00     0.407 C 
ATOM     61  H   UNL     1      25.951  40.159   4.804  1.00  0.00     0.167 HD
ATOM     62  O   UNL     1      28.881  41.531   4.656  1.00  0.00    -0.225 OA
BRANCH  60  63
ATOM     63  O   UNL     1      26.917  42.626   4.936  1.00  0.00    -0.443 OA
BRANCH  63  64
ATOM     64  C   UNL     1      25.889  42.853   5.851  1.00  0.00     0.294 C 
BRANCH  64  65
ATOM     65  C   UNL     1      26.403  42.717   7.237  1.00  0.00     0.120 A 
ATOM     66  C   UNL     1      26.285  43.643   8.257  1.00  0.00     0.138 A 
ATOM     67  N   UNL     1      27.070  41.692   7.786  1.00  0.00    -0.132 NA
ATOM     68  N   UNL     1      26.879  43.143   9.369  1.00  0.00    -0.249 N 
ATOM     69  N   UNL     1      27.345  41.962   9.054  1.00  0.00    -0.067 NA
BRANCH  68  70
ATOM     70  C   UNL     1      26.900  43.850  10.646  1.00  0.00     0.181 C 
BRANCH  70  71
ATOM     71  C   UNL     1      25.852  43.151  11.508  1.00  0.00     0.170 C 
BRANCH  71  72
ATOM     72  O   UNL     1      26.073  41.795  11.454  1.00  0.00    -0.388 OA
ATOM     73  H   UNL     1      25.386  41.315  11.976  1.00  0.00     0.211 HD
ENDBRANCH  71  72
BRANCH  71  74
ATOM     74  C   UNL     1      25.869  43.701  12.901  1.00  0.00     0.239 C 
BRANCH  74  75
ATOM     75  N   UNL     1      24.822  43.072  13.689  1.00  0.00    -0.227 N 
ATOM     76  C   UNL     1      23.528  43.529  13.676  1.00  0.00     0.204 A 
ATOM     77  C   UNL     1      24.907  42.008  14.489  1.00  0.00     0.434 A 
ATOM     78  C   UNL     1      22.800  42.704  14.503  1.00  0.00     0.245 A 
ATOM     79  N   UNL     1      23.658  41.785  14.988  1.00  0.00    -0.074 NA
BRANCH  77  80
ATOM     80  N   UNL     1      26.070  41.255  14.784  1.00  0.00    -0.047 N 
ATOM     81  O   UNL     1      26.760  41.503  15.823  1.00  0.00    -0.390 OA
ATOM     82  O   UNL     1      26.535  40.240  13.995  1.00  0.00    -0.390 OA
ENDBRANCH  77  80
ENDBRANCH  74  75
ENDBRANCH  71  74
ENDBRANCH  70  71
ENDBRANCH  68  70
ENDBRANCH  64  65
ENDBRANCH  63  64
ENDBRANCH  60  63
ENDBRANCH  58  59
ENDBRANCH  55  58
ENDBRANCH   1  55
TORSDOF 35
BEGIN_RES LYS A 131
REMARK  4 active torsions:
REMARK  status: ('A' for Active; 'I' for Inactive)
REMARK    1  A    between atoms: CA   and  CB  
REMARK    2  A    between atoms: CB   and  CG  
REMARK    3  A    between atoms: CG   and  CD  
REMARK    4  A    between atoms: CD   and  CE  
ROOT
ATOM      1  CA  LYS A 131      29.867  25.555  16.977  1.00 20.52     0.186 C 
ENDROOT
BRANCH   1   2
ATOM      2  CB  LYS A 131      28.345  25.722  17.026  1.00 20.94     0.034 C 
BRANCH   2   3
ATOM      3  CG  LYS A 131      27.599  24.478  16.569  1.00 22.96     0.005 C 
BRANCH   3   4
ATOM      4  CD  LYS A 131      26.983  23.732  17.720  1.00 24.33     0.041 C 
BRANCH   4   5
ATOM      5  CE  LYS A 131      25.468  23.684  17.543  1.00 26.91     0.338 C 
ATOM      6  NZ  LYS A 131      24.981  22.286  17.622  1.00 27.40     0.618 N 
ENDBRANCH   4   5
ENDBRANCH   3   4
ENDBRANCH   2   3
ENDBRANCH   1   2
END_RES LYS A 131
BEGIN_RES LYS A 135
REMARK  4 active torsions:
REMARK  status: ('A' for Active; 'I' for Inactive)
REMARK    5  A    between atoms: CA   and  CB  
REMARK    6  A    between atoms: CB   and  CG  
REMARK    7  A    between atoms: CG   and  CD  
REMARK    8  A    between atoms: CD   and  CE  
ROOT
ATOM      7  CA  LYS A 135      33.193  34.663   9.290  1.00 25.02     0.186 C 
ENDROOT
BRANCH   7   8
ATOM      8  CB  LYS A 135      32.060  35.360  10.034  1.00 26.63     0.034 C 
BRANCH   8   9
ATOM      9  CG  LYS A 135      30.707  34.744   9.785  1.00 29.45     0.005 C 
BRANCH   9  10
ATOM     10  CD  LYS A 135      29.852  34.801  11.042  1.00 32.00     0.041 C 
BRANCH  10  11
ATOM     11  CE  LYS A 135      30.722  34.993  12.269  1.00 34.25     0.338 C 
ATOM     12  NZ  LYS A 135      30.195  34.217  13.426  1.00 35.99     0.618 N 
ENDBRANCH  10  11
ENDBRANCH   9  10
ENDBRANCH   8   9
ENDBRANCH   7   8
END_RES LYS A 135
