REMARK VINA RESULT:    -4.537      3.896      9.393
REMARK INTER + INTRA:         -22.081
REMARK INTER:                  -7.461
REMARK INTRA:                 -14.620
REMARK UNBOUND:               -10.516
REMARK SMILES CC(=O)N[C@@H]1[C@@H](O)C[C@](OC[C@H]2O[C@@H](O[C@H]3[C@H](O)[C@@H](O)[C@H](OCCN=[N+]=[N-])O[C@@H]3CO)[C@H](O)[C@@H](O)[C@H]2O)(C(=O)O)O[C@H]1C(O)[C@H](O)CNC(=O)OCc1cn(C(C)(C)C(=O)O)nn1
REMARK SMILES IDX 9 1 8 2 6 3 5 4 42 5 41 6 10 7 11 8 12 9 14 10 13 11 32 12
REMARK SMILES IDX 34 13 36 14 15 15 16 16 29 17 28 18 21 19 17 20 19 21 30 22
REMARK SMILES IDX 31 23 22 25 23 26 24 27 25 28 26 29 27 30 18 31 20 33 33 35
REMARK SMILES IDX 35 37 37 39 38 41 39 42 40 43 7 45 43 47 44 48 45 50 46 51
REMARK SMILES IDX 47 53 48 54 49 55 50 57 51 58 52 59 53 60 54 61 63 62 55 63
REMARK SMILES IDX 62 64 56 65 57 66 58 67 59 68 60 69 61 70 4 72 2 73 1 75
REMARK SMILES IDX 3 76
REMARK H PARENT 31 24 18 32 20 34 33 36 35 38 37 40 40 44 7 46 44 49 46 52
REMARK H PARENT 48 56 61 71 4 74
REMARK Flexibility Score: inf
ROOT
ATOM      1  C   UNL     1      31.798  39.756   8.154  1.00  0.00     0.272 C 
ATOM      2  C   UNL     1      31.675  38.442   8.808  1.00  0.00     0.113 C 
ATOM      3  C   UNL     1      30.541  38.319   9.785  1.00  0.00     0.145 C 
ATOM      4  C   UNL     1      30.197  39.666  10.344  1.00  0.00     0.142 C 
ATOM      5  C   UNL     1      31.510  40.469  10.321  1.00  0.00     0.178 C 
ATOM      6  O   UNL     1      31.722  40.855   9.017  1.00  0.00    -0.332 OA
ENDROOT
BRANCH   1   7
ATOM      7  O   UNL     1      30.924  39.973   7.133  1.00  0.00    -0.338 OA
BRANCH   7   8
ATOM      8  C   UNL     1      31.059  41.103   6.389  1.00  0.00     0.199 C 
BRANCH   8   9
ATOM      9  C   UNL     1      29.714  41.704   6.048  1.00  0.00     0.179 C 
ATOM     10  C   UNL     1      27.491  41.116   5.837  1.00  0.00     0.282 C 
ATOM     11  O   UNL     1      28.769  40.736   6.386  1.00  0.00    -0.341 OA
ATOM     12  C   UNL     1      27.037  42.286   6.624  1.00  0.00     0.202 C 
ATOM     13  C   UNL     1      28.134  42.820   7.543  1.00  0.00     0.179 C 
ATOM     14  C   UNL     1      29.453  42.956   6.798  1.00  0.00     0.177 C 
BRANCH  10  15
ATOM     15  O   UNL     1      26.767  39.965   5.897  1.00  0.00    -0.341 OA
BRANCH  15  16
ATOM     16  C   UNL     1      27.131  39.091   6.907  1.00  0.00     0.184 C 
ATOM     17  C   UNL     1      26.956  37.680   6.439  1.00  0.00     0.178 C 
ATOM     18  O   UNL     1      26.833  36.792   7.520  1.00  0.00    -0.341 OA
ATOM     19  C   UNL     1      25.605  36.891   8.156  1.00  0.00     0.281 C 
ATOM     20  C   UNL     1      26.230  39.280   8.127  1.00  0.00     0.180 C 
ATOM     21  C   UNL     1      25.080  38.308   8.067  1.00  0.00     0.202 C 
BRANCH  17  22
ATOM     22  C   UNL     1      28.196  37.181   5.677  1.00  0.00     0.191 C 
BRANCH  22  23
ATOM     23  O   UNL     1      29.276  37.915   6.123  1.00  0.00    -0.394 OA
ATOM     24  H   UNL     1      29.221  38.834   5.724  1.00  0.00     0.210 HD
ENDBRANCH  22  23
ENDBRANCH  17  22
BRANCH  19  25
ATOM     25  O   UNL     1      25.821  36.514   9.481  1.00  0.00    -0.350 OA
BRANCH  25  26
ATOM     26  C   UNL     1      24.786  35.831  10.063  1.00  0.00     0.169 C 
BRANCH  26  27
ATOM     27  C   UNL     1      24.572  36.475  11.441  1.00  0.00     0.119 C 
BRANCH  27  28
ATOM     28  N   UNL     1      25.334  37.691  11.596  1.00  0.00    -0.092 NA
ATOM     29  N   UNL     1      24.717  38.764  11.680  1.00  0.00     0.001 N 
ATOM     30  N   UNL     1      24.111  39.814  11.516  1.00  0.00    -0.003 NA
ENDBRANCH  27  28
ENDBRANCH  26  27
ENDBRANCH  25  26
ENDBRANCH  19  25
BRANCH  20  31
ATOM     31  O   UNL     1      26.958  39.010   9.282  1.00  0.00    -0.387 OA
ATOM     32  H   UNL     1      27.555  39.753   9.547  1.00  0.00     0.211 HD
ENDBRANCH  20  31
BRANCH  21  33
ATOM     33  O   UNL     1      24.387  38.530   6.883  1.00  0.00    -0.385 OA
ATOM     34  H   UNL     1      24.240  37.711   6.353  1.00  0.00     0.211 HD
ENDBRANCH  21  33
ENDBRANCH  15  16
ENDBRANCH  10  15
BRANCH  12  35
ATOM     35  O   UNL     1      26.781  43.348   5.728  1.00  0.00    -0.385 OA
ATOM     36  H   UNL     1      26.872  43.107   4.794  1.00  0.00     0.211 HD
ENDBRANCH  12  35
BRANCH  13  37
ATOM     37  O   UNL     1      28.259  42.018   8.661  1.00  0.00    -0.387 OA
ATOM     38  H   UNL     1      28.936  41.310   8.508  1.00  0.00     0.211 HD
ENDBRANCH  13  37
BRANCH  14  39
ATOM     39  O   UNL     1      30.431  43.185   7.752  1.00  0.00    -0.387 OA
ATOM     40  H   UNL     1      30.172  44.006   8.261  1.00  0.00     0.211 HD
ENDBRANCH  14  39
ENDBRANCH   8   9
ENDBRANCH   7   8
ENDBRANCH   1   7
BRANCH   1  41
ATOM     41  C   UNL     1      33.235  39.846   7.627  1.00  0.00     0.364 C 
ATOM     42  O   UNL     1      34.027  40.689   8.101  1.00  0.00    -0.246 OA
BRANCH  41  43
ATOM     43  O   UNL     1      33.682  39.006   6.627  1.00  0.00    -0.477 OA
ATOM     44  H   UNL     1      34.496  39.187   6.061  1.00  0.00     0.296 HD
ENDBRANCH  41  43
ENDBRANCH   1  41
BRANCH   3  45
ATOM     45  O   UNL     1      29.438  37.802   9.138  1.00  0.00    -0.391 OA
ATOM     46  H   UNL     1      28.607  38.304   9.341  1.00  0.00     0.211 HD
ENDBRANCH   3  45
BRANCH   5  47
ATOM     47  C   UNL     1      31.442  41.664  11.229  1.00  0.00     0.176 C 
BRANCH  47  48
ATOM     48  O   UNL     1      32.091  41.375  12.427  1.00  0.00    -0.388 OA
ATOM     49  H   UNL     1      33.077  41.265  12.277  1.00  0.00     0.211 HD
ENDBRANCH  47  48
BRANCH  47  50
ATOM     50  C   UNL     1      32.143  42.839  10.588  1.00  0.00     0.165 C 
BRANCH  50  51
ATOM     51  O   UNL     1      33.530  42.645  10.569  1.00  0.00    -0.388 OA
ATOM     52  H   UNL     1      33.933  43.370  10.041  1.00  0.00     0.211 HD
ENDBRANCH  50  51
BRANCH  50  53
ATOM     53  C   UNL     1      31.856  44.143  11.284  1.00  0.00     0.154 C 
BRANCH  53  54
ATOM     54  N   UNL     1      30.494  44.205  11.753  1.00  0.00    -0.319 N 
ATOM     55  C   UNL     1      29.453  44.722  10.945  1.00  0.00     0.407 C 
ATOM     56  H   UNL     1      30.255  43.866  12.706  1.00  0.00     0.167 HD
ATOM     57  O   UNL     1      29.660  45.150   9.781  1.00  0.00    -0.225 OA
BRANCH  55  58
ATOM     58  O   UNL     1      28.132  44.781  11.414  1.00  0.00    -0.443 OA
BRANCH  58  59
ATOM     59  C   UNL     1      27.140  45.409  10.595  1.00  0.00     0.294 C 
BRANCH  59  60
ATOM     60  C   UNL     1      26.188  44.430  10.071  1.00  0.00     0.120 A 
ATOM     61  C   UNL     1      25.204  44.664   9.145  1.00  0.00     0.139 A 
ATOM     62  N   UNL     1      26.113  43.140  10.405  1.00  0.00    -0.132 NA
ATOM     63  N   UNL     1      24.544  43.509   8.932  1.00  0.00    -0.235 N 
ATOM     64  N   UNL     1      25.135  42.607   9.722  1.00  0.00    -0.066 NA
BRANCH  63  65
ATOM     65  C   UNL     1      23.428  43.234   8.050  1.00  0.00     0.155 C 
ATOM     66  C   UNL     1      23.523  44.074   6.811  1.00  0.00     0.049 C 
ATOM     67  C   UNL     1      22.106  43.557   8.738  1.00  0.00     0.049 C 
BRANCH  65  68
ATOM     68  C   UNL     1      23.435  41.786   7.746  1.00  0.00     0.331 C 
ATOM     69  O   UNL     1      23.749  41.406   6.608  1.00  0.00    -0.250 OA
BRANCH  68  70
ATOM     70  O   UNL     1      23.090  40.889   8.742  1.00  0.00    -0.479 OA
ATOM     71  H   UNL     1      22.937  39.903   8.563  1.00  0.00     0.296 HD
ENDBRANCH  68  70
ENDBRANCH  65  68
ENDBRANCH  63  65
ENDBRANCH  59  60
ENDBRANCH  58  59
ENDBRANCH  55  58
ENDBRANCH  53  54
ENDBRANCH  50  53
ENDBRANCH  47  50
ENDBRANCH   5  47
BRANCH   4  72
ATOM     72  N   UNL     1      29.790  39.611  11.724  1.00  0.00    -0.348 N 
ATOM     73  C   UNL     1      28.526  40.059  12.202  1.00  0.00     0.217 C 
ATOM     74  H   UNL     1      30.457  39.218  12.417  1.00  0.00     0.163 HD
ATOM     75  C   UNL     1      28.184  39.966  13.655  1.00  0.00     0.114 C 
ATOM     76  O   UNL     1      27.695  40.537  11.387  1.00  0.00    -0.275 OA
ENDBRANCH   4  72
TORSDOF 32
BEGIN_RES LYS A 131
REMARK  4 active torsions:
REMARK  status: ('A' for Active; 'I' for Inactive)
REMARK    1  A    between atoms: CA   and  CB  
REMARK    2  A    between atoms: CB   and  CG  
REMARK    3  A    between atoms: CG   and  CD  
REMARK    4  A    between atoms: CD   and  CE  
ROOT
ATOM      1  CA  LYS A 131      29.867  25.555  16.977  1.00 20.52     0.186 C 
ENDROOT
BRANCH   1   2
ATOM      2  CB  LYS A 131      28.345  25.722  17.026  1.00 20.94     0.034 C 
BRANCH   2   3
ATOM      3  CG  LYS A 131      27.603  24.396  16.958  1.00 22.96     0.005 C 
BRANCH   3   4
ATOM      4  CD  LYS A 131      26.140  24.549  17.271  1.00 24.33     0.041 C 
BRANCH   4   5
ATOM      5  CE  LYS A 131      25.583  23.217  17.763  1.00 26.91     0.338 C 
ATOM      6  NZ  LYS A 131      26.438  22.096  17.305  1.00 27.40     0.618 N 
ENDBRANCH   4   5
ENDBRANCH   3   4
ENDBRANCH   2   3
ENDBRANCH   1   2
END_RES LYS A 131
BEGIN_RES LYS A 135
REMARK  4 active torsions:
REMARK  status: ('A' for Active; 'I' for Inactive)
REMARK    5  A    between atoms: CA   and  CB  
REMARK    6  A    between atoms: CB   and  CG  
REMARK    7  A    between atoms: CG   and  CD  
REMARK    8  A    between atoms: CD   and  CE  
ROOT
ATOM      7  CA  LYS A 135      33.193  34.663   9.290  1.00 25.02     0.186 C 
ENDROOT
BRANCH   7   8
ATOM      8  CB  LYS A 135      32.060  35.360  10.034  1.00 26.63     0.034 C 
BRANCH   8   9
ATOM      9  CG  LYS A 135      30.767  34.586  10.024  1.00 29.45     0.005 C 
BRANCH   9  10
ATOM     10  CD  LYS A 135      30.362  34.236   8.600  1.00 32.00     0.041 C 
BRANCH  10  11
ATOM     11  CE  LYS A 135      28.870  34.425   8.409  1.00 34.25     0.338 C 
ATOM     12  NZ  LYS A 135      28.101  33.762   9.499  1.00 35.99     0.618 N 
ENDBRANCH  10  11
ENDBRANCH   9  10
ENDBRANCH   8   9
ENDBRANCH   7   8
END_RES LYS A 135
