REMARK VINA RESULT:    -3.608      6.136     12.640
REMARK INTER + INTRA:         -22.033
REMARK INTER:                  -8.326
REMARK INTRA:                 -13.707
REMARK UNBOUND:               -13.046
REMARK SMILES CC(=O)N[C@@H]1[C@@H](O)C[C@](OC[C@H]2O[C@@H](O[C@H]3[C@H](O)[C@@H](O)[C@H](OCCN=[N+]=[N-])O[C@@H]3CO)[C@H](O)[C@@H](O)[C@H]2O)(C(=O)O)O[C@H]1C(O)[C@H](O)CNC(=O)OCc1cn(-c2nc(C)nc(N)n2)nn1
REMARK SMILES IDX 9 1 8 2 6 3 5 4 42 5 41 6 10 7 11 8 12 9 14 10 13 11 32 12
REMARK SMILES IDX 34 13 36 14 15 15 16 16 29 17 28 18 21 19 17 20 19 21 30 22
REMARK SMILES IDX 31 23 22 25 23 26 24 27 25 28 26 29 27 30 18 31 20 33 33 35
REMARK SMILES IDX 35 37 37 39 38 41 39 42 40 43 7 45 43 47 44 48 45 50 46 51
REMARK SMILES IDX 47 53 48 54 49 55 50 57 51 58 52 59 53 60 54 61 65 62 55 63
REMARK SMILES IDX 64 64 56 65 63 66 57 67 61 68 58 69 60 70 59 71 62 72 4 75
REMARK SMILES IDX 2 76 1 78 3 79
REMARK H PARENT 31 24 18 32 20 34 33 36 35 38 37 40 40 44 7 46 44 49 46 52
REMARK H PARENT 48 56 62 73 62 74 4 77
REMARK Flexibility Score: inf
ROOT
ATOM      1  C   UNL     1      23.129  37.261   8.731  1.00  0.00     0.272 C 
ATOM      2  C   UNL     1      24.128  36.410   9.437  1.00  0.00     0.113 C 
ATOM      3  C   UNL     1      25.409  37.149   9.677  1.00  0.00     0.145 C 
ATOM      4  C   UNL     1      25.930  37.648   8.355  1.00  0.00     0.142 C 
ATOM      5  C   UNL     1      24.862  38.288   7.499  1.00  0.00     0.178 C 
ATOM      6  O   UNL     1      23.689  37.633   7.479  1.00  0.00    -0.332 OA
ENDROOT
BRANCH   1   7
ATOM      7  O   UNL     1      22.551  38.221   9.364  1.00  0.00    -0.338 OA
BRANCH   7   8
ATOM      8  C   UNL     1      21.503  38.949   9.409  1.00  0.00     0.199 C 
BRANCH   8   9
ATOM      9  C   UNL     1      21.380  40.385   9.791  1.00  0.00     0.179 C 
ATOM     10  C   UNL     1      22.330  42.213  10.624  1.00  0.00     0.282 C 
ATOM     11  O   UNL     1      22.591  40.953  10.019  1.00  0.00    -0.341 OA
ATOM     12  C   UNL     1      21.962  43.100   9.463  1.00  0.00     0.202 C 
ATOM     13  C   UNL     1      20.659  42.622   8.870  1.00  0.00     0.179 C 
ATOM     14  C   UNL     1      20.358  41.187   9.053  1.00  0.00     0.177 C 
BRANCH  10  15
ATOM     15  O   UNL     1      23.430  42.685  11.289  1.00  0.00    -0.341 OA
BRANCH  15  16
ATOM     16  C   UNL     1      24.343  41.704  11.635  1.00  0.00     0.184 C 
ATOM     17  C   UNL     1      24.391  41.363  13.086  1.00  0.00     0.178 C 
ATOM     18  O   UNL     1      25.665  41.456  13.631  1.00  0.00    -0.341 OA
ATOM     19  C   UNL     1      26.641  40.764  12.925  1.00  0.00     0.281 C 
ATOM     20  C   UNL     1      25.713  42.271  11.215  1.00  0.00     0.180 C 
ATOM     21  C   UNL     1      26.733  41.192  11.490  1.00  0.00     0.202 C 
BRANCH  17  22
ATOM     22  C   UNL     1      23.734  40.059  13.451  1.00  0.00     0.191 C 
BRANCH  22  23
ATOM     23  O   UNL     1      23.543  39.350  12.244  1.00  0.00    -0.394 OA
ATOM     24  H   UNL     1      22.813  38.696  12.303  1.00  0.00     0.210 HD
ENDBRANCH  22  23
ENDBRANCH  17  22
BRANCH  19  25
ATOM     25  O   UNL     1      26.494  39.406  12.978  1.00  0.00    -0.350 OA
BRANCH  25  26
ATOM     26  C   UNL     1      27.537  38.678  13.469  1.00  0.00     0.169 C 
BRANCH  26  27
ATOM     27  C   UNL     1      27.347  37.191  13.345  1.00  0.00     0.119 C 
BRANCH  27  28
ATOM     28  N   UNL     1      26.115  36.830  14.062  1.00  0.00    -0.092 NA
ATOM     29  N   UNL     1      25.172  36.441  13.376  1.00  0.00     0.001 N 
ATOM     30  N   UNL     1      23.989  36.445  12.972  1.00  0.00    -0.003 NA
ENDBRANCH  27  28
ENDBRANCH  26  27
ENDBRANCH  25  26
ENDBRANCH  19  25
BRANCH  20  31
ATOM     31  O   UNL     1      25.675  42.651   9.891  1.00  0.00    -0.387 OA
ATOM     32  H   UNL     1      25.059  43.422   9.752  1.00  0.00     0.211 HD
ENDBRANCH  20  31
BRANCH  21  33
ATOM     33  O   UNL     1      27.985  41.725  11.183  1.00  0.00    -0.385 OA
ATOM     34  H   UNL     1      27.902  42.609  10.747  1.00  0.00     0.211 HD
ENDBRANCH  21  33
ENDBRANCH  15  16
ENDBRANCH  10  15
BRANCH  12  35
ATOM     35  O   UNL     1      21.886  44.446   9.813  1.00  0.00    -0.385 OA
ATOM     36  H   UNL     1      22.424  44.960   9.159  1.00  0.00     0.211 HD
ENDBRANCH  12  35
BRANCH  13  37
ATOM     37  O   UNL     1      20.646  43.036   7.535  1.00  0.00    -0.387 OA
ATOM     38  H   UNL     1      21.373  42.630   7.000  1.00  0.00     0.211 HD
ENDBRANCH  13  37
BRANCH  14  39
ATOM     39  O   UNL     1      19.927  40.634   7.852  1.00  0.00    -0.387 OA
ATOM     40  H   UNL     1      19.012  41.014   7.691  1.00  0.00     0.211 HD
ENDBRANCH  14  39
ENDBRANCH   8   9
ENDBRANCH   7   8
ENDBRANCH   1   7
BRANCH   1  41
ATOM     41  C   UNL     1      22.091  36.215   8.236  1.00  0.00     0.364 C 
ATOM     42  O   UNL     1      21.886  35.263   8.978  1.00  0.00    -0.246 OA
BRANCH  41  43
ATOM     43  O   UNL     1      21.466  36.380   7.039  1.00  0.00    -0.477 OA
ATOM     44  H   UNL     1      21.515  37.247   6.486  1.00  0.00     0.296 HD
ENDBRANCH  41  43
ENDBRANCH   1  41
BRANCH   3  45
ATOM     45  O   UNL     1      25.288  38.245  10.501  1.00  0.00    -0.391 OA
ATOM     46  H   UNL     1      24.506  38.787  10.301  1.00  0.00     0.211 HD
ENDBRANCH   3  45
BRANCH   5  47
ATOM     47  C   UNL     1      24.751  39.781   7.692  1.00  0.00     0.176 C 
BRANCH  47  48
ATOM     48  O   UNL     1      25.965  40.315   8.091  1.00  0.00    -0.388 OA
ATOM     49  H   UNL     1      26.009  40.603   9.020  1.00  0.00     0.211 HD
ENDBRANCH  47  48
BRANCH  47  50
ATOM     50  C   UNL     1      24.272  40.408   6.421  1.00  0.00     0.165 C 
BRANCH  50  51
ATOM     51  O   UNL     1      25.347  40.465   5.516  1.00  0.00    -0.388 OA
ATOM     52  H   UNL     1      26.162  40.225   5.989  1.00  0.00     0.211 HD
ENDBRANCH  50  51
BRANCH  50  53
ATOM     53  C   UNL     1      23.711  41.783   6.558  1.00  0.00     0.154 C 
BRANCH  53  54
ATOM     54  N   UNL     1      24.603  42.678   7.260  1.00  0.00    -0.319 N 
ATOM     55  C   UNL     1      25.027  43.926   6.766  1.00  0.00     0.407 C 
ATOM     56  H   UNL     1      24.984  42.407   8.215  1.00  0.00     0.167 HD
ATOM     57  O   UNL     1      24.638  44.331   5.667  1.00  0.00    -0.225 OA
BRANCH  55  58
ATOM     58  O   UNL     1      25.892  44.748   7.483  1.00  0.00    -0.443 OA
BRANCH  58  59
ATOM     59  C   UNL     1      27.285  44.768   7.302  1.00  0.00     0.294 C 
BRANCH  59  60
ATOM     60  C   UNL     1      27.847  43.390   7.171  1.00  0.00     0.121 A 
ATOM     61  C   UNL     1      28.808  42.819   7.978  1.00  0.00     0.148 A 
ATOM     62  N   UNL     1      27.524  42.461   6.251  1.00  0.00    -0.131 NA
ATOM     63  N   UNL     1      29.040  41.573   7.530  1.00  0.00    -0.185 N 
ATOM     64  N   UNL     1      28.253  41.386   6.490  1.00  0.00    -0.059 NA
BRANCH  63  65
ATOM     65  C   UNL     1      29.974  40.677   8.116  1.00  0.00     0.257 A 
ATOM     66  N   UNL     1      31.064  40.307   7.418  1.00  0.00    -0.175 NA
ATOM     67  N   UNL     1      29.845  40.161   9.352  1.00  0.00    -0.196 NA
ATOM     68  C   UNL     1      31.990  39.456   7.929  1.00  0.00     0.225 A 
ATOM     69  C   UNL     1      30.736  39.321   9.888  1.00  0.00     0.133 A 
ATOM     70  N   UNL     1      31.803  38.972   9.176  1.00  0.00    -0.198 NA
ATOM     71  C   UNL     1      30.550  38.768  11.275  1.00  0.00     0.090 C 
BRANCH  68  72
ATOM     72  N   UNL     1      33.117  39.100   7.154  1.00  0.00    -0.368 N 
ATOM     73  H   UNL     1      33.673  39.815   6.645  1.00  0.00     0.159 HD
ATOM     74  H   UNL     1      33.414  38.108   7.077  1.00  0.00     0.159 HD
ENDBRANCH  68  72
ENDBRANCH  63  65
ENDBRANCH  59  60
ENDBRANCH  58  59
ENDBRANCH  55  58
ENDBRANCH  53  54
ENDBRANCH  50  53
ENDBRANCH  47  50
ENDBRANCH   5  47
BRANCH   4  75
ATOM     75  N   UNL     1      26.537  36.541   7.647  1.00  0.00    -0.348 N 
ATOM     76  C   UNL     1      27.771  36.704   6.956  1.00  0.00     0.217 C 
ATOM     77  H   UNL     1      26.101  35.585   7.615  1.00  0.00     0.163 HD
ATOM     78  C   UNL     1      28.372  35.569   6.243  1.00  0.00     0.114 C 
ATOM     79  O   UNL     1      28.338  37.818   6.960  1.00  0.00    -0.275 OA
ENDBRANCH   4  75
TORSDOF 31
BEGIN_RES LYS A 131
REMARK  4 active torsions:
REMARK  status: ('A' for Active; 'I' for Inactive)
REMARK    1  A    between atoms: CA   and  CB  
REMARK    2  A    between atoms: CB   and  CG  
REMARK    3  A    between atoms: CG   and  CD  
REMARK    4  A    between atoms: CD   and  CE  
ROOT
ATOM      1  CA  LYS A 131      29.867  25.555  16.977  1.00 20.52     0.186 C 
ENDROOT
BRANCH   1   2
ATOM      2  CB  LYS A 131      28.345  25.722  17.026  1.00 20.94     0.034 C 
BRANCH   2   3
ATOM      3  CG  LYS A 131      27.601  24.403  16.881  1.00 22.96     0.005 C 
BRANCH   3   4
ATOM      4  CD  LYS A 131      26.153  24.525  17.266  1.00 24.33     0.041 C 
BRANCH   4   5
ATOM      5  CE  LYS A 131      26.048  24.974  18.720  1.00 26.91     0.338 C 
ATOM      6  NZ  LYS A 131      25.504  23.884  19.563  1.00 27.40     0.618 N 
ENDBRANCH   4   5
ENDBRANCH   3   4
ENDBRANCH   2   3
ENDBRANCH   1   2
END_RES LYS A 131
BEGIN_RES LYS A 135
REMARK  4 active torsions:
REMARK  status: ('A' for Active; 'I' for Inactive)
REMARK    5  A    between atoms: CA   and  CB  
REMARK    6  A    between atoms: CB   and  CG  
REMARK    7  A    between atoms: CG   and  CD  
REMARK    8  A    between atoms: CD   and  CE  
ROOT
ATOM      7  CA  LYS A 135      33.193  34.663   9.290  1.00 25.02     0.186 C 
ENDROOT
BRANCH   7   8
ATOM      8  CB  LYS A 135      32.060  35.360  10.034  1.00 26.63     0.034 C 
BRANCH   8   9
ATOM      9  CG  LYS A 135      30.781  35.443   9.242  1.00 29.45     0.005 C 
BRANCH   9  10
ATOM     10  CD  LYS A 135      30.159  34.064   9.080  1.00 32.00     0.041 C 
BRANCH  10  11
ATOM     11  CE  LYS A 135      28.720  34.069   9.560  1.00 34.25     0.338 C 
ATOM     12  NZ  LYS A 135      28.450  35.243  10.435  1.00 35.99     0.618 N 
ENDBRANCH  10  11
ENDBRANCH   9  10
ENDBRANCH   8   9
ENDBRANCH   7   8
END_RES LYS A 135
