REMARK VINA RESULT:    -5.414      3.413     10.336
REMARK INTER + INTRA:         -22.013
REMARK INTER:                 -11.640
REMARK INTRA:                 -10.373
REMARK UNBOUND:                -8.212
REMARK SMILES CC(=O)N[C@@H]1[C@@H](O)C[C@](OC[C@H]2O[C@@H](O[C@H]3[C@H](O)[C@@H](O)[C@H](OCCN=[N+]=[N-])O[C@@H]3CO)[C@H](O)[C@@H](O)[C@H]2O)(C(=O)O)O[C@H]1C(O)[C@H](O)CNC(=O)OCc1cn(-c2ccc(CO)cn2)nn1
REMARK SMILES IDX 9 1 8 2 6 3 5 4 42 5 41 6 10 7 11 8 12 9 14 10 13 11 32 12
REMARK SMILES IDX 34 13 36 14 15 15 16 16 29 17 28 18 21 19 17 20 19 21 30 22
REMARK SMILES IDX 31 23 22 25 23 26 24 27 25 28 26 29 27 30 18 31 20 33 33 35
REMARK SMILES IDX 35 37 37 39 38 41 39 42 40 43 7 45 43 47 44 48 45 50 46 51
REMARK SMILES IDX 47 53 48 54 49 55 50 57 51 58 52 59 53 60 54 61 65 62 55 63
REMARK SMILES IDX 64 64 56 65 57 66 63 67 58 68 62 69 59 70 60 71 61 72 4 74
REMARK SMILES IDX 2 75 1 77 3 78
REMARK H PARENT 31 24 18 32 20 34 33 36 35 38 37 40 40 44 7 46 44 49 46 52
REMARK H PARENT 48 56 61 73 4 76
REMARK Flexibility Score: inf
ROOT
ATOM      1  C   UNL     1      28.183  31.868  16.254  1.00  0.00     0.272 C 
ATOM      2  C   UNL     1      28.849  30.806  17.046  1.00  0.00     0.113 C 
ATOM      3  C   UNL     1      27.998  30.320  18.185  1.00  0.00     0.145 C 
ATOM      4  C   UNL     1      26.593  30.027  17.696  1.00  0.00     0.142 C 
ATOM      5  C   UNL     1      26.060  31.171  16.936  1.00  0.00     0.178 C 
ATOM      6  O   UNL     1      26.873  31.602  15.946  1.00  0.00    -0.332 OA
ENDROOT
BRANCH   1   7
ATOM      7  O   UNL     1      28.826  32.165  15.064  1.00  0.00    -0.338 OA
BRANCH   7   8
ATOM      8  C   UNL     1      30.198  32.233  15.189  1.00  0.00     0.199 C 
BRANCH   8   9
ATOM      9  C   UNL     1      30.711  33.444  14.471  1.00  0.00     0.179 C 
ATOM     10  C   UNL     1      30.107  35.036  12.983  1.00  0.00     0.282 C 
ATOM     11  O   UNL     1      29.671  34.333  14.136  1.00  0.00    -0.341 OA
ATOM     12  C   UNL     1      31.452  35.593  13.208  1.00  0.00     0.202 C 
ATOM     13  C   UNL     1      31.940  35.586  14.647  1.00  0.00     0.179 C 
ATOM     14  C   UNL     1      31.686  34.225  15.289  1.00  0.00     0.177 C 
BRANCH  10  15
ATOM     15  O   UNL     1      29.131  35.969  12.617  1.00  0.00    -0.341 OA
BRANCH  15  16
ATOM     16  C   UNL     1      27.944  35.791  13.293  1.00  0.00     0.184 C 
ATOM     17  C   UNL     1      26.707  35.820  12.451  1.00  0.00     0.178 C 
ATOM     18  O   UNL     1      25.900  36.930  12.686  1.00  0.00    -0.341 OA
ATOM     19  C   UNL     1      26.551  38.124  12.508  1.00  0.00     0.281 C 
ATOM     20  C   UNL     1      27.837  36.966  14.282  1.00  0.00     0.180 C 
ATOM     21  C   UNL     1      27.811  38.209  13.382  1.00  0.00     0.202 C 
BRANCH  17  22
ATOM     22  C   UNL     1      25.848  34.616  12.879  1.00  0.00     0.191 C 
BRANCH  22  23
ATOM     23  O   UNL     1      26.517  33.891  13.878  1.00  0.00    -0.394 OA
ATOM     24  H   UNL     1      26.642  34.458  14.698  1.00  0.00     0.210 HD
ENDBRANCH  22  23
ENDBRANCH  17  22
BRANCH  19  25
ATOM     25  O   UNL     1      25.686  39.154  12.869  1.00  0.00    -0.350 OA
BRANCH  25  26
ATOM     26  C   UNL     1      24.438  38.716  13.231  1.00  0.00     0.169 C 
BRANCH  26  27
ATOM     27  C   UNL     1      24.128  39.268  14.616  1.00  0.00     0.119 C 
BRANCH  27  28
ATOM     28  N   UNL     1      23.317  38.320  15.368  1.00  0.00    -0.092 NA
ATOM     29  N   UNL     1      23.443  37.110  15.291  1.00  0.00     0.001 N 
ATOM     30  N   UNL     1      23.748  35.951  15.573  1.00  0.00    -0.003 NA
ENDBRANCH  27  28
ENDBRANCH  26  27
ENDBRANCH  25  26
ENDBRANCH  19  25
BRANCH  20  31
ATOM     31  O   UNL     1      26.751  36.873  15.107  1.00  0.00    -0.387 OA
ATOM     32  H   UNL     1      26.872  37.452  15.874  1.00  0.00     0.211 HD
ENDBRANCH  20  31
BRANCH  21  33
ATOM     33  O   UNL     1      28.949  38.131  12.582  1.00  0.00    -0.385 OA
ATOM     34  H   UNL     1      29.049  37.187  12.301  1.00  0.00     0.211 HD
ENDBRANCH  21  33
ENDBRANCH  15  16
ENDBRANCH  10  15
BRANCH  12  35
ATOM     35  O   UNL     1      32.386  34.862  12.435  1.00  0.00    -0.385 OA
ATOM     36  H   UNL     1      32.335  35.110  11.476  1.00  0.00     0.211 HD
ENDBRANCH  12  35
BRANCH  13  37
ATOM     37  O   UNL     1      31.414  36.634  15.382  1.00  0.00    -0.387 OA
ATOM     38  H   UNL     1      30.750  36.369  16.036  1.00  0.00     0.211 HD
ENDBRANCH  13  37
BRANCH  14  39
ATOM     39  O   UNL     1      31.221  34.453  16.567  1.00  0.00    -0.387 OA
ATOM     40  H   UNL     1      31.975  34.493  17.187  1.00  0.00     0.211 HD
ENDBRANCH  14  39
ENDBRANCH   8   9
ENDBRANCH   7   8
ENDBRANCH   1   7
BRANCH   1  41
ATOM     41  C   UNL     1      28.144  33.180  17.010  1.00  0.00     0.364 C 
ATOM     42  O   UNL     1      28.710  33.347  18.116  1.00  0.00    -0.246 OA
BRANCH  41  43
ATOM     43  O   UNL     1      27.464  34.264  16.493  1.00  0.00    -0.477 OA
ATOM     44  H   UNL     1      26.729  34.114  15.790  1.00  0.00     0.296 HD
ENDBRANCH  41  43
ENDBRANCH   1  41
BRANCH   3  45
ATOM     45  O   UNL     1      28.534  29.077  18.576  1.00  0.00    -0.391 OA
ATOM     46  H   UNL     1      29.315  29.156  19.153  1.00  0.00     0.211 HD
ENDBRANCH   3  45
BRANCH   5  47
ATOM     47  C   UNL     1      24.655  30.947  16.407  1.00  0.00     0.176 C 
BRANCH  47  48
ATOM     48  O   UNL     1      24.602  29.734  15.723  1.00  0.00    -0.388 OA
ATOM     49  H   UNL     1      25.471  29.532  15.303  1.00  0.00     0.211 HD
ENDBRANCH  47  48
BRANCH  47  50
ATOM     50  C   UNL     1      24.131  32.008  15.516  1.00  0.00     0.165 C 
BRANCH  50  51
ATOM     51  O   UNL     1      24.584  33.289  15.862  1.00  0.00    -0.388 OA
ATOM     52  H   UNL     1      23.973  33.999  15.612  1.00  0.00     0.211 HD
ENDBRANCH  50  51
BRANCH  50  53
ATOM     53  C   UNL     1      22.646  32.010  15.290  1.00  0.00     0.154 C 
BRANCH  53  54
ATOM     54  N   UNL     1      22.206  33.276  14.767  1.00  0.00    -0.319 N 
ATOM     55  C   UNL     1      22.168  33.492  13.368  1.00  0.00     0.407 C 
ATOM     56  H   UNL     1      21.908  34.056  15.439  1.00  0.00     0.167 HD
ATOM     57  O   UNL     1      22.501  32.620  12.536  1.00  0.00    -0.225 OA
BRANCH  55  58
ATOM     58  O   UNL     1      21.745  34.716  12.839  1.00  0.00    -0.443 OA
BRANCH  58  59
ATOM     59  C   UNL     1      21.559  34.837  11.458  1.00  0.00     0.294 C 
BRANCH  59  60
ATOM     60  C   UNL     1      22.513  35.687  10.757  1.00  0.00     0.121 A 
ATOM     61  C   UNL     1      23.516  35.280   9.913  1.00  0.00     0.146 A 
ATOM     62  N   UNL     1      22.593  37.027  10.807  1.00  0.00    -0.131 NA
ATOM     63  N   UNL     1      24.176  36.372   9.477  1.00  0.00    -0.202 N 
ATOM     64  N   UNL     1      23.585  37.409  10.041  1.00  0.00    -0.061 NA
BRANCH  63  65
ATOM     65  C   UNL     1      25.283  36.348   8.589  1.00  0.00     0.155 A 
ATOM     66  C   UNL     1      26.163  35.272   8.546  1.00  0.00     0.049 A 
ATOM     67  N   UNL     1      25.528  37.374   7.757  1.00  0.00    -0.237 NA
ATOM     68  C   UNL     1      27.245  35.270   7.676  1.00  0.00     0.011 A 
ATOM     69  C   UNL     1      26.578  37.393   6.900  1.00  0.00     0.119 A 
ATOM     70  C   UNL     1      27.471  36.337   6.835  1.00  0.00    -0.004 A 
BRANCH  70  71
ATOM     71  C   UNL     1      28.634  36.329   5.907  1.00  0.00     0.193 C 
BRANCH  71  72
ATOM     72  O   UNL     1      29.512  35.291   6.219  1.00  0.00    -0.392 OA
ATOM     73  H   UNL     1      30.374  35.379   5.763  1.00  0.00     0.211 HD
ENDBRANCH  71  72
ENDBRANCH  70  71
ENDBRANCH  63  65
ENDBRANCH  59  60
ENDBRANCH  58  59
ENDBRANCH  55  58
ENDBRANCH  53  54
ENDBRANCH  50  53
ENDBRANCH  47  50
ENDBRANCH   5  47
BRANCH   4  74
ATOM     74  N   UNL     1      25.748  29.673  18.837  1.00  0.00    -0.348 N 
ATOM     75  C   UNL     1      25.527  30.540  19.905  1.00  0.00     0.217 C 
ATOM     76  H   UNL     1      25.296  28.737  18.833  1.00  0.00     0.163 HD
ATOM     77  C   UNL     1      24.638  30.045  21.023  1.00  0.00     0.114 C 
ATOM     78  O   UNL     1      26.011  31.678  19.990  1.00  0.00    -0.275 OA
ENDBRANCH   4  74
TORSDOF 32
BEGIN_RES LYS A 131
REMARK  4 active torsions:
REMARK  status: ('A' for Active; 'I' for Inactive)
REMARK    1  A    between atoms: CA   and  CB  
REMARK    2  A    between atoms: CB   and  CG  
REMARK    3  A    between atoms: CG   and  CD  
REMARK    4  A    between atoms: CD   and  CE  
ROOT
ATOM      1  CA  LYS A 131      29.867  25.555  16.977  1.00 20.52     0.186 C 
ENDROOT
BRANCH   1   2
ATOM      2  CB  LYS A 131      28.345  25.722  17.026  1.00 20.94     0.034 C 
BRANCH   2   3
ATOM      3  CG  LYS A 131      27.602  24.399  16.927  1.00 22.96     0.005 C 
BRANCH   3   4
ATOM      4  CD  LYS A 131      26.240  24.465  17.561  1.00 24.33     0.041 C 
BRANCH   4   5
ATOM      5  CE  LYS A 131      26.030  25.847  18.172  1.00 26.91     0.338 C 
ATOM      6  NZ  LYS A 131      24.766  26.445  17.680  1.00 27.40     0.618 N 
ENDBRANCH   4   5
ENDBRANCH   3   4
ENDBRANCH   2   3
ENDBRANCH   1   2
END_RES LYS A 131
BEGIN_RES LYS A 135
REMARK  4 active torsions:
REMARK  status: ('A' for Active; 'I' for Inactive)
REMARK    5  A    between atoms: CA   and  CB  
REMARK    6  A    between atoms: CB   and  CG  
REMARK    7  A    between atoms: CG   and  CD  
REMARK    8  A    between atoms: CD   and  CE  
ROOT
ATOM      7  CA  LYS A 135      33.193  34.663   9.290  1.00 25.02     0.186 C 
ENDROOT
BRANCH   7   8
ATOM      8  CB  LYS A 135      32.060  35.360  10.034  1.00 26.63     0.034 C 
BRANCH   8   9
ATOM      9  CG  LYS A 135      30.763  35.387   9.268  1.00 29.45     0.005 C 
BRANCH   9  10
ATOM     10  CD  LYS A 135      30.050  36.716   9.465  1.00 32.00     0.041 C 
BRANCH  10  11
ATOM     11  CE  LYS A 135      30.751  37.816   8.692  1.00 34.25     0.338 C 
ATOM     12  NZ  LYS A 135      29.784  38.853   8.237  1.00 35.99     0.618 N 
ENDBRANCH  10  11
ENDBRANCH   9  10
ENDBRANCH   8   9
ENDBRANCH   7   8
END_RES LYS A 135
