REMARK VINA RESULT:    -5.170      2.835     10.073
REMARK INTER + INTRA:         -23.191
REMARK INTER:                 -12.781
REMARK INTRA:                 -10.410
REMARK UNBOUND:               -10.464
REMARK SMILES CC(=O)N[C@@H]1[C@@H](O)C[C@](OC[C@H]2O[C@@H](O[C@H]3[C@H](O)[C@@H](O)[C@H](OCCN=[N+]=[N-])O[C@@H]3CO)[C@H](O)[C@@H](O)[C@H]2O)(C(=O)O)O[C@H]1C(O)[C@H](O)CNC(=O)OCc1cn(-c2c3ccccc3nc3ccccc23)nn1
REMARK SMILES IDX 9 1 8 2 6 3 5 4 42 5 41 6 10 7 11 8 12 9 14 10 13 11 32 12
REMARK SMILES IDX 34 13 36 14 15 15 16 16 29 17 28 18 21 19 17 20 19 21 30 22
REMARK SMILES IDX 31 23 22 25 23 26 24 27 25 28 26 29 27 30 18 31 20 33 33 35
REMARK SMILES IDX 35 37 37 39 38 41 39 42 40 43 7 45 43 47 44 48 45 50 46 51
REMARK SMILES IDX 47 53 48 54 49 55 50 57 51 58 52 59 53 60 54 61 71 62 55 63
REMARK SMILES IDX 70 64 56 65 57 66 69 67 58 68 62 69 64 70 68 71 59 72 61 73
REMARK SMILES IDX 63 74 65 75 67 76 60 77 66 78 4 79 2 80 1 82 3 83
REMARK H PARENT 31 24 18 32 20 34 33 36 35 38 37 40 40 44 7 46 44 49 46 52
REMARK H PARENT 48 56 4 81
REMARK Flexibility Score: inf
ROOT
ATOM      1  C   UNL     1      22.165  33.570  12.397  1.00  0.00     0.272 C 
ATOM      2  C   UNL     1      21.811  34.443  13.699  1.00  0.00     0.113 C 
ATOM      3  C   UNL     1      22.613  33.803  14.773  1.00  0.00     0.145 C 
ATOM      4  C   UNL     1      24.094  33.692  14.480  1.00  0.00     0.142 C 
ATOM      5  C   UNL     1      24.430  33.624  13.049  1.00  0.00     0.178 C 
ATOM      6  O   UNL     1      23.439  33.873  12.161  1.00  0.00    -0.332 OA
ENDROOT
BRANCH   1   7
ATOM      7  O   UNL     1      21.351  34.231  11.473  1.00  0.00    -0.338 OA
BRANCH   7   8
ATOM      8  C   UNL     1      20.920  35.469  11.808  1.00  0.00     0.199 C 
BRANCH   8   9
ATOM      9  C   UNL     1      20.791  36.429  10.689  1.00  0.00     0.179 C 
ATOM     10  C   UNL     1      21.891  37.979   9.335  1.00  0.00     0.282 C 
ATOM     11  O   UNL     1      21.956  37.100  10.438  1.00  0.00    -0.341 OA
ATOM     12  C   UNL     1      20.537  38.180   8.797  1.00  0.00     0.202 C 
ATOM     13  C   UNL     1      19.844  36.871   8.496  1.00  0.00     0.179 C 
ATOM     14  C   UNL     1      20.260  35.770   9.414  1.00  0.00     0.177 C 
BRANCH  10  15
ATOM     15  O   UNL     1      22.818  37.594   8.376  1.00  0.00    -0.341 OA
BRANCH  15  16
ATOM     16  C   UNL     1      24.134  37.525   8.891  1.00  0.00     0.184 C 
ATOM     17  C   UNL     1      25.021  38.413   8.115  1.00  0.00     0.178 C 
ATOM     18  O   UNL     1      26.397  38.080   8.226  1.00  0.00    -0.341 OA
ATOM     19  C   UNL     1      26.545  36.822   7.657  1.00  0.00     0.281 C 
ATOM     20  C   UNL     1      24.516  36.047   8.715  1.00  0.00     0.180 C 
ATOM     21  C   UNL     1      26.006  35.848   8.717  1.00  0.00     0.202 C 
BRANCH  17  22
ATOM     22  C   UNL     1      24.900  39.861   8.567  1.00  0.00     0.191 C 
BRANCH  22  23
ATOM     23  O   UNL     1      25.955  40.285   9.333  1.00  0.00    -0.394 OA
ATOM     24  H   UNL     1      26.376  41.070   8.896  1.00  0.00     0.210 HD
ENDBRANCH  22  23
ENDBRANCH  17  22
BRANCH  19  25
ATOM     25  O   UNL     1      27.878  36.631   7.391  1.00  0.00    -0.350 OA
BRANCH  25  26
ATOM     26  C   UNL     1      28.510  37.722   6.803  1.00  0.00     0.169 C 
BRANCH  26  27
ATOM     27  C   UNL     1      28.616  37.578   5.300  1.00  0.00     0.119 C 
BRANCH  27  28
ATOM     28  N   UNL     1      27.774  38.615   4.713  1.00  0.00    -0.092 NA
ATOM     29  N   UNL     1      28.118  39.802   4.751  1.00  0.00     0.001 N 
ATOM     30  N   UNL     1      28.443  40.990   4.702  1.00  0.00    -0.003 NA
ENDBRANCH  27  28
ENDBRANCH  26  27
ENDBRANCH  25  26
ENDBRANCH  19  25
BRANCH  20  31
ATOM     31  O   UNL     1      23.868  35.278   9.668  1.00  0.00    -0.387 OA
ATOM     32  H   UNL     1      23.143  34.720   9.289  1.00  0.00     0.211 HD
ENDBRANCH  20  31
BRANCH  21  33
ATOM     33  O   UNL     1      26.296  34.543   8.388  1.00  0.00    -0.385 OA
ATOM     34  H   UNL     1      26.897  34.569   7.583  1.00  0.00     0.211 HD
ENDBRANCH  21  33
ENDBRANCH  15  16
ENDBRANCH  10  15
BRANCH  12  35
ATOM     35  O   UNL     1      19.776  39.001   9.643  1.00  0.00    -0.385 OA
ATOM     36  H   UNL     1      19.804  39.912   9.222  1.00  0.00     0.211 HD
ENDBRANCH  12  35
BRANCH  13  37
ATOM     37  O   UNL     1      20.111  36.551   7.151  1.00  0.00    -0.387 OA
ATOM     38  H   UNL     1      21.109  36.669   7.047  1.00  0.00     0.211 HD
ENDBRANCH  13  37
BRANCH  14  39
ATOM     39  O   UNL     1      21.171  34.899   8.853  1.00  0.00    -0.387 OA
ATOM     40  H   UNL     1      21.328  34.090   9.403  1.00  0.00     0.211 HD
ENDBRANCH  14  39
ENDBRANCH   8   9
ENDBRANCH   7   8
ENDBRANCH   1   7
BRANCH   1  41
ATOM     41  C   UNL     1      21.706  32.270  12.755  1.00  0.00     0.364 C 
ATOM     42  O   UNL     1      20.518  32.086  13.174  1.00  0.00    -0.246 OA
BRANCH  41  43
ATOM     43  O   UNL     1      22.453  31.087  12.695  1.00  0.00    -0.477 OA
ATOM     44  H   UNL     1      22.738  30.738  11.788  1.00  0.00     0.296 HD
ENDBRANCH  41  43
ENDBRANCH   1  41
BRANCH   3  45
ATOM     45  O   UNL     1      22.405  34.572  15.943  1.00  0.00    -0.391 OA
ATOM     46  H   UNL     1      22.411  35.535  15.700  1.00  0.00     0.211 HD
ENDBRANCH   3  45
BRANCH   5  47
ATOM     47  C   UNL     1      25.555  34.630  12.677  1.00  0.00     0.176 C 
BRANCH  47  48
ATOM     48  O   UNL     1      26.090  34.323  11.461  1.00  0.00    -0.388 OA
ATOM     49  H   UNL     1      26.852  34.920  11.182  1.00  0.00     0.211 HD
ENDBRANCH  47  48
BRANCH  47  50
ATOM     50  C   UNL     1      25.231  36.018  12.995  1.00  0.00     0.165 C 
BRANCH  50  51
ATOM     51  O   UNL     1      24.243  36.632  12.222  1.00  0.00    -0.388 OA
ATOM     52  H   UNL     1      24.371  36.457  11.256  1.00  0.00     0.211 HD
ENDBRANCH  50  51
BRANCH  50  53
ATOM     53  C   UNL     1      26.315  36.932  13.415  1.00  0.00     0.154 C 
BRANCH  53  54
ATOM     54  N   UNL     1      27.550  36.941  12.723  1.00  0.00    -0.319 N 
ATOM     55  C   UNL     1      27.938  37.885  11.749  1.00  0.00     0.407 C 
ATOM     56  H   UNL     1      28.267  36.158  12.959  1.00  0.00     0.167 HD
ATOM     57  O   UNL     1      27.231  38.823  11.351  1.00  0.00    -0.225 OA
BRANCH  55  58
ATOM     58  O   UNL     1      29.210  37.813  11.149  1.00  0.00    -0.443 OA
BRANCH  58  59
ATOM     59  C   UNL     1      30.361  38.422  11.710  1.00  0.00     0.294 C 
BRANCH  59  60
ATOM     60  C   UNL     1      31.109  37.415  12.517  1.00  0.00     0.121 A 
ATOM     61  C   UNL     1      30.855  36.990  13.803  1.00  0.00     0.144 A 
ATOM     62  N   UNL     1      32.199  36.734  12.134  1.00  0.00    -0.131 NA
ATOM     63  N   UNL     1      31.775  36.073  14.180  1.00  0.00    -0.219 N 
ATOM     64  N   UNL     1      32.582  35.939  13.140  1.00  0.00    -0.062 NA
BRANCH  63  65
ATOM     65  C   UNL     1      31.846  35.400  15.451  1.00  0.00     0.085 A 
ATOM     66  C   UNL     1      32.538  35.978  16.504  1.00  0.00     0.027 A 
ATOM     67  C   UNL     1      31.247  34.181  15.668  1.00  0.00     0.027 A 
ATOM     68  C   UNL     1      33.159  37.199  16.350  1.00  0.00     0.012 A 
ATOM     69  C   UNL     1      32.640  35.366  17.751  1.00  0.00     0.073 A 
ATOM     70  C   UNL     1      31.371  33.609  16.914  1.00  0.00     0.073 A 
ATOM     71  C   UNL     1      30.549  33.555  14.676  1.00  0.00     0.012 A 
ATOM     72  C   UNL     1      33.845  37.775  17.397  1.00  0.00     0.001 A 
ATOM     73  C   UNL     1      33.328  35.945  18.794  1.00  0.00     0.029 A 
ATOM     74  N   UNL     1      32.046  34.179  17.928  1.00  0.00    -0.248 NA
ATOM     75  C   UNL     1      30.784  32.387  17.170  1.00  0.00     0.029 A 
ATOM     76  C   UNL     1      29.968  32.326  14.961  1.00  0.00     0.001 A 
ATOM     77  C   UNL     1      33.947  37.162  18.643  1.00  0.00     0.002 A 
ATOM     78  C   UNL     1      30.067  31.719  16.194  1.00  0.00     0.002 A 
ENDBRANCH  63  65
ENDBRANCH  59  60
ENDBRANCH  58  59
ENDBRANCH  55  58
ENDBRANCH  53  54
ENDBRANCH  50  53
ENDBRANCH  47  50
ENDBRANCH   5  47
BRANCH   4  79
ATOM     79  N   UNL     1      24.648  32.614  15.267  1.00  0.00    -0.348 N 
ATOM     80  C   UNL     1      25.902  32.672  15.945  1.00  0.00     0.217 C 
ATOM     81  H   UNL     1      24.135  31.708  15.372  1.00  0.00     0.163 HD
ATOM     82  C   UNL     1      26.372  31.480  16.728  1.00  0.00     0.114 C 
ATOM     83  O   UNL     1      26.561  33.721  15.858  1.00  0.00    -0.275 OA
ENDBRANCH   4  79
TORSDOF 30
BEGIN_RES LYS A 131
REMARK  4 active torsions:
REMARK  status: ('A' for Active; 'I' for Inactive)
REMARK    1  A    between atoms: CA   and  CB  
REMARK    2  A    between atoms: CB   and  CG  
REMARK    3  A    between atoms: CG   and  CD  
REMARK    4  A    between atoms: CD   and  CE  
ROOT
ATOM      1  CA  LYS A 131      29.867  25.555  16.977  1.00 20.52     0.186 C 
ENDROOT
BRANCH   1   2
ATOM      2  CB  LYS A 131      28.345  25.722  17.026  1.00 20.94     0.034 C 
BRANCH   2   3
ATOM      3  CG  LYS A 131      27.599  24.423  16.760  1.00 22.96     0.005 C 
BRANCH   3   4
ATOM      4  CD  LYS A 131      26.886  23.919  17.983  1.00 24.33     0.041 C 
BRANCH   4   5
ATOM      5  CE  LYS A 131      25.546  23.314  17.578  1.00 26.91     0.338 C 
ATOM      6  NZ  LYS A 131      24.710  24.322  16.884  1.00 27.40     0.618 N 
ENDBRANCH   4   5
ENDBRANCH   3   4
ENDBRANCH   2   3
ENDBRANCH   1   2
END_RES LYS A 131
BEGIN_RES LYS A 135
REMARK  4 active torsions:
REMARK  status: ('A' for Active; 'I' for Inactive)
REMARK    5  A    between atoms: CA   and  CB  
REMARK    6  A    between atoms: CB   and  CG  
REMARK    7  A    between atoms: CG   and  CD  
REMARK    8  A    between atoms: CD   and  CE  
ROOT
ATOM      7  CA  LYS A 135      33.193  34.663   9.290  1.00 25.02     0.186 C 
ENDROOT
BRANCH   7   8
ATOM      8  CB  LYS A 135      32.060  35.360  10.034  1.00 26.63     0.034 C 
BRANCH   8   9
ATOM      9  CG  LYS A 135      30.872  35.677   9.162  1.00 29.45     0.005 C 
BRANCH   9  10
ATOM     10  CD  LYS A 135      30.402  34.435   8.423  1.00 32.00     0.041 C 
BRANCH  10  11
ATOM     11  CE  LYS A 135      29.256  33.775   9.165  1.00 34.25     0.338 C 
ATOM     12  NZ  LYS A 135      29.002  34.449  10.469  1.00 35.99     0.618 N 
ENDBRANCH  10  11
ENDBRANCH   9  10
ENDBRANCH   8   9
ENDBRANCH   7   8
END_RES LYS A 135
