REMARK VINA RESULT:    -4.714      3.855      8.745
REMARK INTER + INTRA:         -23.084
REMARK INTER:                 -10.659
REMARK INTRA:                 -12.425
REMARK UNBOUND:               -11.068
REMARK SMILES CC(=O)N[C@@H]1[C@@H](O)C[C@](OC[C@H]2O[C@@H](O[C@H]3[C@H](O)[C@@H](O)[C@H](OCCN=[N+]=[N-])O[C@@H]3CO)[C@H](O)[C@@H](O)[C@H]2O)(C(=O)O)O[C@H]1C(O)[C@H](O)CNC(=O)OCc1cn(Cc2cc(Br)cc(Br)c2O)nn1
REMARK SMILES IDX 9 1 8 2 6 3 5 4 42 5 41 6 10 7 11 8 12 9 14 10 13 11 32 12
REMARK SMILES IDX 34 13 36 14 15 15 16 16 29 17 28 18 21 19 17 20 19 21 30 22
REMARK SMILES IDX 31 23 22 25 23 26 24 27 25 28 26 29 27 30 18 31 20 33 33 35
REMARK SMILES IDX 35 37 37 39 38 41 39 42 40 43 7 45 43 47 44 48 45 50 46 51
REMARK SMILES IDX 47 53 48 54 49 55 50 57 51 58 52 59 53 60 54 61 67 62 55 63
REMARK SMILES IDX 66 64 56 65 57 66 58 67 64 68 59 69 62 70 60 71 61 72 63 73
REMARK SMILES IDX 65 74 4 76 2 77 1 79 3 80
REMARK H PARENT 31 24 18 32 20 34 33 36 35 38 37 40 40 44 7 46 44 49 46 52
REMARK H PARENT 48 56 65 75 4 78
REMARK Flexibility Score: inf
ROOT
ATOM      1  C   UNL     1      28.933  31.350  17.010  1.00  0.00     0.272 C 
ATOM      2  C   UNL     1      30.392  31.601  16.395  1.00  0.00     0.113 C 
ATOM      3  C   UNL     1      30.290  32.412  15.168  1.00  0.00     0.145 C 
ATOM      4  C   UNL     1      29.559  33.698  15.451  1.00  0.00     0.142 C 
ATOM      5  C   UNL     1      28.704  33.695  16.682  1.00  0.00     0.178 C 
ATOM      6  O   UNL     1      28.414  32.560  17.307  1.00  0.00    -0.332 OA
ENDROOT
BRANCH   1   7
ATOM      7  O   UNL     1      29.278  30.678  18.133  1.00  0.00    -0.338 OA
BRANCH   7   8
ATOM      8  C   UNL     1      28.543  29.790  18.774  1.00  0.00     0.199 C 
BRANCH   8   9
ATOM      9  C   UNL     1      28.312  29.873  20.243  1.00  0.00     0.179 C 
ATOM     10  C   UNL     1      26.600  28.300  20.393  1.00  0.00     0.282 C 
ATOM     11  O   UNL     1      27.049  29.562  20.613  1.00  0.00    -0.341 OA
ATOM     12  C   UNL     1      27.612  27.257  20.739  1.00  0.00     0.202 C 
ATOM     13  C   UNL     1      28.693  27.832  21.613  1.00  0.00     0.179 C 
ATOM     14  C   UNL     1      29.339  29.053  21.026  1.00  0.00     0.177 C 
BRANCH  10  15
ATOM     15  O   UNL     1      26.079  28.167  19.096  1.00  0.00    -0.341 OA
BRANCH  15  16
ATOM     16  C   UNL     1      24.728  28.411  19.001  1.00  0.00     0.184 C 
ATOM     17  C   UNL     1      23.974  27.191  18.525  1.00  0.00     0.178 C 
ATOM     18  O   UNL     1      22.679  27.431  18.167  1.00  0.00    -0.341 OA
ATOM     19  C   UNL     1      22.147  28.644  18.563  1.00  0.00     0.281 C 
ATOM     20  C   UNL     1      24.428  29.475  17.939  1.00  0.00     0.180 C 
ATOM     21  C   UNL     1      22.969  29.822  18.115  1.00  0.00     0.202 C 
BRANCH  17  22
ATOM     22  C   UNL     1      24.043  26.042  19.509  1.00  0.00     0.191 C 
BRANCH  22  23
ATOM     23  O   UNL     1      22.804  25.756  20.040  1.00  0.00    -0.394 OA
ATOM     24  H   UNL     1      22.314  25.191  19.398  1.00  0.00     0.210 HD
ENDBRANCH  22  23
ENDBRANCH  17  22
BRANCH  19  25
ATOM     25  O   UNL     1      21.947  28.620  19.934  1.00  0.00    -0.350 OA
BRANCH  25  26
ATOM     26  C   UNL     1      20.630  28.820  20.248  1.00  0.00     0.169 C 
BRANCH  26  27
ATOM     27  C   UNL     1      19.653  28.594  19.146  1.00  0.00     0.119 C 
BRANCH  27  28
ATOM     28  N   UNL     1      18.899  27.367  19.301  1.00  0.00    -0.092 NA
ATOM     29  N   UNL     1      19.425  26.293  19.515  1.00  0.00     0.001 N 
ATOM     30  N   UNL     1      19.778  25.213  19.981  1.00  0.00    -0.003 NA
ENDBRANCH  27  28
ENDBRANCH  26  27
ENDBRANCH  25  26
ENDBRANCH  19  25
BRANCH  20  31
ATOM     31  O   UNL     1      25.257  30.561  18.000  1.00  0.00    -0.387 OA
ATOM     32  H   UNL     1      24.992  31.159  17.230  1.00  0.00     0.211 HD
ENDBRANCH  20  31
BRANCH  21  33
ATOM     33  O   UNL     1      22.423  30.350  16.951  1.00  0.00    -0.385 OA
ATOM     34  H   UNL     1      21.574  29.922  16.745  1.00  0.00     0.211 HD
ENDBRANCH  21  33
ENDBRANCH  15  16
ENDBRANCH  10  15
BRANCH  12  35
ATOM     35  O   UNL     1      26.935  26.221  21.428  1.00  0.00    -0.385 OA
ATOM     36  H   UNL     1      26.010  26.549  21.530  1.00  0.00     0.211 HD
ENDBRANCH  12  35
BRANCH  13  37
ATOM     37  O   UNL     1      29.648  26.877  21.960  1.00  0.00    -0.387 OA
ATOM     38  H   UNL     1      29.351  26.032  21.538  1.00  0.00     0.211 HD
ENDBRANCH  13  37
BRANCH  14  39
ATOM     39  O   UNL     1      30.365  28.676  20.179  1.00  0.00    -0.387 OA
ATOM     40  H   UNL     1      31.229  29.072  20.473  1.00  0.00     0.211 HD
ENDBRANCH  14  39
ENDBRANCH   8   9
ENDBRANCH   7   8
ENDBRANCH   1   7
BRANCH   1  41
ATOM     41  C   UNL     1      28.207  30.623  15.975  1.00  0.00     0.364 C 
ATOM     42  O   UNL     1      28.712  29.577  15.419  1.00  0.00    -0.246 OA
BRANCH  41  43
ATOM     43  O   UNL     1      26.961  30.959  15.512  1.00  0.00    -0.477 OA
ATOM     44  H   UNL     1      26.292  31.423  16.107  1.00  0.00     0.296 HD
ENDBRANCH  41  43
ENDBRANCH   1  41
BRANCH   3  45
ATOM     45  O   UNL     1      31.586  32.654  14.678  1.00  0.00    -0.391 OA
ATOM     46  H   UNL     1      31.533  33.059  13.782  1.00  0.00     0.211 HD
ENDBRANCH   3  45
BRANCH   5  47
ATOM     47  C   UNL     1      29.204  34.802  17.590  1.00  0.00     0.176 C 
BRANCH  47  48
ATOM     48  O   UNL     1      30.057  35.660  16.851  1.00  0.00    -0.388 OA
ATOM     49  H   UNL     1      29.569  36.446  16.534  1.00  0.00     0.211 HD
ENDBRANCH  47  48
BRANCH  47  50
ATOM     50  C   UNL     1      28.171  35.553  18.323  1.00  0.00     0.165 C 
BRANCH  50  51
ATOM     51  O   UNL     1      27.543  34.793  19.285  1.00  0.00    -0.388 OA
ATOM     52  H   UNL     1      27.710  35.106  20.209  1.00  0.00     0.211 HD
ENDBRANCH  50  51
BRANCH  50  53
ATOM     53  C   UNL     1      27.173  36.328  17.533  1.00  0.00     0.154 C 
BRANCH  53  54
ATOM     54  N   UNL     1      25.895  35.731  17.351  1.00  0.00    -0.319 N 
ATOM     55  C   UNL     1      25.509  35.383  16.012  1.00  0.00     0.407 C 
ATOM     56  H   UNL     1      25.218  35.550  18.109  1.00  0.00     0.167 HD
ATOM     57  O   UNL     1      26.323  35.622  15.055  1.00  0.00    -0.225 OA
BRANCH  55  58
ATOM     58  O   UNL     1      24.294  34.806  15.778  1.00  0.00    -0.443 OA
BRANCH  58  59
ATOM     59  C   UNL     1      23.876  34.401  14.499  1.00  0.00     0.294 C 
BRANCH  59  60
ATOM     60  C   UNL     1      23.919  32.927  14.380  1.00  0.00     0.120 A 
ATOM     61  C   UNL     1      23.568  32.116  13.308  1.00  0.00     0.138 A 
ATOM     62  N   UNL     1      24.330  32.064  15.324  1.00  0.00    -0.132 NA
ATOM     63  N   UNL     1      23.766  30.826  13.619  1.00  0.00    -0.248 N 
ATOM     64  N   UNL     1      24.237  30.830  14.869  1.00  0.00    -0.067 NA
BRANCH  63  65
ATOM     65  C   UNL     1      23.539  29.619  12.816  1.00  0.00     0.185 C 
BRANCH  65  66
ATOM     66  C   UNL     1      22.155  29.164  13.081  1.00  0.00     0.018 A 
ATOM     67  C   UNL     1      21.143  29.583  12.239  1.00  0.00     0.025 A 
ATOM     68  C   UNL     1      21.837  28.330  14.147  1.00  0.00     0.134 A 
ATOM     69  C   UNL     1      19.825  29.195  12.427  1.00  0.00     0.019 A 
ATOM     70  C   UNL     1      20.529  27.925  14.361  1.00  0.00     0.061 A 
ATOM     71  Br  UNL     1      18.464  29.798  11.241  1.00  0.00    -0.051 Br
ATOM     72  C   UNL     1      19.537  28.370  13.487  1.00  0.00     0.035 A 
ATOM     73  Br  UNL     1      20.123  26.790  15.815  1.00  0.00    -0.047 Br
BRANCH  68  74
ATOM     74  O   UNL     1      22.892  27.948  14.951  1.00  0.00    -0.506 OA
ATOM     75  H   UNL     1      23.790  27.764  14.535  1.00  0.00     0.293 HD
ENDBRANCH  68  74
ENDBRANCH  65  66
ENDBRANCH  63  65
ENDBRANCH  59  60
ENDBRANCH  58  59
ENDBRANCH  55  58
ENDBRANCH  53  54
ENDBRANCH  50  53
ENDBRANCH  47  50
ENDBRANCH   5  47
BRANCH   4  76
ATOM     76  N   UNL     1      28.879  34.147  14.255  1.00  0.00    -0.348 N 
ATOM     77  C   UNL     1      29.481  35.153  13.456  1.00  0.00     0.217 C 
ATOM     78  H   UNL     1      27.954  33.766  13.947  1.00  0.00     0.163 HD
ATOM     79  C   UNL     1      28.778  35.615  12.219  1.00  0.00     0.114 C 
ATOM     80  O   UNL     1      30.608  35.647  13.796  1.00  0.00    -0.275 OA
ENDBRANCH   4  76
TORSDOF 32
BEGIN_RES LYS A 131
REMARK  4 active torsions:
REMARK  status: ('A' for Active; 'I' for Inactive)
REMARK    1  A    between atoms: CA   and  CB  
REMARK    2  A    between atoms: CB   and  CG  
REMARK    3  A    between atoms: CG   and  CD  
REMARK    4  A    between atoms: CD   and  CE  
ROOT
ATOM      1  CA  LYS A 131      29.867  25.555  16.977  1.00 20.52     0.186 C 
ENDROOT
BRANCH   1   2
ATOM      2  CB  LYS A 131      28.345  25.722  17.026  1.00 20.94     0.034 C 
BRANCH   2   3
ATOM      3  CG  LYS A 131      27.599  24.472  16.586  1.00 22.96     0.005 C 
BRANCH   3   4
ATOM      4  CD  LYS A 131      27.013  23.722  17.750  1.00 24.33     0.041 C 
BRANCH   4   5
ATOM      5  CE  LYS A 131      25.538  23.442  17.486  1.00 26.91     0.338 C 
ATOM      6  NZ  LYS A 131      24.949  22.663  18.600  1.00 27.40     0.618 N 
ENDBRANCH   4   5
ENDBRANCH   3   4
ENDBRANCH   2   3
ENDBRANCH   1   2
END_RES LYS A 131
BEGIN_RES LYS A 135
REMARK  4 active torsions:
REMARK  status: ('A' for Active; 'I' for Inactive)
REMARK    5  A    between atoms: CA   and  CB  
REMARK    6  A    between atoms: CB   and  CG  
REMARK    7  A    between atoms: CG   and  CD  
REMARK    8  A    between atoms: CD   and  CE  
ROOT
ATOM      7  CA  LYS A 135      33.193  34.663   9.290  1.00 25.02     0.186 C 
ENDROOT
BRANCH   7   8
ATOM      8  CB  LYS A 135      32.060  35.360  10.034  1.00 26.63     0.034 C 
BRANCH   8   9
ATOM      9  CG  LYS A 135      30.804  35.511   9.214  1.00 29.45     0.005 C 
BRANCH   9  10
ATOM     10  CD  LYS A 135      30.113  34.168   9.038  1.00 32.00     0.041 C 
BRANCH  10  11
ATOM     11  CE  LYS A 135      28.672  34.363   8.607  1.00 34.25     0.338 C 
ATOM     12  NZ  LYS A 135      27.740  33.620   9.499  1.00 35.99     0.618 N 
ENDBRANCH  10  11
ENDBRANCH   9  10
ENDBRANCH   8   9
ENDBRANCH   7   8
END_RES LYS A 135
