REMARK VINA RESULT:    -4.486      3.003      6.315
REMARK INTER + INTRA:         -21.359
REMARK INTER:                  -9.711
REMARK INTRA:                 -11.648
REMARK UNBOUND:                -9.660
REMARK SMILES CC(=O)N[C@@H]1[C@@H](O)C[C@](OC[C@H]2O[C@@H](O[C@H]3[C@H](O)[C@@H](O)[C@H](OCCN=[N+]=[N-])O[C@@H]3CO)[C@H](O)[C@@H](O)[C@H]2O)(C(=O)O)O[C@H]1C(O)[C@H](O)CNC(=O)OCc1cn(CCC(=O)O)nn1
REMARK SMILES IDX 43 1 42 2 9 3 8 4 41 5 6 6 5 7 10 8 11 9 12 10 14 11 13 12
REMARK SMILES IDX 32 13 34 14 36 15 15 16 16 17 29 18 28 19 21 20 17 21 19 22
REMARK SMILES IDX 30 23 31 24 22 26 23 27 24 28 25 29 26 30 27 31 18 32 20 34
REMARK SMILES IDX 33 36 35 38 37 40 38 42 39 43 40 44 7 46 4 48 2 49 1 51 3 52
REMARK SMILES IDX 44 53 45 55 46 56 47 58 48 59 49 60 50 62 51 63 52 64 53 65
REMARK SMILES IDX 54 66 62 67 55 68 61 69 56 70 57 71 58 72 59 73 60 74
REMARK H PARENT 31 25 18 33 20 35 33 37 35 39 37 41 40 45 7 47 4 50 44 54
REMARK H PARENT 46 57 48 61 60 75
REMARK Flexibility Score: inf
ROOT
ATOM      1  C   UNL     1      28.083  37.446   7.164  1.00  0.00     0.176 C 
ENDROOT
BRANCH   1   2
ATOM      2  C   UNL     1      26.938  37.467   8.147  1.00  0.00     0.178 C 
ATOM      3  C   UNL     1      25.244  36.095   9.015  1.00  0.00     0.272 C 
ATOM      4  C   UNL     1      25.185  37.350   9.868  1.00  0.00     0.113 C 
ATOM      5  O   UNL     1      25.953  36.563   7.845  1.00  0.00    -0.332 OA
ATOM      6  C   UNL     1      24.986  38.607   8.996  1.00  0.00     0.145 C 
ATOM      7  C   UNL     1      26.263  38.832   8.197  1.00  0.00     0.142 C 
BRANCH   3   8
ATOM      8  O   UNL     1      24.008  35.708   8.648  1.00  0.00    -0.338 OA
BRANCH   8   9
ATOM      9  C   UNL     1      23.002  35.336   9.390  1.00  0.00     0.199 C 
BRANCH   9  10
ATOM     10  C   UNL     1      21.673  35.953   9.465  1.00  0.00     0.179 C 
ATOM     11  C   UNL     1      20.346  37.825   9.573  1.00  0.00     0.282 C 
ATOM     12  O   UNL     1      21.608  37.308   9.641  1.00  0.00    -0.341 OA
ATOM     13  C   UNL     1      19.239  36.832   9.355  1.00  0.00     0.202 C 
ATOM     14  C   UNL     1      19.568  35.848   8.249  1.00  0.00     0.179 C 
ATOM     15  C   UNL     1      21.061  35.750   8.030  1.00  0.00     0.177 C 
BRANCH  11  16
ATOM     16  O   UNL     1      20.196  38.805   8.593  1.00  0.00    -0.341 OA
BRANCH  16  17
ATOM     17  C   UNL     1      19.035  39.561   8.738  1.00  0.00     0.184 C 
ATOM     18  C   UNL     1      18.777  40.288   7.465  1.00  0.00     0.178 C 
ATOM     19  O   UNL     1      18.901  41.684   7.572  1.00  0.00    -0.341 OA
ATOM     20  C   UNL     1      20.170  41.888   8.151  1.00  0.00     0.281 C 
ATOM     21  C   UNL     1      19.225  40.447   9.933  1.00  0.00     0.180 C 
ATOM     22  C   UNL     1      19.970  41.711   9.639  1.00  0.00     0.202 C 
BRANCH  18  23
ATOM     23  C   UNL     1      17.388  39.984   6.925  1.00  0.00     0.191 C 
BRANCH  23  24
ATOM     24  O   UNL     1      17.222  38.611   6.765  1.00  0.00    -0.394 OA
ATOM     25  H   UNL     1      17.809  38.150   7.410  1.00  0.00     0.210 HD
ENDBRANCH  23  24
ENDBRANCH  18  23
BRANCH  20  26
ATOM     26  O   UNL     1      20.687  43.122   7.835  1.00  0.00    -0.350 OA
BRANCH  26  27
ATOM     27  C   UNL     1      21.628  42.980   6.820  1.00  0.00     0.169 C 
BRANCH  27  28
ATOM     28  C   UNL     1      22.226  41.581   6.883  1.00  0.00     0.119 C 
BRANCH  28  29
ATOM     29  N   UNL     1      23.599  41.743   7.313  1.00  0.00    -0.092 NA
ATOM     30  N   UNL     1      23.815  42.030   8.490  1.00  0.00     0.001 N 
ATOM     31  N   UNL     1      24.314  42.220   9.620  1.00  0.00    -0.003 NA
ENDBRANCH  28  29
ENDBRANCH  27  28
ENDBRANCH  26  27
ENDBRANCH  20  26
BRANCH  21  32
ATOM     32  O   UNL     1      17.960  40.780  10.408  1.00  0.00    -0.387 OA
ATOM     33  H   UNL     1      17.308  40.184   9.992  1.00  0.00     0.211 HD
ENDBRANCH  21  32
BRANCH  22  34
ATOM     34  O   UNL     1      21.190  41.743  10.317  1.00  0.00    -0.385 OA
ATOM     35  H   UNL     1      21.037  41.838  11.297  1.00  0.00     0.211 HD
ENDBRANCH  22  34
ENDBRANCH  16  17
ENDBRANCH  11  16
BRANCH  13  36
ATOM     36  O   UNL     1      18.839  36.181  10.531  1.00  0.00    -0.385 OA
ATOM     37  H   UNL     1      18.651  36.837  11.221  1.00  0.00     0.211 HD
ENDBRANCH  13  36
BRANCH  14  38
ATOM     38  O   UNL     1      18.872  36.159   7.103  1.00  0.00    -0.387 OA
ATOM     39  H   UNL     1      18.249  36.897   7.257  1.00  0.00     0.211 HD
ENDBRANCH  14  38
BRANCH  15  40
ATOM     40  O   UNL     1      21.557  36.784   7.274  1.00  0.00    -0.387 OA
ATOM     41  H   UNL     1      20.933  37.149   6.605  1.00  0.00     0.211 HD
ENDBRANCH  15  40
ENDBRANCH   9  10
ENDBRANCH   8   9
ENDBRANCH   3   8
BRANCH   3  42
ATOM     42  C   UNL     1      26.074  35.028   9.579  1.00  0.00     0.364 C 
ATOM     43  O   UNL     1      26.147  34.877  10.824  1.00  0.00    -0.246 OA
BRANCH  42  44
ATOM     44  O   UNL     1      26.787  34.174   8.777  1.00  0.00    -0.477 OA
ATOM     45  H   UNL     1      27.256  34.421   7.930  1.00  0.00     0.296 HD
ENDBRANCH  42  44
ENDBRANCH   3  42
BRANCH   6  46
ATOM     46  O   UNL     1      23.964  38.330   8.116  1.00  0.00    -0.391 OA
ATOM     47  H   UNL     1      23.417  39.163   8.006  1.00  0.00     0.211 HD
ENDBRANCH   6  46
BRANCH   7  48
ATOM     48  N   UNL     1      27.082  39.820   8.818  1.00  0.00    -0.348 N 
ATOM     49  C   UNL     1      27.384  41.019   8.120  1.00  0.00     0.217 C 
ATOM     50  H   UNL     1      27.479  39.705   9.776  1.00  0.00     0.163 HD
ATOM     51  C   UNL     1      28.228  42.096   8.690  1.00  0.00     0.114 C 
ATOM     52  O   UNL     1      26.934  41.221   6.954  1.00  0.00    -0.275 OA
ENDBRANCH   7  48
ENDBRANCH   1   2
BRANCH   1  53
ATOM     53  O   UNL     1      28.409  36.114   6.908  1.00  0.00    -0.388 OA
ATOM     54  H   UNL     1      27.651  35.625   6.530  1.00  0.00     0.211 HD
ENDBRANCH   1  53
BRANCH   1  55
ATOM     55  C   UNL     1      27.803  38.128   5.862  1.00  0.00     0.165 C 
BRANCH  55  56
ATOM     56  O   UNL     1      27.401  37.165   4.931  1.00  0.00    -0.388 OA
ATOM     57  H   UNL     1      26.976  36.418   5.416  1.00  0.00     0.211 HD
ENDBRANCH  55  56
BRANCH  55  58
ATOM     58  C   UNL     1      29.137  38.701   5.371  1.00  0.00     0.154 C 
BRANCH  58  59
ATOM     59  N   UNL     1      30.135  38.632   6.402  1.00  0.00    -0.319 N 
ATOM     60  C   UNL     1      30.885  39.744   6.874  1.00  0.00     0.407 C 
ATOM     61  H   UNL     1      30.357  37.705   6.875  1.00  0.00     0.167 HD
ATOM     62  O   UNL     1      30.660  40.864   6.350  1.00  0.00    -0.225 OA
BRANCH  60  63
ATOM     63  O   UNL     1      31.838  39.628   7.870  1.00  0.00    -0.443 OA
BRANCH  63  64
ATOM     64  C   UNL     1      31.671  40.346   9.067  1.00  0.00     0.294 C 
BRANCH  64  65
ATOM     65  C   UNL     1      30.645  39.717   9.919  1.00  0.00     0.120 A 
ATOM     66  C   UNL     1      30.174  40.296  11.090  1.00  0.00     0.138 A 
ATOM     67  N   UNL     1      29.994  38.543   9.736  1.00  0.00    -0.132 NA
ATOM     68  N   UNL     1      29.243  39.439  11.573  1.00  0.00    -0.252 N 
ATOM     69  N   UNL     1      29.160  38.407  10.746  1.00  0.00    -0.067 NA
BRANCH  68  70
ATOM     70  C   UNL     1      28.462  39.613  12.779  1.00  0.00     0.158 C 
BRANCH  70  71
ATOM     71  C   UNL     1      27.097  38.968  12.703  1.00  0.00     0.146 C 
BRANCH  71  72
ATOM     72  C   UNL     1      26.097  40.029  12.518  1.00  0.00     0.305 C 
ATOM     73  O   UNL     1      25.173  40.161  13.349  1.00  0.00    -0.252 OA
BRANCH  72  74
ATOM     74  O   UNL     1      26.144  40.901  11.431  1.00  0.00    -0.481 OA
ATOM     75  H   UNL     1      25.670  41.798  11.415  1.00  0.00     0.296 HD
ENDBRANCH  72  74
ENDBRANCH  71  72
ENDBRANCH  70  71
ENDBRANCH  68  70
ENDBRANCH  64  65
ENDBRANCH  63  64
ENDBRANCH  60  63
ENDBRANCH  58  59
ENDBRANCH  55  58
ENDBRANCH   1  55
TORSDOF 33
BEGIN_RES LYS A 131
REMARK  4 active torsions:
REMARK  status: ('A' for Active; 'I' for Inactive)
REMARK    1  A    between atoms: CA   and  CB  
REMARK    2  A    between atoms: CB   and  CG  
REMARK    3  A    between atoms: CG   and  CD  
REMARK    4  A    between atoms: CD   and  CE  
ROOT
ATOM      1  CA  LYS A 131      29.867  25.555  16.977  1.00 20.52     0.186 C 
ENDROOT
BRANCH   1   2
ATOM      2  CB  LYS A 131      28.345  25.722  17.026  1.00 20.94     0.034 C 
BRANCH   2   3
ATOM      3  CG  LYS A 131      27.602  24.399  16.920  1.00 22.96     0.005 C 
BRANCH   3   4
ATOM      4  CD  LYS A 131      26.526  24.269  17.962  1.00 24.33     0.041 C 
BRANCH   4   5
ATOM      5  CE  LYS A 131      25.277  23.662  17.331  1.00 26.91     0.338 C 
ATOM      6  NZ  LYS A 131      24.336  24.727  16.915  1.00 27.40     0.618 N 
ENDBRANCH   4   5
ENDBRANCH   3   4
ENDBRANCH   2   3
ENDBRANCH   1   2
END_RES LYS A 131
BEGIN_RES LYS A 135
REMARK  4 active torsions:
REMARK  status: ('A' for Active; 'I' for Inactive)
REMARK    5  A    between atoms: CA   and  CB  
REMARK    6  A    between atoms: CB   and  CG  
REMARK    7  A    between atoms: CG   and  CD  
REMARK    8  A    between atoms: CD   and  CE  
ROOT
ATOM      7  CA  LYS A 135      33.193  34.663   9.290  1.00 25.02     0.186 C 
ENDROOT
BRANCH   7   8
ATOM      8  CB  LYS A 135      32.060  35.360  10.034  1.00 26.63     0.034 C 
BRANCH   8   9
ATOM      9  CG  LYS A 135      30.689  34.978   9.538  1.00 29.45     0.005 C 
BRANCH   9  10
ATOM     10  CD  LYS A 135      29.716  34.847  10.699  1.00 32.00     0.041 C 
BRANCH  10  11
ATOM     11  CE  LYS A 135      30.407  35.163  12.012  1.00 34.25     0.338 C 
ATOM     12  NZ  LYS A 135      29.854  34.338  13.121  1.00 35.99     0.618 N 
ENDBRANCH  10  11
ENDBRANCH   9  10
ENDBRANCH   8   9
ENDBRANCH   7   8
END_RES LYS A 135
