REMARK VINA RESULT:    -4.740      2.201      3.006
REMARK INTER + INTRA:         -25.324
REMARK INTER:                 -13.170
REMARK INTRA:                 -12.155
REMARK UNBOUND:               -12.132
REMARK SMILES CCOCCc1c(-c2ccccc2)nc(N)nc1-n1cc(COC(=O)NC[C@@H](O)C(O)[C@@H]2O[C@@](OC[C@H]3O[C@@H](O[C@H]4[C@H](O)[C@@H](O)[C@H](OCCN=[N+]=[N-])O[C@@H]4CO)[C@H](O)[C@@H](O)[C@H]3O)(C(=O)O)C[C@H](O)[C@H]2NC(C)=O)nn1
REMARK SMILES IDX 30 1 32 2 34 3 66 4 33 5 67 6 69 7 35 8 36 9 37 10 39 11
REMARK SMILES IDX 38 12 57 13 59 14 61 15 40 16 41 17 54 18 53 19 46 20 42 21
REMARK SMILES IDX 44 22 55 23 56 24 47 26 48 27 49 28 50 29 51 30 52 31 43 32
REMARK SMILES IDX 45 34 58 36 60 38 62 40 63 42 64 43 65 44 68 46 70 48 71 49
REMARK SMILES IDX 72 51 73 52 31 53 28 55 29 56 27 58 26 59 24 60 25 62 23 63
REMARK SMILES IDX 22 64 21 65 20 66 74 67 19 68 75 69 18 70 17 71 6 72 15 73
REMARK SMILES IDX 7 74 14 75 5 76 4 77 3 78 2 79 1 80 16 81 8 84 9 85 13 86
REMARK SMILES IDX 10 87 12 88 11 89
REMARK H PARENT 56 25 43 33 45 35 58 37 60 39 62 41 65 45 68 47 70 50 31 54
REMARK H PARENT 29 57 26 61 16 82 16 83
REMARK Flexibility Score: inf
ROOT
ATOM      1  C   UNL     1      31.990  28.876  21.061  1.00  0.00     0.176 C 
ENDROOT
BRANCH   1   2
ATOM      2  C   UNL     1      31.458  30.030  21.855  1.00  0.00     0.178 C 
ATOM      3  C   UNL     1      30.008  31.823  21.456  1.00  0.00     0.272 C 
ATOM      4  C   UNL     1      30.313  32.096  22.931  1.00  0.00     0.113 C 
ATOM      5  O   UNL     1      30.440  30.615  21.043  1.00  0.00    -0.332 OA
ATOM      6  C   UNL     1      31.777  32.005  23.238  1.00  0.00     0.145 C 
ATOM      7  C   UNL     1      32.415  31.125  22.179  1.00  0.00     0.142 C 
BRANCH   3   8
ATOM      8  O   UNL     1      30.491  32.896  20.740  1.00  0.00    -0.338 OA
BRANCH   8   9
ATOM      9  C   UNL     1      31.043  32.606  19.521  1.00  0.00     0.199 C 
BRANCH   9  10
ATOM     10  C   UNL     1      30.160  33.052  18.365  1.00  0.00     0.179 C 
ATOM     11  C   UNL     1      30.589  33.985  16.270  1.00  0.00     0.282 C 
ATOM     12  O   UNL     1      30.870  33.935  17.605  1.00  0.00    -0.341 OA
ATOM     13  C   UNL     1      30.833  32.571  15.726  1.00  0.00     0.202 C 
ATOM     14  C   UNL     1      29.641  31.766  16.242  1.00  0.00     0.179 C 
ATOM     15  C   UNL     1      29.403  31.978  17.696  1.00  0.00     0.177 C 
BRANCH  11  16
ATOM     16  O   UNL     1      31.377  34.928  15.653  1.00  0.00    -0.341 OA
BRANCH  16  17
ATOM     17  C   UNL     1      30.734  36.148  15.519  1.00  0.00     0.184 C 
ATOM     18  C   UNL     1      29.369  35.983  14.942  1.00  0.00     0.178 C 
ATOM     19  O   UNL     1      29.175  36.451  13.681  1.00  0.00    -0.341 OA
ATOM     20  C   UNL     1      29.686  37.664  13.342  1.00  0.00     0.281 C 
ATOM     21  C   UNL     1      31.585  37.143  14.789  1.00  0.00     0.180 C 
ATOM     22  C   UNL     1      30.714  38.248  14.253  1.00  0.00     0.202 C 
BRANCH  18  23
ATOM     23  C   UNL     1      28.285  36.456  15.912  1.00  0.00     0.191 C 
BRANCH  23  24
ATOM     24  O   UNL     1      27.143  36.853  15.239  1.00  0.00    -0.394 OA
ATOM     25  H   UNL     1      27.227  37.825  15.063  1.00  0.00     0.210 HD
ENDBRANCH  23  24
ENDBRANCH  18  23
BRANCH  20  26
ATOM     26  O   UNL     1      28.623  38.554  13.227  1.00  0.00    -0.350 OA
BRANCH  26  27
ATOM     27  C   UNL     1      28.384  38.987  11.946  1.00  0.00     0.169 C 
BRANCH  27  28
ATOM     28  C   UNL     1      27.518  38.058  11.132  1.00  0.00     0.119 C 
BRANCH  28  29
ATOM     29  N   UNL     1      26.128  38.498  11.237  1.00  0.00    -0.092 NA
ATOM     30  N   UNL     1      25.466  38.307  12.266  1.00  0.00     0.001 N 
ATOM     31  N   UNL     1      24.907  37.934  13.295  1.00  0.00    -0.003 NA
ENDBRANCH  28  29
ENDBRANCH  27  28
ENDBRANCH  26  27
ENDBRANCH  20  26
BRANCH  21  32
ATOM     32  O   UNL     1      32.557  37.719  15.611  1.00  0.00    -0.387 OA
ATOM     33  H   UNL     1      33.092  38.403  15.126  1.00  0.00     0.211 HD
ENDBRANCH  21  32
BRANCH  22  34
ATOM     34  O   UNL     1      31.528  39.102  13.510  1.00  0.00    -0.385 OA
ATOM     35  H   UNL     1      32.371  39.323  13.981  1.00  0.00     0.211 HD
ENDBRANCH  22  34
ENDBRANCH  16  17
ENDBRANCH  11  16
BRANCH  13  36
ATOM     36  O   UNL     1      30.868  32.528  14.354  1.00  0.00    -0.385 OA
ATOM     37  H   UNL     1      31.615  33.075  13.985  1.00  0.00     0.211 HD
ENDBRANCH  13  36
BRANCH  14  38
ATOM     38  O   UNL     1      29.659  30.452  15.836  1.00  0.00    -0.387 OA
ATOM     39  H   UNL     1      30.144  30.337  14.963  1.00  0.00     0.211 HD
ENDBRANCH  14  38
BRANCH  15  40
ATOM     40  O   UNL     1      29.675  30.757  18.350  1.00  0.00    -0.387 OA
ATOM     41  H   UNL     1      30.646  30.705  18.548  1.00  0.00     0.211 HD
ENDBRANCH  15  40
ENDBRANCH   9  10
ENDBRANCH   8   9
ENDBRANCH   3   8
BRANCH   3  42
ATOM     42  C   UNL     1      28.511  31.837  21.409  1.00  0.00     0.364 C 
ATOM     43  O   UNL     1      27.959  32.707  22.170  1.00  0.00    -0.246 OA
BRANCH  42  44
ATOM     44  O   UNL     1      27.732  31.021  20.640  1.00  0.00    -0.477 OA
ATOM     45  H   UNL     1      27.497  31.302  19.692  1.00  0.00     0.296 HD
ENDBRANCH  42  44
ENDBRANCH   3  42
BRANCH   6  46
ATOM     46  O   UNL     1      32.285  33.313  23.199  1.00  0.00    -0.391 OA
ATOM     47  H   UNL     1      31.825  33.902  23.829  1.00  0.00     0.211 HD
ENDBRANCH   6  46
BRANCH   7  48
ATOM     48  N   UNL     1      33.743  30.739  22.546  1.00  0.00    -0.348 N 
ATOM     49  C   UNL     1      34.903  31.482  22.206  1.00  0.00     0.217 C 
ATOM     50  H   UNL     1      33.839  29.868  23.110  1.00  0.00     0.163 HD
ATOM     51  C   UNL     1      36.226  30.990  22.639  1.00  0.00     0.114 C 
ATOM     52  O   UNL     1      34.798  32.539  21.549  1.00  0.00    -0.275 OA
ENDBRANCH   7  48
ENDBRANCH   1   2
BRANCH   1  53
ATOM     53  O   UNL     1      31.795  29.246  19.686  1.00  0.00    -0.388 OA
ATOM     54  H   UNL     1      32.005  30.202  19.641  1.00  0.00     0.211 HD
ENDBRANCH   1  53
BRANCH   1  55
ATOM     55  C   UNL     1      31.372  27.547  21.232  1.00  0.00     0.165 C 
BRANCH  55  56
ATOM     56  O   UNL     1      31.897  26.756  20.170  1.00  0.00    -0.388 OA
ATOM     57  H   UNL     1      31.300  25.992  20.039  1.00  0.00     0.211 HD
ENDBRANCH  55  56
BRANCH  55  58
ATOM     58  C   UNL     1      29.905  27.456  21.197  1.00  0.00     0.154 C 
BRANCH  58  59
ATOM     59  N   UNL     1      29.252  28.226  20.211  1.00  0.00    -0.319 N 
ATOM     60  C   UNL     1      28.062  27.883  19.543  1.00  0.00     0.407 C 
ATOM     61  H   UNL     1      29.654  29.185  19.888  1.00  0.00     0.167 HD
ATOM     62  O   UNL     1      27.450  26.816  19.770  1.00  0.00    -0.225 OA
BRANCH  60  63
ATOM     63  O   UNL     1      27.479  28.712  18.579  1.00  0.00    -0.443 OA
BRANCH  63  64
ATOM     64  C   UNL     1      26.921  28.200  17.388  1.00  0.00     0.294 C 
BRANCH  64  65
ATOM     65  C   UNL     1      25.903  29.116  16.822  1.00  0.00     0.121 A 
ATOM     66  C   UNL     1      26.096  30.402  16.389  1.00  0.00     0.146 A 
ATOM     67  N   UNL     1      24.584  28.878  16.643  1.00  0.00    -0.131 NA
ATOM     68  N   UNL     1      24.888  30.926  15.956  1.00  0.00    -0.202 N 
ATOM     69  N   UNL     1      24.032  29.965  16.134  1.00  0.00    -0.060 NA
BRANCH  68  70
ATOM     70  C   UNL     1      24.850  32.250  15.486  1.00  0.00     0.164 A 
ATOM     71  N   UNL     1      24.852  33.259  16.392  1.00  0.00    -0.193 NA
ATOM     72  C   UNL     1      24.890  32.611  14.131  1.00  0.00     0.026 A 
ATOM     73  C   UNL     1      24.893  34.550  16.059  1.00  0.00     0.222 A 
ATOM     74  C   UNL     1      24.936  33.923  13.768  1.00  0.00     0.081 A 
ATOM     75  N   UNL     1      24.934  34.871  14.764  1.00  0.00    -0.213 NA
BRANCH  72  76
ATOM     76  C   UNL     1      24.762  31.506  13.174  1.00  0.00     0.070 C 
BRANCH  76  77
ATOM     77  C   UNL     1      23.347  31.000  12.993  1.00  0.00     0.165 C 
BRANCH  77  78
ATOM     78  O   UNL     1      22.381  31.931  12.756  1.00  0.00    -0.381 OA
BRANCH  78  79
ATOM     79  C   UNL     1      21.326  31.996  13.614  1.00  0.00     0.156 C 
ATOM     80  C   UNL     1      21.298  33.339  14.363  1.00  0.00     0.035 C 
ENDBRANCH  78  79
ENDBRANCH  77  78
ENDBRANCH  76  77
ENDBRANCH  72  76
BRANCH  73  81
ATOM     81  N   UNL     1      24.890  35.579  17.054  1.00  0.00    -0.368 N 
ATOM     82  H   UNL     1      24.355  35.452  17.938  1.00  0.00     0.159 HD
ATOM     83  H   UNL     1      25.406  36.467  16.943  1.00  0.00     0.159 HD
ENDBRANCH  73  81
BRANCH  74  84
ATOM     84  C   UNL     1      25.004  34.377  12.397  1.00  0.00     0.001 A 
ATOM     85  C   UNL     1      23.828  34.826  11.799  1.00  0.00     0.010 A 
ATOM     86  C   UNL     1      26.186  34.405  11.679  1.00  0.00     0.010 A 
ATOM     87  C   UNL     1      23.818  35.303  10.495  1.00  0.00     0.001 A 
ATOM     88  C   UNL     1      26.154  34.880  10.390  1.00  0.00     0.001 A 
ATOM     89  C   UNL     1      25.001  35.325   9.793  1.00  0.00     0.000 A 
ENDBRANCH  74  84
ENDBRANCH  68  70
ENDBRANCH  64  65
ENDBRANCH  63  64
ENDBRANCH  60  63
ENDBRANCH  58  59
ENDBRANCH  55  58
ENDBRANCH   1  55
TORSDOF 36
BEGIN_RES LYS A 131
REMARK  4 active torsions:
REMARK  status: ('A' for Active; 'I' for Inactive)
REMARK    1  A    between atoms: CA   and  CB  
REMARK    2  A    between atoms: CB   and  CG  
REMARK    3  A    between atoms: CG   and  CD  
REMARK    4  A    between atoms: CD   and  CE  
ROOT
ATOM      1  CA  LYS A 131      29.867  25.555  16.977  1.00 20.52     0.186 C 
ENDROOT
BRANCH   1   2
ATOM      2  CB  LYS A 131      28.345  25.722  17.026  1.00 20.94     0.034 C 
BRANCH   2   3
ATOM      3  CG  LYS A 131      27.602  24.398  16.933  1.00 22.96     0.005 C 
BRANCH   3   4
ATOM      4  CD  LYS A 131      26.164  24.525  17.354  1.00 24.33     0.041 C 
BRANCH   4   5
ATOM      5  CE  LYS A 131      25.942  23.745  18.646  1.00 26.91     0.338 C 
ATOM      6  NZ  LYS A 131      24.922  24.414  19.487  1.00 27.40     0.618 N 
ENDBRANCH   4   5
ENDBRANCH   3   4
ENDBRANCH   2   3
ENDBRANCH   1   2
END_RES LYS A 131
BEGIN_RES LYS A 135
REMARK  4 active torsions:
REMARK  status: ('A' for Active; 'I' for Inactive)
REMARK    5  A    between atoms: CA   and  CB  
REMARK    6  A    between atoms: CB   and  CG  
REMARK    7  A    between atoms: CG   and  CD  
REMARK    8  A    between atoms: CD   and  CE  
ROOT
ATOM      7  CA  LYS A 135      33.193  34.663   9.290  1.00 25.02     0.186 C 
ENDROOT
BRANCH   7   8
ATOM      8  CB  LYS A 135      32.060  35.360  10.034  1.00 26.63     0.034 C 
BRANCH   8   9
ATOM      9  CG  LYS A 135      30.711  34.727   9.807  1.00 29.45     0.005 C 
BRANCH   9  10
ATOM     10  CD  LYS A 135      30.477  34.479   8.325  1.00 32.00     0.041 C 
BRANCH  10  11
ATOM     11  CE  LYS A 135      29.064  34.868   7.937  1.00 34.25     0.338 C 
ATOM     12  NZ  LYS A 135      28.806  36.306   8.224  1.00 35.99     0.618 N 
ENDBRANCH  10  11
ENDBRANCH   9  10
ENDBRANCH   8   9
ENDBRANCH   7   8
END_RES LYS A 135
