REMARK VINA RESULT:    -6.669      2.889      6.926
REMARK INTER + INTRA:         -19.777
REMARK INTER:                 -11.031
REMARK INTRA:                  -8.746
REMARK UNBOUND:                -1.022
REMARK SMILES CC(=O)N[C@@H]1[C@@H](O)C[C@](OC[C@H]2O[C@@H](O[C@H]3[C@H](O)[C@@H](O)[C@H](OCCN=[N+]=[N-])O[C@@H]3CO)[C@H](O)[C@@H](O)[C@H]2O)(C(=O)O)O[C@H]1C(O)[C@H](O)CNC(=O)OCc1cn(C2CC(O)C=C[C@@H](O)C2)nn1
REMARK SMILES IDX 43 1 42 2 9 3 8 4 41 5 6 6 5 7 10 8 11 9 12 10 14 11 13 12
REMARK SMILES IDX 32 13 34 14 36 15 15 16 16 17 29 18 28 19 21 20 17 21 19 22
REMARK SMILES IDX 30 23 31 24 22 26 23 27 24 28 25 29 26 30 27 31 18 32 20 34
REMARK SMILES IDX 33 36 35 38 37 40 38 42 39 43 40 44 7 46 4 48 2 49 1 51 3 52
REMARK SMILES IDX 44 53 45 55 46 56 47 58 48 59 49 60 50 62 51 63 52 64 53 65
REMARK SMILES IDX 54 66 66 67 55 68 65 69 56 70 57 71 58 72 59 74 64 76 62 77
REMARK SMILES IDX 61 78 60 79 63 81
REMARK H PARENT 31 25 18 33 20 35 33 37 35 39 37 41 40 45 7 47 4 50 44 54
REMARK H PARENT 46 57 48 61 59 75 63 82
REMARK Flexibility Score: 90.00
ROOT
ATOM      1  C   UNL     1      22.689  36.187  11.895  1.00  0.00     0.176 C 
ENDROOT
BRANCH   1   2
ATOM      2  C   UNL     1      23.318  37.208  10.963  1.00  0.00     0.178 C 
ATOM      3  C   UNL     1      24.557  37.153   8.964  1.00  0.00     0.272 C 
ATOM      4  C   UNL     1      25.040  38.541   9.175  1.00  0.00     0.113 C 
ATOM      5  O   UNL     1      24.057  36.461  10.001  1.00  0.00    -0.332 OA
ATOM      6  C   UNL     1      24.509  39.210  10.390  1.00  0.00     0.145 C 
ATOM      7  C   UNL     1      24.278  38.164  11.525  1.00  0.00     0.142 C 
BRANCH   3   8
ATOM      8  O   UNL     1      25.576  36.435   8.304  1.00  0.00    -0.338 OA
BRANCH   8   9
ATOM      9  C   UNL     1      25.883  35.229   8.863  1.00  0.00     0.199 C 
BRANCH   9  10
ATOM     10  C   UNL     1      27.371  35.147   9.203  1.00  0.00     0.179 C 
ATOM     11  C   UNL     1      28.965  36.772   9.592  1.00  0.00     0.282 C 
ATOM     12  O   UNL     1      27.967  36.281   8.750  1.00  0.00    -0.341 OA
ATOM     13  C   UNL     1      28.227  37.188  10.851  1.00  0.00     0.202 C 
ATOM     14  C   UNL     1      27.856  35.905  11.560  1.00  0.00     0.179 C 
ATOM     15  C   UNL     1      27.604  34.766  10.624  1.00  0.00     0.177 C 
BRANCH  11  16
ATOM     16  O   UNL     1      29.617  37.804   8.961  1.00  0.00    -0.341 OA
BRANCH  16  17
ATOM     17  C   UNL     1      28.725  38.479   8.122  1.00  0.00     0.184 C 
ATOM     18  C   UNL     1      29.068  38.214   6.678  1.00  0.00     0.178 C 
ATOM     19  O   UNL     1      30.162  38.897   6.213  1.00  0.00    -0.341 OA
ATOM     20  C   UNL     1      30.678  39.827   7.113  1.00  0.00     0.281 C 
ATOM     21  C   UNL     1      28.631  39.948   8.434  1.00  0.00     0.180 C 
ATOM     22  C   UNL     1      29.568  40.761   7.581  1.00  0.00     0.202 C 
BRANCH  18  23
ATOM     23  C   UNL     1      27.867  38.485   5.781  1.00  0.00     0.191 C 
BRANCH  23  24
ATOM     24  O   UNL     1      26.698  37.965   6.303  1.00  0.00    -0.394 OA
ATOM     25  H   UNL     1      26.722  37.001   6.412  1.00  0.00     0.210 HD
ENDBRANCH  23  24
ENDBRANCH  18  23
BRANCH  20  26
ATOM     26  O   UNL     1      31.645  40.543   6.415  1.00  0.00    -0.350 OA
BRANCH  26  27
ATOM     27  C   UNL     1      32.893  40.007   6.710  1.00  0.00     0.169 C 
BRANCH  27  28
ATOM     28  C   UNL     1      33.953  40.512   5.747  1.00  0.00     0.119 C 
BRANCH  28  29
ATOM     29  N   UNL     1      34.272  39.505   4.756  1.00  0.00    -0.092 NA
ATOM     30  N   UNL     1      35.103  38.627   5.038  1.00  0.00     0.001 N 
ATOM     31  N   UNL     1      36.017  37.875   5.403  1.00  0.00    -0.003 NA
ENDBRANCH  28  29
ENDBRANCH  27  28
ENDBRANCH  26  27
ENDBRANCH  20  26
BRANCH  21  32
ATOM     32  O   UNL     1      27.322  40.397   8.258  1.00  0.00    -0.387 OA
ATOM     33  H   UNL     1      27.184  41.293   8.647  1.00  0.00     0.211 HD
ENDBRANCH  21  32
BRANCH  22  34
ATOM     34  O   UNL     1      30.119  41.811   8.305  1.00  0.00    -0.385 OA
ATOM     35  H   UNL     1      30.366  41.517   9.221  1.00  0.00     0.211 HD
ENDBRANCH  22  34
ENDBRANCH  16  17
ENDBRANCH  11  16
BRANCH  13  36
ATOM     36  O   UNL     1      28.945  38.003  11.684  1.00  0.00    -0.385 OA
ATOM     37  H   UNL     1      28.418  38.605  12.234  1.00  0.00     0.211 HD
ENDBRANCH  13  36
BRANCH  14  38
ATOM     38  O   UNL     1      26.758  36.197  12.367  1.00  0.00    -0.387 OA
ATOM     39  H   UNL     1      25.904  36.076  11.866  1.00  0.00     0.211 HD
ENDBRANCH  14  38
BRANCH  15  40
ATOM     40  O   UNL     1      26.472  34.040  11.046  1.00  0.00    -0.387 OA
ATOM     41  H   UNL     1      26.105  34.348  11.887  1.00  0.00     0.211 HD
ENDBRANCH  15  40
ENDBRANCH   9  10
ENDBRANCH   8   9
ENDBRANCH   3   8
BRANCH   3  42
ATOM     42  C   UNL     1      23.440  37.257   7.947  1.00  0.00     0.364 C 
ATOM     43  O   UNL     1      22.451  36.477   7.949  1.00  0.00    -0.246 OA
BRANCH  42  44
ATOM     44  O   UNL     1      23.534  38.256   6.993  1.00  0.00    -0.477 OA
ATOM     45  H   UNL     1      23.025  39.134   7.096  1.00  0.00     0.296 HD
ENDBRANCH  42  44
ENDBRANCH   3  42
BRANCH   6  46
ATOM     46  O   UNL     1      25.343  40.207  10.831  1.00  0.00    -0.391 OA
ATOM     47  H   UNL     1      26.182  40.196  10.322  1.00  0.00     0.211 HD
ENDBRANCH   6  46
BRANCH   7  48
ATOM     48  N   UNL     1      24.017  38.855  12.728  1.00  0.00    -0.348 N 
ATOM     49  C   UNL     1      25.066  39.107  13.648  1.00  0.00     0.217 C 
ATOM     50  H   UNL     1      23.070  39.215  12.947  1.00  0.00     0.163 HD
ATOM     51  C   UNL     1      24.816  39.833  14.921  1.00  0.00     0.114 C 
ATOM     52  O   UNL     1      26.227  38.712  13.387  1.00  0.00    -0.275 OA
ENDBRANCH   7  48
ENDBRANCH   1   2
BRANCH   1  53
ATOM     53  O   UNL     1      23.865  35.777  12.664  1.00  0.00    -0.388 OA
ATOM     54  H   UNL     1      23.591  35.757  13.634  1.00  0.00     0.211 HD
ENDBRANCH   1  53
BRANCH   1  55
ATOM     55  C   UNL     1      22.311  34.895  11.228  1.00  0.00     0.165 C 
BRANCH  55  56
ATOM     56  O   UNL     1      21.469  35.086  10.160  1.00  0.00    -0.388 OA
ATOM     57  H   UNL     1      21.930  35.311   9.321  1.00  0.00     0.211 HD
ENDBRANCH  55  56
BRANCH  55  58
ATOM     58  C   UNL     1      21.576  33.980  12.201  1.00  0.00     0.154 C 
BRANCH  58  59
ATOM     59  N   UNL     1      22.425  33.324  13.143  1.00  0.00    -0.319 N 
ATOM     60  C   UNL     1      21.967  32.858  14.406  1.00  0.00     0.407 C 
ATOM     61  H   UNL     1      23.451  33.169  12.907  1.00  0.00     0.167 HD
ATOM     62  O   UNL     1      20.747  33.051  14.677  1.00  0.00    -0.225 OA
BRANCH  60  63
ATOM     63  O   UNL     1      22.832  32.230  15.273  1.00  0.00    -0.443 OA
BRANCH  63  64
ATOM     64  C   UNL     1      23.883  31.405  14.778  1.00  0.00     0.294 C 
BRANCH  64  65
ATOM     65  C   UNL     1      25.131  32.198  14.802  1.00  0.00     0.120 A 
ATOM     66  C   UNL     1      26.236  32.023  15.594  1.00  0.00     0.138 A 
ATOM     67  N   UNL     1      25.390  33.264  14.025  1.00  0.00    -0.132 NA
ATOM     68  N   UNL     1      27.129  32.992  15.270  1.00  0.00    -0.249 N 
ATOM     69  N   UNL     1      26.587  33.725  14.320  1.00  0.00    -0.067 NA
BRANCH  68  70
ATOM     70  C   UNL     1      28.455  33.196  15.870  1.00  0.00     0.115 C 
BRANCH  70  71
ATOM     71  C   UNL     1      28.540  34.597  16.373  1.00  0.00     0.063 C 
BRANCH  71  72
ATOM     72  C   UNL     1      30.009  35.030  16.394  1.00  0.00     0.139 CG0
ATOM     73  G   UNL     1      30.677  34.405  17.547  1.00  0.00     0.000 G0
BRANCH  72  74
ATOM     74  O   UNL     1      30.094  36.419  16.448  1.00  0.00    -0.389 OA
ATOM     75  H   UNL     1      29.916  36.699  17.391  1.00  0.00     0.211 HD
ENDBRANCH  72  74
ENDBRANCH  71  72
ENDBRANCH  70  71
BRANCH  70  76
ATOM     76  C   UNL     1      28.631  32.206  16.979  1.00  0.00     0.063 C 
BRANCH  76  77
ATOM     77  C   UNL     1      30.139  31.972  17.122  1.00  0.00     0.139 C 
BRANCH  77  78
ATOM     78  C   UNL     1      30.747  33.098  17.881  1.00  0.00     0.002 C 
ATOM     79  C   UNL     1      30.688  34.382  17.555  1.00  0.00     0.002 CG0
ATOM     80  G   UNL     1      30.036  35.032  16.408  1.00  0.00     0.000 G0
ENDBRANCH  77  78
BRANCH  77  81
ATOM     81  O   UNL     1      30.414  30.751  17.718  1.00  0.00    -0.389 OA
ATOM     82  H   UNL     1      31.357  30.783  18.042  1.00  0.00     0.211 HD
ENDBRANCH  77  81
ENDBRANCH  76  77
ENDBRANCH  70  76
ENDBRANCH  68  70
ENDBRANCH  64  65
ENDBRANCH  63  64
ENDBRANCH  60  63
ENDBRANCH  58  59
ENDBRANCH  55  58
ENDBRANCH   1  55
TORSDOF 32
BEGIN_RES LYS A 131
REMARK  4 active torsions:
REMARK  status: ('A' for Active; 'I' for Inactive)
REMARK    1  A    between atoms: CA   and  CB  
REMARK    2  A    between atoms: CB   and  CG  
REMARK    3  A    between atoms: CG   and  CD  
REMARK    4  A    between atoms: CD   and  CE  
ROOT
ATOM      1  CA  LYS A 131      29.867  25.555  16.977  1.00 20.52     0.186 C 
ENDROOT
BRANCH   1   2
ATOM      2  CB  LYS A 131      28.345  25.722  17.026  1.00 20.94     0.034 C 
BRANCH   2   3
ATOM      3  CG  LYS A 131      27.603  24.395  16.980  1.00 22.96     0.005 C 
BRANCH   3   4
ATOM      4  CD  LYS A 131      26.374  24.403  17.846  1.00 24.33     0.041 C 
BRANCH   4   5
ATOM      5  CE  LYS A 131      25.131  24.475  16.966  1.00 26.91     0.338 C 
ATOM      6  NZ  LYS A 131      24.105  23.514  17.436  1.00 27.40     0.618 N 
ENDBRANCH   4   5
ENDBRANCH   3   4
ENDBRANCH   2   3
ENDBRANCH   1   2
END_RES LYS A 131
BEGIN_RES LYS A 135
REMARK  4 active torsions:
REMARK  status: ('A' for Active; 'I' for Inactive)
REMARK    5  A    between atoms: CA   and  CB  
REMARK    6  A    between atoms: CB   and  CG  
REMARK    7  A    between atoms: CG   and  CD  
REMARK    8  A    between atoms: CD   and  CE  
ROOT
ATOM      7  CA  LYS A 135      33.193  34.663   9.290  1.00 25.02     0.186 C 
ENDROOT
BRANCH   7   8
ATOM      8  CB  LYS A 135      32.060  35.360  10.034  1.00 26.63     0.034 C 
BRANCH   8   9
ATOM      9  CG  LYS A 135      32.187  35.283  11.534  1.00 29.45     0.005 C 
BRANCH   9  10
ATOM     10  CD  LYS A 135      32.121  36.672  12.149  1.00 32.00     0.041 C 
BRANCH  10  11
ATOM     11  CE  LYS A 135      32.242  36.592  13.659  1.00 34.25     0.338 C 
ATOM     12  NZ  LYS A 135      32.789  35.273  14.084  1.00 35.99     0.618 N 
ENDBRANCH  10  11
ENDBRANCH   9  10
ENDBRANCH   8   9
ENDBRANCH   7   8
END_RES LYS A 135
