REMARK VINA RESULT:    -5.284      3.055      9.255
REMARK INTER + INTRA:         -24.396
REMARK INTER:                 -14.588
REMARK INTRA:                  -9.808
REMARK UNBOUND:               -10.617
REMARK SMILES CC(=O)N[C@@H]1[C@@H](O)C[C@](OC[C@H]2O[C@@H](O[C@H]3[C@H](O)[C@@H](O)[C@H](OCCN=[N+]=[N-])O[C@@H]3CO)[C@H](O)[C@@H](O)[C@H]2O)(C(=O)O)O[C@H]1C(O)[C@H](O)CNC(=O)OCc1cn(-c2ccc(S(=O)(=O)c3ccc(N)cc3)cc2)nn1
REMARK SMILES IDX 43 1 42 2 9 3 8 4 41 5 6 6 5 7 10 8 11 9 12 10 14 11 13 12
REMARK SMILES IDX 32 13 34 14 36 15 15 16 16 17 29 18 28 19 21 20 17 21 19 22
REMARK SMILES IDX 30 23 31 24 22 26 23 27 24 28 25 29 26 30 27 31 18 32 20 34
REMARK SMILES IDX 33 36 35 38 37 40 38 42 39 43 40 44 7 46 4 48 2 49 1 51 3 52
REMARK SMILES IDX 44 53 45 55 46 56 47 58 48 59 49 60 50 62 51 63 52 64 53 65
REMARK SMILES IDX 54 66 73 67 55 68 72 69 56 70 57 71 71 72 58 73 70 74 59 75
REMARK SMILES IDX 60 76 61 77 62 78 63 79 64 80 69 81 65 82 68 83 66 84 67 85
REMARK H PARENT 31 25 18 33 20 35 33 37 35 39 37 41 40 45 7 47 4 50 44 54
REMARK H PARENT 46 57 48 61 67 86 67 87
REMARK Flexibility Score: inf
ROOT
ATOM      1  C   UNL     1      31.617  36.687  13.386  1.00  0.00     0.176 C 
ENDROOT
BRANCH   1   2
ATOM      2  C   UNL     1      30.097  36.599  13.518  1.00  0.00     0.178 C 
ATOM      3  C   UNL     1      28.106  36.829  12.364  1.00  0.00     0.272 C 
ATOM      4  C   UNL     1      27.514  37.593  13.503  1.00  0.00     0.113 C 
ATOM      5  O   UNL     1      29.506  36.965  12.347  1.00  0.00    -0.332 OA
ATOM      6  C   UNL     1      28.612  38.417  14.155  1.00  0.00     0.145 C 
ATOM      7  C   UNL     1      29.648  37.487  14.690  1.00  0.00     0.142 C 
BRANCH   3   8
ATOM      8  O   UNL     1      27.709  37.260  11.095  1.00  0.00    -0.338 OA
BRANCH   8   9
ATOM      9  C   UNL     1      28.645  37.924  10.360  1.00  0.00     0.199 C 
BRANCH   9  10
ATOM     10  C   UNL     1      28.101  38.191   8.975  1.00  0.00     0.179 C 
ATOM     11  C   UNL     1      26.259  37.971   7.643  1.00  0.00     0.282 C 
ATOM     12  O   UNL     1      26.738  37.871   8.976  1.00  0.00    -0.341 OA
ATOM     13  C   UNL     1      26.210  39.443   7.349  1.00  0.00     0.202 C 
ATOM     14  C   UNL     1      27.623  39.980   7.306  1.00  0.00     0.179 C 
ATOM     15  C   UNL     1      28.337  39.612   8.595  1.00  0.00     0.177 C 
BRANCH  11  16
ATOM     16  O   UNL     1      25.057  37.315   7.583  1.00  0.00    -0.341 OA
BRANCH  16  17
ATOM     17  C   UNL     1      24.513  37.143   8.877  1.00  0.00     0.184 C 
ATOM     18  C   UNL     1      24.131  35.704   9.025  1.00  0.00     0.178 C 
ATOM     19  O   UNL     1      22.840  35.475   9.421  1.00  0.00    -0.341 OA
ATOM     20  C   UNL     1      21.847  36.112   8.737  1.00  0.00     0.281 C 
ATOM     21  C   UNL     1      23.294  38.055   8.900  1.00  0.00     0.180 C 
ATOM     22  C   UNL     1      22.269  37.373   8.017  1.00  0.00     0.202 C 
BRANCH  18  23
ATOM     23  C   UNL     1      25.017  35.152  10.158  1.00  0.00     0.191 C 
BRANCH  23  24
ATOM     24  O   UNL     1      24.362  35.089  11.363  1.00  0.00    -0.394 OA
ATOM     25  H   UNL     1      24.565  34.286  11.904  1.00  0.00     0.210 HD
ENDBRANCH  23  24
ENDBRANCH  18  23
BRANCH  20  26
ATOM     26  O   UNL     1      20.875  36.487   9.658  1.00  0.00    -0.350 OA
BRANCH  26  27
ATOM     27  C   UNL     1      19.887  35.566   9.877  1.00  0.00     0.169 C 
BRANCH  27  28
ATOM     28  C   UNL     1      19.353  35.032   8.590  1.00  0.00     0.119 C 
BRANCH  28  29
ATOM     29  N   UNL     1      18.077  35.697   8.274  1.00  0.00    -0.092 NA
ATOM     30  N   UNL     1      18.040  36.890   7.979  1.00  0.00     0.001 N 
ATOM     31  N   UNL     1      18.024  37.915   7.275  1.00  0.00    -0.003 NA
ENDBRANCH  28  29
ENDBRANCH  27  28
ENDBRANCH  26  27
ENDBRANCH  20  26
BRANCH  21  32
ATOM     32  O   UNL     1      22.794  38.151  10.178  1.00  0.00    -0.387 OA
ATOM     33  H   UNL     1      22.873  39.084  10.516  1.00  0.00     0.211 HD
ENDBRANCH  21  32
BRANCH  22  34
ATOM     34  O   UNL     1      22.731  37.149   6.741  1.00  0.00    -0.385 OA
ATOM     35  H   UNL     1      22.079  37.417   6.040  1.00  0.00     0.211 HD
ENDBRANCH  22  34
ENDBRANCH  16  17
ENDBRANCH  11  16
BRANCH  13  36
ATOM     36  O   UNL     1      25.515  39.732   6.176  1.00  0.00    -0.385 OA
ATOM     37  H   UNL     1      24.579  39.378   6.309  1.00  0.00     0.211 HD
ENDBRANCH  13  36
BRANCH  14  38
ATOM     38  O   UNL     1      27.562  41.381   7.296  1.00  0.00    -0.387 OA
ATOM     39  H   UNL     1      28.207  41.751   7.926  1.00  0.00     0.211 HD
ENDBRANCH  14  38
BRANCH  15  40
ATOM     40  O   UNL     1      27.998  40.488   9.616  1.00  0.00    -0.387 OA
ATOM     41  H   UNL     1      27.373  41.173   9.284  1.00  0.00     0.211 HD
ENDBRANCH  15  40
ENDBRANCH   9  10
ENDBRANCH   8   9
ENDBRANCH   3   8
BRANCH   3  42
ATOM     42  C   UNL     1      27.815  35.371  12.412  1.00  0.00     0.364 C 
ATOM     43  O   UNL     1      28.418  34.488  11.759  1.00  0.00    -0.246 OA
BRANCH  42  44
ATOM     44  O   UNL     1      26.799  34.919  13.237  1.00  0.00    -0.477 OA
ATOM     45  H   UNL     1      26.990  34.306  14.045  1.00  0.00     0.296 HD
ENDBRANCH  42  44
ENDBRANCH   3  42
BRANCH   6  46
ATOM     46  O   UNL     1      29.200  39.156  13.122  1.00  0.00    -0.391 OA
ATOM     47  H   UNL     1      29.804  39.865  13.472  1.00  0.00     0.211 HD
ENDBRANCH   6  46
BRANCH   7  48
ATOM     48  N   UNL     1      29.238  36.675  15.791  1.00  0.00    -0.348 N 
ATOM     49  C   UNL     1      30.010  36.469  16.969  1.00  0.00     0.217 C 
ATOM     50  H   UNL     1      28.308  36.192  15.747  1.00  0.00     0.163 HD
ATOM     51  C   UNL     1      29.474  35.601  18.047  1.00  0.00     0.114 C 
ATOM     52  O   UNL     1      31.110  37.032  17.048  1.00  0.00    -0.275 OA
ENDBRANCH   7  48
ENDBRANCH   1   2
BRANCH   1  53
ATOM     53  O   UNL     1      32.161  37.458  14.400  1.00  0.00    -0.388 OA
ATOM     54  H   UNL     1      32.631  36.873  15.066  1.00  0.00     0.211 HD
ENDBRANCH   1  53
BRANCH   1  55
ATOM     55  C   UNL     1      32.254  35.361  13.217  1.00  0.00     0.165 C 
BRANCH  55  56
ATOM     56  O   UNL     1      31.494  34.541  12.379  1.00  0.00    -0.388 OA
ATOM     57  H   UNL     1      31.893  33.674  12.203  1.00  0.00     0.211 HD
ENDBRANCH  55  56
BRANCH  55  58
ATOM     58  C   UNL     1      32.350  34.625  14.536  1.00  0.00     0.154 C 
BRANCH  58  59
ATOM     59  N   UNL     1      31.693  33.348  14.532  1.00  0.00    -0.319 N 
ATOM     60  C   UNL     1      31.389  32.735  15.773  1.00  0.00     0.407 C 
ATOM     61  H   UNL     1      31.439  32.871  13.653  1.00  0.00     0.167 HD
ATOM     62  O   UNL     1      31.698  33.341  16.840  1.00  0.00    -0.225 OA
BRANCH  60  63
ATOM     63  O   UNL     1      30.775  31.510  15.909  1.00  0.00    -0.443 OA
BRANCH  63  64
ATOM     64  C   UNL     1      30.017  31.119  17.034  1.00  0.00     0.294 C 
BRANCH  64  65
ATOM     65  C   UNL     1      28.633  30.821  16.589  1.00  0.00     0.121 A 
ATOM     66  C   UNL     1      27.678  31.645  16.029  1.00  0.00     0.144 A 
ATOM     67  N   UNL     1      28.034  29.589  16.644  1.00  0.00    -0.131 NA
ATOM     68  N   UNL     1      26.555  30.908  15.765  1.00  0.00    -0.220 N 
ATOM     69  N   UNL     1      26.819  29.685  16.152  1.00  0.00    -0.062 NA
BRANCH  68  70
ATOM     70  C   UNL     1      25.347  31.344  15.180  1.00  0.00     0.066 A 
ATOM     71  C   UNL     1      25.300  31.697  13.828  1.00  0.00     0.030 A 
ATOM     72  C   UNL     1      24.170  31.451  15.876  1.00  0.00     0.030 A 
ATOM     73  C   UNL     1      24.151  32.126  13.212  1.00  0.00     0.023 A 
ATOM     74  C   UNL     1      22.998  31.888  15.256  1.00  0.00     0.023 A 
ATOM     75  C   UNL     1      22.976  32.229  13.922  1.00  0.00     0.072 A 
BRANCH  75  76
ATOM     76  S   UNL     1      21.503  32.772  13.145  1.00  0.00     0.206 S 
ATOM     77  O   UNL     1      21.883  33.557  11.899  1.00  0.00    -0.219 OA
ATOM     78  O   UNL     1      20.624  33.569  14.049  1.00  0.00    -0.219 OA
BRANCH  76  79
ATOM     79  C   UNL     1      20.622  31.362  12.558  1.00  0.00     0.072 A 
ATOM     80  C   UNL     1      21.241  30.145  12.475  1.00  0.00     0.023 A 
ATOM     81  C   UNL     1      19.304  31.466  12.176  1.00  0.00     0.023 A 
ATOM     82  C   UNL     1      20.550  29.060  12.018  1.00  0.00     0.027 A 
ATOM     83  C   UNL     1      18.623  30.368  11.717  1.00  0.00     0.027 A 
ATOM     84  C   UNL     1      19.215  29.140  11.623  1.00  0.00     0.031 A 
BRANCH  84  85
ATOM     85  N   UNL     1      18.539  27.994  11.154  1.00  0.00    -0.399 N 
ATOM     86  H   UNL     1      18.843  27.047  11.419  1.00  0.00     0.156 HD
ATOM     87  H   UNL     1      17.719  28.103  10.531  1.00  0.00     0.156 HD
ENDBRANCH  84  85
ENDBRANCH  76  79
ENDBRANCH  75  76
ENDBRANCH  68  70
ENDBRANCH  64  65
ENDBRANCH  63  64
ENDBRANCH  60  63
ENDBRANCH  58  59
ENDBRANCH  55  58
ENDBRANCH   1  55
TORSDOF 33
BEGIN_RES LYS A 131
REMARK  4 active torsions:
REMARK  status: ('A' for Active; 'I' for Inactive)
REMARK    1  A    between atoms: CA   and  CB  
REMARK    2  A    between atoms: CB   and  CG  
REMARK    3  A    between atoms: CG   and  CD  
REMARK    4  A    between atoms: CD   and  CE  
ROOT
ATOM      1  CA  LYS A 131      29.867  25.555  16.977  1.00 20.52     0.186 C 
ENDROOT
BRANCH   1   2
ATOM      2  CB  LYS A 131      28.345  25.722  17.026  1.00 20.94     0.034 C 
BRANCH   2   3
ATOM      3  CG  LYS A 131      27.601  24.401  16.901  1.00 22.96     0.005 C 
BRANCH   3   4
ATOM      4  CD  LYS A 131      26.519  24.260  17.935  1.00 24.33     0.041 C 
BRANCH   4   5
ATOM      5  CE  LYS A 131      25.155  24.338  17.258  1.00 26.91     0.338 C 
ATOM      6  NZ  LYS A 131      24.495  25.629  17.565  1.00 27.40     0.618 N 
ENDBRANCH   4   5
ENDBRANCH   3   4
ENDBRANCH   2   3
ENDBRANCH   1   2
END_RES LYS A 131
BEGIN_RES LYS A 135
REMARK  4 active torsions:
REMARK  status: ('A' for Active; 'I' for Inactive)
REMARK    5  A    between atoms: CA   and  CB  
REMARK    6  A    between atoms: CB   and  CG  
REMARK    7  A    between atoms: CG   and  CD  
REMARK    8  A    between atoms: CD   and  CE  
ROOT
ATOM      7  CA  LYS A 135      33.193  34.663   9.290  1.00 25.02     0.186 C 
ENDROOT
BRANCH   7   8
ATOM      8  CB  LYS A 135      32.060  35.360  10.034  1.00 26.63     0.034 C 
BRANCH   8   9
ATOM      9  CG  LYS A 135      30.841  35.605   9.183  1.00 29.45     0.005 C 
BRANCH   9  10
ATOM     10  CD  LYS A 135      30.173  34.290   8.812  1.00 32.00     0.041 C 
BRANCH  10  11
ATOM     11  CE  LYS A 135      28.770  34.534   8.289  1.00 34.25     0.338 C 
ATOM     12  NZ  LYS A 135      28.796  35.351   7.044  1.00 35.99     0.618 N 
ENDBRANCH  10  11
ENDBRANCH   9  10
ENDBRANCH   8   9
ENDBRANCH   7   8
END_RES LYS A 135
