REMARK VINA RESULT:    -4.371      6.841     12.896
REMARK INTER + INTRA:         -21.375
REMARK INTER:                  -9.605
REMARK INTRA:                 -11.770
REMARK UNBOUND:               -10.616
REMARK SMILES CC(=O)N[C@@H]1[C@@H](O)C[C@](OC[C@H]2O[C@@H](O[C@H]3[C@H](O)[C@@H](O)[C@H](OCCN=[N+]=[N-])O[C@@H]3CO)[C@H](O)[C@@H](O)[C@H]2O)(C(=O)O)O[C@H]1C(O)[C@H](O)CNC(=O)OCc1cn(C2CCCC2)nn1
REMARK SMILES IDX 9 1 8 2 6 3 5 4 42 5 41 6 10 7 11 8 12 9 14 10 13 11 32 12
REMARK SMILES IDX 34 13 36 14 15 15 16 16 29 17 28 18 21 19 17 20 19 21 30 22
REMARK SMILES IDX 31 23 22 25 23 26 24 27 25 28 26 29 27 30 18 31 20 33 33 35
REMARK SMILES IDX 35 37 37 39 38 41 39 42 40 43 7 45 43 47 44 48 45 50 46 51
REMARK SMILES IDX 47 53 48 54 49 55 50 57 51 58 52 59 53 60 54 61 62 62 55 63
REMARK SMILES IDX 61 64 56 65 57 66 60 67 58 68 59 69 4 70 2 71 1 73 3 74
REMARK H PARENT 31 24 18 32 20 34 33 36 35 38 37 40 40 44 7 46 44 49 46 52
REMARK H PARENT 48 56 4 72
REMARK Flexibility Score: inf
ROOT
ATOM      1  C   UNL     1      29.719  31.253  19.506  1.00  0.00     0.272 C 
ATOM      2  C   UNL     1      30.588  31.308  20.707  1.00  0.00     0.113 C 
ATOM      3  C   UNL     1      31.129  29.992  21.143  1.00  0.00     0.145 C 
ATOM      4  C   UNL     1      29.990  28.947  21.225  1.00  0.00     0.142 C 
ATOM      5  C   UNL     1      28.724  29.636  20.853  1.00  0.00     0.178 C 
ATOM      6  O   UNL     1      28.954  30.064  19.500  1.00  0.00    -0.332 OA
ENDROOT
BRANCH   1   7
ATOM      7  O   UNL     1      30.390  31.313  18.338  1.00  0.00    -0.338 OA
BRANCH   7   8
ATOM      8  C   UNL     1      30.760  32.530  17.827  1.00  0.00     0.199 C 
BRANCH   8   9
ATOM      9  C   UNL     1      31.163  32.308  16.372  1.00  0.00     0.179 C 
ATOM     10  C   UNL     1      29.142  32.512  15.234  1.00  0.00     0.282 C 
ATOM     11  O   UNL     1      30.205  31.707  15.621  1.00  0.00    -0.341 OA
ATOM     12  C   UNL     1      29.514  33.937  15.016  1.00  0.00     0.202 C 
ATOM     13  C   UNL     1      30.962  34.159  14.710  1.00  0.00     0.179 C 
ATOM     14  C   UNL     1      31.770  33.544  15.825  1.00  0.00     0.177 C 
BRANCH  10  15
ATOM     15  O   UNL     1      28.037  32.341  16.065  1.00  0.00    -0.341 OA
BRANCH  15  16
ATOM     16  C   UNL     1      27.146  31.391  15.567  1.00  0.00     0.184 C 
ATOM     17  C   UNL     1      25.748  31.884  15.400  1.00  0.00     0.178 C 
ATOM     18  O   UNL     1      24.948  30.824  14.980  1.00  0.00    -0.341 OA
ATOM     19  C   UNL     1      24.679  29.987  16.048  1.00  0.00     0.281 C 
ATOM     20  C   UNL     1      27.100  30.281  16.610  1.00  0.00     0.180 C 
ATOM     21  C   UNL     1      25.990  29.304  16.391  1.00  0.00     0.202 C 
BRANCH  17  22
ATOM     22  C   UNL     1      25.601  32.944  14.313  1.00  0.00     0.191 C 
BRANCH  22  23
ATOM     23  O   UNL     1      25.986  34.152  14.916  1.00  0.00    -0.394 OA
ATOM     24  H   UNL     1      26.788  34.513  14.502  1.00  0.00     0.210 HD
ENDBRANCH  22  23
ENDBRANCH  17  22
BRANCH  19  25
ATOM     25  O   UNL     1      23.795  28.995  15.633  1.00  0.00    -0.350 OA
BRANCH  25  26
ATOM     26  C   UNL     1      22.906  29.520  14.681  1.00  0.00     0.169 C 
BRANCH  26  27
ATOM     27  C   UNL     1      22.806  28.596  13.480  1.00  0.00     0.119 C 
BRANCH  27  28
ATOM     28  N   UNL     1      22.188  29.258  12.369  1.00  0.00    -0.092 NA
ATOM     29  N   UNL     1      20.959  29.194  12.161  1.00  0.00     0.001 N 
ATOM     30  N   UNL     1      19.902  28.714  11.760  1.00  0.00    -0.003 NA
ENDBRANCH  27  28
ENDBRANCH  26  27
ENDBRANCH  25  26
ENDBRANCH  19  25
BRANCH  20  31
ATOM     31  O   UNL     1      28.312  29.603  16.507  1.00  0.00    -0.387 OA
ATOM     32  H   UNL     1      28.241  28.760  15.995  1.00  0.00     0.211 HD
ENDBRANCH  20  31
BRANCH  21  33
ATOM     33  O   UNL     1      25.781  28.609  17.593  1.00  0.00    -0.385 OA
ATOM     34  H   UNL     1      24.833  28.317  17.568  1.00  0.00     0.211 HD
ENDBRANCH  21  33
ENDBRANCH  15  16
ENDBRANCH  10  15
BRANCH  12  35
ATOM     35  O   UNL     1      28.799  34.491  13.928  1.00  0.00    -0.385 OA
ATOM     36  H   UNL     1      28.595  33.760  13.316  1.00  0.00     0.211 HD
ENDBRANCH  12  35
BRANCH  13  37
ATOM     37  O   UNL     1      31.223  35.516  14.676  1.00  0.00    -0.387 OA
ATOM     38  H   UNL     1      32.198  35.638  14.691  1.00  0.00     0.211 HD
ENDBRANCH  13  37
BRANCH  14  39
ATOM     39  O   UNL     1      32.019  34.526  16.775  1.00  0.00    -0.387 OA
ATOM     40  H   UNL     1      32.346  34.169  17.613  1.00  0.00     0.211 HD
ENDBRANCH  14  39
ENDBRANCH   8   9
ENDBRANCH   7   8
ENDBRANCH   1   7
BRANCH   1  41
ATOM     41  C   UNL     1      28.671  32.337  19.624  1.00  0.00     0.364 C 
ATOM     42  O   UNL     1      28.804  33.317  20.373  1.00  0.00    -0.246 OA
BRANCH  41  43
ATOM     43  O   UNL     1      27.532  32.166  18.832  1.00  0.00    -0.477 OA
ATOM     44  H   UNL     1      27.530  31.423  18.122  1.00  0.00     0.296 HD
ENDBRANCH  41  43
ENDBRANCH   1  41
BRANCH   3  45
ATOM     45  O   UNL     1      32.202  29.519  20.432  1.00  0.00    -0.391 OA
ATOM     46  H   UNL     1      32.194  29.886  19.518  1.00  0.00     0.211 HD
ENDBRANCH   3  45
BRANCH   5  47
ATOM     47  C   UNL     1      27.513  28.745  20.743  1.00  0.00     0.176 C 
BRANCH  47  48
ATOM     48  O   UNL     1      27.180  28.374  22.112  1.00  0.00    -0.388 OA
ATOM     49  H   UNL     1      27.949  28.724  22.619  1.00  0.00     0.211 HD
ENDBRANCH  47  48
BRANCH  47  50
ATOM     50  C   UNL     1      27.741  27.401  20.109  1.00  0.00     0.165 C 
BRANCH  50  51
ATOM     51  O   UNL     1      27.893  27.347  18.769  1.00  0.00    -0.388 OA
ATOM     52  H   UNL     1      28.681  27.809  18.409  1.00  0.00     0.211 HD
ENDBRANCH  50  51
BRANCH  50  53
ATOM     53  C   UNL     1      26.566  26.506  20.484  1.00  0.00     0.154 C 
BRANCH  53  54
ATOM     54  N   UNL     1      25.341  27.113  19.947  1.00  0.00    -0.319 N 
ATOM     55  C   UNL     1      24.223  27.364  20.782  1.00  0.00     0.407 C 
ATOM     56  H   UNL     1      25.259  27.375  18.931  1.00  0.00     0.167 HD
ATOM     57  O   UNL     1      24.292  27.061  22.002  1.00  0.00    -0.225 OA
BRANCH  55  58
ATOM     58  O   UNL     1      23.069  27.931  20.293  1.00  0.00    -0.443 OA
BRANCH  58  59
ATOM     59  C   UNL     1      23.079  29.070  19.455  1.00  0.00     0.294 C 
BRANCH  59  60
ATOM     60  C   UNL     1      23.758  30.236  20.067  1.00  0.00     0.120 A 
ATOM     61  C   UNL     1      23.510  30.902  21.246  1.00  0.00     0.138 A 
ATOM     62  N   UNL     1      24.811  30.882  19.520  1.00  0.00    -0.132 NA
ATOM     63  N   UNL     1      24.389  31.898  21.375  1.00  0.00    -0.249 N 
ATOM     64  N   UNL     1      25.167  31.856  20.306  1.00  0.00    -0.067 NA
BRANCH  63  65
ATOM     65  C   UNL     1      24.512  32.866  22.458  1.00  0.00     0.109 C 
ATOM     66  C   UNL     1      24.342  32.252  23.808  1.00  0.00     0.027 C 
ATOM     67  C   UNL     1      25.927  33.404  22.461  1.00  0.00     0.027 C 
ATOM     68  C   UNL     1      25.712  31.896  24.325  1.00  0.00     0.002 C 
ATOM     69  C   UNL     1      26.713  32.541  23.400  1.00  0.00     0.002 C 
ENDBRANCH  63  65
ENDBRANCH  59  60
ENDBRANCH  58  59
ENDBRANCH  55  58
ENDBRANCH  53  54
ENDBRANCH  50  53
ENDBRANCH  47  50
ENDBRANCH   5  47
BRANCH   4  70
ATOM     70  N   UNL     1      30.030  28.329  22.531  1.00  0.00    -0.348 N 
ATOM     71  C   UNL     1      30.673  27.043  22.701  1.00  0.00     0.217 C 
ATOM     72  H   UNL     1      29.634  28.765  23.388  1.00  0.00     0.163 HD
ATOM     73  C   UNL     1      30.727  26.390  24.033  1.00  0.00     0.114 C 
ATOM     74  O   UNL     1      31.201  26.451  21.721  1.00  0.00    -0.275 OA
ENDBRANCH   4  70
TORSDOF 30
BEGIN_RES LYS A 131
REMARK  4 active torsions:
REMARK  status: ('A' for Active; 'I' for Inactive)
REMARK    1  A    between atoms: CA   and  CB  
REMARK    2  A    between atoms: CB   and  CG  
REMARK    3  A    between atoms: CG   and  CD  
REMARK    4  A    between atoms: CD   and  CE  
ROOT
ATOM      1  CA  LYS A 131      29.867  25.555  16.977  1.00 20.52     0.186 C 
ENDROOT
BRANCH   1   2
ATOM      2  CB  LYS A 131      28.345  25.722  17.026  1.00 20.94     0.034 C 
BRANCH   2   3
ATOM      3  CG  LYS A 131      27.602  24.398  16.932  1.00 22.96     0.005 C 
BRANCH   3   4
ATOM      4  CD  LYS A 131      26.151  24.536  17.301  1.00 24.33     0.041 C 
BRANCH   4   5
ATOM      5  CE  LYS A 131      25.775  23.450  18.305  1.00 26.91     0.338 C 
ATOM      6  NZ  LYS A 131      25.073  22.336  17.625  1.00 27.40     0.618 N 
ENDBRANCH   4   5
ENDBRANCH   3   4
ENDBRANCH   2   3
ENDBRANCH   1   2
END_RES LYS A 131
BEGIN_RES LYS A 135
REMARK  4 active torsions:
REMARK  status: ('A' for Active; 'I' for Inactive)
REMARK    5  A    between atoms: CA   and  CB  
REMARK    6  A    between atoms: CB   and  CG  
REMARK    7  A    between atoms: CG   and  CD  
REMARK    8  A    between atoms: CD   and  CE  
ROOT
ATOM      7  CA  LYS A 135      33.193  34.663   9.290  1.00 25.02     0.186 C 
ENDROOT
BRANCH   7   8
ATOM      8  CB  LYS A 135      32.060  35.360  10.034  1.00 26.63     0.034 C 
BRANCH   8   9
ATOM      9  CG  LYS A 135      30.709  34.737   9.794  1.00 29.45     0.005 C 
BRANCH   9  10
ATOM     10  CD  LYS A 135      30.471  34.528   8.307  1.00 32.00     0.041 C 
BRANCH  10  11
ATOM     11  CE  LYS A 135      29.026  34.822   7.952  1.00 34.25     0.338 C 
ATOM     12  NZ  LYS A 135      28.927  35.526   6.643  1.00 35.99     0.618 N 
ENDBRANCH  10  11
ENDBRANCH   9  10
ENDBRANCH   8   9
ENDBRANCH   7   8
END_RES LYS A 135
