REMARK VINA RESULT:    -4.765      3.572      8.024
REMARK INTER + INTRA:         -23.519
REMARK INTER:                 -12.823
REMARK INTRA:                 -10.697
REMARK UNBOUND:               -10.398
REMARK SMILES CC(=O)N[C@@H]1[C@@H](O)C[C@](OC[C@H]2O[C@@H](O[C@H]3[C@H](O)[C@@H](O)[C@H](OCCN=[N+]=[N-])O[C@@H]3CO)[C@H](O)[C@@H](O)[C@H]2O)(C(=O)O)O[C@H]1C(O)[C@H](O)CNC(=O)OCc1cn([C@@H](CCC(=O)O)C(=O)O)nn1
REMARK SMILES IDX 43 1 42 2 9 3 8 4 41 5 6 6 5 7 10 8 11 9 12 10 14 11 13 12
REMARK SMILES IDX 32 13 34 14 36 15 15 16 16 17 29 18 28 19 21 20 17 21 19 22
REMARK SMILES IDX 30 23 31 24 22 26 23 27 24 28 25 29 26 30 27 31 18 32 20 34
REMARK SMILES IDX 33 36 35 38 37 40 38 42 39 43 40 44 7 46 4 48 2 49 1 51 3 52
REMARK SMILES IDX 44 53 45 55 46 56 47 58 48 59 49 60 50 62 51 63 52 64 53 65
REMARK SMILES IDX 54 66 66 67 55 68 65 69 56 70 57 71 58 72 59 73 60 74 61 75
REMARK SMILES IDX 62 77 63 78 64 79
REMARK H PARENT 31 25 18 33 20 35 33 37 35 39 37 41 40 45 7 47 4 50 44 54
REMARK H PARENT 46 57 48 61 61 76 64 80
REMARK Flexibility Score: inf
ROOT
ATOM      1  C   UNL     1      33.771  30.339  23.720  1.00  0.00     0.176 C 
ENDROOT
BRANCH   1   2
ATOM      2  C   UNL     1      33.065  29.188  23.002  1.00  0.00     0.178 C 
ATOM      3  C   UNL     1      30.833  28.741  22.400  1.00  0.00     0.272 C 
ATOM      4  C   UNL     1      30.740  27.494  23.184  1.00  0.00     0.113 C 
ATOM      5  O   UNL     1      31.726  29.559  23.124  1.00  0.00    -0.332 OA
ATOM      6  C   UNL     1      31.884  27.338  24.149  1.00  0.00     0.145 C 
ATOM      7  C   UNL     1      33.203  27.878  23.725  1.00  0.00     0.142 C 
BRANCH   3   8
ATOM      8  O   UNL     1      29.633  29.422  22.378  1.00  0.00    -0.338 OA
BRANCH   8   9
ATOM      9  C   UNL     1      28.460  28.907  22.637  1.00  0.00     0.199 C 
BRANCH   9  10
ATOM     10  C   UNL     1      27.269  29.025  21.727  1.00  0.00     0.179 C 
ATOM     11  C   UNL     1      27.040  29.849  19.557  1.00  0.00     0.282 C 
ATOM     12  O   UNL     1      27.363  30.082  20.868  1.00  0.00    -0.341 OA
ATOM     13  C   UNL     1      27.957  28.772  19.021  1.00  0.00     0.202 C 
ATOM     14  C   UNL     1      27.675  27.497  19.750  1.00  0.00     0.179 C 
ATOM     15  C   UNL     1      26.976  27.693  21.047  1.00  0.00     0.177 C 
BRANCH  11  16
ATOM     16  O   UNL     1      27.264  31.022  18.831  1.00  0.00    -0.341 OA
BRANCH  16  17
ATOM     17  C   UNL     1      26.197  31.882  18.767  1.00  0.00     0.184 C 
ATOM     18  C   UNL     1      25.022  31.266  18.014  1.00  0.00     0.178 C 
ATOM     19  O   UNL     1      24.742  32.045  16.894  1.00  0.00    -0.341 OA
ATOM     20  C   UNL     1      25.793  31.912  15.943  1.00  0.00     0.281 C 
ATOM     21  C   UNL     1      26.645  33.095  17.976  1.00  0.00     0.180 C 
ATOM     22  C   UNL     1      26.979  32.592  16.555  1.00  0.00     0.202 C 
BRANCH  18  23
ATOM     23  C   UNL     1      23.788  31.291  18.900  1.00  0.00     0.191 C 
BRANCH  23  24
ATOM     24  O   UNL     1      23.544  32.551  19.414  1.00  0.00    -0.394 OA
ATOM     25  H   UNL     1      23.091  33.141  18.757  1.00  0.00     0.210 HD
ENDBRANCH  23  24
ENDBRANCH  18  23
BRANCH  20  26
ATOM     26  O   UNL     1      25.336  32.436  14.768  1.00  0.00    -0.350 OA
BRANCH  26  27
ATOM     27  C   UNL     1      24.791  31.541  13.890  1.00  0.00     0.169 C 
BRANCH  27  28
ATOM     28  C   UNL     1      23.579  32.063  13.145  1.00  0.00     0.119 C 
BRANCH  28  29
ATOM     29  N   UNL     1      22.670  31.000  12.764  1.00  0.00    -0.092 NA
ATOM     30  N   UNL     1      23.018  29.843  12.557  1.00  0.00     0.001 N 
ATOM     31  N   UNL     1      23.427  28.701  12.555  1.00  0.00    -0.003 NA
ENDBRANCH  28  29
ENDBRANCH  27  28
ENDBRANCH  26  27
ENDBRANCH  20  26
BRANCH  21  32
ATOM     32  O   UNL     1      25.677  34.090  17.924  1.00  0.00    -0.387 OA
ATOM     33  H   UNL     1      24.817  33.815  18.371  1.00  0.00     0.211 HD
ENDBRANCH  21  32
BRANCH  22  34
ATOM     34  O   UNL     1      27.956  31.590  16.775  1.00  0.00    -0.385 OA
ATOM     35  H   UNL     1      28.532  31.560  15.970  1.00  0.00     0.211 HD
ENDBRANCH  22  34
ENDBRANCH  16  17
ENDBRANCH  11  16
BRANCH  13  36
ATOM     36  O   UNL     1      27.769  28.607  17.647  1.00  0.00    -0.385 OA
ATOM     37  H   UNL     1      26.777  28.716  17.492  1.00  0.00     0.211 HD
ENDBRANCH  13  36
BRANCH  14  38
ATOM     38  O   UNL     1      28.826  26.724  19.928  1.00  0.00    -0.387 OA
ATOM     39  H   UNL     1      28.913  26.492  20.900  1.00  0.00     0.211 HD
ENDBRANCH  14  38
BRANCH  15  40
ATOM     40  O   UNL     1      27.402  26.667  21.893  1.00  0.00    -0.387 OA
ATOM     41  H   UNL     1      28.141  26.160  21.487  1.00  0.00     0.211 HD
ENDBRANCH  15  40
ENDBRANCH   9  10
ENDBRANCH   8   9
ENDBRANCH   3   8
BRANCH   3  42
ATOM     42  C   UNL     1      31.311  28.661  21.025  1.00  0.00     0.364 C 
ATOM     43  O   UNL     1      31.704  27.517  20.592  1.00  0.00    -0.246 OA
BRANCH  42  44
ATOM     44  O   UNL     1      31.411  29.670  20.087  1.00  0.00    -0.477 OA
ATOM     45  H   UNL     1      32.280  29.940  19.687  1.00  0.00     0.296 HD
ENDBRANCH  42  44
ENDBRANCH   3  42
BRANCH   6  46
ATOM     46  O   UNL     1      31.525  28.061  25.320  1.00  0.00    -0.391 OA
ATOM     47  H   UNL     1      30.615  28.444  25.234  1.00  0.00     0.211 HD
ENDBRANCH   6  46
BRANCH   7  48
ATOM     48  N   UNL     1      33.909  26.830  23.076  1.00  0.00    -0.348 N 
ATOM     49  C   UNL     1      34.955  26.085  23.675  1.00  0.00     0.217 C 
ATOM     50  H   UNL     1      33.672  26.536  22.109  1.00  0.00     0.163 HD
ATOM     51  C   UNL     1      35.665  24.989  22.925  1.00  0.00     0.114 C 
ATOM     52  O   UNL     1      35.308  26.320  24.828  1.00  0.00    -0.275 OA
ENDBRANCH   7  48
ENDBRANCH   1   2
BRANCH   1  53
ATOM     53  O   UNL     1      32.883  30.946  24.600  1.00  0.00    -0.388 OA
ATOM     54  H   UNL     1      32.971  31.934  24.542  1.00  0.00     0.211 HD
ENDBRANCH   1  53
BRANCH   1  55
ATOM     55  C   UNL     1      34.451  31.323  22.889  1.00  0.00     0.165 C 
BRANCH  55  56
ATOM     56  O   UNL     1      35.626  31.750  23.578  1.00  0.00    -0.388 OA
ATOM     57  H   UNL     1      35.385  32.544  24.111  1.00  0.00     0.211 HD
ENDBRANCH  55  56
BRANCH  55  58
ATOM     58  C   UNL     1      33.725  32.591  22.550  1.00  0.00     0.154 C 
BRANCH  58  59
ATOM     59  N   UNL     1      32.545  32.377  21.748  1.00  0.00    -0.319 N 
ATOM     60  C   UNL     1      31.220  32.657  22.198  1.00  0.00     0.407 C 
ATOM     61  H   UNL     1      32.647  31.989  20.797  1.00  0.00     0.167 HD
ATOM     62  O   UNL     1      31.020  33.108  23.325  1.00  0.00    -0.225 OA
BRANCH  60  63
ATOM     63  O   UNL     1      30.179  32.407  21.340  1.00  0.00    -0.443 OA
BRANCH  63  64
ATOM     64  C   UNL     1      29.620  33.369  20.493  1.00  0.00     0.294 C 
BRANCH  64  65
ATOM     65  C   UNL     1      30.101  33.152  19.106  1.00  0.00     0.120 A 
ATOM     66  C   UNL     1      30.222  34.057  18.073  1.00  0.00     0.139 A 
ATOM     67  N   UNL     1      30.504  31.960  18.589  1.00  0.00    -0.132 NA
ATOM     68  N   UNL     1      30.689  33.405  16.969  1.00  0.00    -0.238 N 
ATOM     69  N   UNL     1      30.846  32.130  17.329  1.00  0.00    -0.066 NA
BRANCH  68  70
ATOM     70  C   UNL     1      30.972  33.980  15.705  1.00  0.00     0.219 C 
BRANCH  70  71
ATOM     71  C   UNL     1      32.379  34.084  15.247  1.00  0.00     0.051 C 
BRANCH  71  72
ATOM     72  C   UNL     1      32.876  35.346  14.676  1.00  0.00     0.125 C 
BRANCH  72  73
ATOM     73  C   UNL     1      32.416  35.776  13.372  1.00  0.00     0.303 C 
ATOM     74  O   UNL     1      32.127  36.923  12.987  1.00  0.00    -0.252 OA
BRANCH  73  75
ATOM     75  O   UNL     1      32.252  34.791  12.346  1.00  0.00    -0.481 OA
ATOM     76  H   UNL     1      32.522  35.021  11.403  1.00  0.00     0.296 HD
ENDBRANCH  73  75
ENDBRANCH  72  73
ENDBRANCH  71  72
ENDBRANCH  70  71
BRANCH  70  77
ATOM     77  C   UNL     1      30.196  33.238  14.662  1.00  0.00     0.328 C 
ATOM     78  O   UNL     1      29.636  33.853  13.735  1.00  0.00    -0.250 OA
BRANCH  77  79
ATOM     79  O   UNL     1      30.072  31.861  14.686  1.00  0.00    -0.480 OA
ATOM     80  H   UNL     1      29.952  31.347  15.560  1.00  0.00     0.296 HD
ENDBRANCH  77  79
ENDBRANCH  70  77
ENDBRANCH  68  70
ENDBRANCH  64  65
ENDBRANCH  63  64
ENDBRANCH  60  63
ENDBRANCH  58  59
ENDBRANCH  55  58
ENDBRANCH   1  55
TORSDOF 36
BEGIN_RES LYS A 131
REMARK  4 active torsions:
REMARK  status: ('A' for Active; 'I' for Inactive)
REMARK    1  A    between atoms: CA   and  CB  
REMARK    2  A    between atoms: CB   and  CG  
REMARK    3  A    between atoms: CG   and  CD  
REMARK    4  A    between atoms: CD   and  CE  
ROOT
ATOM      1  CA  LYS A 131      29.867  25.555  16.977  1.00 20.52     0.186 C 
ENDROOT
BRANCH   1   2
ATOM      2  CB  LYS A 131      28.345  25.722  17.026  1.00 20.94     0.034 C 
BRANCH   2   3
ATOM      3  CG  LYS A 131      27.601  24.401  16.906  1.00 22.96     0.005 C 
BRANCH   3   4
ATOM      4  CD  LYS A 131      26.539  24.251  17.959  1.00 24.33     0.041 C 
BRANCH   4   5
ATOM      5  CE  LYS A 131      25.389  25.209  17.662  1.00 26.91     0.338 C 
ATOM      6  NZ  LYS A 131      24.368  24.547  16.815  1.00 27.40     0.618 N 
ENDBRANCH   4   5
ENDBRANCH   3   4
ENDBRANCH   2   3
ENDBRANCH   1   2
END_RES LYS A 131
BEGIN_RES LYS A 135
REMARK  4 active torsions:
REMARK  status: ('A' for Active; 'I' for Inactive)
REMARK    5  A    between atoms: CA   and  CB  
REMARK    6  A    between atoms: CB   and  CG  
REMARK    7  A    between atoms: CG   and  CD  
REMARK    8  A    between atoms: CD   and  CE  
ROOT
ATOM      7  CA  LYS A 135      33.193  34.663   9.290  1.00 25.02     0.186 C 
ENDROOT
BRANCH   7   8
ATOM      8  CB  LYS A 135      32.060  35.360  10.034  1.00 26.63     0.034 C 
BRANCH   8   9
ATOM      9  CG  LYS A 135      30.767  35.400   9.261  1.00 29.45     0.005 C 
BRANCH   9  10
ATOM     10  CD  LYS A 135      29.841  36.470   9.819  1.00 32.00     0.041 C 
BRANCH  10  11
ATOM     11  CE  LYS A 135      29.050  35.930  10.995  1.00 34.25     0.338 C 
ATOM     12  NZ  LYS A 135      27.820  36.736  11.230  1.00 35.99     0.618 N 
ENDBRANCH  10  11
ENDBRANCH   9  10
ENDBRANCH   8   9
ENDBRANCH   7   8
END_RES LYS A 135
