REMARK VINA RESULT:    -4.755      5.144     10.722
REMARK INTER + INTRA:         -23.493
REMARK INTER:                 -10.733
REMARK INTRA:                 -12.760
REMARK UNBOUND:               -10.398
REMARK SMILES CC(=O)N[C@@H]1[C@@H](O)C[C@](OC[C@H]2O[C@@H](O[C@H]3[C@H](O)[C@@H](O)[C@H](OCCN=[N+]=[N-])O[C@@H]3CO)[C@H](O)[C@@H](O)[C@H]2O)(C(=O)O)O[C@H]1C(O)[C@H](O)CNC(=O)OCc1cn([C@@H](CCC(=O)O)C(=O)O)nn1
REMARK SMILES IDX 43 1 42 2 9 3 8 4 41 5 6 6 5 7 10 8 11 9 12 10 14 11 13 12
REMARK SMILES IDX 32 13 34 14 36 15 15 16 16 17 29 18 28 19 21 20 17 21 19 22
REMARK SMILES IDX 30 23 31 24 22 26 23 27 24 28 25 29 26 30 27 31 18 32 20 34
REMARK SMILES IDX 33 36 35 38 37 40 38 42 39 43 40 44 7 46 4 48 2 49 1 51 3 52
REMARK SMILES IDX 44 53 45 55 46 56 47 58 48 59 49 60 50 62 51 63 52 64 53 65
REMARK SMILES IDX 54 66 66 67 55 68 65 69 56 70 57 71 58 72 59 73 60 74 61 75
REMARK SMILES IDX 62 77 63 78 64 79
REMARK H PARENT 31 25 18 33 20 35 33 37 35 39 37 41 40 45 7 47 4 50 44 54
REMARK H PARENT 46 57 48 61 61 76 64 80
REMARK Flexibility Score: inf
ROOT
ATOM      1  C   UNL     1      31.337  38.731   9.198  1.00  0.00     0.176 C 
ENDROOT
BRANCH   1   2
ATOM      2  C   UNL     1      30.906  40.011   8.480  1.00  0.00     0.178 C 
ATOM      3  C   UNL     1      28.997  40.657   7.264  1.00  0.00     0.272 C 
ATOM      4  C   UNL     1      29.734  40.940   6.016  1.00  0.00     0.113 C 
ATOM      5  O   UNL     1      29.714  39.609   7.880  1.00  0.00    -0.332 OA
ATOM      6  C   UNL     1      31.137  40.396   6.045  1.00  0.00     0.145 C 
ATOM      7  C   UNL     1      31.832  40.391   7.360  1.00  0.00     0.142 C 
BRANCH   3   8
ATOM      8  O   UNL     1      27.737  40.154   7.011  1.00  0.00    -0.338 OA
BRANCH   8   9
ATOM      9  C   UNL     1      27.455  38.903   6.752  1.00  0.00     0.199 C 
BRANCH   9  10
ATOM     10  C   UNL     1      26.665  38.012   7.670  1.00  0.00     0.179 C 
ATOM     11  C   UNL     1      26.674  37.761   9.990  1.00  0.00     0.282 C 
ATOM     12  O   UNL     1      27.352  37.676   8.801  1.00  0.00    -0.341 OA
ATOM     13  C   UNL     1      26.205  39.188  10.174  1.00  0.00     0.202 C 
ATOM     14  C   UNL     1      25.210  39.506   9.105  1.00  0.00     0.179 C 
ATOM     15  C   UNL     1      25.282  38.597   7.931  1.00  0.00     0.177 C 
BRANCH  11  16
ATOM     16  O   UNL     1      27.557  37.449  11.026  1.00  0.00    -0.341 OA
BRANCH  16  17
ATOM     17  C   UNL     1      27.391  36.205  11.580  1.00  0.00     0.184 C 
ATOM     18  C   UNL     1      26.018  36.057  12.228  1.00  0.00     0.178 C 
ATOM     19  O   UNL     1      26.183  35.804  13.588  1.00  0.00    -0.341 OA
ATOM     20  C   UNL     1      26.681  36.970  14.236  1.00  0.00     0.281 C 
ATOM     21  C   UNL     1      28.420  36.063  12.683  1.00  0.00     0.180 C 
ATOM     22  C   UNL     1      28.084  37.139  13.737  1.00  0.00     0.202 C 
BRANCH  18  23
ATOM     23  C   UNL     1      25.305  34.856  11.631  1.00  0.00     0.191 C 
BRANCH  23  24
ATOM     24  O   UNL     1      24.317  35.230  10.739  1.00  0.00    -0.394 OA
ATOM     25  H   UNL     1      24.440  36.160  10.416  1.00  0.00     0.210 HD
ENDBRANCH  23  24
ENDBRANCH  18  23
BRANCH  20  26
ATOM     26  O   UNL     1      26.536  36.774  15.578  1.00  0.00    -0.350 OA
BRANCH  26  27
ATOM     27  C   UNL     1      27.000  37.779  16.380  1.00  0.00     0.169 C 
BRANCH  27  28
ATOM     28  C   UNL     1      27.848  37.304  17.543  1.00  0.00     0.119 C 
BRANCH  28  29
ATOM     29  N   UNL     1      29.262  37.296  17.223  1.00  0.00    -0.092 NA
ATOM     30  N   UNL     1      29.913  38.305  16.971  1.00  0.00     0.001 N 
ATOM     31  N   UNL     1      30.502  39.363  16.917  1.00  0.00    -0.003 NA
ENDBRANCH  28  29
ENDBRANCH  27  28
ENDBRANCH  26  27
ENDBRANCH  20  26
BRANCH  21  32
ATOM     32  O   UNL     1      28.419  34.800  13.261  1.00  0.00    -0.387 OA
ATOM     33  H   UNL     1      28.485  34.062  12.576  1.00  0.00     0.211 HD
ENDBRANCH  21  32
BRANCH  22  34
ATOM     34  O   UNL     1      28.114  38.349  13.002  1.00  0.00    -0.385 OA
ATOM     35  H   UNL     1      28.663  38.993  13.518  1.00  0.00     0.211 HD
ENDBRANCH  22  34
ENDBRANCH  16  17
ENDBRANCH  11  16
BRANCH  13  36
ATOM     36  O   UNL     1      25.642  39.359  11.440  1.00  0.00    -0.385 OA
ATOM     37  H   UNL     1      24.850  38.735  11.473  1.00  0.00     0.211 HD
ENDBRANCH  13  36
BRANCH  14  38
ATOM     38  O   UNL     1      25.283  40.841   8.693  1.00  0.00    -0.387 OA
ATOM     39  H   UNL     1      25.213  40.875   7.694  1.00  0.00     0.211 HD
ENDBRANCH  14  38
BRANCH  15  40
ATOM     40  O   UNL     1      24.908  39.350   6.816  1.00  0.00    -0.387 OA
ATOM     41  H   UNL     1      25.481  39.145   6.043  1.00  0.00     0.211 HD
ENDBRANCH  15  40
ENDBRANCH   9  10
ENDBRANCH   8   9
ENDBRANCH   3   8
BRANCH   3  42
ATOM     42  C   UNL     1      28.846  41.731   8.237  1.00  0.00     0.364 C 
ATOM     43  O   UNL     1      29.435  42.847   7.996  1.00  0.00    -0.246 OA
BRANCH  42  44
ATOM     44  O   UNL     1      28.142  41.725   9.426  1.00  0.00    -0.477 OA
ATOM     45  H   UNL     1      28.499  41.306  10.253  1.00  0.00     0.296 HD
ENDBRANCH  42  44
ENDBRANCH   3  42
BRANCH   6  46
ATOM     46  O   UNL     1      31.050  39.033   5.645  1.00  0.00    -0.391 OA
ATOM     47  H   UNL     1      30.556  38.947   4.790  1.00  0.00     0.211 HD
ENDBRANCH   6  46
BRANCH   7  48
ATOM     48  N   UNL     1      32.549  41.612   7.473  1.00  0.00    -0.348 N 
ATOM     49  C   UNL     1      33.955  41.725   7.342  1.00  0.00     0.217 C 
ATOM     50  H   UNL     1      32.060  42.513   7.640  1.00  0.00     0.163 HD
ATOM     51  C   UNL     1      34.651  43.053   7.478  1.00  0.00     0.114 C 
ATOM     52  O   UNL     1      34.642  40.732   7.112  1.00  0.00    -0.275 OA
ENDBRANCH   7  48
ENDBRANCH   1   2
BRANCH   1  53
ATOM     53  O   UNL     1      31.266  37.662   8.313  1.00  0.00    -0.388 OA
ATOM     54  H   UNL     1      31.927  36.965   8.569  1.00  0.00     0.211 HD
ENDBRANCH   1  53
BRANCH   1  55
ATOM     55  C   UNL     1      30.677  38.422  10.459  1.00  0.00     0.165 C 
BRANCH  55  56
ATOM     56  O   UNL     1      29.724  39.450  10.726  1.00  0.00    -0.388 OA
ATOM     57  H   UNL     1      30.122  40.058  11.392  1.00  0.00     0.211 HD
ENDBRANCH  55  56
BRANCH  55  58
ATOM     58  C   UNL     1      31.516  38.348  11.700  1.00  0.00     0.154 C 
BRANCH  58  59
ATOM     59  N   UNL     1      31.985  37.015  11.995  1.00  0.00    -0.319 N 
ATOM     60  C   UNL     1      32.069  36.480  13.315  1.00  0.00     0.407 C 
ATOM     61  H   UNL     1      32.291  36.407  11.219  1.00  0.00     0.167 HD
ATOM     62  O   UNL     1      31.735  37.151  14.290  1.00  0.00    -0.225 OA
BRANCH  60  63
ATOM     63  O   UNL     1      32.536  35.198  13.463  1.00  0.00    -0.443 OA
BRANCH  63  64
ATOM     64  C   UNL     1      32.806  34.606  14.701  1.00  0.00     0.294 C 
BRANCH  64  65
ATOM     65  C   UNL     1      31.670  33.736  15.095  1.00  0.00     0.120 A 
ATOM     66  C   UNL     1      31.442  33.088  16.291  1.00  0.00     0.139 A 
ATOM     67  N   UNL     1      30.623  33.397  14.297  1.00  0.00    -0.132 NA
ATOM     68  N   UNL     1      30.278  32.382  16.193  1.00  0.00    -0.238 N 
ATOM     69  N   UNL     1      29.814  32.599  14.962  1.00  0.00    -0.066 NA
BRANCH  68  70
ATOM     70  C   UNL     1      29.677  31.599  17.210  1.00  0.00     0.219 C 
BRANCH  70  71
ATOM     71  C   UNL     1      28.889  32.264  18.277  1.00  0.00     0.051 C 
BRANCH  71  72
ATOM     72  C   UNL     1      28.314  33.598  18.043  1.00  0.00     0.125 C 
BRANCH  72  73
ATOM     73  C   UNL     1      27.123  33.737  17.231  1.00  0.00     0.303 C 
ATOM     74  O   UNL     1      25.931  33.674  17.580  1.00  0.00    -0.252 OA
BRANCH  73  75
ATOM     75  O   UNL     1      27.277  33.979  15.829  1.00  0.00    -0.481 OA
ATOM     76  H   UNL     1      28.184  33.850  15.409  1.00  0.00     0.296 HD
ENDBRANCH  73  75
ENDBRANCH  72  73
ENDBRANCH  71  72
ENDBRANCH  70  71
BRANCH  70  77
ATOM     77  C   UNL     1      28.807  30.567  16.563  1.00  0.00     0.328 C 
ATOM     78  O   UNL     1      27.693  30.287  17.045  1.00  0.00    -0.250 OA
BRANCH  77  79
ATOM     79  O   UNL     1      29.200  29.893  15.421  1.00  0.00    -0.480 OA
ATOM     80  H   UNL     1      30.035  30.163  14.898  1.00  0.00     0.296 HD
ENDBRANCH  77  79
ENDBRANCH  70  77
ENDBRANCH  68  70
ENDBRANCH  64  65
ENDBRANCH  63  64
ENDBRANCH  60  63
ENDBRANCH  58  59
ENDBRANCH  55  58
ENDBRANCH   1  55
TORSDOF 36
BEGIN_RES LYS A 131
REMARK  4 active torsions:
REMARK  status: ('A' for Active; 'I' for Inactive)
REMARK    1  A    between atoms: CA   and  CB  
REMARK    2  A    between atoms: CB   and  CG  
REMARK    3  A    between atoms: CG   and  CD  
REMARK    4  A    between atoms: CD   and  CE  
ROOT
ATOM      1  CA  LYS A 131      29.867  25.555  16.977  1.00 20.52     0.186 C 
ENDROOT
BRANCH   1   2
ATOM      2  CB  LYS A 131      28.345  25.722  17.026  1.00 20.94     0.034 C 
BRANCH   2   3
ATOM      3  CG  LYS A 131      27.601  24.403  16.888  1.00 22.96     0.005 C 
BRANCH   3   4
ATOM      4  CD  LYS A 131      26.151  24.528  17.263  1.00 24.33     0.041 C 
BRANCH   4   5
ATOM      5  CE  LYS A 131      25.963  24.106  18.717  1.00 26.91     0.338 C 
ATOM      6  NZ  LYS A 131      25.732  25.291  19.576  1.00 27.40     0.618 N 
ENDBRANCH   4   5
ENDBRANCH   3   4
ENDBRANCH   2   3
ENDBRANCH   1   2
END_RES LYS A 131
BEGIN_RES LYS A 135
REMARK  4 active torsions:
REMARK  status: ('A' for Active; 'I' for Inactive)
REMARK    5  A    between atoms: CA   and  CB  
REMARK    6  A    between atoms: CB   and  CG  
REMARK    7  A    between atoms: CG   and  CD  
REMARK    8  A    between atoms: CD   and  CE  
ROOT
ATOM      7  CA  LYS A 135      33.193  34.663   9.290  1.00 25.02     0.186 C 
ENDROOT
BRANCH   7   8
ATOM      8  CB  LYS A 135      32.060  35.360  10.034  1.00 26.63     0.034 C 
BRANCH   8   9
ATOM      9  CG  LYS A 135      30.746  34.626   9.955  1.00 29.45     0.005 C 
BRANCH   9  10
ATOM     10  CD  LYS A 135      30.437  34.232   8.519  1.00 32.00     0.041 C 
BRANCH  10  11
ATOM     11  CE  LYS A 135      29.045  34.689   8.129  1.00 34.25     0.338 C 
ATOM     12  NZ  LYS A 135      29.068  35.439   6.843  1.00 35.99     0.618 N 
ENDBRANCH  10  11
ENDBRANCH   9  10
ENDBRANCH   8   9
ENDBRANCH   7   8
END_RES LYS A 135
