REMARK VINA RESULT:    -4.200      3.334      7.007
REMARK INTER + INTRA:         -22.292
REMARK INTER:                  -9.817
REMARK INTRA:                 -12.475
REMARK UNBOUND:               -10.971
REMARK SMILES C=CCCCCn1cc(COC(=O)NC[C@@H](O)C(O)[C@@H]2O[C@@](OC[C@H]3O[C@@H](O[C@H]4[C@H](O)[C@@H](O)[C@H](OCCN=[N+]=[N-])O[C@@H]4CO)[C@H](O)[C@@H](O)[C@H]3O)(C(=O)O)C[C@H](O)[C@H]2NC(C)=O)nn1
REMARK SMILES IDX 18 1 20 2 22 3 54 4 21 5 55 6 57 7 23 8 24 9 25 10 27 11
REMARK SMILES IDX 26 12 45 13 47 14 49 15 28 16 29 17 42 18 41 19 34 20 30 21
REMARK SMILES IDX 32 22 43 23 44 24 35 26 36 27 37 28 38 29 39 30 40 31 31 32
REMARK SMILES IDX 33 34 46 36 48 38 50 40 51 42 52 43 53 44 56 46 58 48 59 49
REMARK SMILES IDX 60 51 61 52 19 53 16 55 17 56 15 58 14 59 12 60 13 62 11 63
REMARK SMILES IDX 10 64 9 65 8 66 62 67 7 68 63 69 6 70 5 71 4 72 3 73 2 74
REMARK SMILES IDX 1 75
REMARK H PARENT 44 25 31 33 33 35 46 37 48 39 50 41 53 45 56 47 58 50 19 54
REMARK H PARENT 17 57 14 61
REMARK Flexibility Score: inf
ROOT
ATOM      1  C   UNL     1      30.343  32.156  16.966  1.00  0.00     0.176 C 
ENDROOT
BRANCH   1   2
ATOM      2  C   UNL     1      29.254  31.282  17.597  1.00  0.00     0.178 C 
ATOM      3  C   UNL     1      27.046  30.695  17.337  1.00  0.00     0.272 C 
ATOM      4  C   UNL     1      26.853  30.722  18.796  1.00  0.00     0.113 C 
ATOM      5  O   UNL     1      28.083  31.661  17.045  1.00  0.00    -0.332 OA
ATOM      6  C   UNL     1      28.048  30.462  19.605  1.00  0.00     0.145 C 
ATOM      7  C   UNL     1      29.347  30.988  19.017  1.00  0.00     0.142 C 
BRANCH   3   8
ATOM      8  O   UNL     1      26.003  31.262  16.620  1.00  0.00    -0.338 OA
BRANCH   8   9
ATOM      9  C   UNL     1      25.460  32.424  16.924  1.00  0.00     0.199 C 
BRANCH   9  10
ATOM     10  C   UNL     1      24.957  33.349  15.884  1.00  0.00     0.179 C 
ATOM     11  C   UNL     1      25.207  35.576  15.201  1.00  0.00     0.282 C 
ATOM     12  O   UNL     1      25.230  34.691  16.243  1.00  0.00    -0.341 OA
ATOM     13  C   UNL     1      24.521  35.079  13.989  1.00  0.00     0.202 C 
ATOM     14  C   UNL     1      25.005  33.742  13.496  1.00  0.00     0.179 C 
ATOM     15  C   UNL     1      25.747  33.071  14.611  1.00  0.00     0.177 C 
BRANCH  11  16
ATOM     16  O   UNL     1      26.466  36.098  15.065  1.00  0.00    -0.341 OA
BRANCH  16  17
ATOM     17  C   UNL     1      26.737  37.252  15.736  1.00  0.00     0.184 C 
ATOM     18  C   UNL     1      27.461  38.202  14.811  1.00  0.00     0.178 C 
ATOM     19  O   UNL     1      28.476  38.895  15.493  1.00  0.00    -0.341 OA
ATOM     20  C   UNL     1      29.543  38.014  15.640  1.00  0.00     0.281 C 
ATOM     21  C   UNL     1      27.710  37.002  16.912  1.00  0.00     0.180 C 
ATOM     22  C   UNL     1      29.108  36.786  16.382  1.00  0.00     0.202 C 
BRANCH  18  23
ATOM     23  C   UNL     1      26.528  39.177  14.113  1.00  0.00     0.191 C 
BRANCH  23  24
ATOM     24  O   UNL     1      27.198  39.884  13.130  1.00  0.00    -0.394 OA
ATOM     25  H   UNL     1      26.612  40.605  12.799  1.00  0.00     0.210 HD
ENDBRANCH  23  24
ENDBRANCH  18  23
BRANCH  20  26
ATOM     26  O   UNL     1      30.528  38.698  16.355  1.00  0.00    -0.350 OA
BRANCH  26  27
ATOM     27  C   UNL     1      31.625  37.919  16.671  1.00  0.00     0.169 C 
BRANCH  27  28
ATOM     28  C   UNL     1      32.109  38.353  18.043  1.00  0.00     0.119 C 
BRANCH  28  29
ATOM     29  N   UNL     1      31.949  37.311  19.022  1.00  0.00    -0.092 NA
ATOM     30  N   UNL     1      30.865  37.084  19.546  1.00  0.00     0.001 N 
ATOM     31  N   UNL     1      29.698  36.843  19.857  1.00  0.00    -0.003 NA
ENDBRANCH  28  29
ENDBRANCH  27  28
ENDBRANCH  26  27
ENDBRANCH  20  26
BRANCH  21  32
ATOM     32  O   UNL     1      27.722  38.184  17.650  1.00  0.00    -0.387 OA
ATOM     33  H   UNL     1      27.985  38.071  18.586  1.00  0.00     0.211 HD
ENDBRANCH  21  32
BRANCH  22  34
ATOM     34  O   UNL     1      29.168  35.624  15.617  1.00  0.00    -0.385 OA
ATOM     35  H   UNL     1      29.422  34.883  16.230  1.00  0.00     0.211 HD
ENDBRANCH  22  34
ENDBRANCH  16  17
ENDBRANCH  11  16
BRANCH  13  36
ATOM     36  O   UNL     1      23.159  34.954  14.294  1.00  0.00    -0.385 OA
ATOM     37  H   UNL     1      22.726  35.815  14.433  1.00  0.00     0.211 HD
ENDBRANCH  13  36
BRANCH  14  38
ATOM     38  O   UNL     1      25.795  33.855  12.351  1.00  0.00    -0.387 OA
ATOM     39  H   UNL     1      26.607  33.331  12.509  1.00  0.00     0.211 HD
ENDBRANCH  14  38
BRANCH  15  40
ATOM     40  O   UNL     1      27.061  33.541  14.733  1.00  0.00    -0.387 OA
ATOM     41  H   UNL     1      27.549  33.131  15.470  1.00  0.00     0.211 HD
ENDBRANCH  15  40
ENDBRANCH   9  10
ENDBRANCH   8   9
ENDBRANCH   3   8
BRANCH   3  42
ATOM     42  C   UNL     1      27.581  29.428  16.859  1.00  0.00     0.364 C 
ATOM     43  O   UNL     1      28.199  29.355  15.774  1.00  0.00    -0.246 OA
BRANCH  42  44
ATOM     44  O   UNL     1      27.432  28.263  17.551  1.00  0.00    -0.477 OA
ATOM     45  H   UNL     1      27.587  28.203  18.542  1.00  0.00     0.296 HD
ENDBRANCH  42  44
ENDBRANCH   3  42
BRANCH   6  46
ATOM     46  O   UNL     1      27.851  31.013  20.896  1.00  0.00    -0.391 OA
ATOM     47  H   UNL     1      28.457  31.777  21.064  1.00  0.00     0.211 HD
ENDBRANCH   6  46
BRANCH   7  48
ATOM     48  N   UNL     1      30.409  29.990  19.251  1.00  0.00    -0.348 N 
ATOM     49  C   UNL     1      31.181  29.946  20.435  1.00  0.00     0.217 C 
ATOM     50  H   UNL     1      30.645  29.254  18.532  1.00  0.00     0.163 HD
ATOM     51  C   UNL     1      32.261  28.905  20.611  1.00  0.00     0.114 C 
ATOM     52  O   UNL     1      30.954  30.789  21.339  1.00  0.00    -0.275 OA
ENDBRANCH   7  48
ENDBRANCH   1   2
BRANCH   1  53
ATOM     53  O   UNL     1      29.631  32.799  15.822  1.00  0.00    -0.388 OA
ATOM     54  H   UNL     1      28.912  32.105  15.669  1.00  0.00     0.211 HD
ENDBRANCH   1  53
BRANCH   1  55
ATOM     55  C   UNL     1      30.737  33.333  17.738  1.00  0.00     0.165 C 
BRANCH  55  56
ATOM     56  O   UNL     1      29.676  34.165  18.165  1.00  0.00    -0.388 OA
ATOM     57  H   UNL     1      29.347  33.749  18.999  1.00  0.00     0.211 HD
ENDBRANCH  55  56
BRANCH  55  58
ATOM     58  C   UNL     1      31.858  34.169  17.281  1.00  0.00     0.154 C 
BRANCH  58  59
ATOM     59  N   UNL     1      31.984  34.332  15.884  1.00  0.00    -0.319 N 
ATOM     60  C   UNL     1      32.974  34.940  15.103  1.00  0.00     0.407 C 
ATOM     61  H   UNL     1      31.167  33.909  15.301  1.00  0.00     0.167 HD
ATOM     62  O   UNL     1      33.968  35.472  15.623  1.00  0.00    -0.225 OA
BRANCH  60  63
ATOM     63  O   UNL     1      32.883  34.971  13.705  1.00  0.00    -0.443 OA
BRANCH  63  64
ATOM     64  C   UNL     1      32.203  36.072  13.102  1.00  0.00     0.294 C 
BRANCH  64  65
ATOM     65  C   UNL     1      30.781  35.732  12.842  1.00  0.00     0.120 A 
ATOM     66  C   UNL     1      29.855  36.593  12.256  1.00  0.00     0.138 A 
ATOM     67  N   UNL     1      30.114  34.597  13.100  1.00  0.00    -0.132 NA
ATOM     68  N   UNL     1      28.689  35.942  12.190  1.00  0.00    -0.252 N 
ATOM     69  N   UNL     1      28.848  34.747  12.697  1.00  0.00    -0.067 NA
BRANCH  68  70
ATOM     70  C   UNL     1      27.464  36.527  11.627  1.00  0.00     0.146 C 
BRANCH  70  71
ATOM     71  C   UNL     1      27.843  37.483  10.527  1.00  0.00     0.024 C 
BRANCH  71  72
ATOM     72  C   UNL     1      26.573  38.055   9.936  1.00  0.00     0.006 C 
BRANCH  72  73
ATOM     73  C   UNL     1      25.813  36.971   9.205  1.00  0.00     0.027 C 
BRANCH  73  74
ATOM     74  C   UNL     1      26.191  36.917   7.776  1.00  0.00    -0.035 C 
ATOM     75  C   UNL     1      26.438  38.026   7.107  1.00  0.00     0.004 C 
ENDBRANCH  73  74
ENDBRANCH  72  73
ENDBRANCH  71  72
ENDBRANCH  70  71
ENDBRANCH  68  70
ENDBRANCH  64  65
ENDBRANCH  63  64
ENDBRANCH  60  63
ENDBRANCH  58  59
ENDBRANCH  55  58
ENDBRANCH   1  55
TORSDOF 34
BEGIN_RES LYS A 131
REMARK  4 active torsions:
REMARK  status: ('A' for Active; 'I' for Inactive)
REMARK    1  A    between atoms: CA   and  CB  
REMARK    2  A    between atoms: CB   and  CG  
REMARK    3  A    between atoms: CG   and  CD  
REMARK    4  A    between atoms: CD   and  CE  
ROOT
ATOM      1  CA  LYS A 131      29.867  25.555  16.977  1.00 20.52     0.186 C 
ENDROOT
BRANCH   1   2
ATOM      2  CB  LYS A 131      28.345  25.722  17.026  1.00 20.94     0.034 C 
BRANCH   2   3
ATOM      3  CG  LYS A 131      27.600  24.410  16.832  1.00 22.96     0.005 C 
BRANCH   3   4
ATOM      4  CD  LYS A 131      26.178  24.490  17.314  1.00 24.33     0.041 C 
BRANCH   4   5
ATOM      5  CE  LYS A 131      26.057  23.784  18.660  1.00 26.91     0.338 C 
ATOM      6  NZ  LYS A 131      25.392  24.665  19.650  1.00 27.40     0.618 N 
ENDBRANCH   4   5
ENDBRANCH   3   4
ENDBRANCH   2   3
ENDBRANCH   1   2
END_RES LYS A 131
BEGIN_RES LYS A 135
REMARK  4 active torsions:
REMARK  status: ('A' for Active; 'I' for Inactive)
REMARK    5  A    between atoms: CA   and  CB  
REMARK    6  A    between atoms: CB   and  CG  
REMARK    7  A    between atoms: CG   and  CD  
REMARK    8  A    between atoms: CD   and  CE  
ROOT
ATOM      7  CA  LYS A 135      33.193  34.663   9.290  1.00 25.02     0.186 C 
ENDROOT
BRANCH   7   8
ATOM      8  CB  LYS A 135      32.060  35.360  10.034  1.00 26.63     0.034 C 
BRANCH   8   9
ATOM      9  CG  LYS A 135      30.818  35.549   9.201  1.00 29.45     0.005 C 
BRANCH   9  10
ATOM     10  CD  LYS A 135      30.164  34.209   8.902  1.00 32.00     0.041 C 
BRANCH  10  11
ATOM     11  CE  LYS A 135      28.692  34.393   8.587  1.00 34.25     0.338 C 
ATOM     12  NZ  LYS A 135      27.839  33.643   9.550  1.00 35.99     0.618 N 
ENDBRANCH  10  11
ENDBRANCH   9  10
ENDBRANCH   8   9
ENDBRANCH   7   8
END_RES LYS A 135
