REMARK VINA RESULT:    -4.995      2.717      8.107
REMARK INTER + INTRA:         -23.493
REMARK INTER:                 -11.670
REMARK INTRA:                 -11.823
REMARK UNBOUND:               -11.198
REMARK SMILES CC(=O)N[C@@H]1[C@@H](O)C[C@](OC[C@H]2O[C@@H](O[C@H]3[C@H](O)[C@@H](O)[C@H](OCCN=[N+]=[N-])O[C@@H]3CO)[C@H](O)[C@@H](O)[C@H]2O)(C(=O)O)O[C@H]1C(O)[C@H](O)CNC(=O)OCc1cn(C23CC4CC(CC(C4)C2)C3)nn1
REMARK SMILES IDX 9 1 8 2 6 3 5 4 42 5 41 6 10 7 11 8 12 9 14 10 13 11 32 12
REMARK SMILES IDX 34 13 36 14 15 15 16 16 29 17 28 18 21 19 17 20 19 21 30 22
REMARK SMILES IDX 31 23 22 25 23 26 24 27 25 28 26 29 27 30 18 31 20 33 33 35
REMARK SMILES IDX 35 37 37 39 38 41 39 42 40 43 7 45 43 47 44 48 45 50 46 51
REMARK SMILES IDX 47 53 48 54 49 55 50 57 51 58 52 59 53 60 54 61 67 62 55 63
REMARK SMILES IDX 66 64 56 65 65 66 64 67 57 68 60 69 62 70 58 71 59 72 61 73
REMARK SMILES IDX 63 74 4 75 2 76 1 78 3 79
REMARK H PARENT 31 24 18 32 20 34 33 36 35 38 37 40 40 44 7 46 44 49 46 52
REMARK H PARENT 48 56 4 77
REMARK Flexibility Score: inf
ROOT
ATOM      1  C   UNL     1      26.154  40.400   5.691  1.00  0.00     0.272 C 
ATOM      2  C   UNL     1      27.218  39.380   5.908  1.00  0.00     0.113 C 
ATOM      3  C   UNL     1      27.897  39.590   7.246  1.00  0.00     0.145 C 
ATOM      4  C   UNL     1      28.776  40.834   7.055  1.00  0.00     0.142 C 
ATOM      5  C   UNL     1      27.902  41.838   6.364  1.00  0.00     0.178 C 
ATOM      6  O   UNL     1      26.554  41.582   6.413  1.00  0.00    -0.332 OA
ENDROOT
BRANCH   1   7
ATOM      7  O   UNL     1      24.940  40.137   6.156  1.00  0.00    -0.338 OA
BRANCH   7   8
ATOM      8  C   UNL     1      24.170  40.827   6.957  1.00  0.00     0.199 C 
BRANCH   8   9
ATOM      9  C   UNL     1      23.408  40.237   8.097  1.00  0.00     0.179 C 
ATOM     10  C   UNL     1      23.318  38.626   9.660  1.00  0.00     0.282 C 
ATOM     11  O   UNL     1      24.132  39.101   8.610  1.00  0.00    -0.341 OA
ATOM     12  C   UNL     1      23.757  39.371  10.877  1.00  0.00     0.202 C 
ATOM     13  C   UNL     1      24.085  40.789  10.449  1.00  0.00     0.179 C 
ATOM     14  C   UNL     1      23.262  41.216   9.257  1.00  0.00     0.177 C 
BRANCH  10  15
ATOM     15  O   UNL     1      23.400  37.242   9.766  1.00  0.00    -0.341 OA
BRANCH  15  16
ATOM     16  C   UNL     1      22.148  36.705   9.703  1.00  0.00     0.184 C 
ATOM     17  C   UNL     1      21.809  35.643  10.685  1.00  0.00     0.178 C 
ATOM     18  O   UNL     1      20.397  35.573  10.713  1.00  0.00    -0.341 OA
ATOM     19  C   UNL     1      19.900  35.000   9.519  1.00  0.00     0.281 C 
ATOM     20  C   UNL     1      21.853  36.090   8.331  1.00  0.00     0.180 C 
ATOM     21  C   UNL     1      20.414  35.705   8.309  1.00  0.00     0.202 C 
BRANCH  17  22
ATOM     22  C   UNL     1      22.373  35.785  12.048  1.00  0.00     0.191 C 
BRANCH  22  23
ATOM     23  O   UNL     1      21.822  36.945  12.616  1.00  0.00    -0.394 OA
ATOM     24  H   UNL     1      20.940  37.163  12.217  1.00  0.00     0.210 HD
ENDBRANCH  22  23
ENDBRANCH  17  22
BRANCH  19  25
ATOM     25  O   UNL     1      18.536  35.176   9.586  1.00  0.00    -0.350 OA
BRANCH  25  26
ATOM     26  C   UNL     1      18.066  36.412   9.335  1.00  0.00     0.169 C 
BRANCH  26  27
ATOM     27  C   UNL     1      17.220  36.952  10.445  1.00  0.00     0.119 C 
BRANCH  27  28
ATOM     28  N   UNL     1      17.608  38.332  10.759  1.00  0.00    -0.092 NA
ATOM     29  N   UNL     1      18.803  38.566  10.890  1.00  0.00     0.001 N 
ATOM     30  N   UNL     1      19.920  38.936  11.310  1.00  0.00    -0.003 NA
ENDBRANCH  27  28
ENDBRANCH  26  27
ENDBRANCH  25  26
ENDBRANCH  19  25
BRANCH  20  31
ATOM     31  O   UNL     1      22.087  37.004   7.305  1.00  0.00    -0.387 OA
ATOM     32  H   UNL     1      23.037  37.256   7.314  1.00  0.00     0.211 HD
ENDBRANCH  20  31
BRANCH  21  33
ATOM     33  O   UNL     1      20.227  34.889   7.195  1.00  0.00    -0.385 OA
ATOM     34  H   UNL     1      20.914  34.197   7.152  1.00  0.00     0.211 HD
ENDBRANCH  21  33
ENDBRANCH  15  16
ENDBRANCH  10  15
BRANCH  12  35
ATOM     35  O   UNL     1      22.887  39.341  11.939  1.00  0.00    -0.385 OA
ATOM     36  H   UNL     1      23.339  38.992  12.743  1.00  0.00     0.211 HD
ENDBRANCH  12  35
BRANCH  13  37
ATOM     37  O   UNL     1      25.443  40.977  10.222  1.00  0.00    -0.387 OA
ATOM     38  H   UNL     1      25.618  40.921   9.228  1.00  0.00     0.211 HD
ENDBRANCH  13  37
BRANCH  14  39
ATOM     39  O   UNL     1      23.735  42.448   8.831  1.00  0.00    -0.387 OA
ATOM     40  H   UNL     1      24.072  42.995   9.589  1.00  0.00     0.211 HD
ENDBRANCH  14  39
ENDBRANCH   8   9
ENDBRANCH   7   8
ENDBRANCH   1   7
BRANCH   1  41
ATOM     41  C   UNL     1      26.183  40.870   4.296  1.00  0.00     0.364 C 
ATOM     42  O   UNL     1      25.515  41.797   3.819  1.00  0.00    -0.246 OA
BRANCH  41  43
ATOM     43  O   UNL     1      27.079  40.162   3.442  1.00  0.00    -0.477 OA
ATOM     44  H   UNL     1      26.795  39.271   3.094  1.00  0.00     0.296 HD
ENDBRANCH  41  43
ENDBRANCH   1  41
BRANCH   3  45
ATOM     45  O   UNL     1      26.942  39.905   8.204  1.00  0.00    -0.391 OA
ATOM     46  H   UNL     1      26.314  39.140   8.254  1.00  0.00     0.211 HD
ENDBRANCH   3  45
BRANCH   5  47
ATOM     47  C   UNL     1      28.024  43.249   7.056  1.00  0.00     0.176 C 
BRANCH  47  48
ATOM     48  O   UNL     1      29.292  43.133   7.663  1.00  0.00    -0.388 OA
ATOM     49  H   UNL     1      29.755  43.983   7.458  1.00  0.00     0.211 HD
ENDBRANCH  47  48
BRANCH  47  50
ATOM     50  C   UNL     1      26.991  43.401   8.079  1.00  0.00     0.165 C 
BRANCH  50  51
ATOM     51  O   UNL     1      25.785  43.979   7.643  1.00  0.00    -0.388 OA
ATOM     52  H   UNL     1      25.261  43.291   7.135  1.00  0.00     0.211 HD
ENDBRANCH  50  51
BRANCH  50  53
ATOM     53  C   UNL     1      27.376  44.022   9.367  1.00  0.00     0.154 C 
BRANCH  53  54
ATOM     54  N   UNL     1      27.701  43.108  10.400  1.00  0.00    -0.319 N 
ATOM     55  C   UNL     1      28.958  42.845  10.961  1.00  0.00     0.407 C 
ATOM     56  H   UNL     1      26.852  42.542  10.801  1.00  0.00     0.167 HD
ATOM     57  O   UNL     1      29.977  43.425  10.552  1.00  0.00    -0.225 OA
BRANCH  55  58
ATOM     58  O   UNL     1      29.046  41.898  12.009  1.00  0.00    -0.443 OA
BRANCH  58  59
ATOM     59  C   UNL     1      29.808  40.738  11.785  1.00  0.00     0.294 C 
BRANCH  59  60
ATOM     60  C   UNL     1      28.936  39.662  11.289  1.00  0.00     0.120 A 
ATOM     61  C   UNL     1      29.357  38.543  10.618  1.00  0.00     0.138 A 
ATOM     62  N   UNL     1      27.598  39.561  11.390  1.00  0.00    -0.132 NA
ATOM     63  N   UNL     1      28.276  37.810  10.339  1.00  0.00    -0.246 N 
ATOM     64  N   UNL     1      27.227  38.450  10.818  1.00  0.00    -0.066 NA
BRANCH  63  65
ATOM     65  C   UNL     1      28.332  36.545   9.633  1.00  0.00     0.065 C 
ATOM     66  C   UNL     1      29.496  36.572   8.693  1.00  0.00     0.034 C 
ATOM     67  C   UNL     1      28.390  35.399  10.622  1.00  0.00     0.034 C 
ATOM     68  C   UNL     1      27.068  36.362   8.813  1.00  0.00     0.034 C 
ATOM     69  C   UNL     1      29.614  35.260   7.959  1.00  0.00    -0.008 C 
ATOM     70  C   UNL     1      28.572  34.111   9.875  1.00  0.00    -0.008 C 
ATOM     71  C   UNL     1      27.176  35.033   8.103  1.00  0.00    -0.008 C 
ATOM     72  C   UNL     1      28.351  35.031   7.166  1.00  0.00     0.007 C 
ATOM     73  C   UNL     1      29.780  34.168   8.991  1.00  0.00     0.007 C 
ATOM     74  C   UNL     1      27.316  33.874   9.049  1.00  0.00     0.007 C 
ENDBRANCH  63  65
ENDBRANCH  59  60
ENDBRANCH  58  59
ENDBRANCH  55  58
ENDBRANCH  53  54
ENDBRANCH  50  53
ENDBRANCH  47  50
ENDBRANCH   5  47
BRANCH   4  75
ATOM     75  N   UNL     1      29.897  40.460   6.187  1.00  0.00    -0.348 N 
ATOM     76  C   UNL     1      31.239  40.502   6.656  1.00  0.00     0.217 C 
ATOM     77  H   UNL     1      29.718  40.157   5.197  1.00  0.00     0.163 HD
ATOM     78  C   UNL     1      32.379  40.121   5.745  1.00  0.00     0.114 C 
ATOM     79  O   UNL     1      31.443  40.863   7.835  1.00  0.00    -0.275 OA
ENDBRANCH   4  75
TORSDOF 30
BEGIN_RES LYS A 131
REMARK  4 active torsions:
REMARK  status: ('A' for Active; 'I' for Inactive)
REMARK    1  A    between atoms: CA   and  CB  
REMARK    2  A    between atoms: CB   and  CG  
REMARK    3  A    between atoms: CG   and  CD  
REMARK    4  A    between atoms: CD   and  CE  
ROOT
ATOM      1  CA  LYS A 131      29.867  25.555  16.977  1.00 20.52     0.186 C 
ENDROOT
BRANCH   1   2
ATOM      2  CB  LYS A 131      28.345  25.722  17.026  1.00 20.94     0.034 C 
BRANCH   2   3
ATOM      3  CG  LYS A 131      27.601  24.400  16.907  1.00 22.96     0.005 C 
BRANCH   3   4
ATOM      4  CD  LYS A 131      26.473  24.294  17.895  1.00 24.33     0.041 C 
BRANCH   4   5
ATOM      5  CE  LYS A 131      26.393  25.578  18.715  1.00 26.91     0.338 C 
ATOM      6  NZ  LYS A 131      25.051  26.195  18.583  1.00 27.40     0.618 N 
ENDBRANCH   4   5
ENDBRANCH   3   4
ENDBRANCH   2   3
ENDBRANCH   1   2
END_RES LYS A 131
BEGIN_RES LYS A 135
REMARK  4 active torsions:
REMARK  status: ('A' for Active; 'I' for Inactive)
REMARK    5  A    between atoms: CA   and  CB  
REMARK    6  A    between atoms: CB   and  CG  
REMARK    7  A    between atoms: CG   and  CD  
REMARK    8  A    between atoms: CD   and  CE  
ROOT
ATOM      7  CA  LYS A 135      33.193  34.663   9.290  1.00 25.02     0.186 C 
ENDROOT
BRANCH   7   8
ATOM      8  CB  LYS A 135      32.060  35.360  10.034  1.00 26.63     0.034 C 
BRANCH   8   9
ATOM      9  CG  LYS A 135      32.469  35.910  11.376  1.00 29.45     0.005 C 
BRANCH   9  10
ATOM     10  CD  LYS A 135      31.591  35.341  12.480  1.00 32.00     0.041 C 
BRANCH  10  11
ATOM     11  CE  LYS A 135      30.932  36.458  13.265  1.00 34.25     0.338 C 
ATOM     12  NZ  LYS A 135      30.031  35.913  14.319  1.00 35.99     0.618 N 
ENDBRANCH  10  11
ENDBRANCH   9  10
ENDBRANCH   8   9
ENDBRANCH   7   8
END_RES LYS A 135
