REMARK VINA RESULT:    -4.766      5.392     11.534
REMARK INTER + INTRA:         -23.523
REMARK INTER:                 -11.714
REMARK INTRA:                 -11.809
REMARK UNBOUND:               -10.398
REMARK SMILES CC(=O)N[C@@H]1[C@@H](O)C[C@](OC[C@H]2O[C@@H](O[C@H]3[C@H](O)[C@@H](O)[C@H](OCCN=[N+]=[N-])O[C@@H]3CO)[C@H](O)[C@@H](O)[C@H]2O)(C(=O)O)O[C@H]1C(O)[C@H](O)CNC(=O)OCc1cn([C@@H](CCC(=O)O)C(=O)O)nn1
REMARK SMILES IDX 43 1 42 2 9 3 8 4 41 5 6 6 5 7 10 8 11 9 12 10 14 11 13 12
REMARK SMILES IDX 32 13 34 14 36 15 15 16 16 17 29 18 28 19 21 20 17 21 19 22
REMARK SMILES IDX 30 23 31 24 22 26 23 27 24 28 25 29 26 30 27 31 18 32 20 34
REMARK SMILES IDX 33 36 35 38 37 40 38 42 39 43 40 44 7 46 4 48 2 49 1 51 3 52
REMARK SMILES IDX 44 53 45 55 46 56 47 58 48 59 49 60 50 62 51 63 52 64 53 65
REMARK SMILES IDX 54 66 66 67 55 68 65 69 56 70 57 71 58 72 59 73 60 74 61 75
REMARK SMILES IDX 62 77 63 78 64 79
REMARK H PARENT 31 25 18 33 20 35 33 37 35 39 37 41 40 45 7 47 4 50 44 54
REMARK H PARENT 46 57 48 61 61 76 64 80
REMARK Flexibility Score: inf
ROOT
ATOM      1  C   UNL     1      24.854  33.108  13.571  1.00  0.00     0.176 C 
ENDROOT
BRANCH   1   2
ATOM      2  C   UNL     1      23.699  33.900  14.185  1.00  0.00     0.178 C 
ATOM      3  C   UNL     1      21.662  34.750  13.366  1.00  0.00     0.272 C 
ATOM      4  C   UNL     1      21.980  36.157  13.677  1.00  0.00     0.113 C 
ATOM      5  O   UNL     1      22.906  34.155  13.066  1.00  0.00    -0.332 OA
ATOM      6  C   UNL     1      23.434  36.356  14.007  1.00  0.00     0.145 C 
ATOM      7  C   UNL     1      24.126  35.242  14.708  1.00  0.00     0.142 C 
BRANCH   3   8
ATOM      8  O   UNL     1      20.906  34.639  12.217  1.00  0.00    -0.338 OA
BRANCH   8   9
ATOM      9  C   UNL     1      21.300  34.958  11.011  1.00  0.00     0.199 C 
BRANCH   9  10
ATOM     10  C   UNL     1      21.088  36.309  10.387  1.00  0.00     0.179 C 
ATOM     11  C   UNL     1      22.333  37.519   8.829  1.00  0.00     0.282 C 
ATOM     12  O   UNL     1      22.259  36.932  10.065  1.00  0.00    -0.341 OA
ATOM     13  C   UNL     1      22.105  36.456   7.777  1.00  0.00     0.202 C 
ATOM     14  C   UNL     1      20.706  35.944   7.911  1.00  0.00     0.179 C 
ATOM     15  C   UNL     1      20.093  36.220   9.236  1.00  0.00     0.177 C 
BRANCH  11  16
ATOM     16  O   UNL     1      23.620  38.037   8.661  1.00  0.00    -0.341 OA
BRANCH  16  17
ATOM     17  C   UNL     1      24.426  37.969   9.768  1.00  0.00     0.184 C 
ATOM     18  C   UNL     1      24.975  39.340  10.151  1.00  0.00     0.178 C 
ATOM     19  O   UNL     1      26.366  39.310  10.075  1.00  0.00    -0.341 OA
ATOM     20  C   UNL     1      26.770  39.208   8.714  1.00  0.00     0.281 C 
ATOM     21  C   UNL     1      25.614  37.100   9.406  1.00  0.00     0.180 C 
ATOM     22  C   UNL     1      26.365  37.834   8.275  1.00  0.00     0.202 C 
BRANCH  18  23
ATOM     23  C   UNL     1      24.609  39.645  11.593  1.00  0.00     0.191 C 
BRANCH  23  24
ATOM     24  O   UNL     1      25.424  38.978  12.487  1.00  0.00    -0.394 OA
ATOM     25  H   UNL     1      25.115  39.086  13.425  1.00  0.00     0.210 HD
ENDBRANCH  23  24
ENDBRANCH  18  23
BRANCH  20  26
ATOM     26  O   UNL     1      28.106  39.487   8.673  1.00  0.00    -0.350 OA
BRANCH  26  27
ATOM     27  C   UNL     1      28.921  38.442   8.334  1.00  0.00     0.169 C 
BRANCH  27  28
ATOM     28  C   UNL     1      30.041  38.813   7.384  1.00  0.00     0.119 C 
BRANCH  28  29
ATOM     29  N   UNL     1      29.571  38.991   6.024  1.00  0.00    -0.092 NA
ATOM     30  N   UNL     1      28.750  38.258   5.483  1.00  0.00     0.001 N 
ATOM     31  N   UNL     1      27.808  37.597   5.104  1.00  0.00    -0.003 NA
ENDBRANCH  28  29
ENDBRANCH  27  28
ENDBRANCH  26  27
ENDBRANCH  20  26
BRANCH  21  32
ATOM     32  O   UNL     1      26.462  36.872  10.483  1.00  0.00    -0.387 OA
ATOM     33  H   UNL     1      26.833  37.726  10.869  1.00  0.00     0.211 HD
ENDBRANCH  21  32
BRANCH  22  34
ATOM     34  O   UNL     1      25.379  38.001   7.271  1.00  0.00    -0.385 OA
ATOM     35  H   UNL     1      25.783  38.550   6.551  1.00  0.00     0.211 HD
ENDBRANCH  22  34
ENDBRANCH  16  17
ENDBRANCH  11  16
BRANCH  13  36
ATOM     36  O   UNL     1      22.321  36.974   6.499  1.00  0.00    -0.385 OA
ATOM     37  H   UNL     1      22.445  36.173   5.897  1.00  0.00     0.211 HD
ENDBRANCH  13  36
BRANCH  14  38
ATOM     38  O   UNL     1      20.608  34.583   7.603  1.00  0.00    -0.387 OA
ATOM     39  H   UNL     1      21.448  34.123   7.900  1.00  0.00     0.211 HD
ENDBRANCH  14  38
BRANCH  15  40
ATOM     40  O   UNL     1      19.212  35.169   9.499  1.00  0.00    -0.387 OA
ATOM     41  H   UNL     1      19.243  34.912  10.448  1.00  0.00     0.211 HD
ENDBRANCH  15  40
ENDBRANCH   9  10
ENDBRANCH   8   9
ENDBRANCH   3   8
BRANCH   3  42
ATOM     42  C   UNL     1      21.012  33.943  14.391  1.00  0.00     0.364 C 
ATOM     43  O   UNL     1      20.630  34.534  15.466  1.00  0.00    -0.246 OA
BRANCH  42  44
ATOM     44  O   UNL     1      20.741  32.589  14.379  1.00  0.00    -0.477 OA
ATOM     45  H   UNL     1      21.324  31.926  14.834  1.00  0.00     0.296 HD
ENDBRANCH  42  44
ENDBRANCH   3  42
BRANCH   6  46
ATOM     46  O   UNL     1      24.111  36.513  12.765  1.00  0.00    -0.391 OA
ATOM     47  H   UNL     1      23.857  35.796  12.130  1.00  0.00     0.211 HD
ENDBRANCH   6  46
BRANCH   7  48
ATOM     48  N   UNL     1      24.014  35.478  16.105  1.00  0.00    -0.348 N 
ATOM     49  C   UNL     1      24.995  36.146  16.880  1.00  0.00     0.217 C 
ATOM     50  H   UNL     1      23.174  35.183  16.639  1.00  0.00     0.163 HD
ATOM     51  C   UNL     1      24.813  36.358  18.360  1.00  0.00     0.114 C 
ATOM     52  O   UNL     1      26.023  36.569  16.357  1.00  0.00    -0.275 OA
ENDBRANCH   7  48
ENDBRANCH   1   2
BRANCH   1  53
ATOM     53  O   UNL     1      25.280  33.743  12.410  1.00  0.00    -0.388 OA
ATOM     54  H   UNL     1      26.022  33.228  11.995  1.00  0.00     0.211 HD
ENDBRANCH   1  53
BRANCH   1  55
ATOM     55  C   UNL     1      24.640  31.684  13.350  1.00  0.00     0.165 C 
BRANCH  55  56
ATOM     56  O   UNL     1      23.254  31.480  13.079  1.00  0.00    -0.388 OA
ATOM     57  H   UNL     1      23.131  30.525  12.865  1.00  0.00     0.211 HD
ENDBRANCH  55  56
BRANCH  55  58
ATOM     58  C   UNL     1      24.954  30.737  14.469  1.00  0.00     0.154 C 
BRANCH  58  59
ATOM     59  N   UNL     1      25.717  31.343  15.534  1.00  0.00    -0.319 N 
ATOM     60  C   UNL     1      26.618  30.621  16.372  1.00  0.00     0.407 C 
ATOM     61  H   UNL     1      25.608  32.352  15.720  1.00  0.00     0.167 HD
ATOM     62  O   UNL     1      26.790  29.412  16.219  1.00  0.00    -0.225 OA
BRANCH  60  63
ATOM     63  O   UNL     1      27.283  31.312  17.354  1.00  0.00    -0.443 OA
BRANCH  63  64
ATOM     64  C   UNL     1      28.650  31.602  17.312  1.00  0.00     0.294 C 
BRANCH  64  65
ATOM     65  C   UNL     1      28.917  32.590  16.236  1.00  0.00     0.120 A 
ATOM     66  C   UNL     1      28.509  33.903  16.137  1.00  0.00     0.139 A 
ATOM     67  N   UNL     1      29.625  32.346  15.101  1.00  0.00    -0.132 NA
ATOM     68  N   UNL     1      28.973  34.420  14.963  1.00  0.00    -0.238 N 
ATOM     69  N   UNL     1      29.647  33.437  14.364  1.00  0.00    -0.066 NA
BRANCH  68  70
ATOM     70  C   UNL     1      28.793  35.745  14.494  1.00  0.00     0.219 C 
BRANCH  70  71
ATOM     71  C   UNL     1      29.979  36.603  14.249  1.00  0.00     0.051 C 
BRANCH  71  72
ATOM     72  C   UNL     1      31.317  35.997  14.151  1.00  0.00     0.125 C 
BRANCH  72  73
ATOM     73  C   UNL     1      31.857  35.650  12.853  1.00  0.00     0.303 C 
ATOM     74  O   UNL     1      32.654  36.289  12.145  1.00  0.00    -0.252 OA
BRANCH  73  75
ATOM     75  O   UNL     1      31.455  34.413  12.255  1.00  0.00    -0.481 OA
ATOM     76  H   UNL     1      31.803  33.550  12.642  1.00  0.00     0.296 HD
ENDBRANCH  73  75
ENDBRANCH  72  73
ENDBRANCH  71  72
ENDBRANCH  70  71
BRANCH  70  77
ATOM     77  C   UNL     1      27.985  35.697  13.235  1.00  0.00     0.328 C 
ATOM     78  O   UNL     1      26.967  36.405  13.110  1.00  0.00    -0.250 OA
BRANCH  77  79
ATOM     79  O   UNL     1      28.330  34.877  12.176  1.00  0.00    -0.480 OA
ATOM     80  H   UNL     1      29.288  34.548  12.041  1.00  0.00     0.296 HD
ENDBRANCH  77  79
ENDBRANCH  70  77
ENDBRANCH  68  70
ENDBRANCH  64  65
ENDBRANCH  63  64
ENDBRANCH  60  63
ENDBRANCH  58  59
ENDBRANCH  55  58
ENDBRANCH   1  55
TORSDOF 36
BEGIN_RES LYS A 131
REMARK  4 active torsions:
REMARK  status: ('A' for Active; 'I' for Inactive)
REMARK    1  A    between atoms: CA   and  CB  
REMARK    2  A    between atoms: CB   and  CG  
REMARK    3  A    between atoms: CG   and  CD  
REMARK    4  A    between atoms: CD   and  CE  
ROOT
ATOM      1  CA  LYS A 131      29.867  25.555  16.977  1.00 20.52     0.186 C 
ENDROOT
BRANCH   1   2
ATOM      2  CB  LYS A 131      28.345  25.722  17.026  1.00 20.94     0.034 C 
BRANCH   2   3
ATOM      3  CG  LYS A 131      27.601  24.401  16.902  1.00 22.96     0.005 C 
BRANCH   3   4
ATOM      4  CD  LYS A 131      26.197  24.490  17.430  1.00 24.33     0.041 C 
BRANCH   4   5
ATOM      5  CE  LYS A 131      26.142  25.512  18.561  1.00 26.91     0.338 C 
ATOM      6  NZ  LYS A 131      25.508  24.923  19.764  1.00 27.40     0.618 N 
ENDBRANCH   4   5
ENDBRANCH   3   4
ENDBRANCH   2   3
ENDBRANCH   1   2
END_RES LYS A 131
BEGIN_RES LYS A 135
REMARK  4 active torsions:
REMARK  status: ('A' for Active; 'I' for Inactive)
REMARK    5  A    between atoms: CA   and  CB  
REMARK    6  A    between atoms: CB   and  CG  
REMARK    7  A    between atoms: CG   and  CD  
REMARK    8  A    between atoms: CD   and  CE  
ROOT
ATOM      7  CA  LYS A 135      33.193  34.663   9.290  1.00 25.02     0.186 C 
ENDROOT
BRANCH   7   8
ATOM      8  CB  LYS A 135      32.060  35.360  10.034  1.00 26.63     0.034 C 
BRANCH   8   9
ATOM      9  CG  LYS A 135      30.812  35.531   9.207  1.00 29.45     0.005 C 
BRANCH   9  10
ATOM     10  CD  LYS A 135      30.159  34.184   8.936  1.00 32.00     0.041 C 
BRANCH  10  11
ATOM     11  CE  LYS A 135      28.658  34.341   8.785  1.00 34.25     0.338 C 
ATOM     12  NZ  LYS A 135      28.315  35.000   7.494  1.00 35.99     0.618 N 
ENDBRANCH  10  11
ENDBRANCH   9  10
ENDBRANCH   8   9
ENDBRANCH   7   8
END_RES LYS A 135
