REMARK VINA RESULT:    -5.278      3.904      9.413
REMARK INTER + INTRA:         -23.152
REMARK INTER:                  -9.699
REMARK INTRA:                 -13.454
REMARK UNBOUND:                -9.852
REMARK SMILES CC(=O)N[C@@H]1[C@@H](O)C[C@](OC[C@H]2O[C@@H](O[C@H]3[C@H](O)[C@@H](O)[C@H](OCCN=[N+]=[N-])O[C@@H]3CO)[C@H](O)[C@@H](O)[C@H]2O)(C(=O)O)O[C@H]1C(O)[C@H](O)CNC(=O)OCc1cn(Cc2ccc3c(c2)OCO3)nn1
REMARK SMILES IDX 9 1 8 2 6 3 5 4 42 5 41 6 10 7 11 8 12 9 14 10 13 11 32 12
REMARK SMILES IDX 34 13 36 14 15 15 16 16 29 17 28 18 21 19 17 20 19 21 30 22
REMARK SMILES IDX 31 23 22 25 23 26 24 27 25 28 26 29 27 30 18 31 20 33 33 35
REMARK SMILES IDX 35 37 37 39 38 41 39 42 40 43 7 45 43 47 44 48 45 50 46 51
REMARK SMILES IDX 47 53 48 54 49 55 50 57 51 58 52 59 53 60 54 61 67 62 55 63
REMARK SMILES IDX 66 64 56 65 57 66 58 67 62 68 59 69 61 70 60 71 63 72 65 73
REMARK SMILES IDX 64 74 4 75 2 76 1 78 3 79
REMARK H PARENT 31 24 18 32 20 34 33 36 35 38 37 40 40 44 7 46 44 49 46 52
REMARK H PARENT 48 56 4 77
REMARK Flexibility Score: inf
ROOT
ATOM      1  C   UNL     1      30.865  29.838  21.410  1.00  0.00     0.272 C 
ATOM      2  C   UNL     1      31.960  29.149  20.619  1.00  0.00     0.113 C 
ATOM      3  C   UNL     1      31.811  27.663  20.754  1.00  0.00     0.145 C 
ATOM      4  C   UNL     1      32.008  27.344  22.260  1.00  0.00     0.142 C 
ATOM      5  C   UNL     1      31.043  28.182  23.018  1.00  0.00     0.178 C 
ATOM      6  O   UNL     1      30.199  28.952  22.220  1.00  0.00    -0.332 OA
ENDROOT
BRANCH   1   7
ATOM      7  O   UNL     1      29.984  30.510  20.547  1.00  0.00    -0.338 OA
BRANCH   7   8
ATOM      8  C   UNL     1      30.519  31.463  19.747  1.00  0.00     0.199 C 
BRANCH   8   9
ATOM      9  C   UNL     1      29.611  32.703  19.792  1.00  0.00     0.179 C 
ATOM     10  C   UNL     1      28.059  33.788  21.097  1.00  0.00     0.282 C 
ATOM     11  O   UNL     1      28.758  32.605  20.857  1.00  0.00    -0.341 OA
ATOM     12  C   UNL     1      29.063  34.853  21.548  1.00  0.00     0.202 C 
ATOM     13  C   UNL     1      30.425  34.676  20.983  1.00  0.00     0.179 C 
ATOM     14  C   UNL     1      30.382  33.968  19.672  1.00  0.00     0.177 C 
BRANCH  10  15
ATOM     15  O   UNL     1      27.204  33.602  22.109  1.00  0.00    -0.341 OA
BRANCH  15  16
ATOM     16  C   UNL     1      27.104  32.400  22.742  1.00  0.00     0.184 C 
ATOM     17  C   UNL     1      25.809  31.677  22.499  1.00  0.00     0.178 C 
ATOM     18  O   UNL     1      25.050  31.546  23.615  1.00  0.00    -0.341 OA
ATOM     19  C   UNL     1      25.629  30.817  24.673  1.00  0.00     0.281 C 
ATOM     20  C   UNL     1      27.324  32.601  24.218  1.00  0.00     0.180 C 
ATOM     21  C   UNL     1      27.046  31.285  24.916  1.00  0.00     0.202 C 
BRANCH  17  22
ATOM     22  C   UNL     1      26.107  30.319  21.913  1.00  0.00     0.191 C 
BRANCH  22  23
ATOM     23  O   UNL     1      27.482  30.217  21.578  1.00  0.00    -0.394 OA
ATOM     24  H   UNL     1      27.639  30.311  20.610  1.00  0.00     0.210 HD
ENDBRANCH  22  23
ENDBRANCH  17  22
BRANCH  19  25
ATOM     25  O   UNL     1      25.493  29.478  24.492  1.00  0.00    -0.350 OA
BRANCH  25  26
ATOM     26  C   UNL     1      24.465  28.770  24.955  1.00  0.00     0.169 C 
BRANCH  26  27
ATOM     27  C   UNL     1      24.790  27.611  25.843  1.00  0.00     0.119 C 
BRANCH  27  28
ATOM     28  N   UNL     1      25.829  27.815  26.790  1.00  0.00    -0.092 NA
ATOM     29  N   UNL     1      25.793  28.648  27.691  1.00  0.00     0.001 N 
ATOM     30  N   UNL     1      25.770  29.761  28.245  1.00  0.00    -0.003 NA
ENDBRANCH  27  28
ENDBRANCH  26  27
ENDBRANCH  25  26
ENDBRANCH  19  25
BRANCH  20  31
ATOM     31  O   UNL     1      28.662  32.936  24.412  1.00  0.00    -0.387 OA
ATOM     32  H   UNL     1      28.793  33.919  24.431  1.00  0.00     0.211 HD
ENDBRANCH  20  31
BRANCH  21  33
ATOM     33  O   UNL     1      27.258  31.515  26.273  1.00  0.00    -0.385 OA
ATOM     34  H   UNL     1      27.304  32.493  26.450  1.00  0.00     0.211 HD
ENDBRANCH  21  33
ENDBRANCH  15  16
ENDBRANCH  10  15
BRANCH  12  35
ATOM     35  O   UNL     1      28.570  36.127  21.268  1.00  0.00    -0.385 OA
ATOM     36  H   UNL     1      28.135  36.508  22.049  1.00  0.00     0.211 HD
ENDBRANCH  12  35
BRANCH  13  37
ATOM     37  O   UNL     1      31.320  34.088  21.864  1.00  0.00    -0.387 OA
ATOM     38  H   UNL     1      31.798  33.359  21.391  1.00  0.00     0.211 HD
ENDBRANCH  13  37
BRANCH  14  39
ATOM     39  O   UNL     1      31.705  33.727  19.273  1.00  0.00    -0.387 OA
ATOM     40  H   UNL     1      32.223  34.541  19.426  1.00  0.00     0.211 HD
ENDBRANCH  14  39
ENDBRANCH   8   9
ENDBRANCH   7   8
ENDBRANCH   1   7
BRANCH   1  41
ATOM     41  C   UNL     1      31.463  30.906  22.231  1.00  0.00     0.364 C 
ATOM     42  O   UNL     1      32.667  31.193  22.200  1.00  0.00    -0.246 OA
BRANCH  41  43
ATOM     43  O   UNL     1      30.682  31.667  23.105  1.00  0.00    -0.477 OA
ATOM     44  H   UNL     1      29.984  32.332  22.732  1.00  0.00     0.296 HD
ENDBRANCH  41  43
ENDBRANCH   1  41
BRANCH   3  45
ATOM     45  O   UNL     1      30.598  27.135  20.421  1.00  0.00    -0.391 OA
ATOM     46  H   UNL     1      29.826  27.595  20.838  1.00  0.00     0.211 HD
ENDBRANCH   3  45
BRANCH   5  47
ATOM     47  C   UNL     1      30.055  27.283  23.801  1.00  0.00     0.176 C 
BRANCH  47  48
ATOM     48  O   UNL     1      30.546  26.887  25.008  1.00  0.00    -0.388 OA
ATOM     49  H   UNL     1      30.227  27.492  25.718  1.00  0.00     0.211 HD
ENDBRANCH  47  48
BRANCH  47  50
ATOM     50  C   UNL     1      28.664  27.741  23.828  1.00  0.00     0.165 C 
BRANCH  50  51
ATOM     51  O   UNL     1      28.175  28.101  25.091  1.00  0.00    -0.388 OA
ATOM     52  H   UNL     1      28.717  28.836  25.479  1.00  0.00     0.211 HD
ENDBRANCH  50  51
BRANCH  50  53
ATOM     53  C   UNL     1      27.640  26.840  23.193  1.00  0.00     0.154 C 
BRANCH  53  54
ATOM     54  N   UNL     1      27.755  27.008  21.734  1.00  0.00    -0.319 N 
ATOM     55  C   UNL     1      26.629  26.873  20.872  1.00  0.00     0.407 C 
ATOM     56  H   UNL     1      28.679  27.228  21.348  1.00  0.00     0.167 HD
ATOM     57  O   UNL     1      25.523  26.603  21.412  1.00  0.00    -0.225 OA
BRANCH  55  58
ATOM     58  O   UNL     1      26.705  27.023  19.509  1.00  0.00    -0.443 OA
BRANCH  58  59
ATOM     59  C   UNL     1      25.827  27.885  18.823  1.00  0.00     0.294 C 
BRANCH  59  60
ATOM     60  C   UNL     1      26.628  28.927  18.139  1.00  0.00     0.120 A 
ATOM     61  C   UNL     1      27.313  28.831  16.933  1.00  0.00     0.138 A 
ATOM     62  N   UNL     1      26.861  30.186  18.562  1.00  0.00    -0.132 NA
ATOM     63  N   UNL     1      27.917  30.007  16.678  1.00  0.00    -0.248 N 
ATOM     64  N   UNL     1      27.629  30.804  17.675  1.00  0.00    -0.067 NA
BRANCH  63  65
ATOM     65  C   UNL     1      28.714  30.303  15.525  1.00  0.00     0.181 C 
BRANCH  65  66
ATOM     66  C   UNL     1      29.462  31.579  15.613  1.00  0.00    -0.023 A 
ATOM     67  C   UNL     1      30.759  31.584  16.023  1.00  0.00     0.010 A 
ATOM     68  C   UNL     1      28.836  32.785  15.278  1.00  0.00     0.056 A 
ATOM     69  C   UNL     1      31.433  32.777  16.100  1.00  0.00     0.051 A 
ATOM     70  C   UNL     1      29.496  33.981  15.351  1.00  0.00     0.166 A 
ATOM     71  C   UNL     1      30.813  33.952  15.771  1.00  0.00     0.165 A 
ATOM     72  O   UNL     1      29.192  35.307  15.105  1.00  0.00    -0.454 OA
ATOM     73  O   UNL     1      31.315  35.260  15.782  1.00  0.00    -0.454 OA
ATOM     74  C   UNL     1      30.415  36.033  15.017  1.00  0.00     0.468 C 
ENDBRANCH  65  66
ENDBRANCH  63  65
ENDBRANCH  59  60
ENDBRANCH  58  59
ENDBRANCH  55  58
ENDBRANCH  53  54
ENDBRANCH  50  53
ENDBRANCH  47  50
ENDBRANCH   5  47
BRANCH   4  75
ATOM     75  N   UNL     1      33.397  27.613  22.501  1.00  0.00    -0.348 N 
ATOM     76  C   UNL     1      34.014  27.018  23.652  1.00  0.00     0.217 C 
ATOM     77  H   UNL     1      34.031  28.201  21.929  1.00  0.00     0.163 HD
ATOM     78  C   UNL     1      35.466  27.286  23.931  1.00  0.00     0.114 C 
ATOM     79  O   UNL     1      33.348  26.280  24.417  1.00  0.00    -0.275 OA
ENDBRANCH   4  75
TORSDOF 31
BEGIN_RES LYS A 131
REMARK  4 active torsions:
REMARK  status: ('A' for Active; 'I' for Inactive)
REMARK    1  A    between atoms: CA   and  CB  
REMARK    2  A    between atoms: CB   and  CG  
REMARK    3  A    between atoms: CG   and  CD  
REMARK    4  A    between atoms: CD   and  CE  
ROOT
ATOM      1  CA  LYS A 131      29.867  25.555  16.977  1.00 20.52     0.186 C 
ENDROOT
BRANCH   1   2
ATOM      2  CB  LYS A 131      28.345  25.722  17.026  1.00 20.94     0.034 C 
BRANCH   2   3
ATOM      3  CG  LYS A 131      27.599  24.425  16.753  1.00 22.96     0.005 C 
BRANCH   3   4
ATOM      4  CD  LYS A 131      26.658  24.067  17.869  1.00 24.33     0.041 C 
BRANCH   4   5
ATOM      5  CE  LYS A 131      25.229  24.407  17.458  1.00 26.91     0.338 C 
ATOM      6  NZ  LYS A 131      24.357  24.514  18.652  1.00 27.40     0.618 N 
ENDBRANCH   4   5
ENDBRANCH   3   4
ENDBRANCH   2   3
ENDBRANCH   1   2
END_RES LYS A 131
BEGIN_RES LYS A 135
REMARK  4 active torsions:
REMARK  status: ('A' for Active; 'I' for Inactive)
REMARK    5  A    between atoms: CA   and  CB  
REMARK    6  A    between atoms: CB   and  CG  
REMARK    7  A    between atoms: CG   and  CD  
REMARK    8  A    between atoms: CD   and  CE  
ROOT
ATOM      7  CA  LYS A 135      33.193  34.663   9.290  1.00 25.02     0.186 C 
ENDROOT
BRANCH   7   8
ATOM      8  CB  LYS A 135      32.060  35.360  10.034  1.00 26.63     0.034 C 
BRANCH   8   9
ATOM      9  CG  LYS A 135      30.844  35.612   9.180  1.00 29.45     0.005 C 
BRANCH   9  10
ATOM     10  CD  LYS A 135      30.263  34.301   8.674  1.00 32.00     0.041 C 
BRANCH  10  11
ATOM     11  CE  LYS A 135      28.760  34.414   8.508  1.00 34.25     0.338 C 
ATOM     12  NZ  LYS A 135      28.044  33.712   9.609  1.00 35.99     0.618 N 
ENDBRANCH  10  11
ENDBRANCH   9  10
ENDBRANCH   8   9
ENDBRANCH   7   8
END_RES LYS A 135
