REMARK VINA RESULT:    -3.731      4.499     10.673
REMARK INTER + INTRA:         -22.100
REMARK INTER:                 -12.529
REMARK INTRA:                  -9.571
REMARK UNBOUND:               -12.699
REMARK SMILES CC(=O)N[C@@H]1[C@@H](O)C[C@](OC[C@H]2O[C@@H](O[C@H]3[C@H](O)[C@@H](O)[C@H](OCCN=[N+]=[N-])O[C@@H]3CO)[C@H](O)[C@@H](O)[C@H]2O)(C(=O)O)O[C@H]1C(O)[C@H](O)CNC(=O)OCc1cn(Cc2ccc(Br)cc2)nn1
REMARK SMILES IDX 9 1 8 2 6 3 5 4 42 5 41 6 10 7 11 8 12 9 14 10 13 11 32 12
REMARK SMILES IDX 34 13 36 14 15 15 16 16 29 17 28 18 21 19 17 20 19 21 30 22
REMARK SMILES IDX 31 23 22 25 23 26 24 27 25 28 26 29 27 30 18 31 20 33 33 35
REMARK SMILES IDX 35 37 37 39 38 41 39 42 40 43 7 45 43 47 44 48 45 50 46 51
REMARK SMILES IDX 47 53 48 54 49 55 50 57 51 58 52 59 53 60 54 61 65 62 55 63
REMARK SMILES IDX 64 64 56 65 57 66 58 67 63 68 59 69 62 70 60 71 61 72 4 73
REMARK SMILES IDX 2 74 1 76 3 77
REMARK H PARENT 31 24 18 32 20 34 33 36 35 38 37 40 40 44 7 46 44 49 46 52
REMARK H PARENT 48 56 4 75
REMARK Flexibility Score: inf
ROOT
ATOM      1  C   UNL     1      23.517  37.970   8.136  1.00  0.00     0.272 C 
ATOM      2  C   UNL     1      22.824  37.029   7.218  1.00  0.00     0.113 C 
ATOM      3  C   UNL     1      21.642  36.295   7.713  1.00  0.00     0.145 C 
ATOM      4  C   UNL     1      21.550  36.222   9.261  1.00  0.00     0.142 C 
ATOM      5  C   UNL     1      22.997  36.262   9.669  1.00  0.00     0.178 C 
ATOM      6  O   UNL     1      23.333  37.633   9.488  1.00  0.00    -0.332 OA
ENDROOT
BRANCH   1   7
ATOM      7  O   UNL     1      23.494  39.279   7.912  1.00  0.00    -0.338 OA
BRANCH   7   8
ATOM      8  C   UNL     1      23.405  40.351   8.604  1.00  0.00     0.199 C 
BRANCH   8   9
ATOM      9  C   UNL     1      24.576  41.302   8.532  1.00  0.00     0.179 C 
ATOM     10  C   UNL     1      26.761  41.621   9.053  1.00  0.00     0.282 C 
ATOM     11  O   UNL     1      25.647  40.891   9.280  1.00  0.00    -0.341 OA
ATOM     12  C   UNL     1      26.581  42.914   8.279  1.00  0.00     0.202 C 
ATOM     13  C   UNL     1      25.778  42.702   7.015  1.00  0.00     0.179 C 
ATOM     14  C   UNL     1      25.062  41.360   7.075  1.00  0.00     0.177 C 
BRANCH  10  15
ATOM     15  O   UNL     1      27.838  40.990   8.527  1.00  0.00    -0.341 OA
BRANCH  15  16
ATOM     16  C   UNL     1      28.426  39.917   9.073  1.00  0.00     0.184 C 
ATOM     17  C   UNL     1      28.781  40.004  10.522  1.00  0.00     0.178 C 
ATOM     18  O   UNL     1      30.125  39.953  10.772  1.00  0.00    -0.341 OA
ATOM     19  C   UNL     1      30.743  38.780  10.364  1.00  0.00     0.281 C 
ATOM     20  C   UNL     1      29.672  39.570   8.286  1.00  0.00     0.180 C 
ATOM     21  C   UNL     1      30.332  38.393   8.957  1.00  0.00     0.202 C 
BRANCH  17  22
ATOM     22  C   UNL     1      28.023  38.943  11.287  1.00  0.00     0.191 C 
BRANCH  22  23
ATOM     23  O   UNL     1      28.173  39.108  12.679  1.00  0.00    -0.394 OA
ATOM     24  H   UNL     1      27.850  38.328  13.164  1.00  0.00     0.210 HD
ENDBRANCH  22  23
ENDBRANCH  17  22
BRANCH  19  25
ATOM     25  O   UNL     1      30.583  37.720  11.241  1.00  0.00    -0.350 OA
BRANCH  25  26
ATOM     26  C   UNL     1      31.561  37.584  12.190  1.00  0.00     0.169 C 
BRANCH  26  27
ATOM     27  C   UNL     1      31.041  37.454  13.592  1.00  0.00     0.119 C 
BRANCH  27  28
ATOM     28  N   UNL     1      29.824  36.652  13.600  1.00  0.00    -0.092 NA
ATOM     29  N   UNL     1      29.338  36.283  14.667  1.00  0.00     0.001 N 
ATOM     30  N   UNL     1      28.868  35.664  15.649  1.00  0.00    -0.003 NA
ENDBRANCH  27  28
ENDBRANCH  26  27
ENDBRANCH  25  26
ENDBRANCH  19  25
BRANCH  20  31
ATOM     31  O   UNL     1      29.235  39.130   7.020  1.00  0.00    -0.387 OA
ATOM     32  H   UNL     1      29.030  38.155   7.055  1.00  0.00     0.211 HD
ENDBRANCH  20  31
BRANCH  21  33
ATOM     33  O   UNL     1      31.405  37.900   8.221  1.00  0.00    -0.385 OA
ATOM     34  H   UNL     1      31.904  37.280   8.811  1.00  0.00     0.211 HD
ENDBRANCH  21  33
ENDBRANCH  15  16
ENDBRANCH  10  15
BRANCH  12  35
ATOM     35  O   UNL     1      26.003  43.930   9.021  1.00  0.00    -0.385 OA
ATOM     36  H   UNL     1      26.369  44.827   8.847  1.00  0.00     0.211 HD
ENDBRANCH  12  35
BRANCH  13  37
ATOM     37  O   UNL     1      26.542  42.802   5.859  1.00  0.00    -0.387 OA
ATOM     38  H   UNL     1      27.057  41.962   5.779  1.00  0.00     0.211 HD
ENDBRANCH  13  37
BRANCH  14  39
ATOM     39  O   UNL     1      25.957  40.295   6.924  1.00  0.00    -0.387 OA
ATOM     40  H   UNL     1      25.969  39.755   7.738  1.00  0.00     0.211 HD
ENDBRANCH  14  39
ENDBRANCH   8   9
ENDBRANCH   7   8
ENDBRANCH   1   7
BRANCH   1  41
ATOM     41  C   UNL     1      25.012  37.657   7.958  1.00  0.00     0.364 C 
ATOM     42  O   UNL     1      25.759  37.848   8.915  1.00  0.00    -0.246 OA
BRANCH  41  43
ATOM     43  O   UNL     1      25.532  37.179   6.784  1.00  0.00    -0.477 OA
ATOM     44  H   UNL     1      25.005  36.472   6.246  1.00  0.00     0.296 HD
ENDBRANCH  41  43
ENDBRANCH   1  41
BRANCH   3  45
ATOM     45  O   UNL     1      20.420  36.647   7.163  1.00  0.00    -0.391 OA
ATOM     46  H   UNL     1      20.340  37.625   7.185  1.00  0.00     0.211 HD
ENDBRANCH   3  45
BRANCH   5  47
ATOM     47  C   UNL     1      23.338  35.849  11.051  1.00  0.00     0.176 C 
BRANCH  47  48
ATOM     48  O   UNL     1      23.180  34.520  11.270  1.00  0.00    -0.388 OA
ATOM     49  H   UNL     1      22.258  34.257  11.363  1.00  0.00     0.211 HD
ENDBRANCH  47  48
BRANCH  47  50
ATOM     50  C   UNL     1      24.504  36.444  11.723  1.00  0.00     0.165 C 
BRANCH  50  51
ATOM     51  O   UNL     1      25.711  36.159  11.065  1.00  0.00    -0.388 OA
ATOM     52  H   UNL     1      26.426  36.791  11.231  1.00  0.00     0.211 HD
ENDBRANCH  50  51
BRANCH  50  53
ATOM     53  C   UNL     1      24.650  36.336  13.187  1.00  0.00     0.154 C 
BRANCH  53  54
ATOM     54  N   UNL     1      24.483  34.999  13.731  1.00  0.00    -0.319 N 
ATOM     55  C   UNL     1      25.552  34.067  13.764  1.00  0.00     0.407 C 
ATOM     56  H   UNL     1      23.572  34.658  14.127  1.00  0.00     0.167 HD
ATOM     57  O   UNL     1      26.697  34.401  13.320  1.00  0.00    -0.225 OA
BRANCH  55  58
ATOM     58  O   UNL     1      25.428  32.773  14.261  1.00  0.00    -0.443 OA
BRANCH  58  59
ATOM     59  C   UNL     1      25.657  32.513  15.659  1.00  0.00     0.294 C 
BRANCH  59  60
ATOM     60  C   UNL     1      26.825  31.646  15.883  1.00  0.00     0.120 A 
ATOM     61  C   UNL     1      28.128  32.084  16.020  1.00  0.00     0.138 A 
ATOM     62  N   UNL     1      26.852  30.317  15.988  1.00  0.00    -0.132 NA
ATOM     63  N   UNL     1      28.905  31.010  16.204  1.00  0.00    -0.248 N 
ATOM     64  N   UNL     1      28.109  29.961  16.179  1.00  0.00    -0.067 NA
BRANCH  63  65
ATOM     65  C   UNL     1      30.338  30.958  16.416  1.00  0.00     0.181 C 
BRANCH  65  66
ATOM     66  C   UNL     1      30.996  32.284  16.381  1.00  0.00    -0.026 A 
ATOM     67  C   UNL     1      31.060  33.014  17.571  1.00  0.00     0.007 A 
ATOM     68  C   UNL     1      31.558  32.835  15.266  1.00  0.00     0.007 A 
ATOM     69  C   UNL     1      31.677  34.254  17.595  1.00  0.00     0.016 A 
ATOM     70  C   UNL     1      32.184  34.083  15.277  1.00  0.00     0.016 A 
ATOM     71  C   UNL     1      32.239  34.787  16.449  1.00  0.00     0.017 A 
ATOM     72  Br  UNL     1      33.092  36.510  16.522  1.00  0.00    -0.051 Br
ENDBRANCH  65  66
ENDBRANCH  63  65
ENDBRANCH  59  60
ENDBRANCH  58  59
ENDBRANCH  55  58
ENDBRANCH  53  54
ENDBRANCH  50  53
ENDBRANCH  47  50
ENDBRANCH   5  47
BRANCH   4  73
ATOM     73  N   UNL     1      20.801  35.080   9.640  1.00  0.00    -0.348 N 
ATOM     74  C   UNL     1      19.424  35.192   9.951  1.00  0.00     0.217 C 
ATOM     75  H   UNL     1      21.248  34.148   9.676  1.00  0.00     0.163 HD
ATOM     76  C   UNL     1      18.553  34.082  10.346  1.00  0.00     0.114 C 
ATOM     77  O   UNL     1      18.886  36.355   9.883  1.00  0.00    -0.275 OA
ENDBRANCH   4  73
TORSDOF 31
BEGIN_RES LYS A 131
REMARK  4 active torsions:
REMARK  status: ('A' for Active; 'I' for Inactive)
REMARK    1  A    between atoms: CA   and  CB  
REMARK    2  A    between atoms: CB   and  CG  
REMARK    3  A    between atoms: CG   and  CD  
REMARK    4  A    between atoms: CD   and  CE  
ROOT
ATOM      1  CA  LYS A 131      29.867  25.555  16.977  1.00 20.52     0.186 C 
ENDROOT
BRANCH   1   2
ATOM      2  CB  LYS A 131      28.345  25.722  17.026  1.00 20.94     0.034 C 
BRANCH   2   3
ATOM      3  CG  LYS A 131      27.601  24.404  16.875  1.00 22.96     0.005 C 
BRANCH   3   4
ATOM      4  CD  LYS A 131      26.523  24.240  17.910  1.00 24.33     0.041 C 
BRANCH   4   5
ATOM      5  CE  LYS A 131      25.208  23.883  17.224  1.00 26.91     0.338 C 
ATOM      6  NZ  LYS A 131      24.832  22.481  17.522  1.00 27.40     0.618 N 
ENDBRANCH   4   5
ENDBRANCH   3   4
ENDBRANCH   2   3
ENDBRANCH   1   2
END_RES LYS A 131
BEGIN_RES LYS A 135
REMARK  4 active torsions:
REMARK  status: ('A' for Active; 'I' for Inactive)
REMARK    5  A    between atoms: CA   and  CB  
REMARK    6  A    between atoms: CB   and  CG  
REMARK    7  A    between atoms: CG   and  CD  
REMARK    8  A    between atoms: CD   and  CE  
ROOT
ATOM      7  CA  LYS A 135      33.193  34.663   9.290  1.00 25.02     0.186 C 
ENDROOT
BRANCH   7   8
ATOM      8  CB  LYS A 135      32.060  35.360  10.034  1.00 26.63     0.034 C 
BRANCH   8   9
ATOM      9  CG  LYS A 135      30.709  34.735   9.797  1.00 29.45     0.005 C 
BRANCH   9  10
ATOM     10  CD  LYS A 135      30.500  34.454   8.317  1.00 32.00     0.041 C 
BRANCH  10  11
ATOM     11  CE  LYS A 135      29.145  34.963   7.865  1.00 34.25     0.338 C 
ATOM     12  NZ  LYS A 135      28.055  34.420   8.721  1.00 35.99     0.618 N 
ENDBRANCH  10  11
ENDBRANCH   9  10
ENDBRANCH   8   9
ENDBRANCH   7   8
END_RES LYS A 135
