REMARK VINA RESULT:    -4.434      3.756      6.903
REMARK INTER + INTRA:         -24.473
REMARK INTER:                 -12.205
REMARK INTRA:                 -12.268
REMARK UNBOUND:               -12.132
REMARK SMILES CCOCCc1c(-c2ccccc2)nc(N)nc1-n1cc(COC(=O)NC[C@@H](O)C(O)[C@@H]2O[C@@](OC[C@H]3O[C@@H](O[C@H]4[C@H](O)[C@@H](O)[C@H](OCCN=[N+]=[N-])O[C@@H]4CO)[C@H](O)[C@@H](O)[C@H]3O)(C(=O)O)C[C@H](O)[C@H]2NC(C)=O)nn1
REMARK SMILES IDX 30 1 32 2 34 3 66 4 33 5 67 6 69 7 35 8 36 9 37 10 39 11
REMARK SMILES IDX 38 12 57 13 59 14 61 15 40 16 41 17 54 18 53 19 46 20 42 21
REMARK SMILES IDX 44 22 55 23 56 24 47 26 48 27 49 28 50 29 51 30 52 31 43 32
REMARK SMILES IDX 45 34 58 36 60 38 62 40 63 42 64 43 65 44 68 46 70 48 71 49
REMARK SMILES IDX 72 51 73 52 31 53 28 55 29 56 27 58 26 59 24 60 25 62 23 63
REMARK SMILES IDX 22 64 21 65 20 66 74 67 19 68 75 69 18 70 17 71 6 72 15 73
REMARK SMILES IDX 7 74 14 75 5 76 4 77 3 78 2 79 1 80 16 81 8 84 9 85 13 86
REMARK SMILES IDX 10 87 12 88 11 89
REMARK H PARENT 56 25 43 33 45 35 58 37 60 39 62 41 65 45 68 47 70 50 31 54
REMARK H PARENT 29 57 26 61 16 82 16 83
REMARK Flexibility Score: inf
ROOT
ATOM      1  C   UNL     1      28.092  33.767  18.453  1.00  0.00     0.176 C 
ENDROOT
BRANCH   1   2
ATOM      2  C   UNL     1      29.039  32.962  17.615  1.00  0.00     0.178 C 
ATOM      3  C   UNL     1      30.329  33.338  15.699  1.00  0.00     0.272 C 
ATOM      4  C   UNL     1      30.748  31.893  15.980  1.00  0.00     0.113 C 
ATOM      5  O   UNL     1      29.637  33.893  16.714  1.00  0.00    -0.332 OA
ATOM      6  C   UNL     1      29.577  31.005  16.274  1.00  0.00     0.145 C 
ATOM      7  C   UNL     1      28.446  31.886  16.772  1.00  0.00     0.142 C 
BRANCH   3   8
ATOM      8  O   UNL     1      29.688  33.341  14.480  1.00  0.00    -0.338 OA
BRANCH   8   9
ATOM      9  C   UNL     1      28.743  34.315  14.300  1.00  0.00     0.199 C 
BRANCH   9  10
ATOM     10  C   UNL     1      29.320  35.571  13.664  1.00  0.00     0.179 C 
ATOM     11  C   UNL     1      28.633  36.962  11.922  1.00  0.00     0.282 C 
ATOM     12  O   UNL     1      28.785  35.698  12.416  1.00  0.00    -0.341 OA
ATOM     13  C   UNL     1      27.730  37.706  12.914  1.00  0.00     0.202 C 
ATOM     14  C   UNL     1      28.640  37.973  14.113  1.00  0.00     0.179 C 
ATOM     15  C   UNL     1      29.379  36.754  14.542  1.00  0.00     0.177 C 
BRANCH  11  16
ATOM     16  O   UNL     1      28.097  36.917  10.656  1.00  0.00    -0.341 OA
BRANCH  16  17
ATOM     17  C   UNL     1      28.787  37.718   9.761  1.00  0.00     0.184 C 
ATOM     18  C   UNL     1      29.897  38.453  10.431  1.00  0.00     0.178 C 
ATOM     19  O   UNL     1      29.754  39.799  10.559  1.00  0.00    -0.341 OA
ATOM     20  C   UNL     1      29.286  40.514   9.502  1.00  0.00     0.281 C 
ATOM     21  C   UNL     1      27.859  38.600   8.981  1.00  0.00     0.180 C 
ATOM     22  C   UNL     1      28.635  39.751   8.397  1.00  0.00     0.202 C 
BRANCH  18  23
ATOM     23  C   UNL     1      31.260  38.064   9.857  1.00  0.00     0.191 C 
BRANCH  23  24
ATOM     24  O   UNL     1      31.143  37.565   8.572  1.00  0.00    -0.394 OA
ATOM     25  H   UNL     1      30.187  37.621   8.319  1.00  0.00     0.210 HD
ENDBRANCH  23  24
ENDBRANCH  18  23
BRANCH  20  26
ATOM     26  O   UNL     1      30.348  41.247   8.984  1.00  0.00    -0.350 OA
BRANCH  26  27
ATOM     27  C   UNL     1      30.685  40.919   7.693  1.00  0.00     0.169 C 
BRANCH  27  28
ATOM     28  C   UNL     1      32.171  40.806   7.452  1.00  0.00     0.119 C 
BRANCH  28  29
ATOM     29  N   UNL     1      32.868  40.983   8.725  1.00  0.00    -0.092 NA
ATOM     30  N   UNL     1      34.027  41.416   8.772  1.00  0.00     0.001 N 
ATOM     31  N   UNL     1      35.209  41.730   8.648  1.00  0.00    -0.003 NA
ENDBRANCH  28  29
ENDBRANCH  27  28
ENDBRANCH  26  27
ENDBRANCH  20  26
BRANCH  21  32
ATOM     32  O   UNL     1      27.235  37.922   7.930  1.00  0.00    -0.387 OA
ATOM     33  H   UNL     1      27.357  36.937   8.005  1.00  0.00     0.211 HD
ENDBRANCH  21  32
BRANCH  22  34
ATOM     34  O   UNL     1      27.725  40.590   7.756  1.00  0.00    -0.385 OA
ATOM     35  H   UNL     1      26.920  40.105   7.447  1.00  0.00     0.211 HD
ENDBRANCH  22  34
ENDBRANCH  16  17
ENDBRANCH  11  16
BRANCH  13  36
ATOM     36  O   UNL     1      27.256  38.894  12.414  1.00  0.00    -0.385 OA
ATOM     37  H   UNL     1      26.794  38.769  11.540  1.00  0.00     0.211 HD
ENDBRANCH  13  36
BRANCH  14  38
ATOM     38  O   UNL     1      28.015  38.666  15.124  1.00  0.00    -0.387 OA
ATOM     39  H   UNL     1      28.604  38.757  15.933  1.00  0.00     0.211 HD
ENDBRANCH  14  38
BRANCH  15  40
ATOM     40  O   UNL     1      28.896  36.396  15.819  1.00  0.00    -0.387 OA
ATOM     41  H   UNL     1      28.172  35.728  15.715  1.00  0.00     0.211 HD
ENDBRANCH  15  40
ENDBRANCH   9  10
ENDBRANCH   8   9
ENDBRANCH   3   8
BRANCH   3  42
ATOM     42  C   UNL     1      31.638  34.053  15.566  1.00  0.00     0.364 C 
ATOM     43  O   UNL     1      31.791  35.043  16.366  1.00  0.00    -0.246 OA
BRANCH  42  44
ATOM     44  O   UNL     1      32.635  33.733  14.689  1.00  0.00    -0.477 OA
ATOM     45  H   UNL     1      32.394  33.403  13.759  1.00  0.00     0.296 HD
ENDBRANCH  42  44
ENDBRANCH   3  42
BRANCH   6  46
ATOM     46  O   UNL     1      29.241  30.359  15.074  1.00  0.00    -0.391 OA
ATOM     47  H   UNL     1      29.886  30.550  14.365  1.00  0.00     0.211 HD
ENDBRANCH   6  46
BRANCH   7  48
ATOM     48  N   UNL     1      27.392  31.113  17.352  1.00  0.00    -0.348 N 
ATOM     49  C   UNL     1      26.377  30.468  16.598  1.00  0.00     0.217 C 
ATOM     50  H   UNL     1      27.399  31.015  18.390  1.00  0.00     0.163 HD
ATOM     51  C   UNL     1      25.338  29.692  17.304  1.00  0.00     0.114 C 
ATOM     52  O   UNL     1      26.371  30.560  15.352  1.00  0.00    -0.275 OA
ENDBRANCH   7  48
ENDBRANCH   1   2
BRANCH   1  53
ATOM     53  O   UNL     1      26.993  34.080  17.581  1.00  0.00    -0.388 OA
ATOM     54  H   UNL     1      26.607  34.907  17.935  1.00  0.00     0.211 HD
ENDBRANCH   1  53
BRANCH   1  55
ATOM     55  C   UNL     1      28.556  35.046  19.022  1.00  0.00     0.165 C 
BRANCH  55  56
ATOM     56  O   UNL     1      29.901  34.805  19.427  1.00  0.00    -0.388 OA
ATOM     57  H   UNL     1      29.883  34.170  20.171  1.00  0.00     0.211 HD
ENDBRANCH  55  56
BRANCH  55  58
ATOM     58  C   UNL     1      27.820  35.602  20.168  1.00  0.00     0.154 C 
BRANCH  58  59
ATOM     59  N   UNL     1      26.743  36.463  19.864  1.00  0.00    -0.319 N 
ATOM     60  C   UNL     1      25.397  36.085  19.710  1.00  0.00     0.407 C 
ATOM     61  H   UNL     1      26.900  37.530  19.720  1.00  0.00     0.167 HD
ATOM     62  O   UNL     1      25.015  34.901  19.831  1.00  0.00    -0.225 OA
BRANCH  60  63
ATOM     63  O   UNL     1      24.390  37.010  19.413  1.00  0.00    -0.443 OA
BRANCH  63  64
ATOM     64  C   UNL     1      24.458  37.856  18.286  1.00  0.00     0.294 C 
BRANCH  64  65
ATOM     65  C   UNL     1      24.818  37.106  17.059  1.00  0.00     0.121 A 
ATOM     66  C   UNL     1      23.960  36.538  16.155  1.00  0.00     0.146 A 
ATOM     67  N   UNL     1      26.057  36.813  16.602  1.00  0.00    -0.131 NA
ATOM     68  N   UNL     1      24.693  35.906  15.162  1.00  0.00    -0.202 N 
ATOM     69  N   UNL     1      25.933  36.110  15.491  1.00  0.00    -0.060 NA
BRANCH  68  70
ATOM     70  C   UNL     1      24.009  35.233  14.135  1.00  0.00     0.164 A 
ATOM     71  N   UNL     1      23.570  35.950  13.071  1.00  0.00    -0.193 NA
ATOM     72  C   UNL     1      23.813  33.845  14.092  1.00  0.00     0.026 A 
ATOM     73  C   UNL     1      22.976  35.405  12.008  1.00  0.00     0.222 A 
ATOM     74  C   UNL     1      23.214  33.265  13.014  1.00  0.00     0.081 A 
ATOM     75  N   UNL     1      22.805  34.081  11.986  1.00  0.00    -0.213 NA
BRANCH  72  76
ATOM     76  C   UNL     1      24.185  33.111  15.307  1.00  0.00     0.070 C 
BRANCH  76  77
ATOM     77  C   UNL     1      23.052  32.925  16.293  1.00  0.00     0.165 C 
BRANCH  77  78
ATOM     78  O   UNL     1      22.481  31.690  16.356  1.00  0.00    -0.381 OA
BRANCH  78  79
ATOM     79  C   UNL     1      21.133  31.595  16.180  1.00  0.00     0.156 C 
ATOM     80  C   UNL     1      20.519  32.959  15.822  1.00  0.00     0.035 C 
ENDBRANCH  78  79
ENDBRANCH  77  78
ENDBRANCH  76  77
ENDBRANCH  72  76
BRANCH  73  81
ATOM     81  N   UNL     1      22.528  36.206  10.910  1.00  0.00    -0.368 N 
ATOM     82  H   UNL     1      21.510  36.361  10.757  1.00  0.00     0.159 HD
ATOM     83  H   UNL     1      23.176  36.654  10.242  1.00  0.00     0.159 HD
ENDBRANCH  73  81
BRANCH  74  84
ATOM     84  C   UNL     1      22.998  31.842  12.881  1.00  0.00     0.001 A 
ATOM     85  C   UNL     1      21.705  31.400  12.610  1.00  0.00     0.010 A 
ATOM     86  C   UNL     1      24.024  30.920  12.986  1.00  0.00     0.010 A 
ATOM     87  C   UNL     1      21.423  30.051  12.442  1.00  0.00     0.001 A 
ATOM     88  C   UNL     1      23.724  29.590  12.816  1.00  0.00     0.001 A 
ATOM     89  C   UNL     1      22.453  29.146  12.548  1.00  0.00     0.000 A 
ENDBRANCH  74  84
ENDBRANCH  68  70
ENDBRANCH  64  65
ENDBRANCH  63  64
ENDBRANCH  60  63
ENDBRANCH  58  59
ENDBRANCH  55  58
ENDBRANCH   1  55
TORSDOF 36
BEGIN_RES LYS A 131
REMARK  4 active torsions:
REMARK  status: ('A' for Active; 'I' for Inactive)
REMARK    1  A    between atoms: CA   and  CB  
REMARK    2  A    between atoms: CB   and  CG  
REMARK    3  A    between atoms: CG   and  CD  
REMARK    4  A    between atoms: CD   and  CE  
ROOT
ATOM      1  CA  LYS A 131      29.867  25.555  16.977  1.00 20.52     0.186 C 
ENDROOT
BRANCH   1   2
ATOM      2  CB  LYS A 131      28.345  25.722  17.026  1.00 20.94     0.034 C 
BRANCH   2   3
ATOM      3  CG  LYS A 131      27.602  24.398  16.939  1.00 22.96     0.005 C 
BRANCH   3   4
ATOM      4  CD  LYS A 131      26.117  24.569  17.101  1.00 24.33     0.041 C 
BRANCH   4   5
ATOM      5  CE  LYS A 131      25.770  24.631  18.585  1.00 26.91     0.338 C 
ATOM      6  NZ  LYS A 131      25.784  23.273  19.177  1.00 27.40     0.618 N 
ENDBRANCH   4   5
ENDBRANCH   3   4
ENDBRANCH   2   3
ENDBRANCH   1   2
END_RES LYS A 131
BEGIN_RES LYS A 135
REMARK  4 active torsions:
REMARK  status: ('A' for Active; 'I' for Inactive)
REMARK    5  A    between atoms: CA   and  CB  
REMARK    6  A    between atoms: CB   and  CG  
REMARK    7  A    between atoms: CG   and  CD  
REMARK    8  A    between atoms: CD   and  CE  
ROOT
ATOM      7  CA  LYS A 135      33.193  34.663   9.290  1.00 25.02     0.186 C 
ENDROOT
BRANCH   7   8
ATOM      8  CB  LYS A 135      32.060  35.360  10.034  1.00 26.63     0.034 C 
BRANCH   8   9
ATOM      9  CG  LYS A 135      30.787  34.555  10.083  1.00 29.45     0.005 C 
BRANCH   9  10
ATOM     10  CD  LYS A 135      30.377  34.113   8.687  1.00 32.00     0.041 C 
BRANCH  10  11
ATOM     11  CE  LYS A 135      28.913  34.424   8.438  1.00 34.25     0.338 C 
ATOM     12  NZ  LYS A 135      28.043  33.735   9.431  1.00 35.99     0.618 N 
ENDBRANCH  10  11
ENDBRANCH   9  10
ENDBRANCH   8   9
ENDBRANCH   7   8
END_RES LYS A 135
