REMARK VINA RESULT:    -4.512      3.675      9.035
REMARK INTER + INTRA:         -23.625
REMARK INTER:                 -13.136
REMARK INTRA:                 -10.490
REMARK UNBOUND:               -12.122
REMARK SMILES CC(=O)N[C@@H]1[C@@H](O)C[C@](OC[C@H]2O[C@@H](O[C@H]3[C@H](O)[C@@H](O)[C@H](OCCN=[N+]=[N-])O[C@@H]3CO)[C@H](O)[C@@H](O)[C@H]2O)(C(=O)O)O[C@H]1C(O)[C@H](O)CNC(=O)OCc1cn(-c2ccc(O)c([N+](=O)[O-])c2)nn1
REMARK SMILES IDX 9 1 8 2 6 3 5 4 42 5 41 6 10 7 11 8 12 9 14 10 13 11 32 12
REMARK SMILES IDX 34 13 36 14 15 15 16 16 29 17 28 18 21 19 17 20 19 21 30 22
REMARK SMILES IDX 31 23 22 25 23 26 24 27 25 28 26 29 27 30 18 31 20 33 33 35
REMARK SMILES IDX 35 37 37 39 38 41 39 42 40 43 7 45 43 47 44 48 45 50 46 51
REMARK SMILES IDX 47 53 48 54 49 55 50 57 51 58 52 59 53 60 54 61 67 62 55 63
REMARK SMILES IDX 66 64 56 65 57 66 65 67 58 68 61 69 59 70 62 71 63 72 64 73
REMARK SMILES IDX 60 74 4 76 2 77 1 79 3 80
REMARK H PARENT 31 24 18 32 20 34 33 36 35 38 37 40 40 44 7 46 44 49 46 52
REMARK H PARENT 48 56 60 75 4 78
REMARK Flexibility Score: inf
ROOT
ATOM      1  C   UNL     1      25.958  38.192   8.619  1.00  0.00     0.272 C 
ATOM      2  C   UNL     1      25.650  39.698   8.721  1.00  0.00     0.113 C 
ATOM      3  C   UNL     1      25.159  40.193   7.364  1.00  0.00     0.145 C 
ATOM      4  C   UNL     1      26.410  40.096   6.453  1.00  0.00     0.142 C 
ATOM      5  C   UNL     1      27.143  38.816   6.742  1.00  0.00     0.178 C 
ATOM      6  O   UNL     1      26.282  37.866   7.321  1.00  0.00    -0.332 OA
ENDROOT
BRANCH   1   7
ATOM      7  O   UNL     1      24.772  37.570   8.964  1.00  0.00    -0.338 OA
BRANCH   7   8
ATOM      8  C   UNL     1      24.495  36.386   8.351  1.00  0.00     0.199 C 
BRANCH   8   9
ATOM      9  C   UNL     1      23.095  35.971   8.863  1.00  0.00     0.179 C 
ATOM     10  C   UNL     1      21.804  36.423  10.673  1.00  0.00     0.282 C 
ATOM     11  O   UNL     1      23.106  36.262  10.194  1.00  0.00    -0.341 OA
ATOM     12  C   UNL     1      21.306  37.725  10.147  1.00  0.00     0.202 C 
ATOM     13  C   UNL     1      21.216  37.648   8.645  1.00  0.00     0.179 C 
ATOM     14  C   UNL     1      22.071  36.613   8.014  1.00  0.00     0.177 C 
BRANCH  10  15
ATOM     15  O   UNL     1      21.803  36.335  12.071  1.00  0.00    -0.341 OA
BRANCH  15  16
ATOM     16  C   UNL     1      22.912  35.613  12.465  1.00  0.00     0.184 C 
ATOM     17  C   UNL     1      22.644  34.483  13.398  1.00  0.00     0.178 C 
ATOM     18  O   UNL     1      23.792  33.702  13.445  1.00  0.00    -0.341 OA
ATOM     19  C   UNL     1      24.824  34.387  14.153  1.00  0.00     0.281 C 
ATOM     20  C   UNL     1      23.881  36.546  13.238  1.00  0.00     0.180 C 
ATOM     21  C   UNL     1      25.118  35.699  13.527  1.00  0.00     0.202 C 
BRANCH  17  22
ATOM     22  C   UNL     1      21.467  33.627  13.068  1.00  0.00     0.191 C 
BRANCH  22  23
ATOM     23  O   UNL     1      21.783  32.694  12.096  1.00  0.00    -0.394 OA
ATOM     24  H   UNL     1      22.482  32.078  12.486  1.00  0.00     0.210 HD
ENDBRANCH  22  23
ENDBRANCH  17  22
BRANCH  19  25
ATOM     25  O   UNL     1      25.914  33.533  14.030  1.00  0.00    -0.350 OA
BRANCH  25  26
ATOM     26  C   UNL     1      26.228  32.859  15.194  1.00  0.00     0.169 C 
BRANCH  26  27
ATOM     27  C   UNL     1      27.261  33.586  15.998  1.00  0.00     0.119 C 
BRANCH  27  28
ATOM     28  N   UNL     1      28.357  32.660  16.276  1.00  0.00    -0.092 NA
ATOM     29  N   UNL     1      28.157  31.429  16.174  1.00  0.00     0.001 N 
ATOM     30  N   UNL     1      28.277  30.275  15.724  1.00  0.00    -0.003 NA
ENDBRANCH  27  28
ENDBRANCH  26  27
ENDBRANCH  25  26
ENDBRANCH  19  25
BRANCH  20  31
ATOM     31  O   UNL     1      24.283  37.607  12.442  1.00  0.00    -0.387 OA
ATOM     32  H   UNL     1      24.665  37.303  11.573  1.00  0.00     0.211 HD
ENDBRANCH  20  31
BRANCH  21  33
ATOM     33  O   UNL     1      25.895  36.478  14.381  1.00  0.00    -0.385 OA
ATOM     34  H   UNL     1      25.604  37.410  14.386  1.00  0.00     0.211 HD
ENDBRANCH  21  33
ENDBRANCH  15  16
ENDBRANCH  10  15
BRANCH  12  35
ATOM     35  O   UNL     1      20.076  38.102  10.677  1.00  0.00    -0.385 OA
ATOM     36  H   UNL     1      20.158  38.941  11.214  1.00  0.00     0.211 HD
ENDBRANCH  12  35
BRANCH  13  37
ATOM     37  O   UNL     1      21.424  38.944   8.159  1.00  0.00    -0.387 OA
ATOM     38  H   UNL     1      20.801  39.540   8.656  1.00  0.00     0.211 HD
ENDBRANCH  13  37
BRANCH  14  39
ATOM     39  O   UNL     1      22.620  37.158   6.833  1.00  0.00    -0.387 OA
ATOM     40  H   UNL     1      23.293  36.574   6.427  1.00  0.00     0.211 HD
ENDBRANCH  14  39
ENDBRANCH   8   9
ENDBRANCH   7   8
ENDBRANCH   1   7
BRANCH   1  41
ATOM     41  C   UNL     1      26.970  37.926   9.634  1.00  0.00     0.364 C 
ATOM     42  O   UNL     1      26.753  37.571  10.823  1.00  0.00    -0.246 OA
BRANCH  41  43
ATOM     43  O   UNL     1      28.320  38.062   9.301  1.00  0.00    -0.477 OA
ATOM     44  H   UNL     1      28.941  37.268   9.192  1.00  0.00     0.296 HD
ENDBRANCH  41  43
ENDBRANCH   1  41
BRANCH   3  45
ATOM     45  O   UNL     1      24.148  39.409   6.875  1.00  0.00    -0.391 OA
ATOM     46  H   UNL     1      24.496  38.845   6.144  1.00  0.00     0.211 HD
ENDBRANCH   3  45
BRANCH   5  47
ATOM     47  C   UNL     1      27.626  38.212   5.446  1.00  0.00     0.176 C 
BRANCH  47  48
ATOM     48  O   UNL     1      27.338  39.101   4.422  1.00  0.00    -0.388 OA
ATOM     49  H   UNL     1      26.559  38.821   3.880  1.00  0.00     0.211 HD
ENDBRANCH  47  48
BRANCH  47  50
ATOM     50  C   UNL     1      29.100  37.895   5.422  1.00  0.00     0.165 C 
BRANCH  50  51
ATOM     51  O   UNL     1      29.299  37.059   6.553  1.00  0.00    -0.388 OA
ATOM     52  H   UNL     1      28.493  36.497   6.727  1.00  0.00     0.211 HD
ENDBRANCH  50  51
BRANCH  50  53
ATOM     53  C   UNL     1      29.939  39.118   5.660  1.00  0.00     0.154 C 
BRANCH  53  54
ATOM     54  N   UNL     1      30.590  39.034   6.941  1.00  0.00    -0.319 N 
ATOM     55  C   UNL     1      31.540  39.947   7.444  1.00  0.00     0.407 C 
ATOM     56  H   UNL     1      30.351  38.220   7.586  1.00  0.00     0.167 HD
ATOM     57  O   UNL     1      31.853  40.906   6.726  1.00  0.00    -0.225 OA
BRANCH  55  58
ATOM     58  O   UNL     1      32.142  39.850   8.677  1.00  0.00    -0.443 OA
BRANCH  58  59
ATOM     59  C   UNL     1      31.698  40.623   9.763  1.00  0.00     0.294 C 
BRANCH  59  60
ATOM     60  C   UNL     1      30.989  39.718  10.716  1.00  0.00     0.121 A 
ATOM     61  C   UNL     1      31.430  38.459  11.131  1.00  0.00     0.144 A 
ATOM     62  N   UNL     1      29.826  39.871  11.362  1.00  0.00    -0.131 NA
ATOM     63  N   UNL     1      30.539  37.947  11.972  1.00  0.00    -0.220 N 
ATOM     64  N   UNL     1      29.570  38.843  12.089  1.00  0.00    -0.062 NA
BRANCH  63  65
ATOM     65  C   UNL     1      30.607  36.667  12.624  1.00  0.00     0.073 A 
ATOM     66  C   UNL     1      29.578  35.780  12.539  1.00  0.00     0.033 A 
ATOM     67  C   UNL     1      31.704  36.290  13.351  1.00  0.00     0.118 A 
ATOM     68  C   UNL     1      29.597  34.545  13.141  1.00  0.00     0.056 A 
ATOM     69  C   UNL     1      31.753  35.030  13.980  1.00  0.00     0.312 A 
ATOM     70  C   UNL     1      30.720  34.135  13.895  1.00  0.00     0.194 A 
BRANCH  69  71
ATOM     71  N   UNL     1      32.919  34.723  14.701  1.00  0.00     0.066 N 
ATOM     72  O   UNL     1      33.977  34.507  14.032  1.00  0.00    -0.258 OA
ATOM     73  O   UNL     1      32.930  34.651  16.057  1.00  0.00    -0.258 OA
ENDBRANCH  69  71
BRANCH  70  74
ATOM     74  O   UNL     1      30.688  32.880  14.477  1.00  0.00    -0.502 OA
ATOM     75  H   UNL     1      30.060  32.187  14.223  1.00  0.00     0.293 HD
ENDBRANCH  70  74
ENDBRANCH  63  65
ENDBRANCH  59  60
ENDBRANCH  58  59
ENDBRANCH  55  58
ENDBRANCH  53  54
ENDBRANCH  50  53
ENDBRANCH  47  50
ENDBRANCH   5  47
BRANCH   4  76
ATOM     76  N   UNL     1      27.185  41.272   6.793  1.00  0.00    -0.348 N 
ATOM     77  C   UNL     1      27.605  42.203   5.788  1.00  0.00     0.217 C 
ATOM     78  H   UNL     1      27.456  41.471   7.773  1.00  0.00     0.163 HD
ATOM     79  C   UNL     1      28.398  43.399   6.159  1.00  0.00     0.114 C 
ATOM     80  O   UNL     1      27.282  41.977   4.583  1.00  0.00    -0.275 OA
ENDBRANCH   4  76
TORSDOF 32
BEGIN_RES LYS A 131
REMARK  4 active torsions:
REMARK  status: ('A' for Active; 'I' for Inactive)
REMARK    1  A    between atoms: CA   and  CB  
REMARK    2  A    between atoms: CB   and  CG  
REMARK    3  A    between atoms: CG   and  CD  
REMARK    4  A    between atoms: CD   and  CE  
ROOT
ATOM      1  CA  LYS A 131      29.867  25.555  16.977  1.00 20.52     0.186 C 
ENDROOT
BRANCH   1   2
ATOM      2  CB  LYS A 131      28.345  25.722  17.026  1.00 20.94     0.034 C 
BRANCH   2   3
ATOM      3  CG  LYS A 131      27.602  24.399  16.918  1.00 22.96     0.005 C 
BRANCH   3   4
ATOM      4  CD  LYS A 131      26.170  24.516  17.364  1.00 24.33     0.041 C 
BRANCH   4   5
ATOM      5  CE  LYS A 131      26.071  25.534  18.495  1.00 26.91     0.338 C 
ATOM      6  NZ  LYS A 131      24.939  26.462  18.261  1.00 27.40     0.618 N 
ENDBRANCH   4   5
ENDBRANCH   3   4
ENDBRANCH   2   3
ENDBRANCH   1   2
END_RES LYS A 131
BEGIN_RES LYS A 135
REMARK  4 active torsions:
REMARK  status: ('A' for Active; 'I' for Inactive)
REMARK    5  A    between atoms: CA   and  CB  
REMARK    6  A    between atoms: CB   and  CG  
REMARK    7  A    between atoms: CG   and  CD  
REMARK    8  A    between atoms: CD   and  CE  
ROOT
ATOM      7  CA  LYS A 135      33.193  34.663   9.290  1.00 25.02     0.186 C 
ENDROOT
BRANCH   7   8
ATOM      8  CB  LYS A 135      32.060  35.360  10.034  1.00 26.63     0.034 C 
BRANCH   8   9
ATOM      9  CG  LYS A 135      30.797  35.489   9.223  1.00 29.45     0.005 C 
BRANCH   9  10
ATOM     10  CD  LYS A 135      30.169  34.125   8.986  1.00 32.00     0.041 C 
BRANCH  10  11
ATOM     11  CE  LYS A 135      28.722  34.118   9.441  1.00 34.25     0.338 C 
ATOM     12  NZ  LYS A 135      27.814  34.565   8.349  1.00 35.99     0.618 N 
ENDBRANCH  10  11
ENDBRANCH   9  10
ENDBRANCH   8   9
ENDBRANCH   7   8
END_RES LYS A 135
