REMARK VINA RESULT:    -4.474      2.789      6.684
REMARK INTER + INTRA:         -21.922
REMARK INTER:                  -9.947
REMARK INTRA:                 -11.975
REMARK UNBOUND:               -10.516
REMARK SMILES CC(=O)N[C@@H]1[C@@H](O)C[C@](OC[C@H]2O[C@@H](O[C@H]3[C@H](O)[C@@H](O)[C@H](OCCN=[N+]=[N-])O[C@@H]3CO)[C@H](O)[C@@H](O)[C@H]2O)(C(=O)O)O[C@H]1C(O)[C@H](O)CNC(=O)OCc1cn(C(C)(C)C(=O)O)nn1
REMARK SMILES IDX 9 1 8 2 6 3 5 4 42 5 41 6 10 7 11 8 12 9 14 10 13 11 32 12
REMARK SMILES IDX 34 13 36 14 15 15 16 16 29 17 28 18 21 19 17 20 19 21 30 22
REMARK SMILES IDX 31 23 22 25 23 26 24 27 25 28 26 29 27 30 18 31 20 33 33 35
REMARK SMILES IDX 35 37 37 39 38 41 39 42 40 43 7 45 43 47 44 48 45 50 46 51
REMARK SMILES IDX 47 53 48 54 49 55 50 57 51 58 52 59 53 60 54 61 63 62 55 63
REMARK SMILES IDX 62 64 56 65 57 66 58 67 59 68 60 69 61 70 4 72 2 73 1 75
REMARK SMILES IDX 3 76
REMARK H PARENT 31 24 18 32 20 34 33 36 35 38 37 40 40 44 7 46 44 49 46 52
REMARK H PARENT 48 56 61 71 4 74
REMARK Flexibility Score: inf
ROOT
ATOM      1  C   UNL     1      28.480  38.654  11.353  1.00  0.00     0.272 C 
ATOM      2  C   UNL     1      29.639  39.124  12.129  1.00  0.00     0.113 C 
ATOM      3  C   UNL     1      30.631  38.059  12.504  1.00  0.00     0.145 C 
ATOM      4  C   UNL     1      29.950  36.726  12.573  1.00  0.00     0.142 C 
ATOM      5  C   UNL     1      28.495  37.028  12.978  1.00  0.00     0.178 C 
ATOM      6  O   UNL     1      27.858  37.507  11.857  1.00  0.00    -0.332 OA
ENDROOT
BRANCH   1   7
ATOM      7  O   UNL     1      28.721  38.445  10.030  1.00  0.00    -0.338 OA
BRANCH   7   8
ATOM      8  C   UNL     1      27.876  37.641   9.332  1.00  0.00     0.199 C 
BRANCH   8   9
ATOM      9  C   UNL     1      27.795  38.054   7.879  1.00  0.00     0.179 C 
ATOM     10  C   UNL     1      29.153  38.579   6.088  1.00  0.00     0.282 C 
ATOM     11  O   UNL     1      29.091  37.941   7.380  1.00  0.00    -0.341 OA
ATOM     12  C   UNL     1      28.386  37.712   5.164  1.00  0.00     0.202 C 
ATOM     13  C   UNL     1      27.619  36.619   5.907  1.00  0.00     0.179 C 
ATOM     14  C   UNL     1      26.872  37.192   7.103  1.00  0.00     0.177 C 
BRANCH  10  15
ATOM     15  O   UNL     1      30.489  38.739   5.879  1.00  0.00    -0.341 OA
BRANCH  15  16
ATOM     16  C   UNL     1      30.984  40.001   6.159  1.00  0.00     0.184 C 
ATOM     17  C   UNL     1      32.478  39.951   6.238  1.00  0.00     0.178 C 
ATOM     18  O   UNL     1      32.990  41.029   6.975  1.00  0.00    -0.341 OA
ATOM     19  C   UNL     1      32.764  40.900   8.338  1.00  0.00     0.281 C 
ATOM     20  C   UNL     1      30.473  40.484   7.516  1.00  0.00     0.180 C 
ATOM     21  C   UNL     1      31.476  40.146   8.588  1.00  0.00     0.202 C 
BRANCH  17  22
ATOM     22  C   UNL     1      33.120  40.101   4.848  1.00  0.00     0.191 C 
BRANCH  22  23
ATOM     23  O   UNL     1      34.420  40.525   5.040  1.00  0.00    -0.394 OA
ATOM     24  H   UNL     1      35.039  39.786   4.762  1.00  0.00     0.210 HD
ENDBRANCH  22  23
ENDBRANCH  17  22
BRANCH  19  25
ATOM     25  O   UNL     1      32.698  42.197   8.845  1.00  0.00    -0.350 OA
BRANCH  25  26
ATOM     26  C   UNL     1      33.114  42.332  10.144  1.00  0.00     0.169 C 
BRANCH  26  27
ATOM     27  C   UNL     1      32.154  43.335  10.799  1.00  0.00     0.119 C 
BRANCH  27  28
ATOM     28  N   UNL     1      30.971  42.692  11.322  1.00  0.00    -0.092 NA
ATOM     29  N   UNL     1      29.939  42.714  10.635  1.00  0.00     0.001 N 
ATOM     30  N   UNL     1      28.885  42.956  10.062  1.00  0.00    -0.003 NA
ENDBRANCH  27  28
ENDBRANCH  26  27
ENDBRANCH  25  26
ENDBRANCH  19  25
BRANCH  20  31
ATOM     31  O   UNL     1      30.330  41.868   7.486  1.00  0.00    -0.387 OA
ATOM     32  H   UNL     1      29.618  42.197   8.089  1.00  0.00     0.211 HD
ENDBRANCH  20  31
BRANCH  21  33
ATOM     33  O   UNL     1      31.673  38.770   8.579  1.00  0.00    -0.385 OA
ATOM     34  H   UNL     1      30.984  38.270   9.076  1.00  0.00     0.211 HD
ENDBRANCH  21  33
ENDBRANCH  15  16
ENDBRANCH  10  15
BRANCH  12  35
ATOM     35  O   UNL     1      27.379  38.496   4.557  1.00  0.00    -0.385 OA
ATOM     36  H   UNL     1      27.584  38.768   3.650  1.00  0.00     0.211 HD
ENDBRANCH  12  35
BRANCH  13  37
ATOM     37  O   UNL     1      28.474  35.599   6.280  1.00  0.00    -0.387 OA
ATOM     38  H   UNL     1      29.412  35.918   6.291  1.00  0.00     0.211 HD
ENDBRANCH  13  37
BRANCH  14  39
ATOM     39  O   UNL     1      26.434  36.114   7.856  1.00  0.00    -0.387 OA
ATOM     40  H   UNL     1      27.058  35.352   7.686  1.00  0.00     0.211 HD
ENDBRANCH  14  39
ENDBRANCH   8   9
ENDBRANCH   7   8
ENDBRANCH   1   7
BRANCH   1  41
ATOM     41  C   UNL     1      27.389  39.720  11.514  1.00  0.00     0.364 C 
ATOM     42  O   UNL     1      26.654  39.721  12.524  1.00  0.00    -0.246 OA
BRANCH  41  43
ATOM     43  O   UNL     1      27.197  40.694  10.554  1.00  0.00    -0.477 OA
ATOM     44  H   UNL     1      27.830  40.864   9.789  1.00  0.00     0.296 HD
ENDBRANCH  41  43
ENDBRANCH   1  41
BRANCH   3  45
ATOM     45  O   UNL     1      31.626  38.011  11.552  1.00  0.00    -0.391 OA
ATOM     46  H   UNL     1      31.280  38.144  10.631  1.00  0.00     0.211 HD
ENDBRANCH   3  45
BRANCH   5  47
ATOM     47  C   UNL     1      27.805  35.802  13.506  1.00  0.00     0.176 C 
BRANCH  47  48
ATOM     48  O   UNL     1      27.993  35.719  14.883  1.00  0.00    -0.388 OA
ATOM     49  H   UNL     1      27.559  36.495  15.347  1.00  0.00     0.211 HD
ENDBRANCH  47  48
BRANCH  47  50
ATOM     50  C   UNL     1      26.320  35.893  13.241  1.00  0.00     0.165 C 
BRANCH  50  51
ATOM     51  O   UNL     1      25.589  35.735  14.426  1.00  0.00    -0.388 OA
ATOM     52  H   UNL     1      25.387  36.629  14.782  1.00  0.00     0.211 HD
ENDBRANCH  50  51
BRANCH  50  53
ATOM     53  C   UNL     1      25.838  34.870  12.247  1.00  0.00     0.154 C 
BRANCH  53  54
ATOM     54  N   UNL     1      25.600  35.460  10.952  1.00  0.00    -0.319 N 
ATOM     55  C   UNL     1      24.290  35.631  10.443  1.00  0.00     0.407 C 
ATOM     56  H   UNL     1      26.400  35.772  10.367  1.00  0.00     0.167 HD
ATOM     57  O   UNL     1      23.271  35.281  11.090  1.00  0.00    -0.225 OA
BRANCH  55  58
ATOM     58  O   UNL     1      24.072  36.202   9.181  1.00  0.00    -0.443 OA
BRANCH  58  59
ATOM     59  C   UNL     1      23.078  37.224   9.051  1.00  0.00     0.294 C 
BRANCH  59  60
ATOM     60  C   UNL     1      23.689  38.550   8.965  1.00  0.00     0.120 A 
ATOM     61  C   UNL     1      23.898  39.280   7.824  1.00  0.00     0.139 A 
ATOM     62  N   UNL     1      24.152  39.278   9.985  1.00  0.00    -0.132 NA
ATOM     63  N   UNL     1      24.485  40.443   8.169  1.00  0.00    -0.235 N 
ATOM     64  N   UNL     1      24.620  40.396   9.498  1.00  0.00    -0.066 NA
BRANCH  63  65
ATOM     65  C   UNL     1      24.906  41.547   7.332  1.00  0.00     0.155 C 
ATOM     66  C   UNL     1      24.687  42.851   8.039  1.00  0.00     0.049 C 
ATOM     67  C   UNL     1      24.105  41.576   6.034  1.00  0.00     0.049 C 
BRANCH  65  68
ATOM     68  C   UNL     1      26.327  41.334   6.978  1.00  0.00     0.331 C 
ATOM     69  O   UNL     1      26.624  41.030   5.813  1.00  0.00    -0.250 OA
BRANCH  68  70
ATOM     70  O   UNL     1      27.291  41.479   7.959  1.00  0.00    -0.479 OA
ATOM     71  H   UNL     1      27.579  42.383   8.316  1.00  0.00     0.296 HD
ENDBRANCH  68  70
ENDBRANCH  65  68
ENDBRANCH  63  65
ENDBRANCH  59  60
ENDBRANCH  58  59
ENDBRANCH  55  58
ENDBRANCH  53  54
ENDBRANCH  50  53
ENDBRANCH  47  50
ENDBRANCH   5  47
BRANCH   4  72
ATOM     72  N   UNL     1      30.482  35.881  13.610  1.00  0.00    -0.348 N 
ATOM     73  C   UNL     1      31.741  35.221  13.533  1.00  0.00     0.217 C 
ATOM     74  H   UNL     1      29.917  35.743  14.471  1.00  0.00     0.163 HD
ATOM     75  C   UNL     1      32.221  34.358  14.657  1.00  0.00     0.114 C 
ATOM     76  O   UNL     1      32.453  35.371  12.505  1.00  0.00    -0.275 OA
ENDBRANCH   4  72
TORSDOF 32
BEGIN_RES LYS A 131
REMARK  4 active torsions:
REMARK  status: ('A' for Active; 'I' for Inactive)
REMARK    1  A    between atoms: CA   and  CB  
REMARK    2  A    between atoms: CB   and  CG  
REMARK    3  A    between atoms: CG   and  CD  
REMARK    4  A    between atoms: CD   and  CE  
ROOT
ATOM      1  CA  LYS A 131      29.867  25.555  16.977  1.00 20.52     0.186 C 
ENDROOT
BRANCH   1   2
ATOM      2  CB  LYS A 131      28.345  25.722  17.026  1.00 20.94     0.034 C 
BRANCH   2   3
ATOM      3  CG  LYS A 131      27.601  24.401  16.899  1.00 22.96     0.005 C 
BRANCH   3   4
ATOM      4  CD  LYS A 131      26.665  24.165  18.051  1.00 24.33     0.041 C 
BRANCH   4   5
ATOM      5  CE  LYS A 131      26.203  25.505  18.615  1.00 26.91     0.338 C 
ATOM      6  NZ  LYS A 131      25.652  25.332  19.980  1.00 27.40     0.618 N 
ENDBRANCH   4   5
ENDBRANCH   3   4
ENDBRANCH   2   3
ENDBRANCH   1   2
END_RES LYS A 131
BEGIN_RES LYS A 135
REMARK  4 active torsions:
REMARK  status: ('A' for Active; 'I' for Inactive)
REMARK    5  A    between atoms: CA   and  CB  
REMARK    6  A    between atoms: CB   and  CG  
REMARK    7  A    between atoms: CG   and  CD  
REMARK    8  A    between atoms: CD   and  CE  
ROOT
ATOM      7  CA  LYS A 135      33.193  34.663   9.290  1.00 25.02     0.186 C 
ENDROOT
BRANCH   7   8
ATOM      8  CB  LYS A 135      32.060  35.360  10.034  1.00 26.63     0.034 C 
BRANCH   8   9
ATOM      9  CG  LYS A 135      30.807  35.517   9.212  1.00 29.45     0.005 C 
BRANCH   9  10
ATOM     10  CD  LYS A 135      30.052  34.199   9.128  1.00 32.00     0.041 C 
BRANCH  10  11
ATOM     11  CE  LYS A 135      28.851  34.213  10.054  1.00 34.25     0.338 C 
ATOM     12  NZ  LYS A 135      27.708  33.465   9.461  1.00 35.99     0.618 N 
ENDBRANCH  10  11
ENDBRANCH   9  10
ENDBRANCH   8   9
ENDBRANCH   7   8
END_RES LYS A 135
