REMARK VINA RESULT:    -4.129      7.546     13.628
REMARK INTER + INTRA:         -22.153
REMARK INTER:                  -9.941
REMARK INTRA:                 -12.213
REMARK UNBOUND:               -11.507
REMARK SMILES COc1ccc(Cn2cc(COC(=O)NC[C@@H](O)C(O)[C@@H]3O[C@@](OC[C@H]4O[C@@H](O[C@H]5[C@H](O)[C@@H](O)[C@H](OCCN=[N+]=[N-])O[C@@H]5CO)[C@H](O)[C@@H](O)[C@H]4O)(C(=O)O)C[C@H](O)[C@H]3NC(C)=O)nn2)cc1
REMARK SMILES IDX 23 1 55 2 56 3 58 4 21 5 22 6 24 7 25 8 26 9 28 10 27 11
REMARK SMILES IDX 46 12 48 13 50 14 29 15 30 16 43 17 42 18 35 19 31 20 33 21
REMARK SMILES IDX 44 22 45 23 36 25 37 26 38 27 39 28 40 29 41 30 32 31 34 33
REMARK SMILES IDX 47 35 49 37 51 39 52 41 53 42 54 43 57 45 19 47 20 48 17 50
REMARK SMILES IDX 18 51 16 53 15 54 13 55 14 57 12 58 11 59 10 60 9 61 63 62
REMARK SMILES IDX 8 63 64 64 7 65 6 66 5 67 65 68 4 69 66 70 3 71 2 72 1 73
REMARK SMILES IDX 59 74 60 75 61 77 62 78
REMARK H PARENT 45 24 32 32 34 34 47 36 49 38 51 40 54 44 57 46 20 49 18 52
REMARK H PARENT 15 56 59 76
REMARK Flexibility Score: inf
ROOT
ATOM      1  C   UNL     1      28.942  32.547  16.535  1.00  0.00     0.272 C 
ATOM      2  C   UNL     1      27.507  32.951  16.266  1.00  0.00     0.113 C 
ATOM      3  C   UNL     1      26.689  32.814  17.534  1.00  0.00     0.145 C 
ATOM      4  C   UNL     1      27.355  33.396  18.746  1.00  0.00     0.142 C 
ATOM      5  C   UNL     1      28.757  33.915  18.473  1.00  0.00     0.178 C 
ATOM      6  O   UNL     1      29.469  33.070  17.645  1.00  0.00    -0.332 OA
ENDROOT
BRANCH   1   7
ATOM      7  O   UNL     1      29.691  32.543  15.407  1.00  0.00    -0.338 OA
BRANCH   7   8
ATOM      8  C   UNL     1      31.001  32.274  15.385  1.00  0.00     0.199 C 
BRANCH   8   9
ATOM      9  C   UNL     1      31.840  33.432  14.890  1.00  0.00     0.179 C 
ATOM     10  C   UNL     1      31.751  35.028  13.269  1.00  0.00     0.282 C 
ATOM     11  O   UNL     1      30.994  34.404  14.285  1.00  0.00    -0.341 OA
ATOM     12  C   UNL     1      33.143  35.304  13.705  1.00  0.00     0.202 C 
ATOM     13  C   UNL     1      33.422  35.219  15.167  1.00  0.00     0.179 C 
ATOM     14  C   UNL     1      32.633  34.158  15.910  1.00  0.00     0.177 C 
BRANCH  10  15
ATOM     15  O   UNL     1      31.063  36.042  12.666  1.00  0.00    -0.341 OA
BRANCH  15  16
ATOM     16  C   UNL     1      29.918  36.481  13.297  1.00  0.00     0.184 C 
ATOM     17  C   UNL     1      28.693  36.552  12.419  1.00  0.00     0.178 C 
ATOM     18  O   UNL     1      27.820  37.544  12.865  1.00  0.00    -0.341 OA
ATOM     19  C   UNL     1      27.857  37.717  14.260  1.00  0.00     0.281 C 
ATOM     20  C   UNL     1      30.190  37.960  13.633  1.00  0.00     0.180 C 
ATOM     21  C   UNL     1      29.196  38.339  14.697  1.00  0.00     0.202 C 
BRANCH  17  22
ATOM     22  C   UNL     1      27.905  35.284  12.329  1.00  0.00     0.191 C 
BRANCH  22  23
ATOM     23  O   UNL     1      28.418  34.356  13.233  1.00  0.00    -0.394 OA
ATOM     24  H   UNL     1      29.412  34.458  13.225  1.00  0.00     0.210 HD
ENDBRANCH  22  23
ENDBRANCH  17  22
BRANCH  19  25
ATOM     25  O   UNL     1      27.585  36.595  14.975  1.00  0.00    -0.350 OA
BRANCH  25  26
ATOM     26  C   UNL     1      26.301  36.326  15.337  1.00  0.00     0.169 C 
BRANCH  26  27
ATOM     27  C   UNL     1      25.661  37.210  16.340  1.00  0.00     0.119 C 
BRANCH  27  28
ATOM     28  N   UNL     1      25.184  36.545  17.503  1.00  0.00    -0.092 NA
ATOM     29  N   UNL     1      25.666  36.679  18.637  1.00  0.00     0.001 N 
ATOM     30  N   UNL     1      25.764  37.039  19.832  1.00  0.00    -0.003 NA
ENDBRANCH  27  28
ENDBRANCH  26  27
ENDBRANCH  25  26
ENDBRANCH  19  25
BRANCH  20  31
ATOM     31  O   UNL     1      31.497  38.188  13.961  1.00  0.00    -0.387 OA
ATOM     32  H   UNL     1      31.966  37.346  14.265  1.00  0.00     0.211 HD
ENDBRANCH  20  31
BRANCH  21  33
ATOM     33  O   UNL     1      29.096  39.723  14.833  1.00  0.00    -0.385 OA
ATOM     34  H   UNL     1      28.616  40.091  14.045  1.00  0.00     0.211 HD
ENDBRANCH  21  33
ENDBRANCH  15  16
ENDBRANCH  10  15
BRANCH  12  35
ATOM     35  O   UNL     1      34.088  34.530  12.985  1.00  0.00    -0.385 OA
ATOM     36  H   UNL     1      33.718  34.329  12.071  1.00  0.00     0.211 HD
ENDBRANCH  12  35
BRANCH  13  37
ATOM     37  O   UNL     1      33.292  36.479  15.799  1.00  0.00    -0.387 OA
ATOM     38  H   UNL     1      33.527  36.364  16.755  1.00  0.00     0.211 HD
ENDBRANCH  13  37
BRANCH  14  39
ATOM     39  O   UNL     1      31.857  34.710  16.923  1.00  0.00    -0.387 OA
ATOM     40  H   UNL     1      31.063  35.183  16.572  1.00  0.00     0.211 HD
ENDBRANCH  14  39
ENDBRANCH   8   9
ENDBRANCH   7   8
ENDBRANCH   1   7
BRANCH   1  41
ATOM     41  C   UNL     1      28.797  31.003  16.738  1.00  0.00     0.364 C 
ATOM     42  O   UNL     1      28.403  30.290  15.789  1.00  0.00    -0.246 OA
BRANCH  41  43
ATOM     43  O   UNL     1      29.081  30.385  17.906  1.00  0.00    -0.477 OA
ATOM     44  H   UNL     1      29.918  30.393  18.434  1.00  0.00     0.296 HD
ENDBRANCH  41  43
ENDBRANCH   1  41
BRANCH   3  45
ATOM     45  O   UNL     1      25.498  33.543  17.244  1.00  0.00    -0.391 OA
ATOM     46  H   UNL     1      25.650  34.151  16.476  1.00  0.00     0.211 HD
ENDBRANCH   3  45
BRANCH   5  47
ATOM     47  C   UNL     1      28.639  35.338  18.086  1.00  0.00     0.176 C 
BRANCH  47  48
ATOM     48  O   UNL     1      29.332  35.663  16.884  1.00  0.00    -0.388 OA
ATOM     49  H   UNL     1      28.679  36.055  16.265  1.00  0.00     0.211 HD
ENDBRANCH  47  48
BRANCH  47  50
ATOM     50  C   UNL     1      29.407  36.308  19.031  1.00  0.00     0.165 C 
BRANCH  50  51
ATOM     51  O   UNL     1      28.786  36.715  20.143  1.00  0.00    -0.388 OA
ATOM     52  H   UNL     1      27.838  36.938  19.965  1.00  0.00     0.211 HD
ENDBRANCH  50  51
BRANCH  50  53
ATOM     53  C   UNL     1      29.839  37.507  18.158  1.00  0.00     0.154 C 
BRANCH  53  54
ATOM     54  N   UNL     1      31.225  37.480  17.826  1.00  0.00    -0.319 N 
ATOM     55  C   UNL     1      32.161  38.198  18.641  1.00  0.00     0.407 C 
ATOM     56  H   UNL     1      31.573  36.960  17.014  1.00  0.00     0.167 HD
ATOM     57  O   UNL     1      31.737  38.839  19.642  1.00  0.00    -0.225 OA
BRANCH  55  58
ATOM     58  O   UNL     1      33.499  38.155  18.294  1.00  0.00    -0.443 OA
BRANCH  58  59
ATOM     59  C   UNL     1      34.110  39.313  17.691  1.00  0.00     0.294 C 
BRANCH  59  60
ATOM     60  C   UNL     1      35.479  38.943  17.275  1.00  0.00     0.120 A 
ATOM     61  C   UNL     1      36.187  37.793  17.640  1.00  0.00     0.138 A 
ATOM     62  N   UNL     1      36.307  39.636  16.485  1.00  0.00    -0.132 NA
ATOM     63  N   UNL     1      37.388  37.864  17.053  1.00  0.00    -0.248 N 
ATOM     64  N   UNL     1      37.447  38.988  16.355  1.00  0.00    -0.067 NA
BRANCH  63  65
ATOM     65  C   UNL     1      38.442  36.888  17.162  1.00  0.00     0.181 C 
BRANCH  65  66
ATOM     66  C   UNL     1      38.481  36.079  15.923  1.00  0.00    -0.026 A 
ATOM     67  C   UNL     1      37.523  35.091  15.716  1.00  0.00     0.009 A 
ATOM     68  C   UNL     1      39.419  36.265  14.943  1.00  0.00     0.009 A 
ATOM     69  C   UNL     1      37.502  34.320  14.574  1.00  0.00     0.047 A 
ATOM     70  C   UNL     1      39.397  35.481  13.784  1.00  0.00     0.047 A 
ATOM     71  C   UNL     1      38.454  34.511  13.583  1.00  0.00     0.118 A 
BRANCH  71  72
ATOM     72  O   UNL     1      38.390  33.713  12.456  1.00  0.00    -0.497 OA
ATOM     73  C   UNL     1      37.215  33.371  11.782  1.00  0.00     0.278 C 
ENDBRANCH  71  72
ENDBRANCH  65  66
ENDBRANCH  63  65
ENDBRANCH  59  60
ENDBRANCH  58  59
ENDBRANCH  55  58
ENDBRANCH  53  54
ENDBRANCH  50  53
ENDBRANCH  47  50
ENDBRANCH   5  47
BRANCH   4  74
ATOM     74  N   UNL     1      27.305  32.568  19.932  1.00  0.00    -0.348 N 
ATOM     75  C   UNL     1      27.326  33.062  21.265  1.00  0.00     0.217 C 
ATOM     76  H   UNL     1      27.264  31.544  19.822  1.00  0.00     0.163 HD
ATOM     77  C   UNL     1      27.274  32.100  22.431  1.00  0.00     0.114 C 
ATOM     78  O   UNL     1      27.389  34.298  21.471  1.00  0.00    -0.275 OA
ENDBRANCH   4  74
TORSDOF 32
BEGIN_RES LYS A 131
REMARK  4 active torsions:
REMARK  status: ('A' for Active; 'I' for Inactive)
REMARK    1  A    between atoms: CA   and  CB  
REMARK    2  A    between atoms: CB   and  CG  
REMARK    3  A    between atoms: CG   and  CD  
REMARK    4  A    between atoms: CD   and  CE  
ROOT
ATOM      1  CA  LYS A 131      29.867  25.555  16.977  1.00 20.52     0.186 C 
ENDROOT
BRANCH   1   2
ATOM      2  CB  LYS A 131      28.345  25.722  17.026  1.00 20.94     0.034 C 
BRANCH   2   3
ATOM      3  CG  LYS A 131      27.599  24.477  16.571  1.00 22.96     0.005 C 
BRANCH   3   4
ATOM      4  CD  LYS A 131      27.030  23.703  17.729  1.00 24.33     0.041 C 
BRANCH   4   5
ATOM      5  CE  LYS A 131      25.690  24.308  18.136  1.00 26.91     0.338 C 
ATOM      6  NZ  LYS A 131      24.761  24.334  16.982  1.00 27.40     0.618 N 
ENDBRANCH   4   5
ENDBRANCH   3   4
ENDBRANCH   2   3
ENDBRANCH   1   2
END_RES LYS A 131
BEGIN_RES LYS A 135
REMARK  4 active torsions:
REMARK  status: ('A' for Active; 'I' for Inactive)
REMARK    5  A    between atoms: CA   and  CB  
REMARK    6  A    between atoms: CB   and  CG  
REMARK    7  A    between atoms: CG   and  CD  
REMARK    8  A    between atoms: CD   and  CE  
ROOT
ATOM      7  CA  LYS A 135      33.193  34.663   9.290  1.00 25.02     0.186 C 
ENDROOT
BRANCH   7   8
ATOM      8  CB  LYS A 135      32.060  35.360  10.034  1.00 26.63     0.034 C 
BRANCH   8   9
ATOM      9  CG  LYS A 135      30.692  34.850   9.662  1.00 29.45     0.005 C 
BRANCH   9  10
ATOM     10  CD  LYS A 135      30.026  35.781   8.660  1.00 32.00     0.041 C 
BRANCH  10  11
ATOM     11  CE  LYS A 135      29.356  34.984   7.557  1.00 34.25     0.338 C 
ATOM     12  NZ  LYS A 135      27.897  35.277   7.494  1.00 35.99     0.618 N 
ENDBRANCH  10  11
ENDBRANCH   9  10
ENDBRANCH   8   9
ENDBRANCH   7   8
END_RES LYS A 135
