REMARK VINA RESULT:    -5.197      4.044     11.128
REMARK INTER + INTRA:         -24.727
REMARK INTER:                 -11.479
REMARK INTRA:                 -13.248
REMARK UNBOUND:               -11.174
REMARK SMILES CC(=O)N[C@@H]1[C@@H](O)C[C@](OC[C@H]2O[C@@H](O[C@H]3[C@H](O)[C@@H](O)[C@H](OCCN=[N+]=[N-])O[C@@H]3CO)[C@H](O)[C@@H](O)[C@H]2O)(C(=O)O)O[C@H]1C(O)[C@H](O)CNC(=O)OCc1cn(-c2cc(C(=O)O)nc(-c3ccccc3)c2)nn1
REMARK SMILES IDX 9 1 8 2 6 3 5 4 42 5 41 6 10 7 11 8 12 9 14 10 13 11 32 12
REMARK SMILES IDX 34 13 36 14 15 15 16 16 29 17 28 18 21 19 17 20 19 21 30 22
REMARK SMILES IDX 31 23 22 25 23 26 24 27 25 28 26 29 27 30 18 31 20 33 33 35
REMARK SMILES IDX 35 37 37 39 38 41 39 42 40 43 7 45 43 47 44 48 45 50 46 51
REMARK SMILES IDX 47 53 48 54 49 55 50 57 51 58 52 59 53 60 54 61 72 62 55 63
REMARK SMILES IDX 71 64 56 65 57 66 70 67 58 68 63 69 62 70 59 71 60 72 61 73
REMARK SMILES IDX 64 75 65 76 69 77 66 78 68 79 67 80 4 81 2 82 1 84 3 85
REMARK H PARENT 31 24 18 32 20 34 33 36 35 38 37 40 40 44 7 46 44 49 46 52
REMARK H PARENT 48 56 61 74 4 83
REMARK Flexibility Score: inf
ROOT
ATOM      1  C   UNL     1      23.694  36.411   9.539  1.00  0.00     0.272 C 
ATOM      2  C   UNL     1      22.543  35.890   8.654  1.00  0.00     0.113 C 
ATOM      3  C   UNL     1      21.903  36.935   7.815  1.00  0.00     0.145 C 
ATOM      4  C   UNL     1      21.712  38.260   8.543  1.00  0.00     0.142 C 
ATOM      5  C   UNL     1      22.113  37.957   9.990  1.00  0.00     0.178 C 
ATOM      6  O   UNL     1      23.470  37.721   9.954  1.00  0.00    -0.332 OA
ENDROOT
BRANCH   1   7
ATOM      7  O   UNL     1      24.798  36.369   8.749  1.00  0.00    -0.338 OA
BRANCH   7   8
ATOM      8  C   UNL     1      25.527  35.227   8.670  1.00  0.00     0.199 C 
BRANCH   8   9
ATOM      9  C   UNL     1      26.986  35.543   8.254  1.00  0.00     0.179 C 
ATOM     10  C   UNL     1      28.228  37.328   7.394  1.00  0.00     0.282 C 
ATOM     11  O   UNL     1      27.014  36.810   7.767  1.00  0.00    -0.341 OA
ATOM     12  C   UNL     1      29.328  36.426   7.922  1.00  0.00     0.202 C 
ATOM     13  C   UNL     1      29.139  36.043   9.369  1.00  0.00     0.179 C 
ATOM     14  C   UNL     1      27.772  35.487   9.555  1.00  0.00     0.177 C 
BRANCH  10  15
ATOM     15  O   UNL     1      28.324  38.603   7.920  1.00  0.00    -0.341 OA
BRANCH  15  16
ATOM     16  C   UNL     1      27.112  39.216   8.193  1.00  0.00     0.184 C 
ATOM     17  C   UNL     1      26.732  40.253   7.201  1.00  0.00     0.178 C 
ATOM     18  O   UNL     1      26.623  41.507   7.777  1.00  0.00    -0.341 OA
ATOM     19  C   UNL     1      27.756  41.854   8.510  1.00  0.00     0.281 C 
ATOM     20  C   UNL     1      27.163  39.702   9.612  1.00  0.00     0.180 C 
ATOM     21  C   UNL     1      27.679  41.083   9.809  1.00  0.00     0.202 C 
BRANCH  17  22
ATOM     22  C   UNL     1      25.375  39.919   6.616  1.00  0.00     0.191 C 
BRANCH  22  23
ATOM     23  O   UNL     1      24.825  38.784   7.183  1.00  0.00    -0.394 OA
ATOM     24  H   UNL     1      25.549  38.138   7.396  1.00  0.00     0.210 HD
ENDBRANCH  22  23
ENDBRANCH  17  22
BRANCH  19  25
ATOM     25  O   UNL     1      27.661  43.211   8.781  1.00  0.00    -0.350 OA
BRANCH  25  26
ATOM     26  C   UNL     1      26.530  43.782   8.193  1.00  0.00     0.169 C 
BRANCH  26  27
ATOM     27  C   UNL     1      25.816  44.673   9.178  1.00  0.00     0.119 C 
BRANCH  27  28
ATOM     28  N   UNL     1      24.587  44.035   9.596  1.00  0.00    -0.092 NA
ATOM     29  N   UNL     1      24.657  43.010  10.260  1.00  0.00     0.001 N 
ATOM     30  N   UNL     1      24.411  42.152  11.124  1.00  0.00    -0.003 NA
ENDBRANCH  27  28
ENDBRANCH  26  27
ENDBRANCH  25  26
ENDBRANCH  19  25
BRANCH  20  31
ATOM     31  O   UNL     1      25.835  39.689  10.098  1.00  0.00    -0.387 OA
ATOM     32  H   UNL     1      25.791  39.231  10.974  1.00  0.00     0.211 HD
ENDBRANCH  20  31
BRANCH  21  33
ATOM     33  O   UNL     1      28.941  41.000  10.432  1.00  0.00    -0.385 OA
ATOM     34  H   UNL     1      29.032  41.674  11.161  1.00  0.00     0.211 HD
ENDBRANCH  21  33
ENDBRANCH  15  16
ENDBRANCH  10  15
BRANCH  12  35
ATOM     35  O   UNL     1      29.485  35.261   7.182  1.00  0.00    -0.385 OA
ATOM     36  H   UNL     1      28.635  35.161   6.668  1.00  0.00     0.211 HD
ENDBRANCH  12  35
BRANCH  13  37
ATOM     37  O   UNL     1      29.367  37.195  10.122  1.00  0.00    -0.387 OA
ATOM     38  H   UNL     1      30.134  37.665   9.704  1.00  0.00     0.211 HD
ENDBRANCH  13  37
BRANCH  14  39
ATOM     39  O   UNL     1      27.119  36.315  10.491  1.00  0.00    -0.387 OA
ATOM     40  H   UNL     1      26.185  36.080  10.612  1.00  0.00     0.211 HD
ENDBRANCH  14  39
ENDBRANCH   8   9
ENDBRANCH   7   8
ENDBRANCH   1   7
BRANCH   1  41
ATOM     41  C   UNL     1      23.753  35.574  10.764  1.00  0.00     0.364 C 
ATOM     42  O   UNL     1      24.578  35.795  11.691  1.00  0.00    -0.246 OA
BRANCH  41  43
ATOM     43  O   UNL     1      22.890  34.515  10.928  1.00  0.00    -0.477 OA
ATOM     44  H   UNL     1      23.196  33.537  11.004  1.00  0.00     0.296 HD
ENDBRANCH  41  43
ENDBRANCH   1  41
BRANCH   3  45
ATOM     45  O   UNL     1      22.487  37.087   6.577  1.00  0.00    -0.391 OA
ATOM     46  H   UNL     1      21.826  36.886   5.883  1.00  0.00     0.211 HD
ENDBRANCH   3  45
BRANCH   5  47
ATOM     47  C   UNL     1      21.641  38.964  10.968  1.00  0.00     0.176 C 
BRANCH  47  48
ATOM     48  O   UNL     1      22.288  40.192  10.698  1.00  0.00    -0.388 OA
ATOM     49  H   UNL     1      22.008  40.528   9.789  1.00  0.00     0.211 HD
ENDBRANCH  47  48
BRANCH  47  50
ATOM     50  C   UNL     1      21.804  38.605  12.419  1.00  0.00     0.165 C 
BRANCH  50  51
ATOM     51  O   UNL     1      20.596  38.742  13.071  1.00  0.00    -0.388 OA
ATOM     52  H   UNL     1      20.698  39.103  13.992  1.00  0.00     0.211 HD
ENDBRANCH  50  51
BRANCH  50  53
ATOM     53  C   UNL     1      22.860  39.527  12.979  1.00  0.00     0.154 C 
BRANCH  53  54
ATOM     54  N   UNL     1      24.199  39.255  12.596  1.00  0.00    -0.319 N 
ATOM     55  C   UNL     1      25.297  39.563  13.440  1.00  0.00     0.407 C 
ATOM     56  H   UNL     1      24.415  38.813  11.669  1.00  0.00     0.167 HD
ATOM     57  O   UNL     1      25.087  40.106  14.541  1.00  0.00    -0.225 OA
BRANCH  55  58
ATOM     58  O   UNL     1      26.616  39.262  13.050  1.00  0.00    -0.443 OA
BRANCH  58  59
ATOM     59  C   UNL     1      27.473  38.660  13.987  1.00  0.00     0.294 C 
BRANCH  59  60
ATOM     60  C   UNL     1      27.508  37.188  13.818  1.00  0.00     0.121 A 
ATOM     61  C   UNL     1      26.737  36.211  14.402  1.00  0.00     0.144 A 
ATOM     62  N   UNL     1      28.376  36.486  13.033  1.00  0.00    -0.131 NA
ATOM     63  N   UNL     1      27.124  34.985  13.990  1.00  0.00    -0.220 N 
ATOM     64  N   UNL     1      28.135  35.197  13.147  1.00  0.00    -0.062 NA
BRANCH  63  65
ATOM     65  C   UNL     1      26.584  33.740  14.399  1.00  0.00     0.071 A 
ATOM     66  C   UNL     1      27.149  33.133  15.510  1.00  0.00     0.064 A 
ATOM     67  C   UNL     1      25.529  33.090  13.791  1.00  0.00     0.057 A 
ATOM     68  C   UNL     1      26.640  31.925  15.951  1.00  0.00     0.151 A 
ATOM     69  C   UNL     1      25.034  31.903  14.232  1.00  0.00     0.073 A 
ATOM     70  N   UNL     1      25.606  31.339  15.313  1.00  0.00    -0.241 NA
BRANCH  68  71
ATOM     71  C   UNL     1      27.209  31.264  17.117  1.00  0.00     0.354 C 
ATOM     72  O   UNL     1      27.669  30.104  16.972  1.00  0.00    -0.245 OA
BRANCH  71  73
ATOM     73  O   UNL     1      27.275  31.834  18.366  1.00  0.00    -0.477 OA
ATOM     74  H   UNL     1      26.877  32.757  18.580  1.00  0.00     0.297 HD
ENDBRANCH  71  73
ENDBRANCH  68  71
BRANCH  69  75
ATOM     75  C   UNL     1      23.915  31.237  13.577  1.00  0.00     0.000 A 
ATOM     76  C   UNL     1      22.765  31.985  13.330  1.00  0.00     0.010 A 
ATOM     77  C   UNL     1      23.925  29.927  13.195  1.00  0.00     0.010 A 
ATOM     78  C   UNL     1      21.666  31.442  12.718  1.00  0.00     0.001 A 
ATOM     79  C   UNL     1      22.809  29.389  12.579  1.00  0.00     0.001 A 
ATOM     80  C   UNL     1      21.680  30.114  12.332  1.00  0.00     0.000 A 
ENDBRANCH  69  75
ENDBRANCH  63  65
ENDBRANCH  59  60
ENDBRANCH  58  59
ENDBRANCH  55  58
ENDBRANCH  53  54
ENDBRANCH  50  53
ENDBRANCH  47  50
ENDBRANCH   5  47
BRANCH   4  81
ATOM     81  N   UNL     1      20.383  38.760   8.416  1.00  0.00    -0.348 N 
ATOM     82  C   UNL     1      20.162  40.127   8.110  1.00  0.00     0.217 C 
ATOM     83  H   UNL     1      19.580  38.103   8.552  1.00  0.00     0.163 HD
ATOM     84  C   UNL     1      18.800  40.704   7.964  1.00  0.00     0.114 C 
ATOM     85  O   UNL     1      21.147  40.924   7.945  1.00  0.00    -0.275 OA
ENDBRANCH   4  81
TORSDOF 33
BEGIN_RES LYS A 131
REMARK  4 active torsions:
REMARK  status: ('A' for Active; 'I' for Inactive)
REMARK    1  A    between atoms: CA   and  CB  
REMARK    2  A    between atoms: CB   and  CG  
REMARK    3  A    between atoms: CG   and  CD  
REMARK    4  A    between atoms: CD   and  CE  
ROOT
ATOM      1  CA  LYS A 131      29.867  25.555  16.977  1.00 20.52     0.186 C 
ENDROOT
BRANCH   1   2
ATOM      2  CB  LYS A 131      28.345  25.722  17.026  1.00 20.94     0.034 C 
BRANCH   2   3
ATOM      3  CG  LYS A 131      27.601  24.401  16.901  1.00 22.96     0.005 C 
BRANCH   3   4
ATOM      4  CD  LYS A 131      26.684  24.155  18.067  1.00 24.33     0.041 C 
BRANCH   4   5
ATOM      5  CE  LYS A 131      26.371  25.479  18.756  1.00 26.91     0.338 C 
ATOM      6  NZ  LYS A 131      25.386  25.277  19.846  1.00 27.40     0.618 N 
ENDBRANCH   4   5
ENDBRANCH   3   4
ENDBRANCH   2   3
ENDBRANCH   1   2
END_RES LYS A 131
BEGIN_RES LYS A 135
REMARK  4 active torsions:
REMARK  status: ('A' for Active; 'I' for Inactive)
REMARK    5  A    between atoms: CA   and  CB  
REMARK    6  A    between atoms: CB   and  CG  
REMARK    7  A    between atoms: CG   and  CD  
REMARK    8  A    between atoms: CD   and  CE  
ROOT
ATOM      7  CA  LYS A 135      33.193  34.663   9.290  1.00 25.02     0.186 C 
ENDROOT
BRANCH   7   8
ATOM      8  CB  LYS A 135      32.060  35.360  10.034  1.00 26.63     0.034 C 
BRANCH   8   9
ATOM      9  CG  LYS A 135      32.184  35.278  11.534  1.00 29.45     0.005 C 
BRANCH   9  10
ATOM     10  CD  LYS A 135      32.227  36.669  12.146  1.00 32.00     0.041 C 
BRANCH  10  11
ATOM     11  CE  LYS A 135      31.979  36.601  13.641  1.00 34.25     0.338 C 
ATOM     12  NZ  LYS A 135      31.390  37.873  14.145  1.00 35.99     0.618 N 
ENDBRANCH  10  11
ENDBRANCH   9  10
ENDBRANCH   8   9
ENDBRANCH   7   8
END_RES LYS A 135
