REMARK VINA RESULT:    -5.487      5.696     11.705
REMARK INTER + INTRA:         -23.973
REMARK INTER:                 -13.632
REMARK INTRA:                 -10.342
REMARK UNBOUND:                -9.504
REMARK SMILES CC(=O)N[C@@H]1[C@@H](O)C[C@](OC[C@H]2O[C@@H](O[C@H]3[C@H](O)[C@@H](O)[C@H](OCCN=[N+]=[N-])O[C@@H]3CO)[C@H](O)[C@@H](O)[C@H]2O)(C(=O)O)O[C@H]1C(O)[C@H](O)CNC(=O)OCc1cn(COCc2ccccc2)nn1
REMARK SMILES IDX 43 1 42 2 9 3 8 4 41 5 6 6 5 7 10 8 11 9 12 10 14 11 13 12
REMARK SMILES IDX 32 13 34 14 36 15 15 16 16 17 29 18 28 19 21 20 17 21 19 22
REMARK SMILES IDX 30 23 31 24 22 26 23 27 24 28 25 29 26 30 27 31 18 32 20 34
REMARK SMILES IDX 33 36 35 38 37 40 38 42 39 43 40 44 7 46 4 48 2 49 1 51 3 52
REMARK SMILES IDX 44 53 45 55 46 56 47 58 48 59 49 60 50 62 51 63 52 64 53 65
REMARK SMILES IDX 54 66 66 67 55 68 65 69 56 70 57 71 58 72 59 73 60 74 64 75
REMARK SMILES IDX 61 76 63 77 62 78
REMARK H PARENT 31 25 18 33 20 35 33 37 35 39 37 41 40 45 7 47 4 50 44 54
REMARK H PARENT 46 57 48 61
REMARK Flexibility Score: inf
ROOT
ATOM      1  C   UNL     1      30.403  31.133  16.733  1.00  0.00     0.176 C 
ENDROOT
BRANCH   1   2
ATOM      2  C   UNL     1      30.420  31.562  18.217  1.00  0.00     0.178 C 
ATOM      3  C   UNL     1      29.457  30.820  20.199  1.00  0.00     0.272 C 
ATOM      4  C   UNL     1      29.195  32.268  20.600  1.00  0.00     0.113 C 
ATOM      5  O   UNL     1      29.428  30.802  18.838  1.00  0.00    -0.332 OA
ATOM      6  C   UNL     1      28.879  33.086  19.370  1.00  0.00     0.145 C 
ATOM      7  C   UNL     1      30.091  33.011  18.391  1.00  0.00     0.142 C 
BRANCH   3   8
ATOM      8  O   UNL     1      28.457  29.988  20.738  1.00  0.00    -0.338 OA
BRANCH   8   9
ATOM      9  C   UNL     1      27.208  30.477  20.789  1.00  0.00     0.199 C 
BRANCH   9  10
ATOM     10  C   UNL     1      26.285  29.671  19.906  1.00  0.00     0.179 C 
ATOM     11  C   UNL     1      25.660  29.131  17.796  1.00  0.00     0.282 C 
ATOM     12  O   UNL     1      26.592  29.884  18.547  1.00  0.00    -0.341 OA
ATOM     13  C   UNL     1      26.013  27.648  17.850  1.00  0.00     0.202 C 
ATOM     14  C   UNL     1      26.974  27.498  19.039  1.00  0.00     0.179 C 
ATOM     15  C   UNL     1      26.300  28.214  20.191  1.00  0.00     0.177 C 
BRANCH  11  16
ATOM     16  O   UNL     1      25.750  29.536  16.493  1.00  0.00    -0.341 OA
BRANCH  16  17
ATOM     17  C   UNL     1      24.755  30.423  16.108  1.00  0.00     0.184 C 
ATOM     18  C   UNL     1      23.378  29.897  16.307  1.00  0.00     0.178 C 
ATOM     19  O   UNL     1      23.113  28.932  15.383  1.00  0.00    -0.341 OA
ATOM     20  C   UNL     1      23.015  29.376  14.085  1.00  0.00     0.281 C 
ATOM     21  C   UNL     1      24.993  30.839  14.697  1.00  0.00     0.180 C 
ATOM     22  C   UNL     1      23.993  30.411  13.688  1.00  0.00     0.202 C 
BRANCH  18  23
ATOM     23  C   UNL     1      22.389  31.039  16.312  1.00  0.00     0.191 C 
BRANCH  23  24
ATOM     24  O   UNL     1      22.969  32.210  16.813  1.00  0.00    -0.394 OA
ATOM     25  H   UNL     1      22.412  32.562  17.553  1.00  0.00     0.210 HD
ENDBRANCH  23  24
ENDBRANCH  18  23
BRANCH  20  26
ATOM     26  O   UNL     1      21.722  29.888  13.928  1.00  0.00    -0.350 OA
BRANCH  26  27
ATOM     27  C   UNL     1      21.448  30.352  12.667  1.00  0.00     0.169 C 
BRANCH  27  28
ATOM     28  C   UNL     1      20.535  31.555  12.831  1.00  0.00     0.119 C 
BRANCH  28  29
ATOM     29  N   UNL     1      21.202  32.795  12.505  1.00  0.00    -0.092 NA
ATOM     30  N   UNL     1      22.067  33.260  13.269  1.00  0.00     0.001 N 
ATOM     31  N   UNL     1      22.461  33.929  14.244  1.00  0.00    -0.003 NA
ENDBRANCH  28  29
ENDBRANCH  27  28
ENDBRANCH  26  27
ENDBRANCH  20  26
BRANCH  21  32
ATOM     32  O   UNL     1      25.062  32.257  14.622  1.00  0.00    -0.387 OA
ATOM     33  H   UNL     1      24.230  32.647  14.311  1.00  0.00     0.211 HD
ENDBRANCH  21  32
BRANCH  22  34
ATOM     34  O   UNL     1      24.702  29.887  12.575  1.00  0.00    -0.385 OA
ATOM     35  H   UNL     1      24.486  28.918  12.552  1.00  0.00     0.211 HD
ENDBRANCH  22  34
ENDBRANCH  16  17
ENDBRANCH  11  16
BRANCH  13  36
ATOM     36  O   UNL     1      24.906  26.860  18.163  1.00  0.00    -0.385 OA
ATOM     37  H   UNL     1      24.380  27.350  18.842  1.00  0.00     0.211 HD
ENDBRANCH  13  36
BRANCH  14  38
ATOM     38  O   UNL     1      28.110  28.213  18.681  1.00  0.00    -0.387 OA
ATOM     39  H   UNL     1      28.210  29.070  19.167  1.00  0.00     0.211 HD
ENDBRANCH  14  38
BRANCH  15  40
ATOM     40  O   UNL     1      26.857  27.880  21.415  1.00  0.00    -0.387 OA
ATOM     41  H   UNL     1      26.387  27.136  21.871  1.00  0.00     0.211 HD
ENDBRANCH  15  40
ENDBRANCH   9  10
ENDBRANCH   8   9
ENDBRANCH   3   8
BRANCH   3  42
ATOM     42  C   UNL     1      30.720  30.302  20.724  1.00  0.00     0.364 C 
ATOM     43  O   UNL     1      31.091  29.100  20.777  1.00  0.00    -0.246 OA
BRANCH  42  44
ATOM     44  O   UNL     1      31.668  31.217  21.242  1.00  0.00    -0.477 OA
ATOM     45  H   UNL     1      31.460  31.759  22.080  1.00  0.00     0.296 HD
ENDBRANCH  42  44
ENDBRANCH   3  42
BRANCH   6  46
ATOM     46  O   UNL     1      27.780  32.746  18.664  1.00  0.00    -0.391 OA
ATOM     47  H   UNL     1      27.930  31.957  18.057  1.00  0.00     0.211 HD
ENDBRANCH   6  46
BRANCH   7  48
ATOM     48  N   UNL     1      31.128  33.747  19.071  1.00  0.00    -0.348 N 
ATOM     49  C   UNL     1      31.915  34.655  18.331  1.00  0.00     0.217 C 
ATOM     50  H   UNL     1      31.296  33.615  20.071  1.00  0.00     0.163 HD
ATOM     51  C   UNL     1      32.982  35.436  19.012  1.00  0.00     0.114 C 
ATOM     52  O   UNL     1      31.723  34.820  17.085  1.00  0.00    -0.275 OA
ENDBRANCH   7  48
ENDBRANCH   1   2
BRANCH   1  53
ATOM     53  O   UNL     1      30.951  32.258  16.007  1.00  0.00    -0.388 OA
ATOM     54  H   UNL     1      30.160  32.707  15.583  1.00  0.00     0.211 HD
ENDBRANCH   1  53
BRANCH   1  55
ATOM     55  C   UNL     1      29.049  30.904  16.160  1.00  0.00     0.165 C 
BRANCH  55  56
ATOM     56  O   UNL     1      28.619  29.613  16.046  1.00  0.00    -0.388 OA
ATOM     57  H   UNL     1      27.988  29.450  15.310  1.00  0.00     0.211 HD
ENDBRANCH  55  56
BRANCH  55  58
ATOM     58  C   UNL     1      28.559  31.764  15.059  1.00  0.00     0.154 C 
BRANCH  58  59
ATOM     59  N   UNL     1      27.926  33.006  15.403  1.00  0.00    -0.319 N 
ATOM     60  C   UNL     1      28.111  34.226  14.702  1.00  0.00     0.407 C 
ATOM     61  H   UNL     1      27.267  33.048  16.212  1.00  0.00     0.167 HD
ATOM     62  O   UNL     1      28.852  34.269  13.714  1.00  0.00    -0.225 OA
BRANCH  60  63
ATOM     63  O   UNL     1      27.492  35.430  15.059  1.00  0.00    -0.443 OA
BRANCH  63  64
ATOM     64  C   UNL     1      26.069  35.489  15.173  1.00  0.00     0.294 C 
BRANCH  64  65
ATOM     65  C   UNL     1      25.414  35.873  13.902  1.00  0.00     0.120 A 
ATOM     66  C   UNL     1      25.641  35.233  12.701  1.00  0.00     0.141 A 
ATOM     67  N   UNL     1      24.537  36.851  13.647  1.00  0.00    -0.132 NA
ATOM     68  N   UNL     1      24.890  35.850  11.756  1.00  0.00    -0.226 N 
ATOM     69  N   UNL     1      24.233  36.826  12.364  1.00  0.00    -0.065 NA
BRANCH  68  70
ATOM     70  C   UNL     1      24.787  35.536  10.349  1.00  0.00     0.307 C 
BRANCH  70  71
ATOM     71  O   UNL     1      25.942  35.817   9.671  1.00  0.00    -0.355 OA
BRANCH  71  72
ATOM     72  C   UNL     1      26.231  34.793   8.783  1.00  0.00     0.198 C 
BRANCH  72  73
ATOM     73  C   UNL     1      27.727  34.669   8.657  1.00  0.00    -0.022 A 
ATOM     74  C   UNL     1      28.325  35.198   7.532  1.00  0.00     0.006 A 
ATOM     75  C   UNL     1      28.465  34.048   9.631  1.00  0.00     0.006 A 
ATOM     76  C   UNL     1      29.692  35.103   7.379  1.00  0.00     0.000 A 
ATOM     77  C   UNL     1      29.816  33.965   9.459  1.00  0.00     0.000 A 
ATOM     78  C   UNL     1      30.457  34.483   8.344  1.00  0.00     0.000 A 
ENDBRANCH  72  73
ENDBRANCH  71  72
ENDBRANCH  70  71
ENDBRANCH  68  70
ENDBRANCH  64  65
ENDBRANCH  63  64
ENDBRANCH  60  63
ENDBRANCH  58  59
ENDBRANCH  55  58
ENDBRANCH   1  55
TORSDOF 33
BEGIN_RES LYS A 131
REMARK  4 active torsions:
REMARK  status: ('A' for Active; 'I' for Inactive)
REMARK    1  A    between atoms: CA   and  CB  
REMARK    2  A    between atoms: CB   and  CG  
REMARK    3  A    between atoms: CG   and  CD  
REMARK    4  A    between atoms: CD   and  CE  
ROOT
ATOM      1  CA  LYS A 131      29.867  25.555  16.977  1.00 20.52     0.186 C 
ENDROOT
BRANCH   1   2
ATOM      2  CB  LYS A 131      28.345  25.722  17.026  1.00 20.94     0.034 C 
BRANCH   2   3
ATOM      3  CG  LYS A 131      27.599  24.430  16.732  1.00 22.96     0.005 C 
BRANCH   3   4
ATOM      4  CD  LYS A 131      26.990  23.833  17.970  1.00 24.33     0.041 C 
BRANCH   4   5
ATOM      5  CE  LYS A 131      25.737  23.049  17.594  1.00 26.91     0.338 C 
ATOM      6  NZ  LYS A 131      24.777  23.920  16.875  1.00 27.40     0.618 N 
ENDBRANCH   4   5
ENDBRANCH   3   4
ENDBRANCH   2   3
ENDBRANCH   1   2
END_RES LYS A 131
BEGIN_RES LYS A 135
REMARK  4 active torsions:
REMARK  status: ('A' for Active; 'I' for Inactive)
REMARK    5  A    between atoms: CA   and  CB  
REMARK    6  A    between atoms: CB   and  CG  
REMARK    7  A    between atoms: CG   and  CD  
REMARK    8  A    between atoms: CD   and  CE  
ROOT
ATOM      7  CA  LYS A 135      33.193  34.663   9.290  1.00 25.02     0.186 C 
ENDROOT
BRANCH   7   8
ATOM      8  CB  LYS A 135      32.060  35.360  10.034  1.00 26.63     0.034 C 
BRANCH   8   9
ATOM      9  CG  LYS A 135      32.510  36.080  11.279  1.00 29.45     0.005 C 
BRANCH   9  10
ATOM     10  CD  LYS A 135      31.773  35.552  12.500  1.00 32.00     0.041 C 
BRANCH  10  11
ATOM     11  CE  LYS A 135      31.970  36.479  13.684  1.00 34.25     0.338 C 
ATOM     12  NZ  LYS A 135      31.255  37.769  13.480  1.00 35.99     0.618 N 
ENDBRANCH  10  11
ENDBRANCH   9  10
ENDBRANCH   8   9
ENDBRANCH   7   8
END_RES LYS A 135
