REMARK VINA RESULT:    -5.140      4.064      8.650
REMARK INTER + INTRA:         -21.775
REMARK INTER:                 -10.525
REMARK INTRA:                 -11.250
REMARK UNBOUND:                -9.122
REMARK SMILES CC(=O)N[C@@H]1[C@@H](O)C[C@](OC[C@H]2O[C@@H](O[C@H]3[C@H](O)[C@@H](O)[C@H](OCCN=[N+]=[N-])O[C@@H]3CO)[C@H](O)[C@@H](O)[C@H]2O)(C(=O)O)O[C@H]1C(O)[C@H](O)CNC(=O)OCc1cn(-c2ccc(Cl)cc2)nn1
REMARK SMILES IDX 9 1 8 2 6 3 5 4 42 5 41 6 10 7 11 8 12 9 14 10 13 11 32 12
REMARK SMILES IDX 34 13 36 14 15 15 16 16 29 17 28 18 21 19 17 20 19 21 30 22
REMARK SMILES IDX 31 23 22 25 23 26 24 27 25 28 26 29 27 30 18 31 20 33 33 35
REMARK SMILES IDX 35 37 37 39 38 41 39 42 40 43 7 45 43 47 44 48 45 50 46 51
REMARK SMILES IDX 47 53 48 54 49 55 50 57 51 58 52 59 53 60 54 61 64 62 55 63
REMARK SMILES IDX 63 64 56 65 57 66 62 67 58 68 61 69 59 70 60 71 4 72 2 73
REMARK SMILES IDX 1 75 3 76
REMARK H PARENT 31 24 18 32 20 34 33 36 35 38 37 40 40 44 7 46 44 49 46 52
REMARK H PARENT 48 56 4 74
REMARK Flexibility Score: inf
ROOT
ATOM      1  C   UNL     1      24.634  31.801  14.642  1.00  0.00     0.272 C 
ATOM      2  C   UNL     1      24.595  30.943  13.445  1.00  0.00     0.113 C 
ATOM      3  C   UNL     1      23.805  29.699  13.462  1.00  0.00     0.145 C 
ATOM      4  C   UNL     1      22.977  29.618  14.726  1.00  0.00     0.142 C 
ATOM      5  C   UNL     1      23.957  30.000  15.857  1.00  0.00     0.178 C 
ATOM      6  O   UNL     1      23.923  31.424  15.750  1.00  0.00    -0.332 OA
ENDROOT
BRANCH   1   7
ATOM      7  O   UNL     1      24.190  33.093  14.243  1.00  0.00    -0.338 OA
BRANCH   7   8
ATOM      8  C   UNL     1      23.118  33.546  14.962  1.00  0.00     0.199 C 
BRANCH   8   9
ATOM      9  C   UNL     1      22.480  34.774  14.320  1.00  0.00     0.179 C 
ATOM     10  C   UNL     1      22.963  35.862  12.291  1.00  0.00     0.282 C 
ATOM     11  O   UNL     1      23.366  35.482  13.572  1.00  0.00    -0.341 OA
ATOM     12  C   UNL     1      22.651  34.644  11.526  1.00  0.00     0.202 C 
ATOM     13  C   UNL     1      21.505  33.903  12.201  1.00  0.00     0.179 C 
ATOM     14  C   UNL     1      21.213  34.415  13.576  1.00  0.00     0.177 C 
BRANCH  10  15
ATOM     15  O   UNL     1      24.027  36.642  11.840  1.00  0.00    -0.341 OA
BRANCH  15  16
ATOM     16  C   UNL     1      25.169  36.578  12.516  1.00  0.00     0.184 C 
ATOM     17  C   UNL     1      25.813  37.896  12.759  1.00  0.00     0.178 C 
ATOM     18  O   UNL     1      26.814  37.799  13.720  1.00  0.00    -0.341 OA
ATOM     19  C   UNL     1      27.828  36.946  13.429  1.00  0.00     0.281 C 
ATOM     20  C   UNL     1      26.257  35.704  11.858  1.00  0.00     0.180 C 
ATOM     21  C   UNL     1      27.618  36.227  12.147  1.00  0.00     0.202 C 
BRANCH  17  22
ATOM     22  C   UNL     1      24.913  39.036  13.119  1.00  0.00     0.191 C 
BRANCH  22  23
ATOM     23  O   UNL     1      23.903  38.655  14.003  1.00  0.00    -0.394 OA
ATOM     24  H   UNL     1      23.031  38.928  13.634  1.00  0.00     0.210 HD
ENDBRANCH  22  23
ENDBRANCH  17  22
BRANCH  19  25
ATOM     25  O   UNL     1      27.960  35.986  14.440  1.00  0.00    -0.350 OA
BRANCH  25  26
ATOM     26  C   UNL     1      27.996  36.570  15.697  1.00  0.00     0.169 C 
BRANCH  26  27
ATOM     27  C   UNL     1      28.282  35.605  16.807  1.00  0.00     0.119 C 
BRANCH  27  28
ATOM     28  N   UNL     1      27.012  35.337  17.477  1.00  0.00    -0.092 NA
ATOM     29  N   UNL     1      26.895  34.194  17.955  1.00  0.00     0.001 N 
ATOM     30  N   UNL     1      26.875  33.218  18.736  1.00  0.00    -0.003 NA
ENDBRANCH  27  28
ENDBRANCH  26  27
ENDBRANCH  25  26
ENDBRANCH  19  25
BRANCH  20  31
ATOM     31  O   UNL     1      26.120  34.437  12.397  1.00  0.00    -0.387 OA
ATOM     32  H   UNL     1      25.446  34.520  13.144  1.00  0.00     0.211 HD
ENDBRANCH  20  31
BRANCH  21  33
ATOM     33  O   UNL     1      28.135  36.998  11.086  1.00  0.00    -0.385 OA
ATOM     34  H   UNL     1      29.086  36.754  11.031  1.00  0.00     0.211 HD
ENDBRANCH  21  33
ENDBRANCH  15  16
ENDBRANCH  10  15
BRANCH  12  35
ATOM     35  O   UNL     1      22.301  34.845  10.190  1.00  0.00    -0.385 OA
ATOM     36  H   UNL     1      21.491  34.296   9.939  1.00  0.00     0.211 HD
ENDBRANCH  12  35
BRANCH  13  37
ATOM     37  O   UNL     1      21.791  32.540  12.163  1.00  0.00    -0.387 OA
ATOM     38  H   UNL     1      21.985  32.139  13.024  1.00  0.00     0.211 HD
ENDBRANCH  13  37
BRANCH  14  39
ATOM     39  O   UNL     1      20.613  33.388  14.345  1.00  0.00    -0.387 OA
ATOM     40  H   UNL     1      20.474  32.635  13.743  1.00  0.00     0.211 HD
ENDBRANCH  14  39
ENDBRANCH   8   9
ENDBRANCH   7   8
ENDBRANCH   1   7
BRANCH   1  41
ATOM     41  C   UNL     1      26.073  31.995  15.047  1.00  0.00     0.364 C 
ATOM     42  O   UNL     1      26.657  33.092  14.906  1.00  0.00    -0.246 OA
BRANCH  41  43
ATOM     43  O   UNL     1      26.765  30.938  15.585  1.00  0.00    -0.477 OA
ATOM     44  H   UNL     1      26.399  30.336  16.320  1.00  0.00     0.296 HD
ENDBRANCH  41  43
ENDBRANCH   1  41
BRANCH   3  45
ATOM     45  O   UNL     1      22.910  29.652  12.393  1.00  0.00    -0.391 OA
ATOM     46  H   UNL     1      23.425  29.695  11.565  1.00  0.00     0.211 HD
ENDBRANCH   3  45
BRANCH   5  47
ATOM     47  C   UNL     1      23.467  29.619  17.207  1.00  0.00     0.176 C 
BRANCH  47  48
ATOM     48  O   UNL     1      23.725  28.267  17.389  1.00  0.00    -0.388 OA
ATOM     49  H   UNL     1      23.662  27.960  18.326  1.00  0.00     0.211 HD
ENDBRANCH  47  48
BRANCH  47  50
ATOM     50  C   UNL     1      23.868  30.408  18.380  1.00  0.00     0.165 C 
BRANCH  50  51
ATOM     51  O   UNL     1      25.266  30.695  18.168  1.00  0.00    -0.388 OA
ATOM     52  H   UNL     1      25.699  29.930  17.722  1.00  0.00     0.211 HD
ENDBRANCH  50  51
BRANCH  50  53
ATOM     53  C   UNL     1      23.907  29.601  19.669  1.00  0.00     0.154 C 
BRANCH  53  54
ATOM     54  N   UNL     1      25.133  28.883  19.880  1.00  0.00    -0.319 N 
ATOM     55  C   UNL     1      25.888  29.147  21.051  1.00  0.00     0.407 C 
ATOM     56  H   UNL     1      25.506  28.170  19.209  1.00  0.00     0.167 HD
ATOM     57  O   UNL     1      25.518  30.008  21.907  1.00  0.00    -0.225 OA
BRANCH  55  58
ATOM     58  O   UNL     1      27.064  28.468  21.304  1.00  0.00    -0.443 OA
BRANCH  58  59
ATOM     59  C   UNL     1      28.344  29.098  21.197  1.00  0.00     0.294 C 
BRANCH  59  60
ATOM     60  C   UNL     1      28.530  29.656  19.827  1.00  0.00     0.121 A 
ATOM     61  C   UNL     1      29.489  30.592  19.468  1.00  0.00     0.144 A 
ATOM     62  N   UNL     1      27.833  29.372  18.718  1.00  0.00    -0.131 NA
ATOM     63  N   UNL     1      29.344  30.847  18.161  1.00  0.00    -0.220 N 
ATOM     64  N   UNL     1      28.356  30.110  17.742  1.00  0.00    -0.062 NA
BRANCH  63  65
ATOM     65  C   UNL     1      30.177  31.773  17.460  1.00  0.00     0.066 A 
ATOM     66  C   UNL     1      30.535  31.561  16.152  1.00  0.00     0.030 A 
ATOM     67  C   UNL     1      30.636  32.900  18.083  1.00  0.00     0.030 A 
ATOM     68  C   UNL     1      31.346  32.448  15.440  1.00  0.00     0.023 A 
ATOM     69  C   UNL     1      31.445  33.797  17.401  1.00  0.00     0.023 A 
ATOM     70  C   UNL     1      31.804  33.574  16.071  1.00  0.00     0.041 A 
ATOM     71  Cl  UNL     1      32.834  34.724  15.214  1.00  0.00    -0.084 Cl
ENDBRANCH  63  65
ENDBRANCH  59  60
ENDBRANCH  58  59
ENDBRANCH  55  58
ENDBRANCH  53  54
ENDBRANCH  50  53
ENDBRANCH  47  50
ENDBRANCH   5  47
BRANCH   4  72
ATOM     72  N   UNL     1      22.369  28.350  14.871  1.00  0.00    -0.348 N 
ATOM     73  C   UNL     1      20.933  28.242  14.849  1.00  0.00     0.217 C 
ATOM     74  H   UNL     1      22.875  27.457  14.982  1.00  0.00     0.163 HD
ATOM     75  C   UNL     1      20.260  26.920  14.999  1.00  0.00     0.114 C 
ATOM     76  O   UNL     1      20.260  29.293  14.700  1.00  0.00    -0.275 OA
ENDBRANCH   4  72
TORSDOF 30
BEGIN_RES LYS A 131
REMARK  4 active torsions:
REMARK  status: ('A' for Active; 'I' for Inactive)
REMARK    1  A    between atoms: CA   and  CB  
REMARK    2  A    between atoms: CB   and  CG  
REMARK    3  A    between atoms: CG   and  CD  
REMARK    4  A    between atoms: CD   and  CE  
ROOT
ATOM      1  CA  LYS A 131      29.867  25.555  16.977  1.00 20.52     0.186 C 
ENDROOT
BRANCH   1   2
ATOM      2  CB  LYS A 131      28.345  25.722  17.026  1.00 20.94     0.034 C 
BRANCH   2   3
ATOM      3  CG  LYS A 131      27.602  24.400  16.914  1.00 22.96     0.005 C 
BRANCH   3   4
ATOM      4  CD  LYS A 131      26.570  24.236  17.996  1.00 24.33     0.041 C 
BRANCH   4   5
ATOM      5  CE  LYS A 131      26.130  25.610  18.491  1.00 26.91     0.338 C 
ATOM      6  NZ  LYS A 131      24.842  25.512  19.218  1.00 27.40     0.618 N 
ENDBRANCH   4   5
ENDBRANCH   3   4
ENDBRANCH   2   3
ENDBRANCH   1   2
END_RES LYS A 131
BEGIN_RES LYS A 135
REMARK  4 active torsions:
REMARK  status: ('A' for Active; 'I' for Inactive)
REMARK    5  A    between atoms: CA   and  CB  
REMARK    6  A    between atoms: CB   and  CG  
REMARK    7  A    between atoms: CG   and  CD  
REMARK    8  A    between atoms: CD   and  CE  
ROOT
ATOM      7  CA  LYS A 135      33.193  34.663   9.290  1.00 25.02     0.186 C 
ENDROOT
BRANCH   7   8
ATOM      8  CB  LYS A 135      32.060  35.360  10.034  1.00 26.63     0.034 C 
BRANCH   8   9
ATOM      9  CG  LYS A 135      30.721  34.693   9.854  1.00 29.45     0.005 C 
BRANCH   9  10
ATOM     10  CD  LYS A 135      30.407  34.508   8.378  1.00 32.00     0.041 C 
BRANCH  10  11
ATOM     11  CE  LYS A 135      28.952  34.830   8.098  1.00 34.25     0.338 C 
ATOM     12  NZ  LYS A 135      28.052  34.105   9.037  1.00 35.99     0.618 N 
ENDBRANCH  10  11
ENDBRANCH   9  10
ENDBRANCH   8   9
ENDBRANCH   7   8
END_RES LYS A 135
