REMARK VINA RESULT:    -5.758      0.000      0.000
REMARK INTER + INTRA:         -23.806
REMARK INTER:                 -11.531
REMARK INTRA:                 -12.276
REMARK UNBOUND:                -8.960
REMARK SMILES CC(=O)N[C@@H]1[C@@H](O)C[C@](OC[C@H]2O[C@@H](O[C@H]3[C@H](O)[C@@H](O)[C@H](OCCN=[N+]=[N-])O[C@@H]3CO)[C@H](O)[C@@H](O)[C@H]2O)(C(=O)O)O[C@H]1C(O)[C@H](O)CNC(=O)OCc1cn(Cc2cccc(C#N)c2)nn1
REMARK SMILES IDX 9 1 8 2 6 3 5 4 42 5 41 6 10 7 11 8 12 9 14 10 13 11 32 12
REMARK SMILES IDX 34 13 36 14 15 15 16 16 29 17 28 18 21 19 17 20 19 21 30 22
REMARK SMILES IDX 31 23 22 25 23 26 24 27 25 28 26 29 27 30 18 31 20 33 33 35
REMARK SMILES IDX 35 37 37 39 38 41 39 42 40 43 7 45 43 47 44 48 45 50 46 51
REMARK SMILES IDX 47 53 48 54 49 55 50 57 51 58 52 59 53 60 54 61 66 62 55 63
REMARK SMILES IDX 65 64 56 65 57 66 58 67 64 68 59 69 61 70 60 71 62 72 63 73
REMARK SMILES IDX 4 74 2 75 1 77 3 78
REMARK H PARENT 31 24 18 32 20 34 33 36 35 38 37 40 40 44 7 46 44 49 46 52
REMARK H PARENT 48 56 4 76
REMARK Flexibility Score: inf
ROOT
ATOM      1  C   UNL     1      31.275  34.808  15.157  1.00  0.00     0.272 C 
ATOM      2  C   UNL     1      32.471  35.200  15.992  1.00  0.00     0.113 C 
ATOM      3  C   UNL     1      32.222  36.015  17.190  1.00  0.00     0.145 C 
ATOM      4  C   UNL     1      31.018  36.946  17.012  1.00  0.00     0.142 C 
ATOM      5  C   UNL     1      29.856  36.276  16.430  1.00  0.00     0.178 C 
ATOM      6  O   UNL     1      30.060  35.233  15.587  1.00  0.00    -0.332 OA
ENDROOT
BRANCH   1   7
ATOM      7  O   UNL     1      31.245  33.492  15.053  1.00  0.00    -0.338 OA
BRANCH   7   8
ATOM      8  C   UNL     1      31.479  32.372  15.544  1.00  0.00     0.199 C 
BRANCH   8   9
ATOM      9  C   UNL     1      30.498  31.379  16.101  1.00  0.00     0.179 C 
ATOM     10  C   UNL     1      29.525  30.741  18.031  1.00  0.00     0.282 C 
ATOM     11  O   UNL     1      30.078  31.862  17.398  1.00  0.00    -0.341 OA
ATOM     12  C   UNL     1      28.230  30.340  17.411  1.00  0.00     0.202 C 
ATOM     13  C   UNL     1      28.269  30.396  15.895  1.00  0.00     0.179 C 
ATOM     14  C   UNL     1      29.154  31.464  15.351  1.00  0.00     0.177 C 
BRANCH  10  15
ATOM     15  O   UNL     1      29.335  31.031  19.380  1.00  0.00    -0.341 OA
BRANCH  15  16
ATOM     16  C   UNL     1      30.465  30.834  20.130  1.00  0.00     0.184 C 
ATOM     17  C   UNL     1      30.269  29.851  21.225  1.00  0.00     0.178 C 
ATOM     18  O   UNL     1      31.367  29.700  22.042  1.00  0.00    -0.341 OA
ATOM     19  C   UNL     1      31.910  30.862  22.544  1.00  0.00     0.281 C 
ATOM     20  C   UNL     1      30.697  32.191  20.870  1.00  0.00     0.180 C 
ATOM     21  C   UNL     1      32.025  31.992  21.572  1.00  0.00     0.202 C 
BRANCH  17  22
ATOM     22  C   UNL     1      29.953  28.484  20.664  1.00  0.00     0.191 C 
BRANCH  22  23
ATOM     23  O   UNL     1      28.575  28.363  20.461  1.00  0.00    -0.394 OA
ATOM     24  H   UNL     1      28.330  27.572  19.952  1.00  0.00     0.210 HD
ENDBRANCH  22  23
ENDBRANCH  17  22
BRANCH  19  25
ATOM     25  O   UNL     1      33.228  30.549  22.936  1.00  0.00    -0.350 OA
BRANCH  25  26
ATOM     26  C   UNL     1      33.558  29.292  22.502  1.00  0.00     0.169 C 
BRANCH  26  27
ATOM     27  C   UNL     1      34.265  28.480  23.551  1.00  0.00     0.119 C 
BRANCH  27  28
ATOM     28  N   UNL     1      34.036  27.061  23.422  1.00  0.00    -0.092 NA
ATOM     29  N   UNL     1      34.976  26.285  23.647  1.00  0.00     0.001 N 
ATOM     30  N   UNL     1      35.860  25.406  23.757  1.00  0.00    -0.003 NA
ENDBRANCH  27  28
ENDBRANCH  26  27
ENDBRANCH  25  26
ENDBRANCH  19  25
BRANCH  20  31
ATOM     31  O   UNL     1      30.708  33.181  19.924  1.00  0.00    -0.387 OA
ATOM     32  H   UNL     1      29.831  33.258  19.450  1.00  0.00     0.211 HD
ENDBRANCH  20  31
BRANCH  21  33
ATOM     33  O   UNL     1      32.303  33.161  22.275  1.00  0.00    -0.385 OA
ATOM     34  H   UNL     1      32.032  32.994  23.225  1.00  0.00     0.211 HD
ENDBRANCH  21  33
ENDBRANCH  15  16
ENDBRANCH  10  15
BRANCH  12  35
ATOM     35  O   UNL     1      28.009  28.977  17.714  1.00  0.00    -0.385 OA
ATOM     36  H   UNL     1      28.352  28.470  16.938  1.00  0.00     0.211 HD
ENDBRANCH  12  35
BRANCH  13  37
ATOM     37  O   UNL     1      26.959  30.693  15.489  1.00  0.00    -0.387 OA
ATOM     38  H   UNL     1      26.765  30.411  14.575  1.00  0.00     0.211 HD
ENDBRANCH  13  37
BRANCH  14  39
ATOM     39  O   UNL     1      28.567  32.694  15.688  1.00  0.00    -0.387 OA
ATOM     40  H   UNL     1      29.117  33.210  16.310  1.00  0.00     0.211 HD
ENDBRANCH  14  39
ENDBRANCH   8   9
ENDBRANCH   7   8
ENDBRANCH   1   7
BRANCH   1  41
ATOM     41  C   UNL     1      31.473  35.479  13.822  1.00  0.00     0.364 C 
ATOM     42  O   UNL     1      31.107  34.902  12.743  1.00  0.00    -0.246 OA
BRANCH  41  43
ATOM     43  O   UNL     1      32.044  36.718  13.714  1.00  0.00    -0.477 OA
ATOM     44  H   UNL     1      32.178  37.091  12.760  1.00  0.00     0.296 HD
ENDBRANCH  41  43
ENDBRANCH   1  41
BRANCH   3  45
ATOM     45  O   UNL     1      31.997  35.198  18.288  1.00  0.00    -0.391 OA
ATOM     46  H   UNL     1      32.624  34.438  18.346  1.00  0.00     0.211 HD
ENDBRANCH   3  45
BRANCH   5  47
ATOM     47  C   UNL     1      28.866  35.714  17.429  1.00  0.00     0.176 C 
BRANCH  47  48
ATOM     48  O   UNL     1      29.432  34.449  17.799  1.00  0.00    -0.388 OA
ATOM     49  H   UNL     1      28.926  33.759  17.313  1.00  0.00     0.211 HD
ENDBRANCH  47  48
BRANCH  47  50
ATOM     50  C   UNL     1      28.658  36.425  18.701  1.00  0.00     0.165 C 
BRANCH  50  51
ATOM     51  O   UNL     1      29.613  35.759  19.586  1.00  0.00    -0.388 OA
ATOM     52  H   UNL     1      29.339  35.982  20.525  1.00  0.00     0.211 HD
ENDBRANCH  50  51
BRANCH  50  53
ATOM     53  C   UNL     1      27.366  36.252  19.412  1.00  0.00     0.154 C 
BRANCH  53  54
ATOM     54  N   UNL     1      26.495  35.226  18.939  1.00  0.00    -0.319 N 
ATOM     55  C   UNL     1      26.636  33.887  19.435  1.00  0.00     0.407 C 
ATOM     56  H   UNL     1      25.749  35.387  18.251  1.00  0.00     0.167 HD
ATOM     57  O   UNL     1      27.538  33.684  20.280  1.00  0.00    -0.225 OA
BRANCH  55  58
ATOM     58  O   UNL     1      25.842  32.851  19.034  1.00  0.00    -0.443 OA
BRANCH  58  59
ATOM     59  C   UNL     1      24.566  33.073  18.399  1.00  0.00     0.294 C 
BRANCH  59  60
ATOM     60  C   UNL     1      24.772  33.182  16.927  1.00  0.00     0.120 A 
ATOM     61  C   UNL     1      23.807  33.110  15.948  1.00  0.00     0.138 A 
ATOM     62  N   UNL     1      25.930  33.365  16.285  1.00  0.00    -0.132 NA
ATOM     63  N   UNL     1      24.394  33.250  14.727  1.00  0.00    -0.248 N 
ATOM     64  N   UNL     1      25.687  33.404  14.967  1.00  0.00    -0.067 NA
BRANCH  63  65
ATOM     65  C   UNL     1      23.729  33.221  13.456  1.00  0.00     0.181 C 
BRANCH  65  66
ATOM     66  C   UNL     1      23.332  31.829  13.142  1.00  0.00    -0.025 A 
ATOM     67  C   UNL     1      24.210  30.778  13.148  1.00  0.00     0.006 A 
ATOM     68  C   UNL     1      22.007  31.559  12.818  1.00  0.00     0.025 A 
ATOM     69  C   UNL     1      23.836  29.494  12.851  1.00  0.00     0.002 A 
ATOM     70  C   UNL     1      21.631  30.273  12.521  1.00  0.00     0.052 A 
ATOM     71  C   UNL     1      22.520  29.197  12.524  1.00  0.00     0.019 A 
BRANCH  70  72
ATOM     72  C   UNL     1      20.257  30.001  12.191  1.00  0.00     0.099 C 
ATOM     73  N   UNL     1      19.144  29.771  11.913  1.00  0.00    -0.192 NA
ENDBRANCH  70  72
ENDBRANCH  65  66
ENDBRANCH  63  65
ENDBRANCH  59  60
ENDBRANCH  58  59
ENDBRANCH  55  58
ENDBRANCH  53  54
ENDBRANCH  50  53
ENDBRANCH  47  50
ENDBRANCH   5  47
BRANCH   4  74
ATOM     74  N   UNL     1      31.469  38.162  16.338  1.00  0.00    -0.348 N 
ATOM     75  C   UNL     1      31.452  39.386  17.038  1.00  0.00     0.217 C 
ATOM     76  H   UNL     1      31.813  38.196  15.359  1.00  0.00     0.163 HD
ATOM     77  C   UNL     1      31.893  40.674  16.430  1.00  0.00     0.114 C 
ATOM     78  O   UNL     1      31.052  39.396  18.213  1.00  0.00    -0.275 OA
ENDBRANCH   4  74
TORSDOF 32
BEGIN_RES LYS A 131
REMARK  4 active torsions:
REMARK  status: ('A' for Active; 'I' for Inactive)
REMARK    1  A    between atoms: CA   and  CB  
REMARK    2  A    between atoms: CB   and  CG  
REMARK    3  A    between atoms: CG   and  CD  
REMARK    4  A    between atoms: CD   and  CE  
ROOT
ATOM      1  CA  LYS A 131      29.867  25.555  16.977  1.00 20.52     0.186 C 
ENDROOT
BRANCH   1   2
ATOM      2  CB  LYS A 131      28.345  25.722  17.026  1.00 20.94     0.034 C 
BRANCH   2   3
ATOM      3  CG  LYS A 131      27.602  24.399  16.919  1.00 22.96     0.005 C 
BRANCH   3   4
ATOM      4  CD  LYS A 131      26.461  24.310  17.895  1.00 24.33     0.041 C 
BRANCH   4   5
ATOM      5  CE  LYS A 131      26.317  25.637  18.633  1.00 26.91     0.338 C 
ATOM      6  NZ  LYS A 131      25.735  25.422  19.978  1.00 27.40     0.618 N 
ENDBRANCH   4   5
ENDBRANCH   3   4
ENDBRANCH   2   3
ENDBRANCH   1   2
END_RES LYS A 131
BEGIN_RES LYS A 135
REMARK  4 active torsions:
REMARK  status: ('A' for Active; 'I' for Inactive)
REMARK    5  A    between atoms: CA   and  CB  
REMARK    6  A    between atoms: CB   and  CG  
REMARK    7  A    between atoms: CG   and  CD  
REMARK    8  A    between atoms: CD   and  CE  
ROOT
ATOM      7  CA  LYS A 135      33.193  34.663   9.290  1.00 25.02     0.186 C 
ENDROOT
BRANCH   7   8
ATOM      8  CB  LYS A 135      32.060  35.360  10.034  1.00 26.63     0.034 C 
BRANCH   8   9
ATOM      9  CG  LYS A 135      30.810  35.526   9.209  1.00 29.45     0.005 C 
BRANCH   9  10
ATOM     10  CD  LYS A 135      30.147  34.179   8.963  1.00 32.00     0.041 C 
BRANCH  10  11
ATOM     11  CE  LYS A 135      28.685  34.363   8.605  1.00 34.25     0.338 C 
ATOM     12  NZ  LYS A 135      27.800  33.722   9.617  1.00 35.99     0.618 N 
ENDBRANCH  10  11
ENDBRANCH   9  10
ENDBRANCH   8   9
ENDBRANCH   7   8
END_RES LYS A 135
