REMARK VINA RESULT:    -4.871      2.974      7.324
REMARK INTER + INTRA:         -23.764
REMARK INTER:                  -9.665
REMARK INTRA:                 -14.099
REMARK UNBOUND:               -10.207
REMARK SMILES CC(=O)N[C@@H]1[C@@H](O)C[C@](OC[C@H]2O[C@@H](O[C@H]3[C@H](O)[C@@H](O)[C@H](OCCN=[N+]=[N-])O[C@@H]3CO)[C@H](O)[C@@H](O)[C@H]2O)(C(=O)O)O[C@H]1C(O)[C@H](O)CNC(=O)OCc1cn(C[C@H](CC(=O)O)CC(C)C)nn1
REMARK SMILES IDX 43 1 42 2 9 3 8 4 41 5 6 6 5 7 10 8 11 9 12 10 14 11 13 12
REMARK SMILES IDX 32 13 34 14 36 15 15 16 16 17 29 18 28 19 21 20 17 21 19 22
REMARK SMILES IDX 30 23 31 24 22 26 23 27 24 28 25 29 26 30 27 31 18 32 20 34
REMARK SMILES IDX 33 36 35 38 37 40 38 42 39 43 40 44 7 46 4 48 2 49 1 51 3 52
REMARK SMILES IDX 44 53 45 55 46 56 47 58 48 59 49 60 50 62 51 63 52 64 53 65
REMARK SMILES IDX 54 66 67 67 55 68 66 69 56 70 57 71 58 72 59 73 60 74 61 75
REMARK SMILES IDX 62 77 63 78 64 79 65 80
REMARK H PARENT 31 25 18 33 20 35 33 37 35 39 37 41 40 45 7 47 4 50 44 54
REMARK H PARENT 46 57 48 61 61 76
REMARK Flexibility Score: inf
ROOT
ATOM      1  C   UNL     1      31.007  30.371  24.823  1.00  0.00     0.176 C 
ENDROOT
BRANCH   1   2
ATOM      2  C   UNL     1      31.656  29.691  23.650  1.00  0.00     0.178 C 
ATOM      3  C   UNL     1      30.378  29.327  21.639  1.00  0.00     0.272 C 
ATOM      4  C   UNL     1      30.113  27.920  22.036  1.00  0.00     0.113 C 
ATOM      5  O   UNL     1      30.947  30.079  22.559  1.00  0.00    -0.332 OA
ATOM      6  C   UNL     1      30.455  27.520  23.413  1.00  0.00     0.145 C 
ATOM      7  C   UNL     1      31.703  28.231  23.939  1.00  0.00     0.142 C 
BRANCH   3   8
ATOM      8  O   UNL     1      29.159  29.940  21.241  1.00  0.00    -0.338 OA
BRANCH   8   9
ATOM      9  C   UNL     1      28.060  29.146  21.350  1.00  0.00     0.199 C 
BRANCH   9  10
ATOM     10  C   UNL     1      27.152  29.323  20.112  1.00  0.00     0.179 C 
ATOM     11  C   UNL     1      26.746  30.769  18.342  1.00  0.00     0.282 C 
ATOM     12  O   UNL     1      27.663  30.283  19.262  1.00  0.00    -0.341 OA
ATOM     13  C   UNL     1      25.835  29.589  17.968  1.00  0.00     0.202 C 
ATOM     14  C   UNL     1      26.629  28.299  17.960  1.00  0.00     0.179 C 
ATOM     15  C   UNL     1      27.131  28.001  19.332  1.00  0.00     0.177 C 
BRANCH  11  16
ATOM     16  O   UNL     1      27.410  31.088  17.184  1.00  0.00    -0.341 OA
BRANCH  16  17
ATOM     17  C   UNL     1      28.613  31.728  17.324  1.00  0.00     0.184 C 
ATOM     18  C   UNL     1      28.516  33.215  17.498  1.00  0.00     0.178 C 
ATOM     19  O   UNL     1      29.061  33.959  16.494  1.00  0.00    -0.341 OA
ATOM     20  C   UNL     1      30.387  33.695  16.210  1.00  0.00     0.281 C 
ATOM     21  C   UNL     1      29.411  31.467  16.063  1.00  0.00     0.180 C 
ATOM     22  C   UNL     1      30.729  32.246  16.177  1.00  0.00     0.202 C 
BRANCH  18  23
ATOM     23  C   UNL     1      29.074  33.557  18.867  1.00  0.00     0.191 C 
BRANCH  23  24
ATOM     24  O   UNL     1      29.608  32.434  19.493  1.00  0.00    -0.394 OA
ATOM     25  H   UNL     1      28.953  31.685  19.547  1.00  0.00     0.210 HD
ENDBRANCH  23  24
ENDBRANCH  18  23
BRANCH  20  26
ATOM     26  O   UNL     1      31.162  34.450  17.078  1.00  0.00    -0.350 OA
BRANCH  26  27
ATOM     27  C   UNL     1      31.646  35.614  16.506  1.00  0.00     0.169 C 
BRANCH  27  28
ATOM     28  C   UNL     1      32.848  35.223  15.657  1.00  0.00     0.119 C 
BRANCH  28  29
ATOM     29  N   UNL     1      33.969  35.992  16.178  1.00  0.00    -0.092 NA
ATOM     30  N   UNL     1      34.219  35.924  17.358  1.00  0.00     0.001 N 
ATOM     31  N   UNL     1      34.597  36.159  18.514  1.00  0.00    -0.003 NA
ENDBRANCH  28  29
ENDBRANCH  27  28
ENDBRANCH  26  27
ENDBRANCH  20  26
BRANCH  21  32
ATOM     32  O   UNL     1      29.632  30.111  15.908  1.00  0.00    -0.387 OA
ATOM     33  H   UNL     1      28.872  29.755  15.349  1.00  0.00     0.211 HD
ENDBRANCH  21  32
BRANCH  22  34
ATOM     34  O   UNL     1      31.459  31.885  15.025  1.00  0.00    -0.385 OA
ATOM     35  H   UNL     1      30.858  31.991  14.257  1.00  0.00     0.211 HD
ENDBRANCH  22  34
ENDBRANCH  16  17
ENDBRANCH  11  16
BRANCH  13  36
ATOM     36  O   UNL     1      24.691  29.537  18.723  1.00  0.00    -0.385 OA
ATOM     37  H   UNL     1      24.320  28.645  18.844  1.00  0.00     0.211 HD
ENDBRANCH  13  36
BRANCH  14  38
ATOM     38  O   UNL     1      27.731  28.542  17.114  1.00  0.00    -0.387 OA
ATOM     39  H   UNL     1      28.577  28.488  17.585  1.00  0.00     0.211 HD
ENDBRANCH  14  38
BRANCH  15  40
ATOM     40  O   UNL     1      28.448  27.512  19.203  1.00  0.00    -0.387 OA
ATOM     41  H   UNL     1      28.459  26.661  18.736  1.00  0.00     0.211 HD
ENDBRANCH  15  40
ENDBRANCH   9  10
ENDBRANCH   8   9
ENDBRANCH   3   8
BRANCH   3  42
ATOM     42  C   UNL     1      31.180  29.345  20.351  1.00  0.00     0.364 C 
ATOM     43  O   UNL     1      32.333  28.897  20.324  1.00  0.00    -0.246 OA
BRANCH  42  44
ATOM     44  O   UNL     1      30.639  29.856  19.206  1.00  0.00    -0.477 OA
ATOM     45  H   UNL     1      31.122  29.848  18.309  1.00  0.00     0.296 HD
ENDBRANCH  42  44
ENDBRANCH   3  42
BRANCH   6  46
ATOM     46  O   UNL     1      29.452  27.601  24.355  1.00  0.00    -0.391 OA
ATOM     47  H   UNL     1      28.978  28.454  24.194  1.00  0.00     0.211 HD
ENDBRANCH   6  46
BRANCH   7  48
ATOM     48  N   UNL     1      32.817  27.510  23.383  1.00  0.00    -0.348 N 
ATOM     49  C   UNL     1      33.767  26.917  24.296  1.00  0.00     0.217 C 
ATOM     50  H   UNL     1      33.015  27.374  22.368  1.00  0.00     0.163 HD
ATOM     51  C   UNL     1      34.928  26.158  23.711  1.00  0.00     0.114 C 
ATOM     52  O   UNL     1      33.653  27.015  25.542  1.00  0.00    -0.275 OA
ENDBRANCH   7  48
ENDBRANCH   1   2
BRANCH   1  53
ATOM     53  O   UNL     1      29.690  30.764  24.439  1.00  0.00    -0.388 OA
ATOM     54  H   UNL     1      29.158  29.952  24.233  1.00  0.00     0.211 HD
ENDBRANCH   1  53
BRANCH   1  55
ATOM     55  C   UNL     1      31.633  31.661  25.304  1.00  0.00     0.165 C 
BRANCH  55  56
ATOM     56  O   UNL     1      31.704  32.411  24.052  1.00  0.00    -0.388 OA
ATOM     57  H   UNL     1      32.116  31.724  23.435  1.00  0.00     0.211 HD
ENDBRANCH  55  56
BRANCH  55  58
ATOM     58  C   UNL     1      33.070  31.509  25.668  1.00  0.00     0.154 C 
BRANCH  58  59
ATOM     59  N   UNL     1      33.926  32.290  24.850  1.00  0.00    -0.319 N 
ATOM     60  C   UNL     1      34.975  31.577  24.158  1.00  0.00     0.407 C 
ATOM     61  H   UNL     1      33.904  33.313  24.685  1.00  0.00     0.167 HD
ATOM     62  O   UNL     1      35.079  30.326  24.301  1.00  0.00    -0.225 OA
BRANCH  60  63
ATOM     63  O   UNL     1      35.895  32.189  23.336  1.00  0.00    -0.443 OA
BRANCH  63  64
ATOM     64  C   UNL     1      35.706  32.491  21.969  1.00  0.00     0.294 C 
BRANCH  64  65
ATOM     65  C   UNL     1      34.321  32.945  21.657  1.00  0.00     0.120 A 
ATOM     66  C   UNL     1      33.847  34.230  21.519  1.00  0.00     0.138 A 
ATOM     67  N   UNL     1      33.284  32.128  21.453  1.00  0.00    -0.132 NA
ATOM     68  N   UNL     1      32.512  34.163  21.230  1.00  0.00    -0.252 N 
ATOM     69  N   UNL     1      32.228  32.882  21.203  1.00  0.00    -0.067 NA
BRANCH  68  70
ATOM     70  C   UNL     1      31.621  35.247  21.032  1.00  0.00     0.150 C 
BRANCH  70  71
ATOM     71  C   UNL     1      30.764  35.591  22.176  1.00  0.00     0.022 C 
BRANCH  71  72
ATOM     72  C   UNL     1      29.337  35.194  22.100  1.00  0.00     0.128 C 
BRANCH  72  73
ATOM     73  C   UNL     1      28.960  33.927  22.741  1.00  0.00     0.303 C 
ATOM     74  O   UNL     1      28.156  33.943  23.710  1.00  0.00    -0.252 OA
BRANCH  73  75
ATOM     75  O   UNL     1      29.442  32.688  22.340  1.00  0.00    -0.481 OA
ATOM     76  H   UNL     1      29.839  32.053  23.016  1.00  0.00     0.296 HD
ENDBRANCH  73  75
ENDBRANCH  72  73
ENDBRANCH  71  72
BRANCH  71  77
ATOM     77  C   UNL     1      30.960  36.979  22.714  1.00  0.00     0.009 C 
BRANCH  77  78
ATOM     78  C   UNL     1      30.300  37.371  23.958  1.00  0.00    -0.017 C 
ATOM     79  C   UNL     1      31.111  37.497  25.197  1.00  0.00     0.007 C 
ATOM     80  C   UNL     1      29.425  38.606  23.843  1.00  0.00     0.007 C 
ENDBRANCH  77  78
ENDBRANCH  71  77
ENDBRANCH  70  71
ENDBRANCH  68  70
ENDBRANCH  64  65
ENDBRANCH  63  64
ENDBRANCH  60  63
ENDBRANCH  58  59
ENDBRANCH  55  58
ENDBRANCH   1  55
TORSDOF 36
BEGIN_RES LYS A 131
REMARK  4 active torsions:
REMARK  status: ('A' for Active; 'I' for Inactive)
REMARK    1  A    between atoms: CA   and  CB  
REMARK    2  A    between atoms: CB   and  CG  
REMARK    3  A    between atoms: CG   and  CD  
REMARK    4  A    between atoms: CD   and  CE  
ROOT
ATOM      1  CA  LYS A 131      29.867  25.555  16.977  1.00 20.52     0.186 C 
ENDROOT
BRANCH   1   2
ATOM      2  CB  LYS A 131      28.345  25.722  17.026  1.00 20.94     0.034 C 
BRANCH   2   3
ATOM      3  CG  LYS A 131      27.599  24.475  16.576  1.00 22.96     0.005 C 
BRANCH   3   4
ATOM      4  CD  LYS A 131      27.037  23.702  17.736  1.00 24.33     0.041 C 
BRANCH   4   5
ATOM      5  CE  LYS A 131      26.029  24.568  18.485  1.00 26.91     0.338 C 
ATOM      6  NZ  LYS A 131      24.986  23.723  19.114  1.00 27.40     0.618 N 
ENDBRANCH   4   5
ENDBRANCH   3   4
ENDBRANCH   2   3
ENDBRANCH   1   2
END_RES LYS A 131
BEGIN_RES LYS A 135
REMARK  4 active torsions:
REMARK  status: ('A' for Active; 'I' for Inactive)
REMARK    5  A    between atoms: CA   and  CB  
REMARK    6  A    between atoms: CB   and  CG  
REMARK    7  A    between atoms: CG   and  CD  
REMARK    8  A    between atoms: CD   and  CE  
ROOT
ATOM      7  CA  LYS A 135      33.193  34.663   9.290  1.00 25.02     0.186 C 
ENDROOT
BRANCH   7   8
ATOM      8  CB  LYS A 135      32.060  35.360  10.034  1.00 26.63     0.034 C 
BRANCH   8   9
ATOM      9  CG  LYS A 135      30.796  35.487   9.224  1.00 29.45     0.005 C 
BRANCH   9  10
ATOM     10  CD  LYS A 135      29.994  34.196   9.274  1.00 32.00     0.041 C 
BRANCH  10  11
ATOM     11  CE  LYS A 135      28.738  34.380  10.104  1.00 34.25     0.338 C 
ATOM     12  NZ  LYS A 135      27.549  33.813   9.410  1.00 35.99     0.618 N 
ENDBRANCH  10  11
ENDBRANCH   9  10
ENDBRANCH   8   9
ENDBRANCH   7   8
END_RES LYS A 135
