REMARK VINA RESULT:    -5.463      0.000      0.000
REMARK INTER + INTRA:         -24.646
REMARK INTER:                 -12.356
REMARK INTRA:                 -12.290
REMARK UNBOUND:               -11.198
REMARK SMILES CC(=O)N[C@@H]1[C@@H](O)C[C@](OC[C@H]2O[C@@H](O[C@H]3[C@H](O)[C@@H](O)[C@H](OCCN=[N+]=[N-])O[C@@H]3CO)[C@H](O)[C@@H](O)[C@H]2O)(C(=O)O)O[C@H]1C(O)[C@H](O)CNC(=O)OCc1cn(C23CC4CC(CC(C4)C2)C3)nn1
REMARK SMILES IDX 9 1 8 2 6 3 5 4 42 5 41 6 10 7 11 8 12 9 14 10 13 11 32 12
REMARK SMILES IDX 34 13 36 14 15 15 16 16 29 17 28 18 21 19 17 20 19 21 30 22
REMARK SMILES IDX 31 23 22 25 23 26 24 27 25 28 26 29 27 30 18 31 20 33 33 35
REMARK SMILES IDX 35 37 37 39 38 41 39 42 40 43 7 45 43 47 44 48 45 50 46 51
REMARK SMILES IDX 47 53 48 54 49 55 50 57 51 58 52 59 53 60 54 61 67 62 55 63
REMARK SMILES IDX 66 64 56 65 65 66 64 67 57 68 60 69 62 70 58 71 59 72 61 73
REMARK SMILES IDX 63 74 4 75 2 76 1 78 3 79
REMARK H PARENT 31 24 18 32 20 34 33 36 35 38 37 40 40 44 7 46 44 49 46 52
REMARK H PARENT 48 56 4 77
REMARK Flexibility Score: inf
ROOT
ATOM      1  C   UNL     1      24.032  36.983   8.916  1.00  0.00     0.272 C 
ATOM      2  C   UNL     1      23.339  35.704   8.592  1.00  0.00     0.113 C 
ATOM      3  C   UNL     1      21.938  35.969   8.078  1.00  0.00     0.145 C 
ATOM      4  C   UNL     1      21.132  36.385   9.317  1.00  0.00     0.142 C 
ATOM      5  C   UNL     1      21.992  37.382  10.036  1.00  0.00     0.178 C 
ATOM      6  O   UNL     1      23.011  37.927   9.296  1.00  0.00    -0.332 OA
ENDROOT
BRANCH   1   7
ATOM      7  O   UNL     1      24.689  37.595   7.941  1.00  0.00    -0.338 OA
BRANCH   7   8
ATOM      8  C   UNL     1      25.181  38.806   7.881  1.00  0.00     0.199 C 
BRANCH   8   9
ATOM      9  C   UNL     1      26.633  39.109   7.709  1.00  0.00     0.179 C 
ATOM     10  C   UNL     1      28.738  38.333   7.821  1.00  0.00     0.282 C 
ATOM     11  O   UNL     1      27.400  37.925   8.001  1.00  0.00    -0.341 OA
ATOM     12  C   UNL     1      29.041  38.092   6.378  1.00  0.00     0.202 C 
ATOM     13  C   UNL     1      27.791  38.433   5.589  1.00  0.00     0.179 C 
ATOM     14  C   UNL     1      26.972  39.500   6.275  1.00  0.00     0.177 C 
BRANCH  10  15
ATOM     15  O   UNL     1      29.583  37.676   8.709  1.00  0.00    -0.341 OA
BRANCH  15  16
ATOM     16  C   UNL     1      29.616  38.352   9.892  1.00  0.00     0.184 C 
ATOM     17  C   UNL     1      30.911  38.957  10.300  1.00  0.00     0.178 C 
ATOM     18  O   UNL     1      30.596  39.931  11.276  1.00  0.00    -0.341 OA
ATOM     19  C   UNL     1      30.197  39.317  12.486  1.00  0.00     0.281 C 
ATOM     20  C   UNL     1      29.199  37.468  11.072  1.00  0.00     0.180 C 
ATOM     21  C   UNL     1      29.089  38.341  12.274  1.00  0.00     0.202 C 
BRANCH  17  22
ATOM     22  C   UNL     1      31.756  39.521   9.221  1.00  0.00     0.191 C 
BRANCH  22  23
ATOM     23  O   UNL     1      32.135  38.461   8.381  1.00  0.00    -0.394 OA
ATOM     24  H   UNL     1      31.476  38.320   7.652  1.00  0.00     0.210 HD
ENDBRANCH  22  23
ENDBRANCH  17  22
BRANCH  19  25
ATOM     25  O   UNL     1      29.732  40.350  13.267  1.00  0.00    -0.350 OA
BRANCH  25  26
ATOM     26  C   UNL     1      29.361  41.478  12.633  1.00  0.00     0.169 C 
BRANCH  26  27
ATOM     27  C   UNL     1      27.888  41.728  12.700  1.00  0.00     0.119 C 
BRANCH  27  28
ATOM     28  N   UNL     1      27.305  41.042  13.859  1.00  0.00    -0.092 NA
ATOM     29  N   UNL     1      26.316  40.347  13.663  1.00  0.00     0.001 N 
ATOM     30  N   UNL     1      25.184  39.821  13.711  1.00  0.00    -0.003 NA
ENDBRANCH  27  28
ENDBRANCH  26  27
ENDBRANCH  25  26
ENDBRANCH  19  25
BRANCH  20  31
ATOM     31  O   UNL     1      27.962  36.866  10.842  1.00  0.00    -0.387 OA
ATOM     32  H   UNL     1      27.300  37.255  11.455  1.00  0.00     0.211 HD
ENDBRANCH  20  31
BRANCH  21  33
ATOM     33  O   UNL     1      29.006  37.501  13.383  1.00  0.00    -0.385 OA
ATOM     34  H   UNL     1      28.079  37.247  13.557  1.00  0.00     0.211 HD
ENDBRANCH  21  33
ENDBRANCH  15  16
ENDBRANCH  10  15
BRANCH  12  35
ATOM     35  O   UNL     1      30.151  38.732   5.889  1.00  0.00    -0.385 OA
ATOM     36  H   UNL     1      30.950  38.483   6.410  1.00  0.00     0.211 HD
ENDBRANCH  12  35
BRANCH  13  37
ATOM     37  O   UNL     1      27.023  37.313   5.296  1.00  0.00    -0.387 OA
ATOM     38  H   UNL     1      26.121  37.616   4.955  1.00  0.00     0.211 HD
ENDBRANCH  13  37
BRANCH  14  39
ATOM     39  O   UNL     1      25.778  39.633   5.581  1.00  0.00    -0.387 OA
ATOM     40  H   UNL     1      25.017  39.232   6.077  1.00  0.00     0.211 HD
ENDBRANCH  14  39
ENDBRANCH   8   9
ENDBRANCH   7   8
ENDBRANCH   1   7
BRANCH   1  41
ATOM     41  C   UNL     1      24.794  36.839  10.168  1.00  0.00     0.364 C 
ATOM     42  O   UNL     1      25.049  37.738  10.980  1.00  0.00    -0.246 OA
BRANCH  41  43
ATOM     43  O   UNL     1      25.270  35.521  10.434  1.00  0.00    -0.477 OA
ATOM     44  H   UNL     1      25.542  35.297  11.367  1.00  0.00     0.296 HD
ENDBRANCH  41  43
ENDBRANCH   1  41
BRANCH   3  45
ATOM     45  O   UNL     1      21.960  37.059   7.218  1.00  0.00    -0.391 OA
ATOM     46  H   UNL     1      22.872  37.445   7.259  1.00  0.00     0.211 HD
ENDBRANCH   3  45
BRANCH   5  47
ATOM     47  C   UNL     1      21.143  38.641  10.459  1.00  0.00     0.176 C 
BRANCH  47  48
ATOM     48  O   UNL     1      21.303  39.459   9.321  1.00  0.00    -0.388 OA
ATOM     49  H   UNL     1      21.923  40.176   9.603  1.00  0.00     0.211 HD
ENDBRANCH  47  48
BRANCH  47  50
ATOM     50  C   UNL     1      21.742  39.285  11.627  1.00  0.00     0.165 C 
BRANCH  50  51
ATOM     51  O   UNL     1      23.080  39.691  11.476  1.00  0.00    -0.388 OA
ATOM     52  H   UNL     1      23.196  40.094  10.564  1.00  0.00     0.211 HD
ENDBRANCH  50  51
BRANCH  50  53
ATOM     53  C   UNL     1      21.595  38.617  12.940  1.00  0.00     0.154 C 
BRANCH  53  54
ATOM     54  N   UNL     1      22.764  37.980  13.422  1.00  0.00    -0.319 N 
ATOM     55  C   UNL     1      23.046  36.607  13.472  1.00  0.00     0.407 C 
ATOM     56  H   UNL     1      23.538  38.657  13.804  1.00  0.00     0.167 HD
ATOM     57  O   UNL     1      22.219  35.769  13.080  1.00  0.00    -0.225 OA
BRANCH  55  58
ATOM     58  O   UNL     1      24.301  36.193  13.979  1.00  0.00    -0.443 OA
BRANCH  58  59
ATOM     59  C   UNL     1      24.653  34.840  13.835  1.00  0.00     0.294 C 
BRANCH  59  60
ATOM     60  C   UNL     1      26.118  34.713  13.777  1.00  0.00     0.120 A 
ATOM     61  C   UNL     1      26.915  34.244  14.789  1.00  0.00     0.138 A 
ATOM     62  N   UNL     1      26.941  35.020  12.758  1.00  0.00    -0.132 NA
ATOM     63  N   UNL     1      28.178  34.280  14.356  1.00  0.00    -0.246 N 
ATOM     64  N   UNL     1      28.163  34.754  13.125  1.00  0.00    -0.066 NA
BRANCH  63  65
ATOM     65  C   UNL     1      29.308  33.855  15.158  1.00  0.00     0.065 C 
ATOM     66  C   UNL     1      29.097  32.431  15.567  1.00  0.00     0.034 C 
ATOM     67  C   UNL     1      30.599  34.072  14.395  1.00  0.00     0.034 C 
ATOM     68  C   UNL     1      29.387  34.700  16.417  1.00  0.00     0.034 C 
ATOM     69  C   UNL     1      30.268  31.935  16.377  1.00  0.00    -0.008 C 
ATOM     70  C   UNL     1      31.742  33.513  15.190  1.00  0.00    -0.008 C 
ATOM     71  C   UNL     1      30.578  34.220  17.211  1.00  0.00    -0.008 C 
ATOM     72  C   UNL     1      30.397  32.784  17.617  1.00  0.00     0.007 C 
ATOM     73  C   UNL     1      31.510  32.072  15.526  1.00  0.00     0.007 C 
ATOM     74  C   UNL     1      31.873  34.344  16.459  1.00  0.00     0.007 C 
ENDBRANCH  63  65
ENDBRANCH  59  60
ENDBRANCH  58  59
ENDBRANCH  55  58
ENDBRANCH  53  54
ENDBRANCH  50  53
ENDBRANCH  47  50
ENDBRANCH   5  47
BRANCH   4  75
ATOM     75  N   UNL     1      20.945  35.191  10.149  1.00  0.00    -0.348 N 
ATOM     76  C   UNL     1      19.661  34.832  10.645  1.00  0.00     0.217 C 
ATOM     77  H   UNL     1      21.767  34.584  10.392  1.00  0.00     0.163 HD
ATOM     78  C   UNL     1      19.489  33.605  11.504  1.00  0.00     0.114 C 
ATOM     79  O   UNL     1      18.688  35.560  10.350  1.00  0.00    -0.275 OA
ENDBRANCH   4  75
TORSDOF 30
BEGIN_RES LYS A 131
REMARK  4 active torsions:
REMARK  status: ('A' for Active; 'I' for Inactive)
REMARK    1  A    between atoms: CA   and  CB  
REMARK    2  A    between atoms: CB   and  CG  
REMARK    3  A    between atoms: CG   and  CD  
REMARK    4  A    between atoms: CD   and  CE  
ROOT
ATOM      1  CA  LYS A 131      29.867  25.555  16.977  1.00 20.52     0.186 C 
ENDROOT
BRANCH   1   2
ATOM      2  CB  LYS A 131      28.345  25.722  17.026  1.00 20.94     0.034 C 
BRANCH   2   3
ATOM      3  CG  LYS A 131      27.599  24.444  16.674  1.00 22.96     0.005 C 
BRANCH   3   4
ATOM      4  CD  LYS A 131      26.441  24.191  17.600  1.00 24.33     0.041 C 
BRANCH   4   5
ATOM      5  CE  LYS A 131      26.006  25.505  18.241  1.00 26.91     0.338 C 
ATOM      6  NZ  LYS A 131      25.171  25.246  19.438  1.00 27.40     0.618 N 
ENDBRANCH   4   5
ENDBRANCH   3   4
ENDBRANCH   2   3
ENDBRANCH   1   2
END_RES LYS A 131
BEGIN_RES LYS A 135
REMARK  4 active torsions:
REMARK  status: ('A' for Active; 'I' for Inactive)
REMARK    5  A    between atoms: CA   and  CB  
REMARK    6  A    between atoms: CB   and  CG  
REMARK    7  A    between atoms: CG   and  CD  
REMARK    8  A    between atoms: CD   and  CE  
ROOT
ATOM      7  CA  LYS A 135      33.193  34.663   9.290  1.00 25.02     0.186 C 
ENDROOT
BRANCH   7   8
ATOM      8  CB  LYS A 135      32.060  35.360  10.034  1.00 26.63     0.034 C 
BRANCH   8   9
ATOM      9  CG  LYS A 135      30.756  34.605   9.990  1.00 29.45     0.005 C 
BRANCH   9  10
ATOM     10  CD  LYS A 135      30.326  34.360   8.552  1.00 32.00     0.041 C 
BRANCH  10  11
ATOM     11  CE  LYS A 135      28.814  34.359   8.441  1.00 34.25     0.338 C 
ATOM     12  NZ  LYS A 135      28.190  33.686   9.615  1.00 35.99     0.618 N 
ENDBRANCH  10  11
ENDBRANCH   9  10
ENDBRANCH   8   9
ENDBRANCH   7   8
END_RES LYS A 135
