REMARK VINA RESULT:    -4.620      3.775      8.798
REMARK INTER + INTRA:         -21.706
REMARK INTER:                 -11.543
REMARK INTRA:                 -10.163
REMARK UNBOUND:                -9.660
REMARK SMILES CC(=O)N[C@@H]1[C@@H](O)C[C@](OC[C@H]2O[C@@H](O[C@H]3[C@H](O)[C@@H](O)[C@H](OCCN=[N+]=[N-])O[C@@H]3CO)[C@H](O)[C@@H](O)[C@H]2O)(C(=O)O)O[C@H]1C(O)[C@H](O)CNC(=O)OCc1cn(CCC(=O)O)nn1
REMARK SMILES IDX 43 1 42 2 9 3 8 4 41 5 6 6 5 7 10 8 11 9 12 10 14 11 13 12
REMARK SMILES IDX 32 13 34 14 36 15 15 16 16 17 29 18 28 19 21 20 17 21 19 22
REMARK SMILES IDX 30 23 31 24 22 26 23 27 24 28 25 29 26 30 27 31 18 32 20 34
REMARK SMILES IDX 33 36 35 38 37 40 38 42 39 43 40 44 7 46 4 48 2 49 1 51 3 52
REMARK SMILES IDX 44 53 45 55 46 56 47 58 48 59 49 60 50 62 51 63 52 64 53 65
REMARK SMILES IDX 54 66 62 67 55 68 61 69 56 70 57 71 58 72 59 73 60 74
REMARK H PARENT 31 25 18 33 20 35 33 37 35 39 37 41 40 45 7 47 4 50 44 54
REMARK H PARENT 46 57 48 61 60 75
REMARK Flexibility Score: inf
ROOT
ATOM      1  C   UNL     1      28.070  35.687  11.844  1.00  0.00     0.176 C 
ENDROOT
BRANCH   1   2
ATOM      2  C   UNL     1      29.127  36.552  12.488  1.00  0.00     0.178 C 
ATOM      3  C   UNL     1      31.162  36.400  13.646  1.00  0.00     0.272 C 
ATOM      4  C   UNL     1      30.990  37.885  13.382  1.00  0.00     0.113 C 
ATOM      5  O   UNL     1      29.811  35.910  13.487  1.00  0.00    -0.332 OA
ATOM      6  C   UNL     1      29.652  38.400  13.951  1.00  0.00     0.145 C 
ATOM      7  C   UNL     1      28.525  37.802  13.118  1.00  0.00     0.142 C 
BRANCH   3   8
ATOM      8  O   UNL     1      31.558  36.182  14.913  1.00  0.00    -0.338 OA
BRANCH   8   9
ATOM      9  C   UNL     1      31.891  35.064  15.496  1.00  0.00     0.199 C 
BRANCH   9  10
ATOM     10  C   UNL     1      31.014  34.149  16.237  1.00  0.00     0.179 C 
ATOM     11  C   UNL     1      28.911  33.481  16.876  1.00  0.00     0.282 C 
ATOM     12  O   UNL     1      29.678  34.440  16.280  1.00  0.00    -0.341 OA
ATOM     13  C   UNL     1      29.650  32.289  17.416  1.00  0.00     0.202 C 
ATOM     14  C   UNL     1      30.662  31.749  16.424  1.00  0.00     0.179 C 
ATOM     15  C   UNL     1      31.062  32.806  15.420  1.00  0.00     0.177 C 
BRANCH  11  16
ATOM     16  O   UNL     1      27.904  32.979  16.052  1.00  0.00    -0.341 OA
BRANCH  16  17
ATOM     17  C   UNL     1      26.955  32.223  16.735  1.00  0.00     0.184 C 
ATOM     18  C   UNL     1      26.668  30.992  15.947  1.00  0.00     0.178 C 
ATOM     19  O   UNL     1      25.362  30.940  15.430  1.00  0.00    -0.341 OA
ATOM     20  C   UNL     1      25.197  32.161  14.746  1.00  0.00     0.281 C 
ATOM     21  C   UNL     1      25.763  33.104  16.968  1.00  0.00     0.180 C 
ATOM     22  C   UNL     1      24.823  33.172  15.805  1.00  0.00     0.202 C 
BRANCH  18  23
ATOM     23  C   UNL     1      26.892  29.738  16.777  1.00  0.00     0.191 C 
BRANCH  23  24
ATOM     24  O   UNL     1      28.029  29.065  16.338  1.00  0.00    -0.394 OA
ATOM     25  H   UNL     1      28.674  29.026  17.083  1.00  0.00     0.210 HD
ENDBRANCH  23  24
ENDBRANCH  18  23
BRANCH  20  26
ATOM     26  O   UNL     1      24.252  32.069  13.752  1.00  0.00    -0.350 OA
BRANCH  26  27
ATOM     27  C   UNL     1      23.506  30.908  13.933  1.00  0.00     0.169 C 
BRANCH  27  28
ATOM     28  C   UNL     1      22.694  30.632  12.675  1.00  0.00     0.119 C 
BRANCH  28  29
ATOM     29  N   UNL     1      21.372  31.172  12.916  1.00  0.00    -0.092 NA
ATOM     30  N   UNL     1      21.114  32.300  12.501  1.00  0.00     0.001 N 
ATOM     31  N   UNL     1      20.565  33.355  12.115  1.00  0.00    -0.003 NA
ENDBRANCH  28  29
ENDBRANCH  27  28
ENDBRANCH  26  27
ENDBRANCH  20  26
BRANCH  21  32
ATOM     32  O   UNL     1      25.076  32.592  18.063  1.00  0.00    -0.387 OA
ATOM     33  H   UNL     1      25.520  32.900  18.878  1.00  0.00     0.211 HD
ENDBRANCH  21  32
BRANCH  22  34
ATOM     34  O   UNL     1      24.776  34.462  15.274  1.00  0.00    -0.385 OA
ATOM     35  H   UNL     1      23.847  34.820  15.321  1.00  0.00     0.211 HD
ENDBRANCH  22  34
ENDBRANCH  16  17
ENDBRANCH  11  16
BRANCH  13  36
ATOM     36  O   UNL     1      30.226  32.518  18.675  1.00  0.00    -0.385 OA
ATOM     37  H   UNL     1      30.995  33.103  18.581  1.00  0.00     0.211 HD
ENDBRANCH  13  36
BRANCH  14  38
ATOM     38  O   UNL     1      30.194  30.595  15.837  1.00  0.00    -0.387 OA
ATOM     39  H   UNL     1      30.720  30.363  15.045  1.00  0.00     0.211 HD
ENDBRANCH  14  38
BRANCH  15  40
ATOM     40  O   UNL     1      30.139  32.961  14.413  1.00  0.00    -0.387 OA
ATOM     41  H   UNL     1      30.063  33.874  14.053  1.00  0.00     0.211 HD
ENDBRANCH  15  40
ENDBRANCH   9  10
ENDBRANCH   8   9
ENDBRANCH   3   8
BRANCH   3  42
ATOM     42  C   UNL     1      31.956  35.701  12.631  1.00  0.00     0.364 C 
ATOM     43  O   UNL     1      32.965  36.255  12.130  1.00  0.00    -0.246 OA
BRANCH  42  44
ATOM     44  O   UNL     1      31.625  34.441  12.204  1.00  0.00    -0.477 OA
ATOM     45  H   UNL     1      32.268  33.700  12.012  1.00  0.00     0.296 HD
ENDBRANCH  42  44
ENDBRANCH   3  42
BRANCH   6  46
ATOM     46  O   UNL     1      29.546  37.917  15.236  1.00  0.00    -0.391 OA
ATOM     47  H   UNL     1      29.265  38.674  15.829  1.00  0.00     0.211 HD
ENDBRANCH   6  46
BRANCH   7  48
ATOM     48  N   UNL     1      28.068  38.735  12.141  1.00  0.00    -0.348 N 
ATOM     49  C   UNL     1      26.742  39.237  12.221  1.00  0.00     0.217 C 
ATOM     50  H   UNL     1      28.667  39.073  11.357  1.00  0.00     0.163 HD
ATOM     51  C   UNL     1      26.185  40.207  11.247  1.00  0.00     0.114 C 
ATOM     52  O   UNL     1      25.963  38.868  13.148  1.00  0.00    -0.275 OA
ENDBRANCH   7  48
ENDBRANCH   1   2
BRANCH   1  53
ATOM     53  O   UNL     1      28.686  34.524  11.381  1.00  0.00    -0.388 OA
ATOM     54  H   UNL     1      28.613  34.441  10.409  1.00  0.00     0.211 HD
ENDBRANCH   1  53
BRANCH   1  55
ATOM     55  C   UNL     1      26.940  35.304  12.746  1.00  0.00     0.165 C 
BRANCH  55  56
ATOM     56  O   UNL     1      27.461  34.617  13.847  1.00  0.00    -0.388 OA
ATOM     57  H   UNL     1      26.710  34.306  14.406  1.00  0.00     0.211 HD
ENDBRANCH  55  56
BRANCH  55  58
ATOM     58  C   UNL     1      26.072  34.312  11.964  1.00  0.00     0.154 C 
BRANCH  58  59
ATOM     59  N   UNL     1      25.191  35.001  11.063  1.00  0.00    -0.319 N 
ATOM     60  C   UNL     1      23.864  35.401  11.380  1.00  0.00     0.407 C 
ATOM     61  H   UNL     1      25.515  35.254  10.081  1.00  0.00     0.167 HD
ATOM     62  O   UNL     1      23.432  35.130  12.529  1.00  0.00    -0.225 OA
BRANCH  60  63
ATOM     63  O   UNL     1      23.052  36.064  10.477  1.00  0.00    -0.443 OA
BRANCH  63  64
ATOM     64  C   UNL     1      23.253  35.868   9.100  1.00  0.00     0.294 C 
BRANCH  64  65
ATOM     65  C   UNL     1      23.617  37.134   8.436  1.00  0.00     0.120 A 
ATOM     66  C   UNL     1      24.882  37.700   8.526  1.00  0.00     0.138 A 
ATOM     67  N   UNL     1      22.851  37.930   7.651  1.00  0.00    -0.132 NA
ATOM     68  N   UNL     1      24.830  38.829   7.780  1.00  0.00    -0.252 N 
ATOM     69  N   UNL     1      23.610  38.938   7.275  1.00  0.00    -0.067 NA
BRANCH  68  70
ATOM     70  C   UNL     1      25.916  39.760   7.560  1.00  0.00     0.158 C 
BRANCH  70  71
ATOM     71  C   UNL     1      26.340  39.850   6.111  1.00  0.00     0.146 C 
BRANCH  71  72
ATOM     72  C   UNL     1      27.540  39.022   5.933  1.00  0.00     0.305 C 
ATOM     73  O   UNL     1      27.588  38.195   4.996  1.00  0.00    -0.252 OA
BRANCH  72  74
ATOM     74  O   UNL     1      28.639  39.126   6.784  1.00  0.00    -0.481 OA
ATOM     75  H   UNL     1      28.621  39.641   7.658  1.00  0.00     0.296 HD
ENDBRANCH  72  74
ENDBRANCH  71  72
ENDBRANCH  70  71
ENDBRANCH  68  70
ENDBRANCH  64  65
ENDBRANCH  63  64
ENDBRANCH  60  63
ENDBRANCH  58  59
ENDBRANCH  55  58
ENDBRANCH   1  55
TORSDOF 33
BEGIN_RES LYS A 131
REMARK  4 active torsions:
REMARK  status: ('A' for Active; 'I' for Inactive)
REMARK    1  A    between atoms: CA   and  CB  
REMARK    2  A    between atoms: CB   and  CG  
REMARK    3  A    between atoms: CG   and  CD  
REMARK    4  A    between atoms: CD   and  CE  
ROOT
ATOM      1  CA  LYS A 131      29.867  25.555  16.977  1.00 20.52     0.186 C 
ENDROOT
BRANCH   1   2
ATOM      2  CB  LYS A 131      28.345  25.722  17.026  1.00 20.94     0.034 C 
BRANCH   2   3
ATOM      3  CG  LYS A 131      27.601  24.407  16.856  1.00 22.96     0.005 C 
BRANCH   3   4
ATOM      4  CD  LYS A 131      26.577  24.191  17.937  1.00 24.33     0.041 C 
BRANCH   4   5
ATOM      5  CE  LYS A 131      25.308  24.966  17.597  1.00 26.91     0.338 C 
ATOM      6  NZ  LYS A 131      25.041  26.001  18.624  1.00 27.40     0.618 N 
ENDBRANCH   4   5
ENDBRANCH   3   4
ENDBRANCH   2   3
ENDBRANCH   1   2
END_RES LYS A 131
BEGIN_RES LYS A 135
REMARK  4 active torsions:
REMARK  status: ('A' for Active; 'I' for Inactive)
REMARK    5  A    between atoms: CA   and  CB  
REMARK    6  A    between atoms: CB   and  CG  
REMARK    7  A    between atoms: CG   and  CD  
REMARK    8  A    between atoms: CD   and  CE  
ROOT
ATOM      7  CA  LYS A 135      33.193  34.663   9.290  1.00 25.02     0.186 C 
ENDROOT
BRANCH   7   8
ATOM      8  CB  LYS A 135      32.060  35.360  10.034  1.00 26.63     0.034 C 
BRANCH   8   9
ATOM      9  CG  LYS A 135      30.919  35.775   9.142  1.00 29.45     0.005 C 
BRANCH   9  10
ATOM     10  CD  LYS A 135      30.435  34.600   8.307  1.00 32.00     0.041 C 
BRANCH  10  11
ATOM     11  CE  LYS A 135      28.997  34.810   7.873  1.00 34.25     0.338 C 
ATOM     12  NZ  LYS A 135      28.927  35.597   6.611  1.00 35.99     0.618 N 
ENDBRANCH  10  11
ENDBRANCH   9  10
ENDBRANCH   8   9
ENDBRANCH   7   8
END_RES LYS A 135
