REMARK VINA RESULT:    -4.123      3.226      5.600
REMARK INTER + INTRA:         -23.872
REMARK INTER:                 -11.260
REMARK INTRA:                 -12.612
REMARK UNBOUND:               -13.000
REMARK SMILES CC(=O)N[C@@H]1[C@@H](O)C[C@](OC[C@H]2O[C@@H](O[C@H]3[C@H](O)[C@@H](O)[C@H](OCCN=[N+]=[N-])O[C@@H]3CO)[C@H](O)[C@@H](O)[C@H]2O)(C(=O)O)O[C@H]1C(O)[C@H](O)CNC(=O)OCc1cn(C(C)CC(=O)c2ccccc2)nn1
REMARK SMILES IDX 43 1 42 2 9 3 8 4 41 5 6 6 5 7 10 8 11 9 12 10 14 11 13 12
REMARK SMILES IDX 32 13 34 14 36 15 15 16 16 17 29 18 28 19 21 20 17 21 19 22
REMARK SMILES IDX 30 23 31 24 22 26 23 27 24 28 25 29 26 30 27 31 18 32 20 34
REMARK SMILES IDX 33 36 35 38 37 40 38 42 39 43 40 44 7 46 4 48 2 49 1 51 3 52
REMARK SMILES IDX 44 53 45 55 46 56 47 58 48 59 49 60 50 62 51 63 52 64 53 65
REMARK SMILES IDX 54 66 68 67 55 68 67 69 56 70 57 71 58 72 59 73 60 74 61 75
REMARK SMILES IDX 62 76 66 77 63 78 65 79 64 80
REMARK H PARENT 31 25 18 33 20 35 33 37 35 39 37 41 40 45 7 47 4 50 44 54
REMARK H PARENT 46 57 48 61
REMARK Flexibility Score: inf
ROOT
ATOM      1  C   UNL     1      21.554  35.836  10.775  1.00  0.00     0.176 C 
ENDROOT
BRANCH   1   2
ATOM      2  C   UNL     1      22.103  37.185  10.936  1.00  0.00     0.178 C 
ATOM      3  C   UNL     1      23.948  37.805   9.602  1.00  0.00     0.272 C 
ATOM      4  C   UNL     1      24.521  38.705  10.643  1.00  0.00     0.113 C 
ATOM      5  O   UNL     1      22.526  37.840   9.847  1.00  0.00    -0.332 OA
ATOM      6  C   UNL     1      23.788  38.568  11.963  1.00  0.00     0.145 C 
ATOM      7  C   UNL     1      23.133  37.245  12.087  1.00  0.00     0.142 C 
BRANCH   3   8
ATOM      8  O   UNL     1      24.286  36.554   9.493  1.00  0.00    -0.338 OA
BRANCH   8   9
ATOM      9  C   UNL     1      25.315  35.838   9.208  1.00  0.00     0.199 C 
BRANCH   9  10
ATOM     10  C   UNL     1      26.611  35.750   9.947  1.00  0.00     0.179 C 
ATOM     11  C   UNL     1      28.303  37.282  10.577  1.00  0.00     0.282 C 
ATOM     12  O   UNL     1      27.276  36.901   9.797  1.00  0.00    -0.341 OA
ATOM     13  C   UNL     1      27.952  37.196  12.025  1.00  0.00     0.202 C 
ATOM     14  C   UNL     1      27.210  35.987  12.376  1.00  0.00     0.179 C 
ATOM     15  C   UNL     1      26.592  35.161  11.300  1.00  0.00     0.177 C 
BRANCH  11  16
ATOM     16  O   UNL     1      28.567  38.628  10.206  1.00  0.00    -0.341 OA
BRANCH  16  17
ATOM     17  C   UNL     1      29.887  38.749   9.844  1.00  0.00     0.184 C 
ATOM     18  C   UNL     1      30.332  40.182   9.859  1.00  0.00     0.178 C 
ATOM     19  O   UNL     1      29.676  40.936   8.899  1.00  0.00    -0.341 OA
ATOM     20  C   UNL     1      29.727  40.490   7.615  1.00  0.00     0.281 C 
ATOM     21  C   UNL     1      30.055  38.184   8.418  1.00  0.00     0.180 C 
ATOM     22  C   UNL     1      29.392  39.052   7.412  1.00  0.00     0.202 C 
BRANCH  18  23
ATOM     23  C   UNL     1      31.838  40.300   9.734  1.00  0.00     0.191 C 
BRANCH  23  24
ATOM     24  O   UNL     1      32.255  41.609   9.530  1.00  0.00    -0.394 OA
ATOM     25  H   UNL     1      31.901  42.180  10.263  1.00  0.00     0.210 HD
ENDBRANCH  23  24
ENDBRANCH  18  23
BRANCH  20  26
ATOM     26  O   UNL     1      30.863  40.832   6.926  1.00  0.00    -0.350 OA
BRANCH  26  27
ATOM     27  C   UNL     1      30.857  40.523   5.594  1.00  0.00     0.169 C 
BRANCH  27  28
ATOM     28  C   UNL     1      32.195  40.040   5.099  1.00  0.00     0.119 C 
BRANCH  28  29
ATOM     29  N   UNL     1      33.005  39.677   6.248  1.00  0.00    -0.092 NA
ATOM     30  N   UNL     1      34.145  39.254   6.074  1.00  0.00     0.001 N 
ATOM     31  N   UNL     1      35.343  39.026   5.896  1.00  0.00    -0.003 NA
ENDBRANCH  28  29
ENDBRANCH  27  28
ENDBRANCH  26  27
ENDBRANCH  20  26
BRANCH  21  32
ATOM     32  O   UNL     1      31.394  37.937   8.142  1.00  0.00    -0.387 OA
ATOM     33  H   UNL     1      31.518  37.231   7.463  1.00  0.00     0.211 HD
ENDBRANCH  21  32
BRANCH  22  34
ATOM     34  O   UNL     1      28.019  38.813   7.330  1.00  0.00    -0.385 OA
ATOM     35  H   UNL     1      27.591  39.706   7.367  1.00  0.00     0.211 HD
ENDBRANCH  22  34
ENDBRANCH  16  17
ENDBRANCH  11  16
BRANCH  13  36
ATOM     36  O   UNL     1      29.141  37.236  12.810  1.00  0.00    -0.385 OA
ATOM     37  H   UNL     1      29.519  36.319  12.739  1.00  0.00     0.211 HD
ENDBRANCH  13  36
BRANCH  14  38
ATOM     38  O   UNL     1      26.214  36.352  13.326  1.00  0.00    -0.387 OA
ATOM     39  H   UNL     1      25.354  36.552  12.889  1.00  0.00     0.211 HD
ENDBRANCH  14  38
BRANCH  15  40
ATOM     40  O   UNL     1      25.364  34.720  11.751  1.00  0.00    -0.387 OA
ATOM     41  H   UNL     1      24.882  34.083  11.218  1.00  0.00     0.211 HD
ENDBRANCH  15  40
ENDBRANCH   9  10
ENDBRANCH   8   9
ENDBRANCH   3   8
BRANCH   3  42
ATOM     42  C   UNL     1      24.046  38.545   8.269  1.00  0.00     0.364 C 
ATOM     43  O   UNL     1      23.063  38.587   7.519  1.00  0.00    -0.246 OA
BRANCH  42  44
ATOM     44  O   UNL     1      25.214  39.169   7.894  1.00  0.00    -0.477 OA
ATOM     45  H   UNL     1      25.433  40.052   8.340  1.00  0.00     0.296 HD
ENDBRANCH  42  44
ENDBRANCH   3  42
BRANCH   6  46
ATOM     46  O   UNL     1      24.615  38.876  13.037  1.00  0.00    -0.391 OA
ATOM     47  H   UNL     1      24.401  38.225  13.786  1.00  0.00     0.211 HD
ENDBRANCH   6  46
BRANCH   7  48
ATOM     48  N   UNL     1      22.363  37.170  13.325  1.00  0.00    -0.348 N 
ATOM     49  C   UNL     1      22.735  36.346  14.422  1.00  0.00     0.217 C 
ATOM     50  H   UNL     1      21.505  37.744  13.413  1.00  0.00     0.163 HD
ATOM     51  C   UNL     1      21.959  36.273  15.661  1.00  0.00     0.114 C 
ATOM     52  O   UNL     1      23.793  35.634  14.320  1.00  0.00    -0.275 OA
ENDBRANCH   7  48
ENDBRANCH   1   2
BRANCH   1  53
ATOM     53  O   UNL     1      22.514  34.801  10.872  1.00  0.00    -0.388 OA
ATOM     54  H   UNL     1      22.754  34.739  11.848  1.00  0.00     0.211 HD
ENDBRANCH   1  53
BRANCH   1  55
ATOM     55  C   UNL     1      20.760  35.547   9.520  1.00  0.00     0.165 C 
BRANCH  55  56
ATOM     56  O   UNL     1      20.384  36.644   8.815  1.00  0.00    -0.388 OA
ATOM     57  H   UNL     1      21.171  37.206   8.624  1.00  0.00     0.211 HD
ENDBRANCH  55  56
BRANCH  55  58
ATOM     58  C   UNL     1      19.518  34.763   9.970  1.00  0.00     0.154 C 
BRANCH  58  59
ATOM     59  N   UNL     1      19.884  33.742  10.926  1.00  0.00    -0.319 N 
ATOM     60  C   UNL     1      19.131  33.357  12.057  1.00  0.00     0.407 C 
ATOM     61  H   UNL     1      20.793  33.198  10.799  1.00  0.00     0.167 HD
ATOM     62  O   UNL     1      18.019  33.869  12.292  1.00  0.00    -0.225 OA
BRANCH  60  63
ATOM     63  O   UNL     1      19.609  32.385  12.959  1.00  0.00    -0.443 OA
BRANCH  63  64
ATOM     64  C   UNL     1      20.248  32.836  14.173  1.00  0.00     0.294 C 
BRANCH  64  65
ATOM     65  C   UNL     1      21.718  32.648  13.887  1.00  0.00     0.120 A 
ATOM     66  C   UNL     1      22.667  32.411  14.900  1.00  0.00     0.138 A 
ATOM     67  N   UNL     1      22.408  32.704  12.765  1.00  0.00    -0.132 NA
ATOM     68  N   UNL     1      23.885  32.340  14.342  1.00  0.00    -0.249 N 
ATOM     69  N   UNL     1      23.712  32.516  13.055  1.00  0.00    -0.067 NA
BRANCH  68  70
ATOM     70  C   UNL     1      25.116  32.128  15.106  1.00  0.00     0.114 C 
ATOM     71  C   UNL     1      25.439  30.667  15.108  1.00  0.00     0.034 C 
BRANCH  70  72
ATOM     72  C   UNL     1      26.201  33.031  14.618  1.00  0.00     0.108 C 
BRANCH  72  73
ATOM     73  C   UNL     1      27.102  33.322  15.765  1.00  0.00     0.164 C 
ATOM     74  O   UNL     1      26.675  33.816  16.811  1.00  0.00    -0.294 OA
BRANCH  73  75
ATOM     75  C   UNL     1      28.527  32.994  15.604  1.00  0.00     0.018 A 
ATOM     76  C   UNL     1      29.375  33.756  14.886  1.00  0.00     0.012 A 
ATOM     77  C   UNL     1      28.984  31.832  16.246  1.00  0.00     0.012 A 
ATOM     78  C   UNL     1      30.729  33.397  14.775  1.00  0.00     0.001 A 
ATOM     79  C   UNL     1      30.303  31.500  16.125  1.00  0.00     0.001 A 
ATOM     80  C   UNL     1      31.183  32.261  15.403  1.00  0.00     0.000 A 
ENDBRANCH  73  75
ENDBRANCH  72  73
ENDBRANCH  70  72
ENDBRANCH  68  70
ENDBRANCH  64  65
ENDBRANCH  63  64
ENDBRANCH  60  63
ENDBRANCH  58  59
ENDBRANCH  55  58
ENDBRANCH   1  55
TORSDOF 33
BEGIN_RES LYS A 131
REMARK  4 active torsions:
REMARK  status: ('A' for Active; 'I' for Inactive)
REMARK    1  A    between atoms: CA   and  CB  
REMARK    2  A    between atoms: CB   and  CG  
REMARK    3  A    between atoms: CG   and  CD  
REMARK    4  A    between atoms: CD   and  CE  
ROOT
ATOM      1  CA  LYS A 131      29.867  25.555  16.977  1.00 20.52     0.186 C 
ENDROOT
BRANCH   1   2
ATOM      2  CB  LYS A 131      28.345  25.722  17.026  1.00 20.94     0.034 C 
BRANCH   2   3
ATOM      3  CG  LYS A 131      27.601  24.403  16.887  1.00 22.96     0.005 C 
BRANCH   3   4
ATOM      4  CD  LYS A 131      26.528  24.245  17.929  1.00 24.33     0.041 C 
BRANCH   4   5
ATOM      5  CE  LYS A 131      25.158  24.328  17.265  1.00 26.91     0.338 C 
ATOM      6  NZ  LYS A 131      24.189  25.006  18.158  1.00 27.40     0.618 N 
ENDBRANCH   4   5
ENDBRANCH   3   4
ENDBRANCH   2   3
ENDBRANCH   1   2
END_RES LYS A 131
BEGIN_RES LYS A 135
REMARK  4 active torsions:
REMARK  status: ('A' for Active; 'I' for Inactive)
REMARK    5  A    between atoms: CA   and  CB  
REMARK    6  A    between atoms: CB   and  CG  
REMARK    7  A    between atoms: CG   and  CD  
REMARK    8  A    between atoms: CD   and  CE  
ROOT
ATOM      7  CA  LYS A 135      33.193  34.663   9.290  1.00 25.02     0.186 C 
ENDROOT
BRANCH   7   8
ATOM      8  CB  LYS A 135      32.060  35.360  10.034  1.00 26.63     0.034 C 
BRANCH   8   9
ATOM      9  CG  LYS A 135      30.706  34.751   9.776  1.00 29.45     0.005 C 
BRANCH   9  10
ATOM     10  CD  LYS A 135      30.511  34.485   8.292  1.00 32.00     0.041 C 
BRANCH  10  11
ATOM     11  CE  LYS A 135      29.052  34.643   7.909  1.00 34.25     0.338 C 
ATOM     12  NZ  LYS A 135      28.906  35.455   6.670  1.00 35.99     0.618 N 
ENDBRANCH  10  11
ENDBRANCH   9  10
ENDBRANCH   8   9
ENDBRANCH   7   8
END_RES LYS A 135
