REMARK VINA RESULT:    -4.374      6.277     11.441
REMARK INTER + INTRA:         -21.961
REMARK INTER:                 -10.789
REMARK INTRA:                 -11.172
REMARK UNBOUND:               -10.939
REMARK SMILES CC(=O)N[C@@H]1[C@@H](O)C[C@](OC[C@H]2O[C@@H](O[C@H]3[C@H](O)[C@@H](O)[C@H](OCCN=[N+]=[N-])O[C@@H]3CO)[C@H](O)[C@@H](O)[C@H]2O)(C(=O)O)O[C@H]1C(O)[C@H](O)CNC(=O)OCc1cn(Cc2ccsc2)nn1
REMARK SMILES IDX 9 1 8 2 6 3 5 4 42 5 41 6 10 7 11 8 12 9 14 10 13 11 32 12
REMARK SMILES IDX 34 13 36 14 15 15 16 16 29 17 28 18 21 19 17 20 19 21 30 22
REMARK SMILES IDX 31 23 22 25 23 26 24 27 25 28 26 29 27 30 18 31 20 33 33 35
REMARK SMILES IDX 35 37 37 39 38 41 39 42 40 43 7 45 43 47 44 48 45 50 46 51
REMARK SMILES IDX 47 53 48 54 49 55 50 57 51 58 52 59 53 60 54 61 63 62 55 63
REMARK SMILES IDX 62 64 56 65 57 66 58 67 61 68 59 69 60 70 4 71 2 72 1 74
REMARK SMILES IDX 3 75
REMARK H PARENT 31 24 18 32 20 34 33 36 35 38 37 40 40 44 7 46 44 49 46 52
REMARK H PARENT 48 56 4 73
REMARK Flexibility Score: inf
ROOT
ATOM      1  C   UNL     1      27.236  41.203   5.869  1.00  0.00     0.272 C 
ATOM      2  C   UNL     1      26.356  41.748   6.953  1.00  0.00     0.113 C 
ATOM      3  C   UNL     1      25.164  40.894   7.291  1.00  0.00     0.145 C 
ATOM      4  C   UNL     1      25.480  39.451   7.358  1.00  0.00     0.142 C 
ATOM      5  C   UNL     1      26.645  39.015   6.491  1.00  0.00     0.178 C 
ATOM      6  O   UNL     1      27.653  39.902   6.358  1.00  0.00    -0.332 OA
ENDROOT
BRANCH   1   7
ATOM      7  O   UNL     1      28.409  41.871   5.852  1.00  0.00    -0.338 OA
BRANCH   7   8
ATOM      8  C   UNL     1      29.514  41.476   5.247  1.00  0.00     0.199 C 
BRANCH   8   9
ATOM      9  C   UNL     1      30.836  41.364   5.885  1.00  0.00     0.179 C 
ATOM     10  C   UNL     1      31.806  42.028   7.832  1.00  0.00     0.282 C 
ATOM     11  O   UNL     1      30.597  41.520   7.302  1.00  0.00    -0.341 OA
ATOM     12  C   UNL     1      33.000  41.248   7.402  1.00  0.00     0.202 C 
ATOM     13  C   UNL     1      32.740  40.006   6.629  1.00  0.00     0.179 C 
ATOM     14  C   UNL     1      31.465  39.982   5.837  1.00  0.00     0.177 C 
BRANCH  10  15
ATOM     15  O   UNL     1      31.662  42.112   9.194  1.00  0.00    -0.341 OA
BRANCH  15  16
ATOM     16  C   UNL     1      30.619  41.321   9.704  1.00  0.00     0.184 C 
ATOM     17  C   UNL     1      29.637  42.123  10.481  1.00  0.00     0.178 C 
ATOM     18  O   UNL     1      29.788  42.167  11.833  1.00  0.00    -0.341 OA
ATOM     19  C   UNL     1      30.931  41.511  12.323  1.00  0.00     0.281 C 
ATOM     20  C   UNL     1      31.130  40.088  10.380  1.00  0.00     0.180 C 
ATOM     21  C   UNL     1      30.796  40.080  11.879  1.00  0.00     0.202 C 
BRANCH  17  22
ATOM     22  C   UNL     1      28.197  41.741  10.174  1.00  0.00     0.191 C 
BRANCH  22  23
ATOM     23  O   UNL     1      28.248  40.655   9.302  1.00  0.00    -0.394 OA
ATOM     24  H   UNL     1      29.053  40.082   9.472  1.00  0.00     0.210 HD
ENDBRANCH  22  23
ENDBRANCH  17  22
BRANCH  19  25
ATOM     25  O   UNL     1      30.963  41.708  13.677  1.00  0.00    -0.350 OA
BRANCH  25  26
ATOM     26  C   UNL     1      31.930  42.601  14.096  1.00  0.00     0.169 C 
BRANCH  26  27
ATOM     27  C   UNL     1      32.947  42.986  13.072  1.00  0.00     0.119 C 
BRANCH  27  28
ATOM     28  N   UNL     1      34.161  43.446  13.692  1.00  0.00    -0.092 NA
ATOM     29  N   UNL     1      34.402  43.075  14.851  1.00  0.00     0.001 N 
ATOM     30  N   UNL     1      34.941  42.798  15.923  1.00  0.00    -0.003 NA
ENDBRANCH  27  28
ENDBRANCH  26  27
ENDBRANCH  25  26
ENDBRANCH  19  25
BRANCH  20  31
ATOM     31  O   UNL     1      30.741  38.908   9.784  1.00  0.00    -0.387 OA
ATOM     32  H   UNL     1      31.505  38.313   9.634  1.00  0.00     0.211 HD
ENDBRANCH  20  31
BRANCH  21  33
ATOM     33  O   UNL     1      31.596  39.225  12.592  1.00  0.00    -0.385 OA
ATOM     34  H   UNL     1      31.541  38.286  12.264  1.00  0.00     0.211 HD
ENDBRANCH  21  33
ENDBRANCH  15  16
ENDBRANCH  10  15
BRANCH  12  35
ATOM     35  O   UNL     1      33.953  42.077   6.753  1.00  0.00    -0.385 OA
ATOM     36  H   UNL     1      34.831  41.996   7.211  1.00  0.00     0.211 HD
ENDBRANCH  12  35
BRANCH  13  37
ATOM     37  O   UNL     1      32.684  38.919   7.525  1.00  0.00    -0.387 OA
ATOM     38  H   UNL     1      31.817  38.952   7.993  1.00  0.00     0.211 HD
ENDBRANCH  13  37
BRANCH  14  39
ATOM     39  O   UNL     1      30.514  39.134   6.457  1.00  0.00    -0.387 OA
ATOM     40  H   UNL     1      29.870  39.767   6.902  1.00  0.00     0.211 HD
ENDBRANCH  14  39
ENDBRANCH   8   9
ENDBRANCH   7   8
ENDBRANCH   1   7
BRANCH   1  41
ATOM     41  C   UNL     1      26.557  40.904   4.609  1.00  0.00     0.364 C 
ATOM     42  O   UNL     1      25.502  41.464   4.252  1.00  0.00    -0.246 OA
BRANCH  41  43
ATOM     43  O   UNL     1      27.053  39.950   3.701  1.00  0.00    -0.477 OA
ATOM     44  H   UNL     1      26.906  38.962   3.852  1.00  0.00     0.296 HD
ENDBRANCH  41  43
ENDBRANCH   1  41
BRANCH   3  45
ATOM     45  O   UNL     1      24.786  41.321   8.594  1.00  0.00    -0.391 OA
ATOM     46  H   UNL     1      24.751  40.537   9.209  1.00  0.00     0.211 HD
ENDBRANCH   3  45
BRANCH   5  47
ATOM     47  C   UNL     1      27.287  37.773   7.155  1.00  0.00     0.176 C 
BRANCH  47  48
ATOM     48  O   UNL     1      28.199  38.198   8.119  1.00  0.00    -0.388 OA
ATOM     49  H   UNL     1      28.176  39.179   8.195  1.00  0.00     0.211 HD
ENDBRANCH  47  48
BRANCH  47  50
ATOM     50  C   UNL     1      28.030  37.027   6.105  1.00  0.00     0.165 C 
BRANCH  50  51
ATOM     51  O   UNL     1      27.431  37.264   4.869  1.00  0.00    -0.388 OA
ATOM     52  H   UNL     1      26.613  37.809   4.969  1.00  0.00     0.211 HD
ENDBRANCH  50  51
BRANCH  50  53
ATOM     53  C   UNL     1      28.083  35.536   6.311  1.00  0.00     0.154 C 
BRANCH  53  54
ATOM     54  N   UNL     1      27.647  35.128   7.613  1.00  0.00    -0.319 N 
ATOM     55  C   UNL     1      28.434  34.462   8.561  1.00  0.00     0.407 C 
ATOM     56  H   UNL     1      26.641  35.348   7.880  1.00  0.00     0.167 HD
ATOM     57  O   UNL     1      29.620  34.186   8.282  1.00  0.00    -0.225 OA
BRANCH  55  58
ATOM     58  O   UNL     1      27.886  34.124   9.780  1.00  0.00    -0.443 OA
BRANCH  58  59
ATOM     59  C   UNL     1      28.376  34.567  11.013  1.00  0.00     0.294 C 
BRANCH  59  60
ATOM     60  C   UNL     1      28.020  35.989  11.195  1.00  0.00     0.120 A 
ATOM     61  C   UNL     1      26.906  36.480  11.801  1.00  0.00     0.138 A 
ATOM     62  N   UNL     1      28.760  37.028  10.783  1.00  0.00    -0.132 NA
ATOM     63  N   UNL     1      26.989  37.821  11.745  1.00  0.00    -0.248 N 
ATOM     64  N   UNL     1      28.109  38.142  11.130  1.00  0.00    -0.067 NA
BRANCH  63  65
ATOM     65  C   UNL     1      26.009  38.735  12.275  1.00  0.00     0.182 C 
BRANCH  65  66
ATOM     66  C   UNL     1      26.662  39.546  13.401  1.00  0.00    -0.016 A 
ATOM     67  C   UNL     1      26.882  40.843  13.336  1.00  0.00     0.017 A 
ATOM     68  C   UNL     1      27.036  38.853  14.551  1.00  0.00     0.070 A 
ATOM     69  C   UNL     1      27.474  41.527  14.382  1.00  0.00     0.065 A 
ATOM     70  S   UNL     1      27.739  40.161  15.574  1.00  0.00    -0.152 S 
ENDBRANCH  65  66
ENDBRANCH  63  65
ENDBRANCH  59  60
ENDBRANCH  58  59
ENDBRANCH  55  58
ENDBRANCH  53  54
ENDBRANCH  50  53
ENDBRANCH  47  50
ENDBRANCH   5  47
BRANCH   4  71
ATOM     71  N   UNL     1      24.380  38.580   7.069  1.00  0.00    -0.348 N 
ATOM     72  C   UNL     1      23.548  38.033   8.081  1.00  0.00     0.217 C 
ATOM     73  H   UNL     1      24.162  38.324   6.082  1.00  0.00     0.163 HD
ATOM     74  C   UNL     1      22.397  37.124   7.791  1.00  0.00     0.114 C 
ATOM     75  O   UNL     1      23.841  38.364   9.266  1.00  0.00    -0.275 OA
ENDBRANCH   4  71
TORSDOF 31
BEGIN_RES LYS A 131
REMARK  4 active torsions:
REMARK  status: ('A' for Active; 'I' for Inactive)
REMARK    1  A    between atoms: CA   and  CB  
REMARK    2  A    between atoms: CB   and  CG  
REMARK    3  A    between atoms: CG   and  CD  
REMARK    4  A    between atoms: CD   and  CE  
ROOT
ATOM      1  CA  LYS A 131      29.867  25.555  16.977  1.00 20.52     0.186 C 
ENDROOT
BRANCH   1   2
ATOM      2  CB  LYS A 131      28.345  25.722  17.026  1.00 20.94     0.034 C 
BRANCH   2   3
ATOM      3  CG  LYS A 131      27.599  24.455  16.638  1.00 22.96     0.005 C 
BRANCH   3   4
ATOM      4  CD  LYS A 131      26.988  23.770  17.828  1.00 24.33     0.041 C 
BRANCH   4   5
ATOM      5  CE  LYS A 131      25.548  23.382  17.509  1.00 26.91     0.338 C 
ATOM      6  NZ  LYS A 131      24.733  24.590  17.240  1.00 27.40     0.618 N 
ENDBRANCH   4   5
ENDBRANCH   3   4
ENDBRANCH   2   3
ENDBRANCH   1   2
END_RES LYS A 131
BEGIN_RES LYS A 135
REMARK  4 active torsions:
REMARK  status: ('A' for Active; 'I' for Inactive)
REMARK    5  A    between atoms: CA   and  CB  
REMARK    6  A    between atoms: CB   and  CG  
REMARK    7  A    between atoms: CG   and  CD  
REMARK    8  A    between atoms: CD   and  CE  
ROOT
ATOM      7  CA  LYS A 135      33.193  34.663   9.290  1.00 25.02     0.186 C 
ENDROOT
BRANCH   7   8
ATOM      8  CB  LYS A 135      32.060  35.360  10.034  1.00 26.63     0.034 C 
BRANCH   8   9
ATOM      9  CG  LYS A 135      32.514  36.102  11.265  1.00 29.45     0.005 C 
BRANCH   9  10
ATOM     10  CD  LYS A 135      31.768  35.608  12.495  1.00 32.00     0.041 C 
BRANCH  10  11
ATOM     11  CE  LYS A 135      32.674  35.631  13.711  1.00 34.25     0.338 C 
ATOM     12  NZ  LYS A 135      32.171  36.587  14.736  1.00 35.99     0.618 N 
ENDBRANCH  10  11
ENDBRANCH   9  10
ENDBRANCH   8   9
ENDBRANCH   7   8
END_RES LYS A 135
