REMARK VINA RESULT:    -4.051      3.327      8.435
REMARK INTER + INTRA:         -22.060
REMARK INTER:                 -11.666
REMARK INTRA:                 -10.394
REMARK UNBOUND:               -11.851
REMARK SMILES CC(=O)N[C@@H]1[C@@H](O)C[C@](OC[C@H]2O[C@@H](O[C@H]3[C@H](O)[C@@H](O)[C@H](OCCN=[N+]=[N-])O[C@@H]3CO)[C@H](O)[C@@H](O)[C@H]2O)(C(=O)O)O[C@H]1C(O)[C@H](O)CNC(=O)OCc1cn(Cc2ccccc2)nn1
REMARK SMILES IDX 9 1 8 2 6 3 5 4 42 5 41 6 10 7 11 8 12 9 14 10 13 11 32 12
REMARK SMILES IDX 34 13 36 14 15 15 16 16 29 17 28 18 21 19 17 20 19 21 30 22
REMARK SMILES IDX 31 23 22 25 23 26 24 27 25 28 26 29 27 30 18 31 20 33 33 35
REMARK SMILES IDX 35 37 37 39 38 41 39 42 40 43 7 45 43 47 44 48 45 50 46 51
REMARK SMILES IDX 47 53 48 54 49 55 50 57 51 58 52 59 53 60 54 61 64 62 55 63
REMARK SMILES IDX 63 64 56 65 57 66 58 67 62 68 59 69 61 70 60 71 4 72 2 73
REMARK SMILES IDX 1 75 3 76
REMARK H PARENT 31 24 18 32 20 34 33 36 35 38 37 40 40 44 7 46 44 49 46 52
REMARK H PARENT 48 56 4 74
REMARK Flexibility Score: inf
ROOT
ATOM      1  C   UNL     1      27.377  36.658  16.048  1.00  0.00     0.272 C 
ATOM      2  C   UNL     1      28.133  37.893  15.718  1.00  0.00     0.113 C 
ATOM      3  C   UNL     1      29.318  37.544  14.903  1.00  0.00     0.145 C 
ATOM      4  C   UNL     1      29.528  36.033  14.714  1.00  0.00     0.142 C 
ATOM      5  C   UNL     1      29.280  35.300  15.963  1.00  0.00     0.178 C 
ATOM      6  O   UNL     1      28.253  35.826  16.769  1.00  0.00    -0.332 OA
ENDROOT
BRANCH   1   7
ATOM      7  O   UNL     1      26.806  35.990  14.985  1.00  0.00    -0.338 OA
BRANCH   7   8
ATOM      8  C   UNL     1      25.999  36.850  14.259  1.00  0.00     0.199 C 
BRANCH   8   9
ATOM      9  C   UNL     1      25.491  36.222  12.982  1.00  0.00     0.179 C 
ATOM     10  C   UNL     1      25.040  36.814  10.770  1.00  0.00     0.282 C 
ATOM     11  O   UNL     1      24.931  37.141  12.123  1.00  0.00    -0.341 OA
ATOM     12  C   UNL     1      24.852  35.367  10.503  1.00  0.00     0.202 C 
ATOM     13  C   UNL     1      25.914  34.565  11.187  1.00  0.00     0.179 C 
ATOM     14  C   UNL     1      26.528  35.355  12.319  1.00  0.00     0.177 C 
BRANCH  10  15
ATOM     15  O   UNL     1      26.239  37.262  10.241  1.00  0.00    -0.341 OA
BRANCH  15  16
ATOM     16  C   UNL     1      26.276  38.633  10.020  1.00  0.00     0.184 C 
ATOM     17  C   UNL     1      26.336  38.926   8.567  1.00  0.00     0.178 C 
ATOM     18  O   UNL     1      26.420  40.327   8.425  1.00  0.00    -0.341 OA
ATOM     19  C   UNL     1      27.762  40.644   8.718  1.00  0.00     0.281 C 
ATOM     20  C   UNL     1      27.600  39.095  10.651  1.00  0.00     0.180 C 
ATOM     21  C   UNL     1      28.005  40.462  10.209  1.00  0.00     0.202 C 
BRANCH  17  22
ATOM     22  C   UNL     1      25.108  38.418   7.819  1.00  0.00     0.191 C 
BRANCH  22  23
ATOM     23  O   UNL     1      25.503  37.242   7.144  1.00  0.00    -0.394 OA
ATOM     24  H   UNL     1      25.768  37.483   6.225  1.00  0.00     0.210 HD
ENDBRANCH  22  23
ENDBRANCH  17  22
BRANCH  19  25
ATOM     25  O   UNL     1      28.007  41.945   8.356  1.00  0.00    -0.350 OA
BRANCH  25  26
ATOM     26  C   UNL     1      28.474  41.993   7.056  1.00  0.00     0.169 C 
BRANCH  26  27
ATOM     27  C   UNL     1      29.485  40.943   6.707  1.00  0.00     0.119 C 
BRANCH  27  28
ATOM     28  N   UNL     1      29.052  40.362   5.427  1.00  0.00    -0.092 NA
ATOM     29  N   UNL     1      28.437  39.298   5.482  1.00  0.00     0.001 N 
ATOM     30  N   UNL     1      27.680  38.357   5.205  1.00  0.00    -0.003 NA
ENDBRANCH  27  28
ENDBRANCH  26  27
ENDBRANCH  25  26
ENDBRANCH  19  25
BRANCH  20  31
ATOM     31  O   UNL     1      27.337  39.130  12.037  1.00  0.00    -0.387 OA
ATOM     32  H   UNL     1      27.679  39.962  12.460  1.00  0.00     0.211 HD
ENDBRANCH  20  31
BRANCH  21  33
ATOM     33  O   UNL     1      29.370  40.634  10.434  1.00  0.00    -0.385 OA
ATOM     34  H   UNL     1      29.665  40.255  11.305  1.00  0.00     0.211 HD
ENDBRANCH  21  33
ENDBRANCH  15  16
ENDBRANCH  10  15
BRANCH  12  35
ATOM     35  O   UNL     1      23.563  34.923  10.849  1.00  0.00    -0.385 OA
ATOM     36  H   UNL     1      23.008  35.739  10.931  1.00  0.00     0.211 HD
ENDBRANCH  12  35
BRANCH  13  37
ATOM     37  O   UNL     1      26.884  34.217  10.255  1.00  0.00    -0.387 OA
ATOM     38  H   UNL     1      27.799  34.205  10.646  1.00  0.00     0.211 HD
ENDBRANCH  13  37
BRANCH  14  39
ATOM     39  O   UNL     1      27.694  35.989  11.989  1.00  0.00    -0.387 OA
ATOM     40  H   UNL     1      28.325  35.501  11.423  1.00  0.00     0.211 HD
ENDBRANCH  14  39
ENDBRANCH   8   9
ENDBRANCH   7   8
ENDBRANCH   1   7
BRANCH   1  41
ATOM     41  C   UNL     1      26.284  36.912  17.049  1.00  0.00     0.364 C 
ATOM     42  O   UNL     1      25.680  35.959  17.542  1.00  0.00    -0.246 OA
BRANCH  41  43
ATOM     43  O   UNL     1      25.968  38.203  17.408  1.00  0.00    -0.477 OA
ATOM     44  H   UNL     1      26.510  39.009  17.091  1.00  0.00     0.296 HD
ENDBRANCH  41  43
ENDBRANCH   1  41
BRANCH   3  45
ATOM     45  O   UNL     1      29.303  38.085  13.603  1.00  0.00    -0.391 OA
ATOM     46  H   UNL     1      30.188  38.256  13.248  1.00  0.00     0.211 HD
ENDBRANCH   3  45
BRANCH   5  47
ATOM     47  C   UNL     1      29.048  33.847  15.929  1.00  0.00     0.176 C 
BRANCH  47  48
ATOM     48  O   UNL     1      28.067  33.420  15.061  1.00  0.00    -0.388 OA
ATOM     49  H   UNL     1      28.304  32.637  14.517  1.00  0.00     0.211 HD
ENDBRANCH  47  48
BRANCH  47  50
ATOM     50  C   UNL     1      30.238  32.938  15.820  1.00  0.00     0.165 C 
BRANCH  50  51
ATOM     51  O   UNL     1      30.447  32.438  14.572  1.00  0.00    -0.388 OA
ATOM     52  H   UNL     1      31.313  32.663  14.180  1.00  0.00     0.211 HD
ENDBRANCH  50  51
BRANCH  50  53
ATOM     53  C   UNL     1      30.352  31.992  16.979  1.00  0.00     0.154 C 
BRANCH  53  54
ATOM     54  N   UNL     1      29.114  31.364  17.362  1.00  0.00    -0.319 N 
ATOM     55  C   UNL     1      28.437  30.358  16.598  1.00  0.00     0.407 C 
ATOM     56  H   UNL     1      28.611  31.614  18.266  1.00  0.00     0.167 HD
ATOM     57  O   UNL     1      28.927  29.980  15.509  1.00  0.00    -0.225 OA
BRANCH  55  58
ATOM     58  O   UNL     1      27.251  29.796  17.032  1.00  0.00    -0.443 OA
BRANCH  58  59
ATOM     59  C   UNL     1      26.239  30.628  17.545  1.00  0.00     0.294 C 
BRANCH  59  60
ATOM     60  C   UNL     1      25.681  31.506  16.495  1.00  0.00     0.120 A 
ATOM     61  C   UNL     1      25.470  31.102  15.169  1.00  0.00     0.138 A 
ATOM     62  N   UNL     1      25.273  32.779  16.536  1.00  0.00    -0.132 NA
ATOM     63  N   UNL     1      24.953  32.136  14.488  1.00  0.00    -0.248 N 
ATOM     64  N   UNL     1      24.840  33.132  15.317  1.00  0.00    -0.067 NA
BRANCH  63  65
ATOM     65  C   UNL     1      24.589  32.115  13.089  1.00  0.00     0.181 C 
BRANCH  65  66
ATOM     66  C   UNL     1      23.448  31.189  12.890  1.00  0.00    -0.026 A 
ATOM     67  C   UNL     1      22.140  31.638  12.832  1.00  0.00     0.005 A 
ATOM     68  C   UNL     1      23.706  29.833  12.760  1.00  0.00     0.005 A 
ATOM     69  C   UNL     1      21.109  30.733  12.646  1.00  0.00     0.000 A 
ATOM     70  C   UNL     1      22.668  28.939  12.574  1.00  0.00     0.000 A 
ATOM     71  C   UNL     1      21.376  29.393  12.518  1.00  0.00     0.000 A 
ENDBRANCH  65  66
ENDBRANCH  63  65
ENDBRANCH  59  60
ENDBRANCH  58  59
ENDBRANCH  55  58
ENDBRANCH  53  54
ENDBRANCH  50  53
ENDBRANCH  47  50
ENDBRANCH   5  47
BRANCH   4  72
ATOM     72  N   UNL     1      30.965  35.994  14.378  1.00  0.00    -0.348 N 
ATOM     73  C   UNL     1      31.474  35.337  13.234  1.00  0.00     0.217 C 
ATOM     74  H   UNL     1      31.645  36.468  15.011  1.00  0.00     0.163 HD
ATOM     75  C   UNL     1      32.935  35.309  12.923  1.00  0.00     0.114 C 
ATOM     76  O   UNL     1      30.666  34.765  12.464  1.00  0.00    -0.275 OA
ENDBRANCH   4  72
TORSDOF 31
BEGIN_RES LYS A 131
REMARK  4 active torsions:
REMARK  status: ('A' for Active; 'I' for Inactive)
REMARK    1  A    between atoms: CA   and  CB  
REMARK    2  A    between atoms: CB   and  CG  
REMARK    3  A    between atoms: CG   and  CD  
REMARK    4  A    between atoms: CD   and  CE  
ROOT
ATOM      1  CA  LYS A 131      29.867  25.555  16.977  1.00 20.52     0.186 C 
ENDROOT
BRANCH   1   2
ATOM      2  CB  LYS A 131      28.345  25.722  17.026  1.00 20.94     0.034 C 
BRANCH   2   3
ATOM      3  CG  LYS A 131      27.602  24.400  16.917  1.00 22.96     0.005 C 
BRANCH   3   4
ATOM      4  CD  LYS A 131      26.152  24.532  17.291  1.00 24.33     0.041 C 
BRANCH   4   5
ATOM      5  CE  LYS A 131      25.967  25.753  18.186  1.00 26.91     0.338 C 
ATOM      6  NZ  LYS A 131      24.858  26.600  17.686  1.00 27.40     0.618 N 
ENDBRANCH   4   5
ENDBRANCH   3   4
ENDBRANCH   2   3
ENDBRANCH   1   2
END_RES LYS A 131
BEGIN_RES LYS A 135
REMARK  4 active torsions:
REMARK  status: ('A' for Active; 'I' for Inactive)
REMARK    5  A    between atoms: CA   and  CB  
REMARK    6  A    between atoms: CB   and  CG  
REMARK    7  A    between atoms: CG   and  CD  
REMARK    8  A    between atoms: CD   and  CE  
ROOT
ATOM      7  CA  LYS A 135      33.193  34.663   9.290  1.00 25.02     0.186 C 
ENDROOT
BRANCH   7   8
ATOM      8  CB  LYS A 135      32.060  35.360  10.034  1.00 26.63     0.034 C 
BRANCH   8   9
ATOM      9  CG  LYS A 135      30.914  35.766   9.143  1.00 29.45     0.005 C 
BRANCH   9  10
ATOM     10  CD  LYS A 135      30.211  34.540   8.581  1.00 32.00     0.041 C 
BRANCH  10  11
ATOM     11  CE  LYS A 135      29.207  34.943   7.518  1.00 34.25     0.338 C 
ATOM     12  NZ  LYS A 135      28.511  36.206   7.888  1.00 35.99     0.618 N 
ENDBRANCH  10  11
ENDBRANCH   9  10
ENDBRANCH   8   9
ENDBRANCH   7   8
END_RES LYS A 135
