REMARK VINA RESULT:    -4.107      4.485      9.913
REMARK INTER + INTRA:         -23.533
REMARK INTER:                 -12.357
REMARK INTRA:                 -11.176
REMARK UNBOUND:               -13.184
REMARK SMILES CC(=O)N[C@@H]1[C@@H](O)C[C@](OC[C@H]2O[C@@H](O[C@H]3[C@H](O)[C@@H](O)[C@H](OCCN=[N+]=[N-])O[C@@H]3CO)[C@H](O)[C@@H](O)[C@H]2O)(C(=O)O)O[C@H]1C(O)[C@H](O)CNC(=O)OCc1cn(-c2cc(Cl)ccc2C(=O)N(C)C)nn1
REMARK SMILES IDX 9 1 8 2 6 3 5 4 42 5 41 6 10 7 11 8 12 9 14 10 13 11 32 12
REMARK SMILES IDX 34 13 36 14 15 15 16 16 29 17 28 18 21 19 17 20 19 21 30 22
REMARK SMILES IDX 31 23 22 25 23 26 24 27 25 28 26 29 27 30 18 31 20 33 33 35
REMARK SMILES IDX 35 37 37 39 38 41 39 42 40 43 7 45 43 47 44 48 45 50 46 51
REMARK SMILES IDX 47 53 48 54 49 55 50 57 51 58 52 59 53 60 54 61 69 62 55 63
REMARK SMILES IDX 68 64 56 65 57 66 62 67 58 68 61 69 59 70 60 71 63 72 64 73
REMARK SMILES IDX 65 74 66 75 67 76 4 77 2 78 1 80 3 81
REMARK H PARENT 31 24 18 32 20 34 33 36 35 38 37 40 40 44 7 46 44 49 46 52
REMARK H PARENT 48 56 4 79
REMARK Flexibility Score: inf
ROOT
ATOM      1  C   UNL     1      23.423  36.829   9.106  1.00  0.00     0.272 C 
ATOM      2  C   UNL     1      22.806  35.571   8.623  1.00  0.00     0.113 C 
ATOM      3  C   UNL     1      21.454  35.852   8.019  1.00  0.00     0.145 C 
ATOM      4  C   UNL     1      20.615  36.479   9.107  1.00  0.00     0.142 C 
ATOM      5  C   UNL     1      21.264  37.672   9.672  1.00  0.00     0.178 C 
ATOM      6  O   UNL     1      22.613  37.804   9.599  1.00  0.00    -0.332 OA
ENDROOT
BRANCH   1   7
ATOM      7  O   UNL     1      24.214  37.419   8.133  1.00  0.00    -0.338 OA
BRANCH   7   8
ATOM      8  C   UNL     1      24.561  38.716   8.275  1.00  0.00     0.199 C 
BRANCH   8   9
ATOM      9  C   UNL     1      25.812  39.008   7.432  1.00  0.00     0.179 C 
ATOM     10  C   UNL     1      27.985  39.663   7.843  1.00  0.00     0.282 C 
ATOM     11  O   UNL     1      26.586  39.906   8.107  1.00  0.00    -0.341 OA
ATOM     12  C   UNL     1      28.110  39.426   6.355  1.00  0.00     0.202 C 
ATOM     13  C   UNL     1      27.492  38.103   5.954  1.00  0.00     0.179 C 
ATOM     14  C   UNL     1      26.412  37.751   6.962  1.00  0.00     0.177 C 
BRANCH  10  15
ATOM     15  O   UNL     1      28.330  38.649   8.630  1.00  0.00    -0.341 OA
BRANCH  15  16
ATOM     16  C   UNL     1      28.648  38.822   9.966  1.00  0.00     0.184 C 
ATOM     17  C   UNL     1      29.928  38.086  10.191  1.00  0.00     0.178 C 
ATOM     18  O   UNL     1      30.317  38.194  11.538  1.00  0.00    -0.341 OA
ATOM     19  C   UNL     1      29.416  37.267  12.166  1.00  0.00     0.281 C 
ATOM     20  C   UNL     1      27.557  38.268  10.845  1.00  0.00     0.180 C 
ATOM     21  C   UNL     1      28.070  37.891  12.202  1.00  0.00     0.202 C 
BRANCH  17  22
ATOM     22  C   UNL     1      31.032  38.612   9.298  1.00  0.00     0.191 C 
BRANCH  22  23
ATOM     23  O   UNL     1      31.156  37.772   8.212  1.00  0.00    -0.394 OA
ATOM     24  H   UNL     1      30.919  38.255   7.381  1.00  0.00     0.210 HD
ENDBRANCH  22  23
ENDBRANCH  17  22
BRANCH  19  25
ATOM     25  O   UNL     1      29.918  36.955  13.369  1.00  0.00    -0.350 OA
BRANCH  25  26
ATOM     26  C   UNL     1      30.601  35.753  13.441  1.00  0.00     0.169 C 
BRANCH  26  27
ATOM     27  C   UNL     1      31.315  35.537  14.759  1.00  0.00     0.119 C 
BRANCH  27  28
ATOM     28  N   UNL     1      32.640  36.118  14.729  1.00  0.00    -0.092 NA
ATOM     29  N   UNL     1      33.363  36.073  15.718  1.00  0.00     0.001 N 
ATOM     30  N   UNL     1      33.982  35.851  16.780  1.00  0.00    -0.003 NA
ENDBRANCH  27  28
ENDBRANCH  26  27
ENDBRANCH  25  26
ENDBRANCH  19  25
BRANCH  20  31
ATOM     31  O   UNL     1      26.532  39.200  11.042  1.00  0.00    -0.387 OA
ATOM     32  H   UNL     1      25.790  39.048  10.387  1.00  0.00     0.211 HD
ENDBRANCH  20  31
BRANCH  21  33
ATOM     33  O   UNL     1      27.161  37.021  12.798  1.00  0.00    -0.385 OA
ATOM     34  H   UNL     1      26.427  36.752  12.206  1.00  0.00     0.211 HD
ENDBRANCH  21  33
ENDBRANCH  15  16
ENDBRANCH  10  15
BRANCH  12  35
ATOM     35  O   UNL     1      27.351  40.435   5.729  1.00  0.00    -0.385 OA
ATOM     36  H   UNL     1      27.593  40.519   4.752  1.00  0.00     0.211 HD
ENDBRANCH  12  35
BRANCH  13  37
ATOM     37  O   UNL     1      28.375  37.060   5.875  1.00  0.00    -0.387 OA
ATOM     38  H   UNL     1      29.005  37.128   5.117  1.00  0.00     0.211 HD
ENDBRANCH  13  37
BRANCH  14  39
ATOM     39  O   UNL     1      26.782  36.820   7.891  1.00  0.00    -0.387 OA
ATOM     40  H   UNL     1      26.097  36.149   8.106  1.00  0.00     0.211 HD
ENDBRANCH  14  39
ENDBRANCH   8   9
ENDBRANCH   7   8
ENDBRANCH   1   7
BRANCH   1  41
ATOM     41  C   UNL     1      24.431  36.465  10.212  1.00  0.00     0.364 C 
ATOM     42  O   UNL     1      25.307  35.628   9.896  1.00  0.00    -0.246 OA
BRANCH  41  43
ATOM     43  O   UNL     1      24.399  36.995  11.463  1.00  0.00    -0.477 OA
ATOM     44  H   UNL     1      23.928  36.606  12.249  1.00  0.00     0.296 HD
ENDBRANCH  41  43
ENDBRANCH   1  41
BRANCH   3  45
ATOM     45  O   UNL     1      21.595  36.606   6.889  1.00  0.00    -0.391 OA
ATOM     46  H   UNL     1      21.113  37.437   6.835  1.00  0.00     0.211 HD
ENDBRANCH   3  45
BRANCH   5  47
ATOM     47  C   UNL     1      20.684  39.006   9.220  1.00  0.00     0.176 C 
BRANCH  47  48
ATOM     48  O   UNL     1      21.032  39.383   7.953  1.00  0.00    -0.388 OA
ATOM     49  H   UNL     1      20.327  39.248   7.266  1.00  0.00     0.211 HD
ENDBRANCH  47  48
BRANCH  47  50
ATOM     50  C   UNL     1      19.227  39.187   9.440  1.00  0.00     0.165 C 
BRANCH  50  51
ATOM     51  O   UNL     1      18.706  40.291   8.724  1.00  0.00    -0.388 OA
ATOM     52  H   UNL     1      17.725  40.344   8.817  1.00  0.00     0.211 HD
ENDBRANCH  50  51
BRANCH  50  53
ATOM     53  C   UNL     1      19.072  39.638  10.910  1.00  0.00     0.154 C 
BRANCH  53  54
ATOM     54  N   UNL     1      18.820  38.503  11.754  1.00  0.00    -0.319 N 
ATOM     55  C   UNL     1      19.518  38.318  12.964  1.00  0.00     0.407 C 
ATOM     56  H   UNL     1      18.100  37.765  11.494  1.00  0.00     0.167 HD
ATOM     57  O   UNL     1      20.366  39.152  13.355  1.00  0.00    -0.225 OA
BRANCH  55  58
ATOM     58  O   UNL     1      19.287  37.194  13.767  1.00  0.00    -0.443 OA
BRANCH  58  59
ATOM     59  C   UNL     1      20.301  36.619  14.542  1.00  0.00     0.294 C 
BRANCH  59  60
ATOM     60  C   UNL     1      21.114  35.658  13.736  1.00  0.00     0.121 A 
ATOM     61  C   UNL     1      21.308  34.304  14.081  1.00  0.00     0.144 A 
ATOM     62  N   UNL     1      21.782  35.832  12.607  1.00  0.00    -0.131 NA
ATOM     63  N   UNL     1      22.071  33.735  13.158  1.00  0.00    -0.219 N 
ATOM     64  N   UNL     1      22.344  34.700  12.269  1.00  0.00    -0.062 NA
BRANCH  63  65
ATOM     65  C   UNL     1      22.565  32.418  13.006  1.00  0.00     0.081 A 
ATOM     66  C   UNL     1      21.685  31.398  12.623  1.00  0.00     0.049 A 
ATOM     67  C   UNL     1      23.855  32.035  13.237  1.00  0.00     0.065 A 
ATOM     68  C   UNL     1      22.100  30.112  12.495  1.00  0.00     0.043 A 
ATOM     69  C   UNL     1      24.286  30.702  13.106  1.00  0.00     0.017 A 
ATOM     70  Cl  UNL     1      20.943  28.880  12.011  1.00  0.00    -0.084 Cl
ATOM     71  C   UNL     1      23.393  29.730  12.730  1.00  0.00     0.021 A 
BRANCH  67  72
ATOM     72  C   UNL     1      24.893  33.007  13.594  1.00  0.00     0.255 C 
ATOM     73  O   UNL     1      25.527  33.568  12.678  1.00  0.00    -0.269 OA
ATOM     74  N   UNL     1      25.161  33.294  14.936  1.00  0.00    -0.345 N 
ATOM     75  C   UNL     1      24.412  32.628  15.998  1.00  0.00     0.146 C 
ATOM     76  C   UNL     1      26.183  34.265  15.319  1.00  0.00     0.146 C 
ENDBRANCH  67  72
ENDBRANCH  63  65
ENDBRANCH  59  60
ENDBRANCH  58  59
ENDBRANCH  55  58
ENDBRANCH  53  54
ENDBRANCH  50  53
ENDBRANCH  47  50
ENDBRANCH   5  47
BRANCH   4  77
ATOM     77  N   UNL     1      20.377  35.427  10.099  1.00  0.00    -0.348 N 
ATOM     78  C   UNL     1      19.180  34.681  10.141  1.00  0.00     0.217 C 
ATOM     79  H   UNL     1      21.106  35.213  10.807  1.00  0.00     0.163 HD
ATOM     80  C   UNL     1      18.931  33.616  11.143  1.00  0.00     0.114 C 
ATOM     81  O   UNL     1      18.283  34.928   9.291  1.00  0.00    -0.275 OA
ENDBRANCH   4  77
TORSDOF 31
BEGIN_RES LYS A 131
REMARK  4 active torsions:
REMARK  status: ('A' for Active; 'I' for Inactive)
REMARK    1  A    between atoms: CA   and  CB  
REMARK    2  A    between atoms: CB   and  CG  
REMARK    3  A    between atoms: CG   and  CD  
REMARK    4  A    between atoms: CD   and  CE  
ROOT
ATOM      1  CA  LYS A 131      29.867  25.555  16.977  1.00 20.52     0.186 C 
ENDROOT
BRANCH   1   2
ATOM      2  CB  LYS A 131      28.345  25.722  17.026  1.00 20.94     0.034 C 
BRANCH   2   3
ATOM      3  CG  LYS A 131      27.601  24.401  16.905  1.00 22.96     0.005 C 
BRANCH   3   4
ATOM      4  CD  LYS A 131      26.565  24.233  17.981  1.00 24.33     0.041 C 
BRANCH   4   5
ATOM      5  CE  LYS A 131      25.732  25.507  18.088  1.00 26.91     0.338 C 
ATOM      6  NZ  LYS A 131      24.451  25.352  17.359  1.00 27.40     0.618 N 
ENDBRANCH   4   5
ENDBRANCH   3   4
ENDBRANCH   2   3
ENDBRANCH   1   2
END_RES LYS A 131
BEGIN_RES LYS A 135
REMARK  4 active torsions:
REMARK  status: ('A' for Active; 'I' for Inactive)
REMARK    5  A    between atoms: CA   and  CB  
REMARK    6  A    between atoms: CB   and  CG  
REMARK    7  A    between atoms: CG   and  CD  
REMARK    8  A    between atoms: CD   and  CE  
ROOT
ATOM      7  CA  LYS A 135      33.193  34.663   9.290  1.00 25.02     0.186 C 
ENDROOT
BRANCH   7   8
ATOM      8  CB  LYS A 135      32.060  35.360  10.034  1.00 26.63     0.034 C 
BRANCH   8   9
ATOM      9  CG  LYS A 135      30.747  34.624   9.959  1.00 29.45     0.005 C 
BRANCH   9  10
ATOM     10  CD  LYS A 135      30.344  34.392   8.511  1.00 32.00     0.041 C 
BRANCH  10  11
ATOM     11  CE  LYS A 135      28.833  34.374   8.376  1.00 34.25     0.338 C 
ATOM     12  NZ  LYS A 135      28.195  33.754   9.570  1.00 35.99     0.618 N 
ENDBRANCH  10  11
ENDBRANCH   9  10
ENDBRANCH   8   9
ENDBRANCH   7   8
END_RES LYS A 135
