REMARK VINA RESULT:    -4.466      5.636     12.440
REMARK INTER + INTRA:         -24.776
REMARK INTER:                 -11.524
REMARK INTRA:                 -13.252
REMARK UNBOUND:               -13.000
REMARK SMILES CC(=O)N[C@@H]1[C@@H](O)C[C@](OC[C@H]2O[C@@H](O[C@H]3[C@H](O)[C@@H](O)[C@H](OCCN=[N+]=[N-])O[C@@H]3CO)[C@H](O)[C@@H](O)[C@H]2O)(C(=O)O)O[C@H]1C(O)[C@H](O)CNC(=O)OCc1cn(C(C)CC(=O)c2ccccc2)nn1
REMARK SMILES IDX 43 1 42 2 9 3 8 4 41 5 6 6 5 7 10 8 11 9 12 10 14 11 13 12
REMARK SMILES IDX 32 13 34 14 36 15 15 16 16 17 29 18 28 19 21 20 17 21 19 22
REMARK SMILES IDX 30 23 31 24 22 26 23 27 24 28 25 29 26 30 27 31 18 32 20 34
REMARK SMILES IDX 33 36 35 38 37 40 38 42 39 43 40 44 7 46 4 48 2 49 1 51 3 52
REMARK SMILES IDX 44 53 45 55 46 56 47 58 48 59 49 60 50 62 51 63 52 64 53 65
REMARK SMILES IDX 54 66 68 67 55 68 67 69 56 70 57 71 58 72 59 73 60 74 61 75
REMARK SMILES IDX 62 76 66 77 63 78 65 79 64 80
REMARK H PARENT 31 25 18 33 20 35 33 37 35 39 37 41 40 45 7 47 4 50 44 54
REMARK H PARENT 46 57 48 61
REMARK Flexibility Score: inf
ROOT
ATOM      1  C   UNL     1      28.700  29.663  18.049  1.00  0.00     0.176 C 
ENDROOT
BRANCH   1   2
ATOM      2  C   UNL     1      27.739  28.576  18.245  1.00  0.00     0.178 C 
ATOM      3  C   UNL     1      25.488  29.141  18.670  1.00  0.00     0.272 C 
ATOM      4  C   UNL     1      25.249  27.947  19.531  1.00  0.00     0.113 C 
ATOM      5  O   UNL     1      26.506  28.711  17.741  1.00  0.00    -0.332 OA
ATOM      6  C   UNL     1      26.539  27.204  19.823  1.00  0.00     0.145 C 
ATOM      7  C   UNL     1      27.717  28.097  19.715  1.00  0.00     0.142 C 
BRANCH   3   8
ATOM      8  O   UNL     1      25.869  30.288  19.149  1.00  0.00    -0.338 OA
BRANCH   8   9
ATOM      9  C   UNL     1      25.365  31.413  19.514  1.00  0.00     0.199 C 
BRANCH   9  10
ATOM     10  C   UNL     1      25.932  32.783  19.324  1.00  0.00     0.179 C 
ATOM     11  C   UNL     1      28.105  33.695  19.102  1.00  0.00     0.282 C 
ATOM     12  O   UNL     1      27.256  32.735  19.508  1.00  0.00    -0.341 OA
ATOM     13  C   UNL     1      27.903  34.034  17.663  1.00  0.00     0.202 C 
ATOM     14  C   UNL     1      26.497  34.127  17.277  1.00  0.00     0.179 C 
ATOM     15  C   UNL     1      25.444  33.575  18.177  1.00  0.00     0.177 C 
BRANCH  11  16
ATOM     16  O   UNL     1      29.401  33.151  19.311  1.00  0.00    -0.341 OA
BRANCH  16  17
ATOM     17  C   UNL     1      30.113  33.980  20.144  1.00  0.00     0.184 C 
ATOM     18  C   UNL     1      31.575  33.640  20.139  1.00  0.00     0.178 C 
ATOM     19  O   UNL     1      31.814  32.383  20.670  1.00  0.00    -0.341 OA
ATOM     20  C   UNL     1      31.326  32.129  21.913  1.00  0.00     0.281 C 
ATOM     21  C   UNL     1      29.564  33.818  21.577  1.00  0.00     0.180 C 
ATOM     22  C   UNL     1      29.895  32.482  22.134  1.00  0.00     0.202 C 
BRANCH  18  23
ATOM     23  C   UNL     1      32.399  34.709  20.829  1.00  0.00     0.191 C 
BRANCH  23  24
ATOM     24  O   UNL     1      33.754  34.405  20.854  1.00  0.00    -0.394 OA
ATOM     25  H   UNL     1      34.222  34.953  20.169  1.00  0.00     0.210 HD
ENDBRANCH  23  24
ENDBRANCH  18  23
BRANCH  20  26
ATOM     26  O   UNL     1      32.108  32.577  22.947  1.00  0.00    -0.350 OA
BRANCH  26  27
ATOM     27  C   UNL     1      33.271  31.885  23.147  1.00  0.00     0.169 C 
BRANCH  27  28
ATOM     28  C   UNL     1      33.038  30.468  23.597  1.00  0.00     0.119 C 
BRANCH  28  29
ATOM     29  N   UNL     1      33.673  29.574  22.645  1.00  0.00    -0.092 NA
ATOM     30  N   UNL     1      34.781  29.109  22.898  1.00  0.00     0.001 N 
ATOM     31  N   UNL     1      35.790  28.497  23.253  1.00  0.00    -0.003 NA
ENDBRANCH  28  29
ENDBRANCH  27  28
ENDBRANCH  26  27
ENDBRANCH  20  26
BRANCH  21  32
ATOM     32  O   UNL     1      29.975  34.874  22.382  1.00  0.00    -0.387 OA
ATOM     33  H   UNL     1      30.928  34.813  22.631  1.00  0.00     0.211 HD
ENDBRANCH  21  32
BRANCH  22  34
ATOM     34  O   UNL     1      29.010  31.493  21.699  1.00  0.00    -0.385 OA
ATOM     35  H   UNL     1      28.290  31.975  21.219  1.00  0.00     0.211 HD
ENDBRANCH  22  34
ENDBRANCH  16  17
ENDBRANCH  11  16
BRANCH  13  36
ATOM     36  O   UNL     1      28.532  35.279  17.370  1.00  0.00    -0.385 OA
ATOM     37  H   UNL     1      29.441  35.032  17.053  1.00  0.00     0.211 HD
ENDBRANCH  13  36
BRANCH  14  38
ATOM     38  O   UNL     1      26.365  33.548  15.982  1.00  0.00    -0.387 OA
ATOM     39  H   UNL     1      26.551  32.580  15.999  1.00  0.00     0.211 HD
ENDBRANCH  14  38
BRANCH  15  40
ATOM     40  O   UNL     1      24.481  32.974  17.392  1.00  0.00    -0.387 OA
ATOM     41  H   UNL     1      24.545  33.065  16.439  1.00  0.00     0.211 HD
ENDBRANCH  15  40
ENDBRANCH   9  10
ENDBRANCH   8   9
ENDBRANCH   3   8
BRANCH   3  42
ATOM     42  C   UNL     1      24.275  29.276  17.750  1.00  0.00     0.364 C 
ATOM     43  O   UNL     1      24.375  29.915  16.696  1.00  0.00    -0.246 OA
BRANCH  42  44
ATOM     44  O   UNL     1      23.072  28.693  18.080  1.00  0.00    -0.477 OA
ATOM     45  H   UNL     1      22.313  28.784  17.415  1.00  0.00     0.296 HD
ENDBRANCH  42  44
ENDBRANCH   3  42
BRANCH   6  46
ATOM     46  O   UNL     1      26.471  26.527  21.034  1.00  0.00    -0.391 OA
ATOM     47  H   UNL     1      27.381  26.597  21.478  1.00  0.00     0.211 HD
ENDBRANCH   6  46
BRANCH   7  48
ATOM     48  N   UNL     1      28.950  27.341  19.914  1.00  0.00    -0.348 N 
ATOM     49  C   UNL     1      29.948  27.717  20.854  1.00  0.00     0.217 C 
ATOM     50  H   UNL     1      29.108  26.489  19.348  1.00  0.00     0.163 HD
ATOM     51  C   UNL     1      31.183  26.957  21.049  1.00  0.00     0.114 C 
ATOM     52  O   UNL     1      29.760  28.769  21.557  1.00  0.00    -0.275 OA
ENDBRANCH   7  48
ENDBRANCH   1   2
BRANCH   1  53
ATOM     53  O   UNL     1      28.880  30.494  19.180  1.00  0.00    -0.388 OA
ATOM     54  H   UNL     1      29.243  31.364  18.828  1.00  0.00     0.211 HD
ENDBRANCH   1  53
BRANCH   1  55
ATOM     55  C   UNL     1      28.473  30.598  16.881  1.00  0.00     0.165 C 
BRANCH  55  56
ATOM     56  O   UNL     1      27.846  30.040  15.815  1.00  0.00    -0.388 OA
ATOM     57  H   UNL     1      26.991  29.640  16.100  1.00  0.00     0.211 HD
ENDBRANCH  55  56
BRANCH  55  58
ATOM     58  C   UNL     1      29.861  31.109  16.464  1.00  0.00     0.154 C 
BRANCH  58  59
ATOM     59  N   UNL     1      29.776  31.845  15.222  1.00  0.00    -0.319 N 
ATOM     60  C   UNL     1      30.415  33.073  14.941  1.00  0.00     0.407 C 
ATOM     61  H   UNL     1      29.194  31.459  14.415  1.00  0.00     0.167 HD
ATOM     62  O   UNL     1      31.172  33.607  15.775  1.00  0.00    -0.225 OA
BRANCH  60  63
ATOM     63  O   UNL     1      30.219  33.737  13.714  1.00  0.00    -0.443 OA
BRANCH  63  64
ATOM     64  C   UNL     1      30.127  35.178  13.724  1.00  0.00     0.294 C 
BRANCH  64  65
ATOM     65  C   UNL     1      28.646  35.435  13.861  1.00  0.00     0.120 A 
ATOM     66  C   UNL     1      27.690  34.851  13.008  1.00  0.00     0.138 A 
ATOM     67  N   UNL     1      27.962  36.213  14.676  1.00  0.00    -0.132 NA
ATOM     68  N   UNL     1      26.474  35.308  13.345  1.00  0.00    -0.249 N 
ATOM     69  N   UNL     1      26.655  36.126  14.353  1.00  0.00    -0.067 NA
BRANCH  68  70
ATOM     70  C   UNL     1      25.243  34.930  12.648  1.00  0.00     0.114 C 
ATOM     71  C   UNL     1      25.116  35.758  11.408  1.00  0.00     0.034 C 
BRANCH  70  72
ATOM     72  C   UNL     1      25.182  33.451  12.450  1.00  0.00     0.108 C 
BRANCH  72  73
ATOM     73  C   UNL     1      24.185  32.904  13.409  1.00  0.00     0.164 C 
ATOM     74  O   UNL     1      23.877  33.514  14.436  1.00  0.00    -0.294 OA
BRANCH  73  75
ATOM     75  C   UNL     1      23.579  31.604  13.084  1.00  0.00     0.018 A 
ATOM     76  C   UNL     1      24.274  30.450  13.099  1.00  0.00     0.012 A 
ATOM     77  C   UNL     1      22.214  31.608  12.754  1.00  0.00     0.012 A 
ATOM     78  C   UNL     1      23.639  29.236  12.788  1.00  0.00     0.001 A 
ATOM     79  C   UNL     1      21.616  30.419  12.455  1.00  0.00     0.001 A 
ATOM     80  C   UNL     1      22.301  29.234  12.466  1.00  0.00     0.000 A 
ENDBRANCH  73  75
ENDBRANCH  72  73
ENDBRANCH  70  72
ENDBRANCH  68  70
ENDBRANCH  64  65
ENDBRANCH  63  64
ENDBRANCH  60  63
ENDBRANCH  58  59
ENDBRANCH  55  58
ENDBRANCH   1  55
TORSDOF 33
BEGIN_RES LYS A 131
REMARK  4 active torsions:
REMARK  status: ('A' for Active; 'I' for Inactive)
REMARK    1  A    between atoms: CA   and  CB  
REMARK    2  A    between atoms: CB   and  CG  
REMARK    3  A    between atoms: CG   and  CD  
REMARK    4  A    between atoms: CD   and  CE  
ROOT
ATOM      1  CA  LYS A 131      29.867  25.555  16.977  1.00 20.52     0.186 C 
ENDROOT
BRANCH   1   2
ATOM      2  CB  LYS A 131      28.345  25.722  17.026  1.00 20.94     0.034 C 
BRANCH   2   3
ATOM      3  CG  LYS A 131      27.603  24.397  16.953  1.00 22.96     0.005 C 
BRANCH   3   4
ATOM      4  CD  LYS A 131      26.136  24.552  17.246  1.00 24.33     0.041 C 
BRANCH   4   5
ATOM      5  CE  LYS A 131      25.586  23.242  17.801  1.00 26.91     0.338 C 
ATOM      6  NZ  LYS A 131      25.553  23.279  19.282  1.00 27.40     0.618 N 
ENDBRANCH   4   5
ENDBRANCH   3   4
ENDBRANCH   2   3
ENDBRANCH   1   2
END_RES LYS A 131
BEGIN_RES LYS A 135
REMARK  4 active torsions:
REMARK  status: ('A' for Active; 'I' for Inactive)
REMARK    5  A    between atoms: CA   and  CB  
REMARK    6  A    between atoms: CB   and  CG  
REMARK    7  A    between atoms: CG   and  CD  
REMARK    8  A    between atoms: CD   and  CE  
ROOT
ATOM      7  CA  LYS A 135      33.193  34.663   9.290  1.00 25.02     0.186 C 
ENDROOT
BRANCH   7   8
ATOM      8  CB  LYS A 135      32.060  35.360  10.034  1.00 26.63     0.034 C 
BRANCH   8   9
ATOM      9  CG  LYS A 135      30.755  34.609   9.984  1.00 29.45     0.005 C 
BRANCH   9  10
ATOM     10  CD  LYS A 135      30.328  34.369   8.544  1.00 32.00     0.041 C 
BRANCH  10  11
ATOM     11  CE  LYS A 135      28.828  34.538   8.398  1.00 34.25     0.338 C 
ATOM     12  NZ  LYS A 135      28.099  33.823   9.482  1.00 35.99     0.618 N 
ENDBRANCH  10  11
ENDBRANCH   9  10
ENDBRANCH   8   9
ENDBRANCH   7   8
END_RES LYS A 135
