REMARK VINA RESULT:    -3.843      5.619     11.674
REMARK INTER + INTRA:         -21.530
REMARK INTER:                 -11.756
REMARK INTRA:                  -9.774
REMARK UNBOUND:               -12.070
REMARK SMILES CC(=O)N[C@@H]1[C@@H](O)C[C@](OC[C@H]2O[C@@H](O[C@H]3[C@H](O)[C@@H](O)[C@H](OCCN=[N+]=[N-])O[C@@H]3CO)[C@H](O)[C@@H](O)[C@H]2O)(C(=O)O)O[C@H]1C(O)[C@H](O)CNC(=O)OCc1cn(-c2ccccc2I)nn1
REMARK SMILES IDX 9 1 8 2 6 3 5 4 42 5 41 6 10 7 11 8 12 9 14 10 13 11 32 12
REMARK SMILES IDX 34 13 36 14 15 15 16 16 29 17 28 18 21 19 17 20 19 21 30 22
REMARK SMILES IDX 31 23 22 25 23 26 24 27 25 28 26 29 27 30 18 31 20 33 33 35
REMARK SMILES IDX 35 37 37 39 38 41 39 42 40 43 7 45 43 47 44 48 45 50 46 51
REMARK SMILES IDX 47 53 48 54 49 55 50 57 51 58 52 59 53 60 54 61 64 62 55 63
REMARK SMILES IDX 63 64 56 65 57 66 61 67 58 68 60 69 62 70 59 71 4 72 2 73
REMARK SMILES IDX 1 75 3 76
REMARK H PARENT 31 24 18 32 20 34 33 36 35 38 37 40 40 44 7 46 44 49 46 52
REMARK H PARENT 48 56 4 74
REMARK Flexibility Score: inf
ROOT
ATOM      1  C   UNL     1      30.302  33.019  16.941  1.00  0.00     0.272 C 
ATOM      2  C   UNL     1      31.500  33.923  16.872  1.00  0.00     0.113 C 
ATOM      3  C   UNL     1      31.084  35.382  16.620  1.00  0.00     0.145 C 
ATOM      4  C   UNL     1      30.434  35.368  15.206  1.00  0.00     0.142 C 
ATOM      5  C   UNL     1      29.392  34.285  15.173  1.00  0.00     0.178 C 
ATOM      6  O   UNL     1      29.206  33.827  16.483  1.00  0.00    -0.332 OA
ENDROOT
BRANCH   1   7
ATOM      7  O   UNL     1      29.882  32.605  18.166  1.00  0.00    -0.338 OA
BRANCH   7   8
ATOM      8  C   UNL     1      30.585  32.130  19.150  1.00  0.00     0.199 C 
BRANCH   8   9
ATOM      9  C   UNL     1      29.961  31.689  20.413  1.00  0.00     0.179 C 
ATOM     10  C   UNL     1      27.875  30.834  20.042  1.00  0.00     0.282 C 
ATOM     11  O   UNL     1      28.624  31.853  20.565  1.00  0.00    -0.341 OA
ATOM     12  C   UNL     1      27.925  29.609  20.946  1.00  0.00     0.202 C 
ATOM     13  C   UNL     1      29.302  29.598  21.649  1.00  0.00     0.179 C 
ATOM     14  C   UNL     1      30.310  30.195  20.686  1.00  0.00     0.177 C 
BRANCH  10  15
ATOM     15  O   UNL     1      27.951  30.593  18.708  1.00  0.00    -0.341 OA
BRANCH  15  16
ATOM     16  C   UNL     1      26.759  30.344  18.068  1.00  0.00     0.184 C 
ATOM     17  C   UNL     1      26.739  29.140  17.164  1.00  0.00     0.178 C 
ATOM     18  O   UNL     1      25.745  29.276  16.198  1.00  0.00    -0.341 OA
ATOM     19  C   UNL     1      24.659  30.056  16.613  1.00  0.00     0.281 C 
ATOM     20  C   UNL     1      26.543  31.520  17.091  1.00  0.00     0.180 C 
ATOM     21  C   UNL     1      25.049  31.500  16.797  1.00  0.00     0.202 C 
BRANCH  17  22
ATOM     22  C   UNL     1      26.684  27.821  17.864  1.00  0.00     0.191 C 
BRANCH  22  23
ATOM     23  O   UNL     1      27.966  27.575  18.371  1.00  0.00    -0.394 OA
ATOM     24  H   UNL     1      27.912  26.766  18.949  1.00  0.00     0.210 HD
ENDBRANCH  22  23
ENDBRANCH  17  22
BRANCH  19  25
ATOM     25  O   UNL     1      23.992  29.516  17.669  1.00  0.00    -0.350 OA
BRANCH  25  26
ATOM     26  C   UNL     1      22.670  29.316  17.417  1.00  0.00     0.169 C 
BRANCH  26  27
ATOM     27  C   UNL     1      22.287  28.963  16.015  1.00  0.00     0.119 C 
BRANCH  27  28
ATOM     28  N   UNL     1      20.890  28.735  15.773  1.00  0.00    -0.092 NA
ATOM     29  N   UNL     1      20.574  27.604  15.360  1.00  0.00     0.001 N 
ATOM     30  N   UNL     1      20.053  26.595  14.884  1.00  0.00    -0.003 NA
ENDBRANCH  27  28
ENDBRANCH  26  27
ENDBRANCH  25  26
ENDBRANCH  19  25
BRANCH  20  31
ATOM     31  O   UNL     1      26.930  32.714  17.669  1.00  0.00    -0.387 OA
ATOM     32  H   UNL     1      27.297  33.281  16.940  1.00  0.00     0.211 HD
ENDBRANCH  20  31
BRANCH  21  33
ATOM     33  O   UNL     1      24.744  32.298  15.697  1.00  0.00    -0.385 OA
ATOM     34  H   UNL     1      25.608  32.494  15.208  1.00  0.00     0.211 HD
ENDBRANCH  21  33
ENDBRANCH  15  16
ENDBRANCH  10  15
BRANCH  12  35
ATOM     35  O   UNL     1      26.989  29.656  21.971  1.00  0.00    -0.385 OA
ATOM     36  H   UNL     1      27.054  28.793  22.456  1.00  0.00     0.211 HD
ENDBRANCH  12  35
BRANCH  13  37
ATOM     37  O   UNL     1      29.680  28.370  22.093  1.00  0.00    -0.387 OA
ATOM     38  H   UNL     1      29.572  27.617  21.437  1.00  0.00     0.211 HD
ENDBRANCH  13  37
BRANCH  14  39
ATOM     39  O   UNL     1      30.200  29.553  19.464  1.00  0.00    -0.387 OA
ATOM     40  H   UNL     1      30.345  30.218  18.720  1.00  0.00     0.211 HD
ENDBRANCH  14  39
ENDBRANCH   8   9
ENDBRANCH   7   8
ENDBRANCH   1   7
BRANCH   1  41
ATOM     41  C   UNL     1      30.456  31.901  15.993  1.00  0.00     0.364 C 
ATOM     42  O   UNL     1      29.738  30.887  15.961  1.00  0.00    -0.246 OA
BRANCH  41  43
ATOM     43  O   UNL     1      31.483  31.921  15.024  1.00  0.00    -0.477 OA
ATOM     44  H   UNL     1      31.231  32.052  14.034  1.00  0.00     0.296 HD
ENDBRANCH  41  43
ENDBRANCH   1  41
BRANCH   3  45
ATOM     45  O   UNL     1      30.193  35.845  17.563  1.00  0.00    -0.391 OA
ATOM     46  H   UNL     1      29.710  36.635  17.222  1.00  0.00     0.211 HD
ENDBRANCH   3  45
BRANCH   5  47
ATOM     47  C   UNL     1      28.013  34.912  14.834  1.00  0.00     0.176 C 
BRANCH  47  48
ATOM     48  O   UNL     1      27.094  33.793  14.798  1.00  0.00    -0.388 OA
ATOM     49  H   UNL     1      27.677  32.984  14.924  1.00  0.00     0.211 HD
ENDBRANCH  47  48
BRANCH  47  50
ATOM     50  C   UNL     1      27.957  35.406  13.420  1.00  0.00     0.165 C 
BRANCH  50  51
ATOM     51  O   UNL     1      27.873  36.824  13.431  1.00  0.00    -0.388 OA
ATOM     52  H   UNL     1      28.279  37.207  12.613  1.00  0.00     0.211 HD
ENDBRANCH  50  51
BRANCH  50  53
ATOM     53  C   UNL     1      26.912  34.887  12.528  1.00  0.00     0.154 C 
BRANCH  53  54
ATOM     54  N   UNL     1      25.557  35.308  12.833  1.00  0.00    -0.319 N 
ATOM     55  C   UNL     1      24.654  35.559  11.756  1.00  0.00     0.407 C 
ATOM     56  H   UNL     1      25.191  35.442  13.796  1.00  0.00     0.167 HD
ATOM     57  O   UNL     1      25.064  35.416  10.558  1.00  0.00    -0.225 OA
BRANCH  55  58
ATOM     58  O   UNL     1      23.340  35.952  11.903  1.00  0.00    -0.443 OA
BRANCH  58  59
ATOM     59  C   UNL     1      22.697  35.908  13.168  1.00  0.00     0.294 C 
BRANCH  59  60
ATOM     60  C   UNL     1      22.350  34.470  13.459  1.00  0.00     0.121 A 
ATOM     61  C   UNL     1      21.889  33.513  12.585  1.00  0.00     0.144 A 
ATOM     62  N   UNL     1      22.434  33.874  14.661  1.00  0.00    -0.131 NA
ATOM     63  N   UNL     1      21.723  32.395  13.319  1.00  0.00    -0.219 N 
ATOM     64  N   UNL     1      22.055  32.621  14.576  1.00  0.00    -0.062 NA
BRANCH  63  65
ATOM     65  C   UNL     1      21.251  31.136  12.852  1.00  0.00     0.080 A 
ATOM     66  C   UNL     1      22.140  30.114  12.544  1.00  0.00     0.029 A 
ATOM     67  C   UNL     1      19.907  30.900  12.687  1.00  0.00     0.039 A 
ATOM     68  C   UNL     1      21.632  28.894  12.082  1.00  0.00     0.002 A 
ATOM     69  C   UNL     1      19.415  29.673  12.223  1.00  0.00     0.017 A 
ATOM     70  I   UNL     1      18.530  32.438  13.145  1.00  0.00    -0.042 I 
ATOM     71  C   UNL     1      20.287  28.659  11.918  1.00  0.00     0.001 A 
ENDBRANCH  63  65
ENDBRANCH  59  60
ENDBRANCH  58  59
ENDBRANCH  55  58
ENDBRANCH  53  54
ENDBRANCH  50  53
ENDBRANCH  47  50
ENDBRANCH   5  47
BRANCH   4  72
ATOM     72  N   UNL     1      31.510  35.235  14.293  1.00  0.00    -0.348 N 
ATOM     73  C   UNL     1      31.731  36.154  13.207  1.00  0.00     0.217 C 
ATOM     74  H   UNL     1      32.207  34.471  14.349  1.00  0.00     0.163 HD
ATOM     75  C   UNL     1      32.848  36.024  12.252  1.00  0.00     0.114 C 
ATOM     76  O   UNL     1      30.905  37.100  13.105  1.00  0.00    -0.275 OA
ENDBRANCH   4  72
TORSDOF 30
BEGIN_RES LYS A 131
REMARK  4 active torsions:
REMARK  status: ('A' for Active; 'I' for Inactive)
REMARK    1  A    between atoms: CA   and  CB  
REMARK    2  A    between atoms: CB   and  CG  
REMARK    3  A    between atoms: CG   and  CD  
REMARK    4  A    between atoms: CD   and  CE  
ROOT
ATOM      1  CA  LYS A 131      29.867  25.555  16.977  1.00 20.52     0.186 C 
ENDROOT
BRANCH   1   2
ATOM      2  CB  LYS A 131      28.345  25.722  17.026  1.00 20.94     0.034 C 
BRANCH   2   3
ATOM      3  CG  LYS A 131      27.599  24.475  16.577  1.00 22.96     0.005 C 
BRANCH   3   4
ATOM      4  CD  LYS A 131      27.171  23.622  17.739  1.00 24.33     0.041 C 
BRANCH   4   5
ATOM      5  CE  LYS A 131      26.095  24.352  18.537  1.00 26.91     0.338 C 
ATOM      6  NZ  LYS A 131      25.512  23.455  19.563  1.00 27.40     0.618 N 
ENDBRANCH   4   5
ENDBRANCH   3   4
ENDBRANCH   2   3
ENDBRANCH   1   2
END_RES LYS A 131
BEGIN_RES LYS A 135
REMARK  4 active torsions:
REMARK  status: ('A' for Active; 'I' for Inactive)
REMARK    5  A    between atoms: CA   and  CB  
REMARK    6  A    between atoms: CB   and  CG  
REMARK    7  A    between atoms: CG   and  CD  
REMARK    8  A    between atoms: CD   and  CE  
ROOT
ATOM      7  CA  LYS A 135      33.193  34.663   9.290  1.00 25.02     0.186 C 
ENDROOT
BRANCH   7   8
ATOM      8  CB  LYS A 135      32.060  35.360  10.034  1.00 26.63     0.034 C 
BRANCH   8   9
ATOM      9  CG  LYS A 135      30.835  35.590   9.187  1.00 29.45     0.005 C 
BRANCH   9  10
ATOM     10  CD  LYS A 135      30.219  34.266   8.763  1.00 32.00     0.041 C 
BRANCH  10  11
ATOM     11  CE  LYS A 135      28.816  34.478   8.227  1.00 34.25     0.338 C 
ATOM     12  NZ  LYS A 135      27.795  33.949   9.172  1.00 35.99     0.618 N 
ENDBRANCH  10  11
ENDBRANCH   9  10
ENDBRANCH   8   9
ENDBRANCH   7   8
END_RES LYS A 135
