REMARK VINA RESULT:    -4.518      3.638      9.156
REMARK INTER + INTRA:         -23.639
REMARK INTER:                 -13.069
REMARK INTRA:                 -10.571
REMARK UNBOUND:               -12.122
REMARK SMILES CC(=O)N[C@@H]1[C@@H](O)C[C@](OC[C@H]2O[C@@H](O[C@H]3[C@H](O)[C@@H](O)[C@H](OCCN=[N+]=[N-])O[C@@H]3CO)[C@H](O)[C@@H](O)[C@H]2O)(C(=O)O)O[C@H]1C(O)[C@H](O)CNC(=O)OCc1cn(-c2ccc(O)c([N+](=O)[O-])c2)nn1
REMARK SMILES IDX 9 1 8 2 6 3 5 4 42 5 41 6 10 7 11 8 12 9 14 10 13 11 32 12
REMARK SMILES IDX 34 13 36 14 15 15 16 16 29 17 28 18 21 19 17 20 19 21 30 22
REMARK SMILES IDX 31 23 22 25 23 26 24 27 25 28 26 29 27 30 18 31 20 33 33 35
REMARK SMILES IDX 35 37 37 39 38 41 39 42 40 43 7 45 43 47 44 48 45 50 46 51
REMARK SMILES IDX 47 53 48 54 49 55 50 57 51 58 52 59 53 60 54 61 67 62 55 63
REMARK SMILES IDX 66 64 56 65 57 66 65 67 58 68 61 69 59 70 62 71 63 72 64 73
REMARK SMILES IDX 60 74 4 76 2 77 1 79 3 80
REMARK H PARENT 31 24 18 32 20 34 33 36 35 38 37 40 40 44 7 46 44 49 46 52
REMARK H PARENT 48 56 60 75 4 78
REMARK Flexibility Score: inf
ROOT
ATOM      1  C   UNL     1      25.872  37.998   8.579  1.00  0.00     0.272 C 
ATOM      2  C   UNL     1      25.559  39.499   8.730  1.00  0.00     0.113 C 
ATOM      3  C   UNL     1      25.114  40.048   7.378  1.00  0.00     0.145 C 
ATOM      4  C   UNL     1      26.395  39.987   6.506  1.00  0.00     0.142 C 
ATOM      5  C   UNL     1      27.119  38.696   6.769  1.00  0.00     0.178 C 
ATOM      6  O   UNL     1      26.240  37.724   7.280  1.00  0.00    -0.332 OA
ENDROOT
BRANCH   1   7
ATOM      7  O   UNL     1      24.676  37.364   8.859  1.00  0.00    -0.338 OA
BRANCH   7   8
ATOM      8  C   UNL     1      24.441  36.183   8.223  1.00  0.00     0.199 C 
BRANCH   8   9
ATOM      9  C   UNL     1      23.048  35.718   8.713  1.00  0.00     0.179 C 
ATOM     10  C   UNL     1      21.780  35.998  10.573  1.00  0.00     0.282 C 
ATOM     11  O   UNL     1      23.076  35.885  10.065  1.00  0.00    -0.341 OA
ATOM     12  C   UNL     1      21.273  37.341  10.177  1.00  0.00     0.202 C 
ATOM     13  C   UNL     1      21.164  37.403   8.675  1.00  0.00     0.179 C 
ATOM     14  C   UNL     1      22.012  36.433   7.940  1.00  0.00     0.177 C 
BRANCH  10  15
ATOM     15  O   UNL     1      21.798  35.781  11.957  1.00  0.00    -0.341 OA
BRANCH  15  16
ATOM     16  C   UNL     1      22.596  34.685  12.218  1.00  0.00     0.184 C 
ATOM     17  C   UNL     1      21.902  33.513  12.822  1.00  0.00     0.178 C 
ATOM     18  O   UNL     1      22.765  32.428  12.736  1.00  0.00    -0.341 OA
ATOM     19  C   UNL     1      23.850  32.589  13.648  1.00  0.00     0.281 C 
ATOM     20  C   UNL     1      23.683  35.080  13.253  1.00  0.00     0.180 C 
ATOM     21  C   UNL     1      24.581  33.853  13.389  1.00  0.00     0.202 C 
BRANCH  17  22
ATOM     22  C   UNL     1      20.583  33.155  12.223  1.00  0.00     0.191 C 
BRANCH  22  23
ATOM     23  O   UNL     1      20.235  31.849  12.520  1.00  0.00    -0.394 OA
ATOM     24  H   UNL     1      21.066  31.387  12.861  1.00  0.00     0.210 HD
ENDBRANCH  22  23
ENDBRANCH  17  22
BRANCH  19  25
ATOM     25  O   UNL     1      24.659  31.492  13.376  1.00  0.00    -0.350 OA
BRANCH  25  26
ATOM     26  C   UNL     1      24.857  30.663  14.463  1.00  0.00     0.169 C 
BRANCH  26  27
ATOM     27  C   UNL     1      23.570  30.100  14.979  1.00  0.00     0.119 C 
BRANCH  27  28
ATOM     28  N   UNL     1      23.190  28.974  14.128  1.00  0.00    -0.092 NA
ATOM     29  N   UNL     1      22.244  29.111  13.320  1.00  0.00     0.001 N 
ATOM     30  N   UNL     1      21.671  29.183  12.218  1.00  0.00    -0.003 NA
ENDBRANCH  27  28
ENDBRANCH  26  27
ENDBRANCH  25  26
ENDBRANCH  19  25
BRANCH  20  31
ATOM     31  O   UNL     1      24.467  36.116  12.772  1.00  0.00    -0.387 OA
ATOM     32  H   UNL     1      25.136  35.803  12.103  1.00  0.00     0.211 HD
ENDBRANCH  20  31
BRANCH  21  33
ATOM     33  O   UNL     1      25.431  34.146  14.453  1.00  0.00    -0.385 OA
ATOM     34  H   UNL     1      24.946  34.198  15.299  1.00  0.00     0.211 HD
ENDBRANCH  21  33
ENDBRANCH  15  16
ENDBRANCH  10  15
BRANCH  12  35
ATOM     35  O   UNL     1      20.050  37.664  10.755  1.00  0.00    -0.385 OA
ATOM     36  H   UNL     1      20.064  37.497  11.741  1.00  0.00     0.211 HD
ENDBRANCH  12  35
BRANCH  13  37
ATOM     37  O   UNL     1      21.363  38.739   8.309  1.00  0.00    -0.387 OA
ATOM     38  H   UNL     1      21.397  38.762   7.314  1.00  0.00     0.211 HD
ENDBRANCH  13  37
BRANCH  14  39
ATOM     39  O   UNL     1      22.544  37.087   6.808  1.00  0.00    -0.387 OA
ATOM     40  H   UNL     1      21.849  37.389   6.187  1.00  0.00     0.211 HD
ENDBRANCH  14  39
ENDBRANCH   8   9
ENDBRANCH   7   8
ENDBRANCH   1   7
BRANCH   1  41
ATOM     41  C   UNL     1      26.850  37.692   9.616  1.00  0.00     0.364 C 
ATOM     42  O   UNL     1      28.103  37.728   9.489  1.00  0.00    -0.246 OA
BRANCH  41  43
ATOM     43  O   UNL     1      26.402  37.321  10.886  1.00  0.00    -0.477 OA
ATOM     44  H   UNL     1      25.590  36.730  11.030  1.00  0.00     0.296 HD
ENDBRANCH  41  43
ENDBRANCH   1  41
BRANCH   3  45
ATOM     45  O   UNL     1      24.120  39.284   6.825  1.00  0.00    -0.391 OA
ATOM     46  H   UNL     1      24.480  38.393   6.599  1.00  0.00     0.211 HD
ENDBRANCH   3  45
BRANCH   5  47
ATOM     47  C   UNL     1      27.646  38.144   5.467  1.00  0.00     0.176 C 
BRANCH  47  48
ATOM     48  O   UNL     1      27.341  39.048   4.461  1.00  0.00    -0.388 OA
ATOM     49  H   UNL     1      27.032  38.606   3.631  1.00  0.00     0.211 HD
ENDBRANCH  47  48
BRANCH  47  50
ATOM     50  C   UNL     1      29.131  37.884   5.460  1.00  0.00     0.165 C 
BRANCH  50  51
ATOM     51  O   UNL     1      29.392  37.301   6.730  1.00  0.00    -0.388 OA
ATOM     52  H   UNL     1      28.680  36.647   6.975  1.00  0.00     0.211 HD
ENDBRANCH  50  51
BRANCH  50  53
ATOM     53  C   UNL     1      29.923  39.160   5.422  1.00  0.00     0.154 C 
BRANCH  53  54
ATOM     54  N   UNL     1      30.680  39.313   6.636  1.00  0.00    -0.319 N 
ATOM     55  C   UNL     1      32.004  39.792   6.727  1.00  0.00     0.407 C 
ATOM     56  H   UNL     1      30.225  39.049   7.563  1.00  0.00     0.167 HD
ATOM     57  O   UNL     1      32.576  40.105   5.674  1.00  0.00    -0.225 OA
BRANCH  55  58
ATOM     58  O   UNL     1      32.704  39.939   7.901  1.00  0.00    -0.443 OA
BRANCH  58  59
ATOM     59  C   UNL     1      32.366  40.940   8.827  1.00  0.00     0.294 C 
BRANCH  59  60
ATOM     60  C   UNL     1      31.917  40.274  10.086  1.00  0.00     0.121 A 
ATOM     61  C   UNL     1      31.880  38.896  10.315  1.00  0.00     0.144 A 
ATOM     62  N   UNL     1      31.459  40.794  11.232  1.00  0.00    -0.131 NA
ATOM     63  N   UNL     1      31.419  38.676  11.540  1.00  0.00    -0.220 N 
ATOM     64  N   UNL     1      31.172  39.864  12.072  1.00  0.00    -0.062 NA
BRANCH  63  65
ATOM     65  C   UNL     1      31.218  37.397  12.168  1.00  0.00     0.073 A 
ATOM     66  C   UNL     1      32.266  36.560  12.405  1.00  0.00     0.033 A 
ATOM     67  C   UNL     1      29.975  36.974  12.551  1.00  0.00     0.118 A 
ATOM     68  C   UNL     1      32.126  35.331  13.004  1.00  0.00     0.056 A 
ATOM     69  C   UNL     1      29.800  35.719  13.167  1.00  0.00     0.312 A 
ATOM     70  C   UNL     1      30.851  34.875  13.409  1.00  0.00     0.194 A 
BRANCH  69  71
ATOM     71  N   UNL     1      28.490  35.366  13.533  1.00  0.00     0.066 N 
ATOM     72  O   UNL     1      28.298  34.175  13.933  1.00  0.00    -0.258 OA
ATOM     73  O   UNL     1      27.460  36.247  13.464  1.00  0.00    -0.258 OA
ENDBRANCH  69  71
BRANCH  70  74
ATOM     74  O   UNL     1      30.767  33.631  14.010  1.00  0.00    -0.502 OA
ATOM     75  H   UNL     1      30.582  33.503  14.953  1.00  0.00     0.293 HD
ENDBRANCH  70  74
ENDBRANCH  63  65
ENDBRANCH  59  60
ENDBRANCH  58  59
ENDBRANCH  55  58
ENDBRANCH  53  54
ENDBRANCH  50  53
ENDBRANCH  47  50
ENDBRANCH   5  47
BRANCH   4  76
ATOM     76  N   UNL     1      27.157  41.148   6.919  1.00  0.00    -0.348 N 
ATOM     77  C   UNL     1      27.649  42.095   5.962  1.00  0.00     0.217 C 
ATOM     78  H   UNL     1      27.367  41.325   7.919  1.00  0.00     0.163 HD
ATOM     79  C   UNL     1      28.426  43.275   6.407  1.00  0.00     0.114 C 
ATOM     80  O   UNL     1      27.401  41.896   4.734  1.00  0.00    -0.275 OA
ENDBRANCH   4  76
TORSDOF 32
BEGIN_RES LYS A 131
REMARK  4 active torsions:
REMARK  status: ('A' for Active; 'I' for Inactive)
REMARK    1  A    between atoms: CA   and  CB  
REMARK    2  A    between atoms: CB   and  CG  
REMARK    3  A    between atoms: CG   and  CD  
REMARK    4  A    between atoms: CD   and  CE  
ROOT
ATOM      1  CA  LYS A 131      29.867  25.555  16.977  1.00 20.52     0.186 C 
ENDROOT
BRANCH   1   2
ATOM      2  CB  LYS A 131      28.345  25.722  17.026  1.00 20.94     0.034 C 
BRANCH   2   3
ATOM      3  CG  LYS A 131      27.601  24.403  16.887  1.00 22.96     0.005 C 
BRANCH   3   4
ATOM      4  CD  LYS A 131      26.151  24.527  17.265  1.00 24.33     0.041 C 
BRANCH   4   5
ATOM      5  CE  LYS A 131      25.961  24.072  18.709  1.00 26.91     0.338 C 
ATOM      6  NZ  LYS A 131      24.556  23.664  18.943  1.00 27.40     0.618 N 
ENDBRANCH   4   5
ENDBRANCH   3   4
ENDBRANCH   2   3
ENDBRANCH   1   2
END_RES LYS A 131
BEGIN_RES LYS A 135
REMARK  4 active torsions:
REMARK  status: ('A' for Active; 'I' for Inactive)
REMARK    5  A    between atoms: CA   and  CB  
REMARK    6  A    between atoms: CB   and  CG  
REMARK    7  A    between atoms: CG   and  CD  
REMARK    8  A    between atoms: CD   and  CE  
ROOT
ATOM      7  CA  LYS A 135      33.193  34.663   9.290  1.00 25.02     0.186 C 
ENDROOT
BRANCH   7   8
ATOM      8  CB  LYS A 135      32.060  35.360  10.034  1.00 26.63     0.034 C 
BRANCH   8   9
ATOM      9  CG  LYS A 135      30.811  35.528   9.208  1.00 29.45     0.005 C 
BRANCH   9  10
ATOM     10  CD  LYS A 135      30.303  34.180   8.721  1.00 32.00     0.041 C 
BRANCH  10  11
ATOM     11  CE  LYS A 135      28.792  34.112   8.821  1.00 34.25     0.338 C 
ATOM     12  NZ  LYS A 135      28.335  34.338  10.220  1.00 35.99     0.618 N 
ENDBRANCH  10  11
ENDBRANCH   9  10
ENDBRANCH   8   9
ENDBRANCH   7   8
END_RES LYS A 135
