REMARK VINA RESULT:    -4.391      3.030      8.288
REMARK INTER + INTRA:         -21.709
REMARK INTER:                 -11.193
REMARK INTRA:                 -10.516
REMARK UNBOUND:               -10.516
REMARK SMILES CC(=O)N[C@@H]1[C@@H](O)C[C@](OC[C@H]2O[C@@H](O[C@H]3[C@H](O)[C@@H](O)[C@H](OCCN=[N+]=[N-])O[C@@H]3CO)[C@H](O)[C@@H](O)[C@H]2O)(C(=O)O)O[C@H]1C(O)[C@H](O)CNC(=O)OCc1cn(C(C)(C)C(=O)O)nn1
REMARK SMILES IDX 9 1 8 2 6 3 5 4 42 5 41 6 10 7 11 8 12 9 14 10 13 11 32 12
REMARK SMILES IDX 34 13 36 14 15 15 16 16 29 17 28 18 21 19 17 20 19 21 30 22
REMARK SMILES IDX 31 23 22 25 23 26 24 27 25 28 26 29 27 30 18 31 20 33 33 35
REMARK SMILES IDX 35 37 37 39 38 41 39 42 40 43 7 45 43 47 44 48 45 50 46 51
REMARK SMILES IDX 47 53 48 54 49 55 50 57 51 58 52 59 53 60 54 61 63 62 55 63
REMARK SMILES IDX 62 64 56 65 57 66 58 67 59 68 60 69 61 70 4 72 2 73 1 75
REMARK SMILES IDX 3 76
REMARK H PARENT 31 24 18 32 20 34 33 36 35 38 37 40 40 44 7 46 44 49 46 52
REMARK H PARENT 48 56 61 71 4 74
REMARK Flexibility Score: inf
ROOT
ATOM      1  C   UNL     1      27.281  40.655   5.170  1.00  0.00     0.272 C 
ATOM      2  C   UNL     1      28.422  39.899   4.625  1.00  0.00     0.113 C 
ATOM      3  C   UNL     1      29.392  39.382   5.650  1.00  0.00     0.145 C 
ATOM      4  C   UNL     1      29.352  40.243   6.875  1.00  0.00     0.142 C 
ATOM      5  C   UNL     1      28.965  41.649   6.378  1.00  0.00     0.178 C 
ATOM      6  O   UNL     1      27.614  41.625   6.120  1.00  0.00    -0.332 OA
ENDROOT
BRANCH   1   7
ATOM      7  O   UNL     1      26.284  39.890   5.693  1.00  0.00    -0.338 OA
BRANCH   7   8
ATOM      8  C   UNL     1      25.795  40.207   6.921  1.00  0.00     0.199 C 
BRANCH   8   9
ATOM      9  C   UNL     1      24.293  40.387   6.888  1.00  0.00     0.179 C 
ATOM     10  C   UNL     1      22.391  39.782   8.048  1.00  0.00     0.282 C 
ATOM     11  O   UNL     1      23.827  39.906   8.110  1.00  0.00    -0.341 OA
ATOM     12  C   UNL     1      21.860  41.165   8.032  1.00  0.00     0.202 C 
ATOM     13  C   UNL     1      22.965  42.202   7.846  1.00  0.00     0.179 C 
ATOM     14  C   UNL     1      23.902  41.806   6.714  1.00  0.00     0.177 C 
BRANCH  10  15
ATOM     15  O   UNL     1      22.098  38.980   9.109  1.00  0.00    -0.341 OA
BRANCH  15  16
ATOM     16  C   UNL     1      22.716  37.742   9.101  1.00  0.00     0.184 C 
ATOM     17  C   UNL     1      21.683  36.662   9.198  1.00  0.00     0.178 C 
ATOM     18  O   UNL     1      22.236  35.465   9.678  1.00  0.00    -0.341 OA
ATOM     19  C   UNL     1      22.528  35.515  11.033  1.00  0.00     0.281 C 
ATOM     20  C   UNL     1      23.639  37.599  10.312  1.00  0.00     0.180 C 
ATOM     21  C   UNL     1      22.899  36.924  11.439  1.00  0.00     0.202 C 
BRANCH  17  22
ATOM     22  C   UNL     1      21.121  36.295   7.815  1.00  0.00     0.191 C 
BRANCH  22  23
ATOM     23  O   UNL     1      22.026  36.736   6.872  1.00  0.00    -0.394 OA
ATOM     24  H   UNL     1      21.544  36.851   5.999  1.00  0.00     0.210 HD
ENDBRANCH  22  23
ENDBRANCH  17  22
BRANCH  19  25
ATOM     25  O   UNL     1      23.589  34.633  11.235  1.00  0.00    -0.350 OA
BRANCH  25  26
ATOM     26  C   UNL     1      23.672  34.110  12.499  1.00  0.00     0.169 C 
BRANCH  26  27
ATOM     27  C   UNL     1      25.170  33.967  12.804  1.00  0.00     0.119 C 
BRANCH  27  28
ATOM     28  N   UNL     1      25.933  35.090  12.312  1.00  0.00    -0.092 NA
ATOM     29  N   UNL     1      26.057  36.082  13.047  1.00  0.00     0.001 N 
ATOM     30  N   UNL     1      25.961  37.127  13.676  1.00  0.00    -0.003 NA
ENDBRANCH  27  28
ENDBRANCH  26  27
ENDBRANCH  25  26
ENDBRANCH  19  25
BRANCH  20  31
ATOM     31  O   UNL     1      24.722  36.796   9.971  1.00  0.00    -0.387 OA
ATOM     32  H   UNL     1      24.701  36.495   9.029  1.00  0.00     0.211 HD
ENDBRANCH  20  31
BRANCH  21  33
ATOM     33  O   UNL     1      21.778  37.688  11.740  1.00  0.00    -0.385 OA
ATOM     34  H   UNL     1      20.981  37.150  11.959  1.00  0.00     0.211 HD
ENDBRANCH  21  33
ENDBRANCH  15  16
ENDBRANCH  10  15
BRANCH  12  35
ATOM     35  O   UNL     1      21.045  41.311   6.887  1.00  0.00    -0.385 OA
ATOM     36  H   UNL     1      20.169  41.681   7.070  1.00  0.00     0.211 HD
ENDBRANCH  12  35
BRANCH  13  37
ATOM     37  O   UNL     1      23.649  42.396   9.031  1.00  0.00    -0.387 OA
ATOM     38  H   UNL     1      23.056  42.801   9.714  1.00  0.00     0.211 HD
ENDBRANCH  13  37
BRANCH  14  39
ATOM     39  O   UNL     1      25.002  42.645   6.791  1.00  0.00    -0.387 OA
ATOM     40  H   UNL     1      25.684  42.311   6.141  1.00  0.00     0.211 HD
ENDBRANCH  14  39
ENDBRANCH   8   9
ENDBRANCH   7   8
ENDBRANCH   1   7
BRANCH   1  41
ATOM     41  C   UNL     1      26.727  41.497   4.014  1.00  0.00     0.364 C 
ATOM     42  O   UNL     1      27.420  42.409   3.512  1.00  0.00    -0.246 OA
BRANCH  41  43
ATOM     43  O   UNL     1      25.463  41.270   3.507  1.00  0.00    -0.477 OA
ATOM     44  H   UNL     1      25.191  41.476   2.559  1.00  0.00     0.296 HD
ENDBRANCH  41  43
ENDBRANCH   1  41
BRANCH   3  45
ATOM     45  O   UNL     1      29.045  38.092   5.991  1.00  0.00    -0.391 OA
ATOM     46  H   UNL     1      28.501  37.645   5.291  1.00  0.00     0.211 HD
ENDBRANCH   3  45
BRANCH   5  47
ATOM     47  C   UNL     1      29.300  42.704   7.394  1.00  0.00     0.176 C 
BRANCH  47  48
ATOM     48  O   UNL     1      29.476  43.927   6.752  1.00  0.00    -0.388 OA
ATOM     49  H   UNL     1      30.429  44.232   6.826  1.00  0.00     0.211 HD
ENDBRANCH  47  48
BRANCH  47  50
ATOM     50  C   UNL     1      28.162  42.850   8.377  1.00  0.00     0.165 C 
BRANCH  50  51
ATOM     51  O   UNL     1      27.447  44.033   8.144  1.00  0.00    -0.388 OA
ATOM     52  H   UNL     1      26.488  43.819   8.164  1.00  0.00     0.211 HD
ENDBRANCH  50  51
BRANCH  50  53
ATOM     53  C   UNL     1      28.623  42.850   9.810  1.00  0.00     0.154 C 
BRANCH  53  54
ATOM     54  N   UNL     1      28.590  41.524  10.378  1.00  0.00    -0.319 N 
ATOM     55  C   UNL     1      29.720  40.963  11.019  1.00  0.00     0.407 C 
ATOM     56  H   UNL     1      27.722  40.955  10.321  1.00  0.00     0.167 HD
ATOM     57  O   UNL     1      30.805  41.588  11.129  1.00  0.00    -0.225 OA
BRANCH  55  58
ATOM     58  O   UNL     1      29.677  39.671  11.564  1.00  0.00    -0.443 OA
BRANCH  58  59
ATOM     59  C   UNL     1      28.407  39.028  11.708  1.00  0.00     0.294 C 
BRANCH  59  60
ATOM     60  C   UNL     1      28.142  38.119  10.594  1.00  0.00     0.120 A 
ATOM     61  C   UNL     1      28.485  36.793  10.523  1.00  0.00     0.139 A 
ATOM     62  N   UNL     1      27.522  38.425   9.451  1.00  0.00    -0.132 NA
ATOM     63  N   UNL     1      28.066  36.313   9.335  1.00  0.00    -0.235 N 
ATOM     64  N   UNL     1      27.484  37.345   8.716  1.00  0.00    -0.066 NA
BRANCH  63  65
ATOM     65  C   UNL     1      28.188  34.979   8.786  1.00  0.00     0.155 C 
ATOM     66  C   UNL     1      27.030  34.679   7.882  1.00  0.00     0.049 C 
ATOM     67  C   UNL     1      28.199  33.936   9.899  1.00  0.00     0.049 C 
BRANCH  65  68
ATOM     68  C   UNL     1      29.486  34.895   8.079  1.00  0.00     0.331 C 
ATOM     69  O   UNL     1      30.379  34.163   8.532  1.00  0.00    -0.250 OA
BRANCH  68  70
ATOM     70  O   UNL     1      29.672  35.639   6.927  1.00  0.00    -0.479 OA
ATOM     71  H   UNL     1      29.419  35.297   6.007  1.00  0.00     0.296 HD
ENDBRANCH  68  70
ENDBRANCH  65  68
ENDBRANCH  63  65
ENDBRANCH  59  60
ENDBRANCH  58  59
ENDBRANCH  55  58
ENDBRANCH  53  54
ENDBRANCH  50  53
ENDBRANCH  47  50
ENDBRANCH   5  47
BRANCH   4  72
ATOM     72  N   UNL     1      30.641  40.385   7.500  1.00  0.00    -0.348 N 
ATOM     73  C   UNL     1      31.308  39.339   8.199  1.00  0.00     0.217 C 
ATOM     74  H   UNL     1      31.119  41.305   7.436  1.00  0.00     0.163 HD
ATOM     75  C   UNL     1      32.648  39.571   8.820  1.00  0.00     0.114 C 
ATOM     76  O   UNL     1      30.757  38.211   8.289  1.00  0.00    -0.275 OA
ENDBRANCH   4  72
TORSDOF 32
BEGIN_RES LYS A 131
REMARK  4 active torsions:
REMARK  status: ('A' for Active; 'I' for Inactive)
REMARK    1  A    between atoms: CA   and  CB  
REMARK    2  A    between atoms: CB   and  CG  
REMARK    3  A    between atoms: CG   and  CD  
REMARK    4  A    between atoms: CD   and  CE  
ROOT
ATOM      1  CA  LYS A 131      29.867  25.555  16.977  1.00 20.52     0.186 C 
ENDROOT
BRANCH   1   2
ATOM      2  CB  LYS A 131      28.345  25.722  17.026  1.00 20.94     0.034 C 
BRANCH   2   3
ATOM      3  CG  LYS A 131      27.602  24.399  16.920  1.00 22.96     0.005 C 
BRANCH   3   4
ATOM      4  CD  LYS A 131      26.154  24.530  17.305  1.00 24.33     0.041 C 
BRANCH   4   5
ATOM      5  CE  LYS A 131      25.816  23.496  18.373  1.00 26.91     0.338 C 
ATOM      6  NZ  LYS A 131      25.514  24.161  19.663  1.00 27.40     0.618 N 
ENDBRANCH   4   5
ENDBRANCH   3   4
ENDBRANCH   2   3
ENDBRANCH   1   2
END_RES LYS A 131
BEGIN_RES LYS A 135
REMARK  4 active torsions:
REMARK  status: ('A' for Active; 'I' for Inactive)
REMARK    5  A    between atoms: CA   and  CB  
REMARK    6  A    between atoms: CB   and  CG  
REMARK    7  A    between atoms: CG   and  CD  
REMARK    8  A    between atoms: CD   and  CE  
ROOT
ATOM      7  CA  LYS A 135      33.193  34.663   9.290  1.00 25.02     0.186 C 
ENDROOT
BRANCH   7   8
ATOM      8  CB  LYS A 135      32.060  35.360  10.034  1.00 26.63     0.034 C 
BRANCH   8   9
ATOM      9  CG  LYS A 135      32.279  35.445  11.523  1.00 29.45     0.005 C 
BRANCH   9  10
ATOM     10  CD  LYS A 135      31.073  34.902  12.274  1.00 32.00     0.041 C 
BRANCH  10  11
ATOM     11  CE  LYS A 135      31.033  35.454  13.686  1.00 34.25     0.338 C 
ATOM     12  NZ  LYS A 135      29.935  36.448  13.842  1.00 35.99     0.618 N 
ENDBRANCH  10  11
ENDBRANCH   9  10
ENDBRANCH   8   9
ENDBRANCH   7   8
END_RES LYS A 135
