REMARK VINA RESULT:    -5.086      2.536      6.415
REMARK INTER + INTRA:         -26.200
REMARK INTER:                 -11.656
REMARK INTRA:                 -14.543
REMARK UNBOUND:               -12.046
REMARK SMILES CC(=O)N[C@@H]1[C@@H](O)C[C@](OC[C@H]2O[C@@H](O[C@H]3[C@H](O)[C@@H](O)[C@H](OCCN=[N+]=[N-])O[C@@H]3CO)[C@H](O)[C@@H](O)[C@H]2O)(C(=O)O)O[C@H]1C(O)[C@H](O)CNC(=O)OCc1cn(C[C@@H](C(=O)O)C(c2ccccc2)c2ccccc2)nn1
REMARK SMILES IDX 43 1 42 2 9 3 8 4 41 5 6 6 5 7 10 8 11 9 12 10 14 11 13 12
REMARK SMILES IDX 32 13 34 14 36 15 15 16 16 17 29 18 28 19 21 20 17 21 19 22
REMARK SMILES IDX 30 23 31 24 22 26 23 27 24 28 25 29 26 30 27 31 18 32 20 34
REMARK SMILES IDX 33 36 35 38 37 40 38 42 39 43 40 44 7 46 4 48 2 49 1 51 3 52
REMARK SMILES IDX 44 53 45 55 46 56 47 58 48 59 49 60 50 62 51 63 52 64 53 65
REMARK SMILES IDX 54 66 75 67 55 68 74 69 56 70 57 71 58 72 59 73 60 74 61 76
REMARK SMILES IDX 62 77 63 78 67 79 64 80 66 81 65 82 68 83 69 84 73 85 70 86
REMARK SMILES IDX 72 87 71 88
REMARK H PARENT 31 25 18 33 20 35 33 37 35 39 37 41 40 45 7 47 4 50 44 54
REMARK H PARENT 46 57 48 61 60 75
REMARK Flexibility Score: inf
ROOT
ATOM      1  C   UNL     1      27.149  33.732  17.573  1.00  0.00     0.176 C 
ENDROOT
BRANCH   1   2
ATOM      2  C   UNL     1      26.940  32.327  16.967  1.00  0.00     0.178 C 
ATOM      3  C   UNL     1      26.120  30.180  17.212  1.00  0.00     0.272 C 
ATOM      4  C   UNL     1      26.582  30.247  15.718  1.00  0.00     0.113 C 
ATOM      5  O   UNL     1      26.387  31.428  17.803  1.00  0.00    -0.332 OA
ATOM      6  C   UNL     1      28.007  30.663  15.592  1.00  0.00     0.145 C 
ATOM      7  C   UNL     1      28.260  31.925  16.351  1.00  0.00     0.142 C 
BRANCH   3   8
ATOM      8  O   UNL     1      26.674  29.147  17.754  1.00  0.00    -0.338 OA
BRANCH   8   9
ATOM      9  C   UNL     1      26.442  27.925  18.030  1.00  0.00     0.199 C 
BRANCH   9  10
ATOM     10  C   UNL     1      26.599  27.295  19.389  1.00  0.00     0.179 C 
ATOM     11  C   UNL     1      28.177  27.578  21.138  1.00  0.00     0.282 C 
ATOM     12  O   UNL     1      27.876  27.438  19.838  1.00  0.00    -0.341 OA
ATOM     13  C   UNL     1      27.121  27.440  22.165  1.00  0.00     0.202 C 
ATOM     14  C   UNL     1      25.717  27.357  21.641  1.00  0.00     0.179 C 
ATOM     15  C   UNL     1      25.702  28.110  20.349  1.00  0.00     0.177 C 
BRANCH  11  16
ATOM     16  O   UNL     1      28.677  28.908  21.257  1.00  0.00    -0.341 OA
BRANCH  16  17
ATOM     17  C   UNL     1      29.743  29.165  20.442  1.00  0.00     0.184 C 
ATOM     18  C   UNL     1      30.928  29.520  21.295  1.00  0.00     0.178 C 
ATOM     19  O   UNL     1      30.965  30.869  21.627  1.00  0.00    -0.341 OA
ATOM     20  C   UNL     1      29.700  31.474  21.651  1.00  0.00     0.281 C 
ATOM     21  C   UNL     1      29.489  30.335  19.502  1.00  0.00     0.180 C 
ATOM     22  C   UNL     1      29.089  31.564  20.294  1.00  0.00     0.202 C 
BRANCH  18  23
ATOM     23  C   UNL     1      32.254  29.124  20.710  1.00  0.00     0.191 C 
BRANCH  23  24
ATOM     24  O   UNL     1      32.173  28.027  19.876  1.00  0.00    -0.394 OA
ATOM     25  H   UNL     1      32.058  27.223  20.467  1.00  0.00     0.210 HD
ENDBRANCH  23  24
ENDBRANCH  18  23
BRANCH  20  26
ATOM     26  O   UNL     1      29.844  32.750  22.145  1.00  0.00    -0.350 OA
BRANCH  26  27
ATOM     27  C   UNL     1      31.112  33.198  22.344  1.00  0.00     0.169 C 
BRANCH  27  28
ATOM     28  C   UNL     1      31.461  34.442  21.593  1.00  0.00     0.119 C 
BRANCH  28  29
ATOM     29  N   UNL     1      32.343  34.018  20.487  1.00  0.00    -0.092 NA
ATOM     30  N   UNL     1      31.814  33.872  19.381  1.00  0.00     0.001 N 
ATOM     31  N   UNL     1      31.281  33.583  18.313  1.00  0.00    -0.003 NA
ENDBRANCH  28  29
ENDBRANCH  27  28
ENDBRANCH  26  27
ENDBRANCH  20  26
BRANCH  21  32
ATOM     32  O   UNL     1      30.695  30.620  18.868  1.00  0.00    -0.387 OA
ATOM     33  H   UNL     1      30.739  30.272  17.948  1.00  0.00     0.211 HD
ENDBRANCH  21  32
BRANCH  22  34
ATOM     34  O   UNL     1      27.707  31.627  20.414  1.00  0.00    -0.385 OA
ATOM     35  H   UNL     1      27.513  32.192  21.228  1.00  0.00     0.211 HD
ENDBRANCH  22  34
ENDBRANCH  16  17
ENDBRANCH  11  16
BRANCH  13  36
ATOM     36  O   UNL     1      27.322  26.256  22.915  1.00  0.00    -0.385 OA
ATOM     37  H   UNL     1      28.041  26.396  23.594  1.00  0.00     0.211 HD
ENDBRANCH  13  36
BRANCH  14  38
ATOM     38  O   UNL     1      24.837  27.913  22.547  1.00  0.00    -0.387 OA
ATOM     39  H   UNL     1      24.744  27.302  23.325  1.00  0.00     0.211 HD
ENDBRANCH  14  38
BRANCH  15  40
ATOM     40  O   UNL     1      26.228  29.376  20.559  1.00  0.00    -0.387 OA
ATOM     41  H   UNL     1      25.776  29.768  21.335  1.00  0.00     0.211 HD
ENDBRANCH  15  40
ENDBRANCH   9  10
ENDBRANCH   8   9
ENDBRANCH   3   8
BRANCH   3  42
ATOM     42  C   UNL     1      24.650  30.134  17.079  1.00  0.00     0.364 C 
ATOM     43  O   UNL     1      23.840  30.738  17.812  1.00  0.00    -0.246 OA
BRANCH  42  44
ATOM     44  O   UNL     1      24.076  29.356  16.051  1.00  0.00    -0.477 OA
ATOM     45  H   UNL     1      24.454  29.459  15.134  1.00  0.00     0.296 HD
ENDBRANCH  42  44
ENDBRANCH   3  42
BRANCH   6  46
ATOM     46  O   UNL     1      28.894  29.651  15.986  1.00  0.00    -0.391 OA
ATOM     47  H   UNL     1      29.450  29.925  16.753  1.00  0.00     0.211 HD
ENDBRANCH   6  46
BRANCH   7  48
ATOM     48  N   UNL     1      28.658  32.964  15.429  1.00  0.00    -0.348 N 
ATOM     49  C   UNL     1      29.968  33.009  14.891  1.00  0.00     0.217 C 
ATOM     50  H   UNL     1      27.947  33.700  15.158  1.00  0.00     0.163 HD
ATOM     51  C   UNL     1      30.389  34.087  13.931  1.00  0.00     0.114 C 
ATOM     52  O   UNL     1      30.771  32.109  15.249  1.00  0.00    -0.275 OA
ENDBRANCH   7  48
ENDBRANCH   1   2
BRANCH   1  53
ATOM     53  O   UNL     1      28.418  33.869  18.067  1.00  0.00    -0.388 OA
ATOM     54  H   UNL     1      28.545  33.495  18.969  1.00  0.00     0.211 HD
ENDBRANCH   1  53
BRANCH   1  55
ATOM     55  C   UNL     1      26.152  33.998  18.631  1.00  0.00     0.165 C 
BRANCH  55  56
ATOM     56  O   UNL     1      24.830  33.697  18.241  1.00  0.00    -0.388 OA
ATOM     57  H   UNL     1      24.624  32.833  18.717  1.00  0.00     0.211 HD
ENDBRANCH  55  56
BRANCH  55  58
ATOM     58  C   UNL     1      26.158  35.280  19.375  1.00  0.00     0.154 C 
BRANCH  58  59
ATOM     59  N   UNL     1      26.632  36.422  18.684  1.00  0.00    -0.319 N 
ATOM     60  C   UNL     1      27.737  37.224  19.041  1.00  0.00     0.407 C 
ATOM     61  H   UNL     1      26.094  36.716  17.778  1.00  0.00     0.167 HD
ATOM     62  O   UNL     1      28.413  37.028  20.065  1.00  0.00    -0.225 OA
BRANCH  60  63
ATOM     63  O   UNL     1      28.077  38.266  18.205  1.00  0.00    -0.443 OA
BRANCH  63  64
ATOM     64  C   UNL     1      28.885  38.093  17.094  1.00  0.00     0.294 C 
BRANCH  64  65
ATOM     65  C   UNL     1      28.228  37.448  15.948  1.00  0.00     0.120 A 
ATOM     66  C   UNL     1      27.540  38.014  14.902  1.00  0.00     0.138 A 
ATOM     67  N   UNL     1      28.150  36.100  15.721  1.00  0.00    -0.132 NA
ATOM     68  N   UNL     1      27.078  37.049  14.100  1.00  0.00    -0.251 N 
ATOM     69  N   UNL     1      27.463  35.899  14.621  1.00  0.00    -0.067 NA
BRANCH  68  70
ATOM     70  C   UNL     1      26.290  37.188  12.860  1.00  0.00     0.162 C 
BRANCH  70  71
ATOM     71  C   UNL     1      24.909  36.660  13.076  1.00  0.00     0.132 C 
BRANCH  71  72
ATOM     72  C   UNL     1      23.914  37.774  13.120  1.00  0.00     0.309 C 
ATOM     73  O   UNL     1      24.182  38.934  12.766  1.00  0.00    -0.252 OA
BRANCH  72  74
ATOM     74  O   UNL     1      22.631  37.518  13.572  1.00  0.00    -0.481 OA
ATOM     75  H   UNL     1      22.385  37.740  14.540  1.00  0.00     0.296 HD
ENDBRANCH  72  74
ENDBRANCH  71  72
BRANCH  71  76
ATOM     76  C   UNL     1      24.458  35.520  12.242  1.00  0.00     0.065 C 
BRANCH  76  77
ATOM     77  C   UNL     1      25.276  35.152  11.086  1.00  0.00    -0.040 A 
ATOM     78  C   UNL     1      24.939  35.585   9.794  1.00  0.00     0.004 A 
ATOM     79  C   UNL     1      26.422  34.358  11.166  1.00  0.00     0.004 A 
ATOM     80  C   UNL     1      25.665  35.265   8.692  1.00  0.00     0.000 A 
ATOM     81  C   UNL     1      27.149  34.039  10.045  1.00  0.00     0.000 A 
ATOM     82  C   UNL     1      26.778  34.489   8.794  1.00  0.00     0.000 A 
ENDBRANCH  76  77
BRANCH  76  83
ATOM     83  C   UNL     1      23.939  34.371  13.032  1.00  0.00    -0.040 A 
ATOM     84  C   UNL     1      22.982  33.584  12.427  1.00  0.00     0.004 A 
ATOM     85  C   UNL     1      24.379  34.080  14.294  1.00  0.00     0.004 A 
ATOM     86  C   UNL     1      22.457  32.500  13.072  1.00  0.00     0.000 A 
ATOM     87  C   UNL     1      23.836  32.973  14.940  1.00  0.00     0.000 A 
ATOM     88  C   UNL     1      22.880  32.183  14.342  1.00  0.00     0.000 A 
ENDBRANCH  76  83
ENDBRANCH  71  76
ENDBRANCH  70  71
ENDBRANCH  68  70
ENDBRANCH  64  65
ENDBRANCH  63  64
ENDBRANCH  60  63
ENDBRANCH  58  59
ENDBRANCH  55  58
ENDBRANCH   1  55
TORSDOF 36
BEGIN_RES LYS A 131
REMARK  4 active torsions:
REMARK  status: ('A' for Active; 'I' for Inactive)
REMARK    1  A    between atoms: CA   and  CB  
REMARK    2  A    between atoms: CB   and  CG  
REMARK    3  A    between atoms: CG   and  CD  
REMARK    4  A    between atoms: CD   and  CE  
ROOT
ATOM      1  CA  LYS A 131      29.867  25.555  16.977  1.00 20.52     0.186 C 
ENDROOT
BRANCH   1   2
ATOM      2  CB  LYS A 131      28.345  25.722  17.026  1.00 20.94     0.034 C 
BRANCH   2   3
ATOM      3  CG  LYS A 131      27.600  24.415  16.802  1.00 22.96     0.005 C 
BRANCH   3   4
ATOM      4  CD  LYS A 131      26.191  24.470  17.325  1.00 24.33     0.041 C 
BRANCH   4   5
ATOM      5  CE  LYS A 131      25.672  23.052  17.539  1.00 26.91     0.338 C 
ATOM      6  NZ  LYS A 131      24.250  22.953  17.135  1.00 27.40     0.618 N 
ENDBRANCH   4   5
ENDBRANCH   3   4
ENDBRANCH   2   3
ENDBRANCH   1   2
END_RES LYS A 131
BEGIN_RES LYS A 135
REMARK  4 active torsions:
REMARK  status: ('A' for Active; 'I' for Inactive)
REMARK    5  A    between atoms: CA   and  CB  
REMARK    6  A    between atoms: CB   and  CG  
REMARK    7  A    between atoms: CG   and  CD  
REMARK    8  A    between atoms: CD   and  CE  
ROOT
ATOM      7  CA  LYS A 135      33.193  34.663   9.290  1.00 25.02     0.186 C 
ENDROOT
BRANCH   7   8
ATOM      8  CB  LYS A 135      32.060  35.360  10.034  1.00 26.63     0.034 C 
BRANCH   8   9
ATOM      9  CG  LYS A 135      30.690  34.875   9.636  1.00 29.45     0.005 C 
BRANCH   9  10
ATOM     10  CD  LYS A 135      30.669  34.468   8.171  1.00 32.00     0.041 C 
BRANCH  10  11
ATOM     11  CE  LYS A 135      29.645  35.285   7.406  1.00 34.25     0.338 C 
ATOM     12  NZ  LYS A 135      29.500  36.647   7.991  1.00 35.99     0.618 N 
ENDBRANCH  10  11
ENDBRANCH   9  10
ENDBRANCH   8   9
ENDBRANCH   7   8
END_RES LYS A 135
