REMARK VINA RESULT:    -4.697      2.988      6.483
REMARK INTER + INTRA:         -23.280
REMARK INTER:                 -12.435
REMARK INTRA:                 -10.845
REMARK UNBOUND:               -10.207
REMARK SMILES CC(=O)N[C@@H]1[C@@H](O)C[C@](OC[C@H]2O[C@@H](O[C@H]3[C@H](O)[C@@H](O)[C@H](OCCN=[N+]=[N-])O[C@@H]3CO)[C@H](O)[C@@H](O)[C@H]2O)(C(=O)O)O[C@H]1C(O)[C@H](O)CNC(=O)OCc1cn(C[C@H](CC(=O)O)CC(C)C)nn1
REMARK SMILES IDX 43 1 42 2 9 3 8 4 41 5 6 6 5 7 10 8 11 9 12 10 14 11 13 12
REMARK SMILES IDX 32 13 34 14 36 15 15 16 16 17 29 18 28 19 21 20 17 21 19 22
REMARK SMILES IDX 30 23 31 24 22 26 23 27 24 28 25 29 26 30 27 31 18 32 20 34
REMARK SMILES IDX 33 36 35 38 37 40 38 42 39 43 40 44 7 46 4 48 2 49 1 51 3 52
REMARK SMILES IDX 44 53 45 55 46 56 47 58 48 59 49 60 50 62 51 63 52 64 53 65
REMARK SMILES IDX 54 66 67 67 55 68 66 69 56 70 57 71 58 72 59 73 60 74 61 75
REMARK SMILES IDX 62 77 63 78 64 79 65 80
REMARK H PARENT 31 25 18 33 20 35 33 37 35 39 37 41 40 45 7 47 4 50 44 54
REMARK H PARENT 46 57 48 61 61 76
REMARK Flexibility Score: inf
ROOT
ATOM      1  C   UNL     1      29.477  27.834  23.022  1.00  0.00     0.176 C 
ENDROOT
BRANCH   1   2
ATOM      2  C   UNL     1      30.909  28.281  23.118  1.00  0.00     0.178 C 
ATOM      3  C   UNL     1      31.623  30.234  21.899  1.00  0.00     0.272 C 
ATOM      4  C   UNL     1      32.184  29.382  20.819  1.00  0.00     0.113 C 
ATOM      5  O   UNL     1      30.906  29.602  22.806  1.00  0.00    -0.332 OA
ATOM      6  C   UNL     1      31.848  27.946  20.833  1.00  0.00     0.145 C 
ATOM      7  C   UNL     1      31.725  27.385  22.252  1.00  0.00     0.142 C 
BRANCH   3   8
ATOM      8  O   UNL     1      30.824  31.258  21.321  1.00  0.00    -0.338 OA
BRANCH   8   9
ATOM      9  C   UNL     1      31.225  31.666  20.087  1.00  0.00     0.199 C 
BRANCH   9  10
ATOM     10  C   UNL     1      30.031  32.266  19.312  1.00  0.00     0.179 C 
ATOM     11  C   UNL     1      29.489  33.259  17.285  1.00  0.00     0.282 C 
ATOM     12  O   UNL     1      30.335  32.401  17.972  1.00  0.00    -0.341 OA
ATOM     13  C   UNL     1      28.094  33.090  17.907  1.00  0.00     0.202 C 
ATOM     14  C   UNL     1      27.883  31.651  18.330  1.00  0.00     0.179 C 
ATOM     15  C   UNL     1      28.851  31.289  19.406  1.00  0.00     0.177 C 
BRANCH  11  16
ATOM     16  O   UNL     1      29.360  32.811  15.994  1.00  0.00    -0.341 OA
BRANCH  16  17
ATOM     17  C   UNL     1      29.335  33.768  15.014  1.00  0.00     0.184 C 
ATOM     18  C   UNL     1      30.303  34.896  15.214  1.00  0.00     0.178 C 
ATOM     19  O   UNL     1      29.741  36.122  15.413  1.00  0.00    -0.341 OA
ATOM     20  C   UNL     1      28.865  36.542  14.431  1.00  0.00     0.281 C 
ATOM     21  C   UNL     1      27.941  34.359  14.998  1.00  0.00     0.180 C 
ATOM     22  C   UNL     1      27.926  35.488  13.957  1.00  0.00     0.202 C 
BRANCH  18  23
ATOM     23  C   UNL     1      31.288  34.870  14.058  1.00  0.00     0.191 C 
BRANCH  23  24
ATOM     24  O   UNL     1      30.795  34.128  12.989  1.00  0.00    -0.394 OA
ATOM     25  H   UNL     1      30.614  34.694  12.189  1.00  0.00     0.210 HD
ENDBRANCH  23  24
ENDBRANCH  18  23
BRANCH  20  26
ATOM     26  O   UNL     1      29.613  37.140  13.427  1.00  0.00    -0.350 OA
BRANCH  26  27
ATOM     27  C   UNL     1      29.029  38.291  12.924  1.00  0.00     0.169 C 
BRANCH  27  28
ATOM     28  C   UNL     1      29.256  38.278  11.418  1.00  0.00     0.119 C 
BRANCH  28  29
ATOM     29  N   UNL     1      28.235  37.396  10.871  1.00  0.00    -0.092 NA
ATOM     30  N   UNL     1      27.075  37.632  11.113  1.00  0.00     0.001 N 
ATOM     31  N   UNL     1      25.857  37.545  11.319  1.00  0.00    -0.003 NA
ENDBRANCH  28  29
ENDBRANCH  27  28
ENDBRANCH  26  27
ENDBRANCH  20  26
BRANCH  21  32
ATOM     32  O   UNL     1      27.008  33.382  14.704  1.00  0.00    -0.387 OA
ATOM     33  H   UNL     1      27.296  32.549  15.195  1.00  0.00     0.211 HD
ENDBRANCH  21  32
BRANCH  22  34
ATOM     34  O   UNL     1      26.586  35.927  13.924  1.00  0.00    -0.385 OA
ATOM     35  H   UNL     1      26.579  36.802  13.481  1.00  0.00     0.211 HD
ENDBRANCH  22  34
ENDBRANCH  16  17
ENDBRANCH  11  16
BRANCH  13  36
ATOM     36  O   UNL     1      27.834  34.007  18.894  1.00  0.00    -0.385 OA
ATOM     37  H   UNL     1      27.409  34.828  18.589  1.00  0.00     0.211 HD
ENDBRANCH  13  36
BRANCH  14  38
ATOM     38  O   UNL     1      28.164  30.878  17.186  1.00  0.00    -0.387 OA
ATOM     39  H   UNL     1      28.427  29.971  17.407  1.00  0.00     0.211 HD
ENDBRANCH  14  38
BRANCH  15  40
ATOM     40  O   UNL     1      29.303  29.979  19.143  1.00  0.00    -0.387 OA
ATOM     41  H   UNL     1      28.565  29.398  18.896  1.00  0.00     0.211 HD
ENDBRANCH  15  40
ENDBRANCH   9  10
ENDBRANCH   8   9
ENDBRANCH   3   8
BRANCH   3  42
ATOM     42  C   UNL     1      32.741  31.028  22.548  1.00  0.00     0.364 C 
ATOM     43  O   UNL     1      33.924  30.775  22.285  1.00  0.00    -0.246 OA
BRANCH  42  44
ATOM     44  O   UNL     1      32.457  32.030  23.430  1.00  0.00    -0.477 OA
ATOM     45  H   UNL     1      33.162  32.666  23.799  1.00  0.00     0.296 HD
ENDBRANCH  42  44
ENDBRANCH   3  42
BRANCH   6  46
ATOM     46  O   UNL     1      30.757  27.552  20.090  1.00  0.00    -0.391 OA
ATOM     47  H   UNL     1      29.952  27.832  20.593  1.00  0.00     0.211 HD
ENDBRANCH   6  46
BRANCH   7  48
ATOM     48  N   UNL     1      33.074  27.141  22.685  1.00  0.00    -0.348 N 
ATOM     49  C   UNL     1      33.276  26.603  24.011  1.00  0.00     0.217 C 
ATOM     50  H   UNL     1      33.939  27.320  22.130  1.00  0.00     0.163 HD
ATOM     51  C   UNL     1      34.689  26.342  24.459  1.00  0.00     0.114 C 
ATOM     52  O   UNL     1      32.322  26.351  24.786  1.00  0.00    -0.275 OA
ENDBRANCH   7  48
ENDBRANCH   1   2
BRANCH   1  53
ATOM     53  O   UNL     1      29.436  26.628  22.259  1.00  0.00    -0.388 OA
ATOM     54  H   UNL     1      29.596  25.858  22.863  1.00  0.00     0.211 HD
ENDBRANCH   1  53
BRANCH   1  55
ATOM     55  C   UNL     1      28.519  28.746  22.290  1.00  0.00     0.165 C 
BRANCH  55  56
ATOM     56  O   UNL     1      28.004  29.545  23.401  1.00  0.00    -0.388 OA
ATOM     57  H   UNL     1      27.892  30.447  22.957  1.00  0.00     0.211 HD
ENDBRANCH  55  56
BRANCH  55  58
ATOM     58  C   UNL     1      27.297  28.041  21.810  1.00  0.00     0.154 C 
BRANCH  58  59
ATOM     59  N   UNL     1      26.766  28.612  20.624  1.00  0.00    -0.319 N 
ATOM     60  C   UNL     1      27.163  27.990  19.382  1.00  0.00     0.407 C 
ATOM     61  H   UNL     1      26.132  29.425  20.528  1.00  0.00     0.167 HD
ATOM     62  O   UNL     1      27.937  26.991  19.403  1.00  0.00    -0.225 OA
BRANCH  60  63
ATOM     63  O   UNL     1      26.745  28.429  18.146  1.00  0.00    -0.443 OA
BRANCH  63  64
ATOM     64  C   UNL     1      25.459  28.238  17.594  1.00  0.00     0.294 C 
BRANCH  64  65
ATOM     65  C   UNL     1      25.045  29.342  16.682  1.00  0.00     0.120 A 
ATOM     66  C   UNL     1      23.802  29.911  16.529  1.00  0.00     0.138 A 
ATOM     67  N   UNL     1      25.865  29.974  15.837  1.00  0.00    -0.132 NA
ATOM     68  N   UNL     1      23.895  30.891  15.580  1.00  0.00    -0.252 N 
ATOM     69  N   UNL     1      25.151  30.885  15.200  1.00  0.00    -0.067 NA
BRANCH  68  70
ATOM     70  C   UNL     1      22.852  31.715  15.091  1.00  0.00     0.150 C 
BRANCH  70  71
ATOM     71  C   UNL     1      22.825  31.922  13.636  1.00  0.00     0.022 C 
BRANCH  71  72
ATOM     72  C   UNL     1      22.853  33.323  13.148  1.00  0.00     0.128 C 
BRANCH  72  73
ATOM     73  C   UNL     1      24.147  33.846  12.692  1.00  0.00     0.303 C 
ATOM     74  O   UNL     1      25.140  33.073  12.640  1.00  0.00    -0.252 OA
BRANCH  73  75
ATOM     75  O   UNL     1      24.351  35.164  12.305  1.00  0.00    -0.481 OA
ATOM     76  H   UNL     1      25.284  35.548  12.276  1.00  0.00     0.296 HD
ENDBRANCH  73  75
ENDBRANCH  72  73
ENDBRANCH  71  72
BRANCH  71  77
ATOM     77  C   UNL     1      21.842  31.062  12.895  1.00  0.00     0.009 C 
BRANCH  77  78
ATOM     78  C   UNL     1      22.029  29.613  12.865  1.00  0.00    -0.017 C 
ATOM     79  C   UNL     1      21.097  28.781  12.060  1.00  0.00     0.007 C 
ATOM     80  C   UNL     1      23.445  29.168  12.549  1.00  0.00     0.007 C 
ENDBRANCH  77  78
ENDBRANCH  71  77
ENDBRANCH  70  71
ENDBRANCH  68  70
ENDBRANCH  64  65
ENDBRANCH  63  64
ENDBRANCH  60  63
ENDBRANCH  58  59
ENDBRANCH  55  58
ENDBRANCH   1  55
TORSDOF 36
BEGIN_RES LYS A 131
REMARK  4 active torsions:
REMARK  status: ('A' for Active; 'I' for Inactive)
REMARK    1  A    between atoms: CA   and  CB  
REMARK    2  A    between atoms: CB   and  CG  
REMARK    3  A    between atoms: CG   and  CD  
REMARK    4  A    between atoms: CD   and  CE  
ROOT
ATOM      1  CA  LYS A 131      29.867  25.555  16.977  1.00 20.52     0.186 C 
ENDROOT
BRANCH   1   2
ATOM      2  CB  LYS A 131      28.345  25.722  17.026  1.00 20.94     0.034 C 
BRANCH   2   3
ATOM      3  CG  LYS A 131      27.602  24.399  16.924  1.00 22.96     0.005 C 
BRANCH   3   4
ATOM      4  CD  LYS A 131      26.155  24.530  17.311  1.00 24.33     0.041 C 
BRANCH   4   5
ATOM      5  CE  LYS A 131      25.791  23.428  18.300  1.00 26.91     0.338 C 
ATOM      6  NZ  LYS A 131      24.884  22.441  17.666  1.00 27.40     0.618 N 
ENDBRANCH   4   5
ENDBRANCH   3   4
ENDBRANCH   2   3
ENDBRANCH   1   2
END_RES LYS A 131
BEGIN_RES LYS A 135
REMARK  4 active torsions:
REMARK  status: ('A' for Active; 'I' for Inactive)
REMARK    5  A    between atoms: CA   and  CB  
REMARK    6  A    between atoms: CB   and  CG  
REMARK    7  A    between atoms: CG   and  CD  
REMARK    8  A    between atoms: CD   and  CE  
ROOT
ATOM      7  CA  LYS A 135      33.193  34.663   9.290  1.00 25.02     0.186 C 
ENDROOT
BRANCH   7   8
ATOM      8  CB  LYS A 135      32.060  35.360  10.034  1.00 26.63     0.034 C 
BRANCH   8   9
ATOM      9  CG  LYS A 135      30.803  35.508   9.216  1.00 29.45     0.005 C 
BRANCH   9  10
ATOM     10  CD  LYS A 135      30.082  34.175   9.093  1.00 32.00     0.041 C 
BRANCH  10  11
ATOM     11  CE  LYS A 135      28.626  34.388   8.726  1.00 34.25     0.338 C 
ATOM     12  NZ  LYS A 135      27.725  33.651   9.655  1.00 35.99     0.618 N 
ENDBRANCH  10  11
ENDBRANCH   9  10
ENDBRANCH   8   9
ENDBRANCH   7   8
END_RES LYS A 135
