REMARK VINA RESULT:    -4.469      1.957      2.876
REMARK INTER + INTRA:         -23.070
REMARK INTER:                 -12.328
REMARK INTRA:                 -10.742
REMARK UNBOUND:               -12.070
REMARK SMILES CC(=O)N[C@@H]1[C@@H](O)C[C@](OC[C@H]2O[C@@H](O[C@H]3[C@H](O)[C@@H](O)[C@H](OCCN=[N+]=[N-])O[C@@H]3CO)[C@H](O)[C@@H](O)[C@H]2O)(C(=O)O)O[C@H]1C(O)[C@H](O)CNC(=O)OCc1cn(-c2ccccc2I)nn1
REMARK SMILES IDX 9 1 8 2 6 3 5 4 42 5 41 6 10 7 11 8 12 9 14 10 13 11 32 12
REMARK SMILES IDX 34 13 36 14 15 15 16 16 29 17 28 18 21 19 17 20 19 21 30 22
REMARK SMILES IDX 31 23 22 25 23 26 24 27 25 28 26 29 27 30 18 31 20 33 33 35
REMARK SMILES IDX 35 37 37 39 38 41 39 42 40 43 7 45 43 47 44 48 45 50 46 51
REMARK SMILES IDX 47 53 48 54 49 55 50 57 51 58 52 59 53 60 54 61 64 62 55 63
REMARK SMILES IDX 63 64 56 65 57 66 61 67 58 68 60 69 62 70 59 71 4 72 2 73
REMARK SMILES IDX 1 75 3 76
REMARK H PARENT 31 24 18 32 20 34 33 36 35 38 37 40 40 44 7 46 44 49 46 52
REMARK H PARENT 48 56 4 74
REMARK Flexibility Score: inf
ROOT
ATOM      1  C   UNL     1      23.742  36.261   9.151  1.00  0.00     0.272 C 
ATOM      2  C   UNL     1      22.326  35.881   8.824  1.00  0.00     0.113 C 
ATOM      3  C   UNL     1      21.751  36.777   7.714  1.00  0.00     0.145 C 
ATOM      4  C   UNL     1      21.714  38.202   8.336  1.00  0.00     0.142 C 
ATOM      5  C   UNL     1      23.072  38.507   8.905  1.00  0.00     0.178 C 
ATOM      6  O   UNL     1      23.953  37.509   8.473  1.00  0.00    -0.332 OA
ENDROOT
BRANCH   1   7
ATOM      7  O   UNL     1      24.743  35.480   8.667  1.00  0.00    -0.338 OA
BRANCH   7   8
ATOM      8  C   UNL     1      25.761  35.821   7.935  1.00  0.00     0.199 C 
BRANCH   8   9
ATOM      9  C   UNL     1      26.935  34.940   7.772  1.00  0.00     0.179 C 
ATOM     10  C   UNL     1      28.844  36.161   7.490  1.00  0.00     0.282 C 
ATOM     11  O   UNL     1      27.920  35.325   6.926  1.00  0.00    -0.341 OA
ATOM     12  C   UNL     1      29.794  35.385   8.394  1.00  0.00     0.202 C 
ATOM     13  C   UNL     1      29.008  34.192   8.988  1.00  0.00     0.179 C 
ATOM     14  C   UNL     1      27.569  34.637   9.164  1.00  0.00     0.177 C 
BRANCH  10  15
ATOM     15  O   UNL     1      28.427  37.366   7.959  1.00  0.00    -0.341 OA
BRANCH  15  16
ATOM     16  C   UNL     1      28.774  38.463   7.205  1.00  0.00     0.184 C 
ATOM     17  C   UNL     1      29.102  38.189   5.761  1.00  0.00     0.178 C 
ATOM     18  O   UNL     1      29.924  39.191   5.252  1.00  0.00    -0.341 OA
ATOM     19  C   UNL     1      29.744  40.435   5.870  1.00  0.00     0.281 C 
ATOM     20  C   UNL     1      30.114  38.972   7.779  1.00  0.00     0.180 C 
ATOM     21  C   UNL     1      30.207  40.416   7.304  1.00  0.00     0.202 C 
BRANCH  17  22
ATOM     22  C   UNL     1      27.925  37.909   4.884  1.00  0.00     0.191 C 
BRANCH  22  23
ATOM     23  O   UNL     1      26.785  38.310   5.592  1.00  0.00    -0.394 OA
ATOM     24  H   UNL     1      26.930  38.085   6.551  1.00  0.00     0.210 HD
ENDBRANCH  22  23
ENDBRANCH  17  22
BRANCH  19  25
ATOM     25  O   UNL     1      28.492  40.940   5.692  1.00  0.00    -0.350 OA
BRANCH  25  26
ATOM     26  C   UNL     1      28.319  41.513   4.471  1.00  0.00     0.169 C 
BRANCH  26  27
ATOM     27  C   UNL     1      26.952  41.440   3.869  1.00  0.00     0.119 C 
BRANCH  27  28
ATOM     28  N   UNL     1      25.919  40.882   4.696  1.00  0.00    -0.092 NA
ATOM     29  N   UNL     1      25.115  41.687   5.200  1.00  0.00     0.001 N 
ATOM     30  N   UNL     1      24.268  42.298   5.853  1.00  0.00    -0.003 NA
ENDBRANCH  27  28
ENDBRANCH  26  27
ENDBRANCH  25  26
ENDBRANCH  19  25
BRANCH  20  31
ATOM     31  O   UNL     1      30.118  38.890   9.158  1.00  0.00    -0.387 OA
ATOM     32  H   UNL     1      29.922  39.803   9.501  1.00  0.00     0.211 HD
ENDBRANCH  20  31
BRANCH  21  33
ATOM     33  O   UNL     1      31.496  40.917   7.474  1.00  0.00    -0.385 OA
ATOM     34  H   UNL     1      31.434  41.735   8.066  1.00  0.00     0.211 HD
ENDBRANCH  21  33
ENDBRANCH  15  16
ENDBRANCH  10  15
BRANCH  12  35
ATOM     35  O   UNL     1      30.855  34.818   7.702  1.00  0.00    -0.385 OA
ATOM     36  H   UNL     1      31.171  34.049   8.244  1.00  0.00     0.211 HD
ENDBRANCH  12  35
BRANCH  13  37
ATOM     37  O   UNL     1      29.540  33.706  10.140  1.00  0.00    -0.387 OA
ATOM     38  H   UNL     1      30.523  33.874  10.272  1.00  0.00     0.211 HD
ENDBRANCH  13  37
BRANCH  14  39
ATOM     39  O   UNL     1      27.549  35.836   9.856  1.00  0.00    -0.387 OA
ATOM     40  H   UNL     1      28.351  35.885  10.466  1.00  0.00     0.211 HD
ENDBRANCH  14  39
ENDBRANCH   8   9
ENDBRANCH   7   8
ENDBRANCH   1   7
BRANCH   1  41
ATOM     41  C   UNL     1      23.876  36.514  10.597  1.00  0.00     0.364 C 
ATOM     42  O   UNL     1      24.952  36.693  11.195  1.00  0.00    -0.246 OA
BRANCH  41  43
ATOM     43  O   UNL     1      22.733  36.564  11.425  1.00  0.00    -0.477 OA
ATOM     44  H   UNL     1      22.778  36.144  12.364  1.00  0.00     0.296 HD
ENDBRANCH  41  43
ENDBRANCH   1  41
BRANCH   3  45
ATOM     45  O   UNL     1      22.524  36.762   6.573  1.00  0.00    -0.391 OA
ATOM     46  H   UNL     1      22.534  35.859   6.176  1.00  0.00     0.211 HD
ENDBRANCH   3  45
BRANCH   5  47
ATOM     47  C   UNL     1      23.639  39.780   8.220  1.00  0.00     0.176 C 
BRANCH  47  48
ATOM     48  O   UNL     1      24.525  39.284   7.188  1.00  0.00    -0.388 OA
ATOM     49  H   UNL     1      25.394  39.763   7.351  1.00  0.00     0.211 HD
ENDBRANCH  47  48
BRANCH  47  50
ATOM     50  C   UNL     1      24.586  40.520   9.116  1.00  0.00     0.165 C 
BRANCH  50  51
ATOM     51  O   UNL     1      24.393  41.916   8.937  1.00  0.00    -0.388 OA
ATOM     52  H   UNL     1      25.144  42.314   8.431  1.00  0.00     0.211 HD
ENDBRANCH  50  51
BRANCH  50  53
ATOM     53  C   UNL     1      26.024  40.236   9.017  1.00  0.00     0.154 C 
BRANCH  53  54
ATOM     54  N   UNL     1      26.475  39.030   9.685  1.00  0.00    -0.319 N 
ATOM     55  C   UNL     1      27.511  39.129  10.662  1.00  0.00     0.407 C 
ATOM     56  H   UNL     1      26.092  38.082   9.499  1.00  0.00     0.167 HD
ATOM     57  O   UNL     1      28.018  40.271  10.914  1.00  0.00    -0.225 OA
BRANCH  55  58
ATOM     58  O   UNL     1      28.027  38.068  11.377  1.00  0.00    -0.443 OA
BRANCH  58  59
ATOM     59  C   UNL     1      27.895  38.002  12.790  1.00  0.00     0.294 C 
BRANCH  59  60
ATOM     60  C   UNL     1      28.403  36.655  13.238  1.00  0.00     0.121 A 
ATOM     61  C   UNL     1      28.835  36.283  14.490  1.00  0.00     0.144 A 
ATOM     62  N   UNL     1      28.523  35.567  12.458  1.00  0.00    -0.131 NA
ATOM     63  N   UNL     1      29.191  34.988  14.385  1.00  0.00    -0.219 N 
ATOM     64  N   UNL     1      28.999  34.560  13.152  1.00  0.00    -0.062 NA
BRANCH  63  65
ATOM     65  C   UNL     1      29.711  34.165  15.423  1.00  0.00     0.080 A 
ATOM     66  C   UNL     1      31.080  34.088  15.651  1.00  0.00     0.029 A 
ATOM     67  C   UNL     1      28.877  33.418  16.221  1.00  0.00     0.039 A 
ATOM     68  C   UNL     1      31.547  33.260  16.678  1.00  0.00     0.002 A 
ATOM     69  C   UNL     1      29.362  32.595  17.245  1.00  0.00     0.017 A 
ATOM     70  I   UNL     1      26.790  33.512  15.896  1.00  0.00    -0.042 I 
ATOM     71  C   UNL     1      30.712  32.515  17.476  1.00  0.00     0.001 A 
ENDBRANCH  63  65
ENDBRANCH  59  60
ENDBRANCH  58  59
ENDBRANCH  55  58
ENDBRANCH  53  54
ENDBRANCH  50  53
ENDBRANCH  47  50
ENDBRANCH   5  47
BRANCH   4  72
ATOM     72  N   UNL     1      20.635  38.189   9.255  1.00  0.00    -0.348 N 
ATOM     73  C   UNL     1      19.555  39.140   9.205  1.00  0.00     0.217 C 
ATOM     74  H   UNL     1      20.552  37.495  10.019  1.00  0.00     0.163 HD
ATOM     75  C   UNL     1      18.427  39.135  10.157  1.00  0.00     0.114 C 
ATOM     76  O   UNL     1      19.617  40.002   8.288  1.00  0.00    -0.275 OA
ENDBRANCH   4  72
TORSDOF 30
BEGIN_RES LYS A 131
REMARK  4 active torsions:
REMARK  status: ('A' for Active; 'I' for Inactive)
REMARK    1  A    between atoms: CA   and  CB  
REMARK    2  A    between atoms: CB   and  CG  
REMARK    3  A    between atoms: CG   and  CD  
REMARK    4  A    between atoms: CD   and  CE  
ROOT
ATOM      1  CA  LYS A 131      29.867  25.555  16.977  1.00 20.52     0.186 C 
ENDROOT
BRANCH   1   2
ATOM      2  CB  LYS A 131      28.345  25.722  17.026  1.00 20.94     0.034 C 
BRANCH   2   3
ATOM      3  CG  LYS A 131      27.601  24.401  16.904  1.00 22.96     0.005 C 
BRANCH   3   4
ATOM      4  CD  LYS A 131      26.623  24.196  18.028  1.00 24.33     0.041 C 
BRANCH   4   5
ATOM      5  CE  LYS A 131      25.354  23.547  17.485  1.00 26.91     0.338 C 
ATOM      6  NZ  LYS A 131      24.179  23.949  18.295  1.00 27.40     0.618 N 
ENDBRANCH   4   5
ENDBRANCH   3   4
ENDBRANCH   2   3
ENDBRANCH   1   2
END_RES LYS A 131
BEGIN_RES LYS A 135
REMARK  4 active torsions:
REMARK  status: ('A' for Active; 'I' for Inactive)
REMARK    5  A    between atoms: CA   and  CB  
REMARK    6  A    between atoms: CB   and  CG  
REMARK    7  A    between atoms: CG   and  CD  
REMARK    8  A    between atoms: CD   and  CE  
ROOT
ATOM      7  CA  LYS A 135      33.193  34.663   9.290  1.00 25.02     0.186 C 
ENDROOT
BRANCH   7   8
ATOM      8  CB  LYS A 135      32.060  35.360  10.034  1.00 26.63     0.034 C 
BRANCH   8   9
ATOM      9  CG  LYS A 135      32.054  35.086  11.516  1.00 29.45     0.005 C 
BRANCH   9  10
ATOM     10  CD  LYS A 135      32.300  36.367  12.299  1.00 32.00     0.041 C 
BRANCH  10  11
ATOM     11  CE  LYS A 135      31.909  37.578  11.475  1.00 34.25     0.338 C 
ATOM     12  NZ  LYS A 135      31.355  38.658  12.338  1.00 35.99     0.618 N 
ENDBRANCH  10  11
ENDBRANCH   9  10
ENDBRANCH   8   9
ENDBRANCH   7   8
END_RES LYS A 135
