REMARK VINA RESULT:    -4.975      4.981     10.404
REMARK INTER + INTRA:         -24.305
REMARK INTER:                 -11.989
REMARK INTRA:                 -12.316
REMARK UNBOUND:               -11.187
REMARK SMILES CC(=O)N[C@@H]1[C@@H](O)C[C@](OC[C@H]2O[C@@H](O[C@H]3[C@H](O)[C@@H](O)[C@H](OCCN=[N+]=[N-])O[C@@H]3CO)[C@H](O)[C@@H](O)[C@H]2O)(C(=O)O)O[C@H]1C(O)[C@H](O)CNC(=O)OCc1cn(-c2ccc(S(=O)(=O)Nc3nccs3)cc2)nn1
REMARK SMILES IDX 43 1 42 2 9 3 8 4 41 5 6 6 5 7 10 8 11 9 12 10 14 11 13 12
REMARK SMILES IDX 32 13 34 14 36 15 15 16 16 17 29 18 28 19 21 20 17 21 19 22
REMARK SMILES IDX 30 23 31 24 22 26 23 27 24 28 25 29 26 30 27 31 18 32 20 34
REMARK SMILES IDX 33 36 35 38 37 40 38 42 39 43 40 44 7 46 4 48 2 49 1 51 3 52
REMARK SMILES IDX 44 53 45 55 46 56 47 58 48 59 49 60 50 62 51 63 52 64 53 65
REMARK SMILES IDX 54 66 72 67 55 68 71 69 56 70 57 71 70 72 58 73 69 74 59 75
REMARK SMILES IDX 60 76 61 77 62 78 63 79 64 81 65 82 68 83 66 84 67 85
REMARK H PARENT 31 25 18 33 20 35 33 37 35 39 37 41 40 45 7 47 4 50 44 54
REMARK H PARENT 46 57 48 61 63 80
REMARK Flexibility Score: inf
ROOT
ATOM      1  C   UNL     1      29.742  37.168   9.927  1.00  0.00     0.176 C 
ENDROOT
BRANCH   1   2
ATOM      2  C   UNL     1      28.796  36.203   9.295  1.00  0.00     0.178 C 
ATOM      3  C   UNL     1      27.206  36.336   7.587  1.00  0.00     0.272 C 
ATOM      4  C   UNL     1      27.157  34.843   7.977  1.00  0.00     0.113 C 
ATOM      5  O   UNL     1      27.953  37.034   8.494  1.00  0.00    -0.332 OA
ATOM      6  C   UNL     1      26.936  34.622   9.425  1.00  0.00     0.145 C 
ATOM      7  C   UNL     1      27.832  35.546  10.253  1.00  0.00     0.142 C 
BRANCH   3   8
ATOM      8  O   UNL     1      25.937  36.858   7.574  1.00  0.00    -0.338 OA
BRANCH   8   9
ATOM      9  C   UNL     1      25.838  38.159   7.999  1.00  0.00     0.199 C 
BRANCH   9  10
ATOM     10  C   UNL     1      24.459  38.747   7.814  1.00  0.00     0.179 C 
ATOM     11  C   UNL     1      22.319  38.803   8.447  1.00  0.00     0.282 C 
ATOM     12  O   UNL     1      23.628  38.526   8.907  1.00  0.00    -0.341 OA
ATOM     13  C   UNL     1      22.177  40.305   8.459  1.00  0.00     0.202 C 
ATOM     14  C   UNL     1      23.559  40.958   8.565  1.00  0.00     0.179 C 
ATOM     15  C   UNL     1      24.528  40.255   7.634  1.00  0.00     0.177 C 
BRANCH  11  16
ATOM     16  O   UNL     1      21.360  38.221   9.205  1.00  0.00    -0.341 OA
BRANCH  16  17
ATOM     17  C   UNL     1      21.246  36.848   9.086  1.00  0.00     0.184 C 
ATOM     18  C   UNL     1      19.903  36.291   8.841  1.00  0.00     0.178 C 
ATOM     19  O   UNL     1      19.867  34.981   9.395  1.00  0.00    -0.341 OA
ATOM     20  C   UNL     1      19.747  35.038  10.790  1.00  0.00     0.281 C 
ATOM     21  C   UNL     1      21.913  36.142  10.260  1.00  0.00     0.180 C 
ATOM     22  C   UNL     1      20.913  35.816  11.370  1.00  0.00     0.202 C 
BRANCH  18  23
ATOM     23  C   UNL     1      19.567  36.048   7.369  1.00  0.00     0.191 C 
BRANCH  23  24
ATOM     24  O   UNL     1      19.390  34.739   7.040  1.00  0.00    -0.394 OA
ATOM     25  H   UNL     1      19.103  34.659   6.102  1.00  0.00     0.210 HD
ENDBRANCH  23  24
ENDBRANCH  18  23
BRANCH  20  26
ATOM     26  O   UNL     1      19.737  33.746  11.267  1.00  0.00    -0.350 OA
BRANCH  26  27
ATOM     27  C   UNL     1      20.422  33.541  12.437  1.00  0.00     0.169 C 
BRANCH  27  28
ATOM     28  C   UNL     1      21.209  32.253  12.462  1.00  0.00     0.119 C 
BRANCH  28  29
ATOM     29  N   UNL     1      22.425  32.508  13.191  1.00  0.00    -0.092 NA
ATOM     30  N   UNL     1      23.141  33.449  12.861  1.00  0.00     0.001 N 
ATOM     31  N   UNL     1      24.092  34.070  12.379  1.00  0.00    -0.003 NA
ENDBRANCH  28  29
ENDBRANCH  27  28
ENDBRANCH  26  27
ENDBRANCH  20  26
BRANCH  21  32
ATOM     32  O   UNL     1      22.472  34.930   9.859  1.00  0.00    -0.387 OA
ATOM     33  H   UNL     1      22.014  34.167  10.282  1.00  0.00     0.211 HD
ENDBRANCH  21  32
BRANCH  22  34
ATOM     34  O   UNL     1      20.521  36.960  12.052  1.00  0.00    -0.385 OA
ATOM     35  H   UNL     1      19.572  37.108  11.843  1.00  0.00     0.211 HD
ENDBRANCH  22  34
ENDBRANCH  16  17
ENDBRANCH  11  16
BRANCH  13  36
ATOM     36  O   UNL     1      21.673  40.802   7.230  1.00  0.00    -0.385 OA
ATOM     37  H   UNL     1      21.953  40.258   6.479  1.00  0.00     0.211 HD
ENDBRANCH  13  36
BRANCH  14  38
ATOM     38  O   UNL     1      23.992  40.976   9.882  1.00  0.00    -0.387 OA
ATOM     39  H   UNL     1      23.549  40.278  10.431  1.00  0.00     0.211 HD
ENDBRANCH  14  38
BRANCH  15  40
ATOM     40  O   UNL     1      25.798  40.746   7.893  1.00  0.00    -0.387 OA
ATOM     41  H   UNL     1      26.179  41.287   7.184  1.00  0.00     0.211 HD
ENDBRANCH  15  40
ENDBRANCH   9  10
ENDBRANCH   8   9
ENDBRANCH   3   8
BRANCH   3  42
ATOM     42  C   UNL     1      27.817  36.368   6.256  1.00  0.00     0.364 C 
ATOM     43  O   UNL     1      28.934  35.810   6.012  1.00  0.00    -0.246 OA
BRANCH  42  44
ATOM     44  O   UNL     1      27.228  37.000   5.176  1.00  0.00    -0.477 OA
ATOM     45  H   UNL     1      26.587  37.789   5.335  1.00  0.00     0.296 HD
ENDBRANCH  42  44
ENDBRANCH   3  42
BRANCH   6  46
ATOM     46  O   UNL     1      25.601  34.757   9.805  1.00  0.00    -0.391 OA
ATOM     47  H   UNL     1      25.028  34.256   9.176  1.00  0.00     0.211 HD
ENDBRANCH   6  46
BRANCH   7  48
ATOM     48  N   UNL     1      28.414  34.826  11.329  1.00  0.00    -0.348 N 
ATOM     49  C   UNL     1      28.197  35.247  12.672  1.00  0.00     0.217 C 
ATOM     50  H   UNL     1      29.004  33.986  11.178  1.00  0.00     0.163 HD
ATOM     51  C   UNL     1      28.762  34.557  13.843  1.00  0.00     0.114 C 
ATOM     52  O   UNL     1      27.473  36.278  12.886  1.00  0.00    -0.275 OA
ENDBRANCH   7  48
ENDBRANCH   1   2
BRANCH   1  53
ATOM     53  O   UNL     1      29.031  37.893  10.935  1.00  0.00    -0.388 OA
ATOM     54  H   UNL     1      29.396  38.791  11.036  1.00  0.00     0.211 HD
ENDBRANCH   1  53
BRANCH   1  55
ATOM     55  C   UNL     1      30.416  38.151   9.014  1.00  0.00     0.165 C 
BRANCH  55  56
ATOM     56  O   UNL     1      30.995  37.321   7.994  1.00  0.00    -0.388 OA
ATOM     57  H   UNL     1      31.974  37.269   8.145  1.00  0.00     0.211 HD
ENDBRANCH  55  56
BRANCH  55  58
ATOM     58  C   UNL     1      31.635  38.785   9.670  1.00  0.00     0.154 C 
BRANCH  58  59
ATOM     59  N   UNL     1      31.249  40.111  10.076  1.00  0.00    -0.319 N 
ATOM     60  C   UNL     1      30.943  40.462  11.418  1.00  0.00     0.407 C 
ATOM     61  H   UNL     1      31.180  40.904   9.358  1.00  0.00     0.167 HD
ATOM     62  O   UNL     1      31.015  39.623  12.324  1.00  0.00    -0.225 OA
BRANCH  60  63
ATOM     63  O   UNL     1      30.552  41.751  11.756  1.00  0.00    -0.443 OA
BRANCH  63  64
ATOM     64  C   UNL     1      29.278  42.304  11.569  1.00  0.00     0.294 C 
BRANCH  64  65
ATOM     65  C   UNL     1      28.182  41.326  11.464  1.00  0.00     0.121 A 
ATOM     66  C   UNL     1      27.423  40.818  12.523  1.00  0.00     0.144 A 
ATOM     67  N   UNL     1      27.680  40.733  10.382  1.00  0.00    -0.131 NA
ATOM     68  N   UNL     1      26.497  39.945  12.051  1.00  0.00    -0.220 N 
ATOM     69  N   UNL     1      26.679  39.914  10.744  1.00  0.00    -0.062 NA
BRANCH  68  70
ATOM     70  C   UNL     1      25.540  39.235  12.858  1.00  0.00     0.066 A 
ATOM     71  C   UNL     1      24.763  38.230  12.358  1.00  0.00     0.030 A 
ATOM     72  C   UNL     1      25.405  39.603  14.185  1.00  0.00     0.030 A 
ATOM     73  C   UNL     1      23.840  37.583  13.179  1.00  0.00     0.024 A 
ATOM     74  C   UNL     1      24.511  38.995  15.033  1.00  0.00     0.024 A 
ATOM     75  C   UNL     1      23.735  37.977  14.492  1.00  0.00     0.088 A 
BRANCH  75  76
ATOM     76  S   UNL     1      22.585  37.190  15.544  1.00  0.00     0.263 S 
ATOM     77  O   UNL     1      21.713  36.296  14.684  1.00  0.00    -0.201 OA
ATOM     78  O   UNL     1      21.705  38.268  16.113  1.00  0.00    -0.201 OA
BRANCH  76  79
ATOM     79  N   UNL     1      23.403  36.322  16.758  1.00  0.00    -0.255 N 
ATOM     80  H   UNL     1      23.510  36.761  17.690  1.00  0.00     0.182 HD
BRANCH  79  81
ATOM     81  C   UNL     1      23.905  35.060  16.486  1.00  0.00     0.196 A 
ATOM     82  N   UNL     1      23.577  33.832  16.600  1.00  0.00    -0.228 NA
ATOM     83  S   UNL     1      25.579  34.848  15.711  1.00  0.00    -0.105 S 
ATOM     84  C   UNL     1      24.282  32.823  16.246  1.00  0.00     0.125 A 
ATOM     85  C   UNL     1      25.515  33.024  15.686  1.00  0.00     0.089 A 
ENDBRANCH  79  81
ENDBRANCH  76  79
ENDBRANCH  75  76
ENDBRANCH  68  70
ENDBRANCH  64  65
ENDBRANCH  63  64
ENDBRANCH  60  63
ENDBRANCH  58  59
ENDBRANCH  55  58
ENDBRANCH   1  55
TORSDOF 33
BEGIN_RES LYS A 131
REMARK  4 active torsions:
REMARK  status: ('A' for Active; 'I' for Inactive)
REMARK    1  A    between atoms: CA   and  CB  
REMARK    2  A    between atoms: CB   and  CG  
REMARK    3  A    between atoms: CG   and  CD  
REMARK    4  A    between atoms: CD   and  CE  
ROOT
ATOM      1  CA  LYS A 131      29.867  25.555  16.977  1.00 20.52     0.186 C 
ENDROOT
BRANCH   1   2
ATOM      2  CB  LYS A 131      28.345  25.722  17.026  1.00 20.94     0.034 C 
BRANCH   2   3
ATOM      3  CG  LYS A 131      27.599  24.456  16.633  1.00 22.96     0.005 C 
BRANCH   3   4
ATOM      4  CD  LYS A 131      27.026  23.743  17.826  1.00 24.33     0.041 C 
BRANCH   4   5
ATOM      5  CE  LYS A 131      25.688  24.371  18.200  1.00 26.91     0.338 C 
ATOM      6  NZ  LYS A 131      24.759  24.341  17.046  1.00 27.40     0.618 N 
ENDBRANCH   4   5
ENDBRANCH   3   4
ENDBRANCH   2   3
ENDBRANCH   1   2
END_RES LYS A 131
BEGIN_RES LYS A 135
REMARK  4 active torsions:
REMARK  status: ('A' for Active; 'I' for Inactive)
REMARK    5  A    between atoms: CA   and  CB  
REMARK    6  A    between atoms: CB   and  CG  
REMARK    7  A    between atoms: CG   and  CD  
REMARK    8  A    between atoms: CD   and  CE  
ROOT
ATOM      7  CA  LYS A 135      33.193  34.663   9.290  1.00 25.02     0.186 C 
ENDROOT
BRANCH   7   8
ATOM      8  CB  LYS A 135      32.060  35.360  10.034  1.00 26.63     0.034 C 
BRANCH   8   9
ATOM      9  CG  LYS A 135      32.084  35.127  11.523  1.00 29.45     0.005 C 
BRANCH   9  10
ATOM     10  CD  LYS A 135      32.593  36.361  12.251  1.00 32.00     0.041 C 
BRANCH  10  11
ATOM     11  CE  LYS A 135      31.847  36.554  13.558  1.00 34.25     0.338 C 
ATOM     12  NZ  LYS A 135      32.558  35.887  14.684  1.00 35.99     0.618 N 
ENDBRANCH  10  11
ENDBRANCH   9  10
ENDBRANCH   8   9
ENDBRANCH   7   8
END_RES LYS A 135
