REMARK VINA RESULT:    -4.802      3.284      7.763
REMARK INTER + INTRA:         -24.690
REMARK INTER:                 -13.347
REMARK INTRA:                 -11.343
REMARK UNBOUND:               -11.748
REMARK SMILES CC(=O)N[C@@H]1[C@@H](O)C[C@](OC[C@H]2O[C@@H](O[C@H]3[C@H](O)[C@@H](O)[C@H](OCCN=[N+]=[N-])O[C@@H]3CO)[C@H](O)[C@@H](O)[C@H]2O)(C(=O)O)O[C@H]1C(O)[C@H](O)CNC(=O)OCc1cn([C@@H](C)C(=O)OCc2ccccc2)nn1
REMARK SMILES IDX 43 1 42 2 9 3 8 4 41 5 6 6 5 7 10 8 11 9 12 10 14 11 13 12
REMARK SMILES IDX 32 13 34 14 36 15 15 16 16 17 29 18 28 19 21 20 17 21 19 22
REMARK SMILES IDX 30 23 31 24 22 26 23 27 24 28 25 29 26 30 27 31 18 32 20 34
REMARK SMILES IDX 33 36 35 38 37 40 38 42 39 43 40 44 7 46 4 48 2 49 1 51 3 52
REMARK SMILES IDX 44 53 45 55 46 56 47 58 48 59 49 60 50 62 51 63 52 64 53 65
REMARK SMILES IDX 54 66 69 67 55 68 68 69 56 70 57 71 58 72 59 73 60 74 61 75
REMARK SMILES IDX 62 76 63 77 67 78 64 79 66 80 65 81
REMARK H PARENT 31 25 18 33 20 35 33 37 35 39 37 41 40 45 7 47 4 50 44 54
REMARK H PARENT 46 57 48 61
REMARK Flexibility Score: inf
ROOT
ATOM      1  C   UNL     1      24.631  33.401  13.514  1.00  0.00     0.176 C 
ENDROOT
BRANCH   1   2
ATOM      2  C   UNL     1      23.253  33.694  13.961  1.00  0.00     0.178 C 
ATOM      3  C   UNL     1      22.874  32.053  15.577  1.00  0.00     0.272 C 
ATOM      4  C   UNL     1      21.850  31.454  14.691  1.00  0.00     0.113 C 
ATOM      5  O   UNL     1      22.980  33.459  15.282  1.00  0.00    -0.332 OA
ATOM      6  C   UNL     1      22.113  31.672  13.219  1.00  0.00     0.145 C 
ATOM      7  C   UNL     1      22.244  33.146  12.985  1.00  0.00     0.142 C 
BRANCH   3   8
ATOM      8  O   UNL     1      24.106  31.613  15.596  1.00  0.00    -0.338 OA
BRANCH   8   9
ATOM      9  C   UNL     1      24.633  30.442  15.808  1.00  0.00     0.199 C 
BRANCH   9  10
ATOM     10  C   UNL     1      25.902  30.235  16.586  1.00  0.00     0.179 C 
ATOM     11  C   UNL     1      28.120  30.938  16.533  1.00  0.00     0.282 C 
ATOM     12  O   UNL     1      26.965  30.617  15.823  1.00  0.00    -0.341 OA
ATOM     13  C   UNL     1      28.156  30.317  17.883  1.00  0.00     0.202 C 
ATOM     14  C   UNL     1      27.028  30.821  18.740  1.00  0.00     0.179 C 
ATOM     15  C   UNL     1      25.829  31.054  17.892  1.00  0.00     0.177 C 
BRANCH  11  16
ATOM     16  O   UNL     1      28.267  32.296  16.467  1.00  0.00    -0.341 OA
BRANCH  16  17
ATOM     17  C   UNL     1      29.547  32.749  16.350  1.00  0.00     0.184 C 
ATOM     18  C   UNL     1      29.587  34.221  16.670  1.00  0.00     0.178 C 
ATOM     19  O   UNL     1      30.863  34.733  16.405  1.00  0.00    -0.341 OA
ATOM     20  C   UNL     1      30.857  35.007  15.014  1.00  0.00     0.281 C 
ATOM     21  C   UNL     1      30.105  32.586  14.946  1.00  0.00     0.180 C 
ATOM     22  C   UNL     1      30.339  33.855  14.213  1.00  0.00     0.202 C 
BRANCH  18  23
ATOM     23  C   UNL     1      29.123  34.568  18.053  1.00  0.00     0.191 C 
BRANCH  23  24
ATOM     24  O   UNL     1      27.729  34.467  18.044  1.00  0.00    -0.394 OA
ATOM     25  H   UNL     1      27.322  34.663  18.922  1.00  0.00     0.210 HD
ENDBRANCH  23  24
ENDBRANCH  18  23
BRANCH  20  26
ATOM     26  O   UNL     1      32.103  35.424  14.670  1.00  0.00    -0.350 OA
BRANCH  26  27
ATOM     27  C   UNL     1      33.171  34.957  15.361  1.00  0.00     0.169 C 
BRANCH  27  28
ATOM     28  C   UNL     1      34.079  35.946  15.998  1.00  0.00     0.119 C 
BRANCH  28  29
ATOM     29  N   UNL     1      33.916  36.187  17.386  1.00  0.00    -0.092 NA
ATOM     30  N   UNL     1      32.976  36.830  17.836  1.00  0.00     0.001 N 
ATOM     31  N   UNL     1      31.963  37.323  18.367  1.00  0.00    -0.003 NA
ENDBRANCH  28  29
ENDBRANCH  27  28
ENDBRANCH  26  27
ENDBRANCH  20  26
BRANCH  21  32
ATOM     32  O   UNL     1      31.290  31.845  14.952  1.00  0.00    -0.387 OA
ATOM     33  H   UNL     1      32.044  32.325  15.362  1.00  0.00     0.211 HD
ENDBRANCH  21  32
BRANCH  22  34
ATOM     34  O   UNL     1      29.199  34.176  13.468  1.00  0.00    -0.385 OA
ATOM     35  H   UNL     1      29.115  35.167  13.493  1.00  0.00     0.211 HD
ENDBRANCH  22  34
ENDBRANCH  16  17
ENDBRANCH  11  16
BRANCH  13  36
ATOM     36  O   UNL     1      28.081  28.912  17.725  1.00  0.00    -0.385 OA
ATOM     37  H   UNL     1      28.201  28.551  18.656  1.00  0.00     0.211 HD
ENDBRANCH  13  36
BRANCH  14  38
ATOM     38  O   UNL     1      27.454  31.942  19.422  1.00  0.00    -0.387 OA
ATOM     39  H   UNL     1      27.922  31.715  20.271  1.00  0.00     0.211 HD
ENDBRANCH  14  38
BRANCH  15  40
ATOM     40  O   UNL     1      25.607  32.400  17.635  1.00  0.00    -0.387 OA
ATOM     41  H   UNL     1      24.636  32.534  17.404  1.00  0.00     0.211 HD
ENDBRANCH  15  40
ENDBRANCH   9  10
ENDBRANCH   8   9
ENDBRANCH   3   8
BRANCH   3  42
ATOM     42  C   UNL     1      22.267  32.157  16.962  1.00  0.00     0.364 C 
ATOM     43  O   UNL     1      21.380  31.380  17.342  1.00  0.00    -0.246 OA
BRANCH  42  44
ATOM     44  O   UNL     1      22.695  33.138  17.854  1.00  0.00    -0.477 OA
ATOM     45  H   UNL     1      23.525  33.052  18.433  1.00  0.00     0.296 HD
ENDBRANCH  42  44
ENDBRANCH   3  42
BRANCH   6  46
ATOM     46  O   UNL     1      23.211  30.954  12.753  1.00  0.00    -0.391 OA
ATOM     47  H   UNL     1      23.839  31.611  12.373  1.00  0.00     0.211 HD
ENDBRANCH   6  46
BRANCH   7  48
ATOM     48  N   UNL     1      20.937  33.764  13.167  1.00  0.00    -0.348 N 
ATOM     49  C   UNL     1      20.461  34.659  12.158  1.00  0.00     0.217 C 
ATOM     50  H   UNL     1      20.326  33.594  13.990  1.00  0.00     0.163 HD
ATOM     51  C   UNL     1      19.122  35.293  12.344  1.00  0.00     0.114 C 
ATOM     52  O   UNL     1      21.165  34.900  11.139  1.00  0.00    -0.275 OA
ENDBRANCH   7  48
ENDBRANCH   1   2
BRANCH   1  53
ATOM     53  O   UNL     1      24.611  33.160  12.119  1.00  0.00    -0.388 OA
ATOM     54  H   UNL     1      24.260  33.958  11.636  1.00  0.00     0.211 HD
ENDBRANCH   1  53
BRANCH   1  55
ATOM     55  C   UNL     1      25.592  34.592  13.659  1.00  0.00     0.165 C 
BRANCH  55  56
ATOM     56  O   UNL     1      26.554  34.605  12.698  1.00  0.00    -0.388 OA
ATOM     57  H   UNL     1      27.457  34.605  13.096  1.00  0.00     0.211 HD
ENDBRANCH  55  56
BRANCH  55  58
ATOM     58  C   UNL     1      26.073  34.721  15.068  1.00  0.00     0.154 C 
BRANCH  58  59
ATOM     59  N   UNL     1      27.211  35.594  15.142  1.00  0.00    -0.319 N 
ATOM     60  C   UNL     1      27.190  36.959  15.510  1.00  0.00     0.407 C 
ATOM     61  H   UNL     1      28.187  35.224  14.907  1.00  0.00     0.167 HD
ATOM     62  O   UNL     1      26.133  37.529  15.791  1.00  0.00    -0.225 OA
BRANCH  60  63
ATOM     63  O   UNL     1      28.374  37.712  15.567  1.00  0.00    -0.443 OA
BRANCH  63  64
ATOM     64  C   UNL     1      28.754  38.585  14.534  1.00  0.00     0.294 C 
BRANCH  64  65
ATOM     65  C   UNL     1      28.319  37.983  13.253  1.00  0.00     0.120 A 
ATOM     66  C   UNL     1      27.355  38.439  12.382  1.00  0.00     0.139 A 
ATOM     67  N   UNL     1      28.807  36.855  12.724  1.00  0.00    -0.132 NA
ATOM     68  N   UNL     1      27.277  37.571  11.335  1.00  0.00    -0.238 N 
ATOM     69  N   UNL     1      28.166  36.625  11.569  1.00  0.00    -0.066 NA
BRANCH  68  70
ATOM     70  C   UNL     1      26.349  37.761  10.248  1.00  0.00     0.215 C 
ATOM     71  C   UNL     1      27.063  38.209   8.987  1.00  0.00     0.046 C 
BRANCH  70  72
ATOM     72  C   UNL     1      25.595  36.486   9.971  1.00  0.00     0.331 C 
ATOM     73  O   UNL     1      24.803  36.056  10.827  1.00  0.00    -0.250 OA
BRANCH  72  74
ATOM     74  O   UNL     1      25.766  35.794   8.795  1.00  0.00    -0.459 OA
BRANCH  74  75
ATOM     75  C   UNL     1      26.350  34.519   8.685  1.00  0.00     0.268 C 
BRANCH  75  76
ATOM     76  C   UNL     1      27.821  34.551   8.544  1.00  0.00    -0.011 A 
ATOM     77  C   UNL     1      28.446  35.180   7.499  1.00  0.00     0.007 A 
ATOM     78  C   UNL     1      28.612  33.932   9.480  1.00  0.00     0.007 A 
ATOM     79  C   UNL     1      29.815  35.209   7.363  1.00  0.00     0.000 A 
ATOM     80  C   UNL     1      29.985  33.936   9.386  1.00  0.00     0.000 A 
ATOM     81  C   UNL     1      30.583  34.583   8.312  1.00  0.00     0.000 A 
ENDBRANCH  75  76
ENDBRANCH  74  75
ENDBRANCH  72  74
ENDBRANCH  70  72
ENDBRANCH  68  70
ENDBRANCH  64  65
ENDBRANCH  63  64
ENDBRANCH  60  63
ENDBRANCH  58  59
ENDBRANCH  55  58
ENDBRANCH   1  55
TORSDOF 34
BEGIN_RES LYS A 131
REMARK  4 active torsions:
REMARK  status: ('A' for Active; 'I' for Inactive)
REMARK    1  A    between atoms: CA   and  CB  
REMARK    2  A    between atoms: CB   and  CG  
REMARK    3  A    between atoms: CG   and  CD  
REMARK    4  A    between atoms: CD   and  CE  
ROOT
ATOM      1  CA  LYS A 131      29.867  25.555  16.977  1.00 20.52     0.186 C 
ENDROOT
BRANCH   1   2
ATOM      2  CB  LYS A 131      28.345  25.722  17.026  1.00 20.94     0.034 C 
BRANCH   2   3
ATOM      3  CG  LYS A 131      27.601  24.401  16.907  1.00 22.96     0.005 C 
BRANCH   3   4
ATOM      4  CD  LYS A 131      26.540  24.251  17.961  1.00 24.33     0.041 C 
BRANCH   4   5
ATOM      5  CE  LYS A 131      25.162  24.312  17.308  1.00 26.91     0.338 C 
ATOM      6  NZ  LYS A 131      24.267  25.214  18.070  1.00 27.40     0.618 N 
ENDBRANCH   4   5
ENDBRANCH   3   4
ENDBRANCH   2   3
ENDBRANCH   1   2
END_RES LYS A 131
BEGIN_RES LYS A 135
REMARK  4 active torsions:
REMARK  status: ('A' for Active; 'I' for Inactive)
REMARK    5  A    between atoms: CA   and  CB  
REMARK    6  A    between atoms: CB   and  CG  
REMARK    7  A    between atoms: CG   and  CD  
REMARK    8  A    between atoms: CD   and  CE  
ROOT
ATOM      7  CA  LYS A 135      33.193  34.663   9.290  1.00 25.02     0.186 C 
ENDROOT
BRANCH   7   8
ATOM      8  CB  LYS A 135      32.060  35.360  10.034  1.00 26.63     0.034 C 
BRANCH   8   9
ATOM      9  CG  LYS A 135      32.501  36.038  11.305  1.00 29.45     0.005 C 
BRANCH   9  10
ATOM     10  CD  LYS A 135      31.990  37.470  11.355  1.00 32.00     0.041 C 
BRANCH  10  11
ATOM     11  CE  LYS A 135      31.215  37.803  10.095  1.00 34.25     0.338 C 
ATOM     12  NZ  LYS A 135      30.417  39.048  10.269  1.00 35.99     0.618 N 
ENDBRANCH  10  11
ENDBRANCH   9  10
ENDBRANCH   8   9
ENDBRANCH   7   8
END_RES LYS A 135
