REMARK VINA RESULT:    -5.786      4.868     11.415
REMARK INTER + INTRA:         -24.334
REMARK INTER:                 -13.930
REMARK INTRA:                 -10.404
REMARK UNBOUND:                -9.416
REMARK SMILES CC(=O)N[C@@H]1[C@@H](O)C[C@](OC[C@H]2O[C@@H](O[C@H]3[C@H](O)[C@@H](O)[C@H](OCCN=[N+]=[N-])O[C@@H]3CO)[C@H](O)[C@@H](O)[C@H]2O)(C(=O)O)O[C@H]1C(O)[C@H](O)CNC(=O)OCc1cn(C(C)(C)C(=O)c2c[nH]c3ccccc23)nn1
REMARK SMILES IDX 9 1 8 2 6 3 5 4 42 5 41 6 10 7 11 8 12 9 14 10 13 11 32 12
REMARK SMILES IDX 34 13 36 14 15 15 16 16 29 17 28 18 21 19 17 20 19 21 30 22
REMARK SMILES IDX 31 23 22 25 23 26 24 27 25 28 26 29 27 30 18 31 20 33 33 35
REMARK SMILES IDX 35 37 37 39 38 41 39 42 40 43 7 45 43 47 44 48 45 50 46 51
REMARK SMILES IDX 47 53 48 54 49 55 50 57 51 58 52 59 53 60 54 61 71 62 55 63
REMARK SMILES IDX 70 64 56 65 57 66 58 67 59 68 60 69 61 70 62 71 69 72 63 73
REMARK SMILES IDX 64 74 68 75 65 77 67 78 66 79 4 80 2 81 1 83 3 84
REMARK H PARENT 31 24 18 32 20 34 33 36 35 38 37 40 40 44 7 46 44 49 46 52
REMARK H PARENT 48 56 63 76 4 82
REMARK Flexibility Score: inf
ROOT
ATOM      1  C   UNL     1      30.898  33.296  16.797  1.00  0.00     0.272 C 
ATOM      2  C   UNL     1      32.119  33.968  16.192  1.00  0.00     0.113 C 
ATOM      3  C   UNL     1      32.189  35.431  16.553  1.00  0.00     0.145 C 
ATOM      4  C   UNL     1      31.008  36.172  15.836  1.00  0.00     0.142 C 
ATOM      5  C   UNL     1      29.870  35.204  15.869  1.00  0.00     0.178 C 
ATOM      6  O   UNL     1      29.984  34.343  16.940  1.00  0.00    -0.332 OA
ENDROOT
BRANCH   1   7
ATOM      7  O   UNL     1      31.072  32.614  17.932  1.00  0.00    -0.338 OA
BRANCH   7   8
ATOM      8  C   UNL     1      30.380  31.764  18.614  1.00  0.00     0.199 C 
BRANCH   8   9
ATOM      9  C   UNL     1      29.667  32.343  19.838  1.00  0.00     0.179 C 
ATOM     10  C   UNL     1      28.036  30.663  20.222  1.00  0.00     0.282 C 
ATOM     11  O   UNL     1      28.380  31.928  19.898  1.00  0.00    -0.341 OA
ATOM     12  C   UNL     1      28.800  30.097  21.387  1.00  0.00     0.202 C 
ATOM     13  C   UNL     1      29.625  31.196  22.048  1.00  0.00     0.179 C 
ATOM     14  C   UNL     1      30.437  31.957  21.071  1.00  0.00     0.177 C 
BRANCH  10  15
ATOM     15  O   UNL     1      28.191  29.821  19.135  1.00  0.00    -0.341 OA
BRANCH  15  16
ATOM     16  C   UNL     1      27.012  29.365  18.620  1.00  0.00     0.184 C 
ATOM     17  C   UNL     1      26.836  27.895  18.495  1.00  0.00     0.178 C 
ATOM     18  O   UNL     1      25.449  27.666  18.385  1.00  0.00    -0.341 OA
ATOM     19  C   UNL     1      24.885  28.225  17.275  1.00  0.00     0.281 C 
ATOM     20  C   UNL     1      26.674  29.975  17.274  1.00  0.00     0.180 C 
ATOM     21  C   UNL     1      25.203  29.689  17.060  1.00  0.00     0.202 C 
BRANCH  17  22
ATOM     22  C   UNL     1      27.279  27.102  19.707  1.00  0.00     0.191 C 
BRANCH  22  23
ATOM     23  O   UNL     1      28.669  26.959  19.624  1.00  0.00    -0.394 OA
ATOM     24  H   UNL     1      29.034  26.374  20.327  1.00  0.00     0.210 HD
ENDBRANCH  22  23
ENDBRANCH  17  22
BRANCH  19  25
ATOM     25  O   UNL     1      23.496  28.156  17.424  1.00  0.00    -0.350 OA
BRANCH  25  26
ATOM     26  C   UNL     1      23.140  26.832  17.604  1.00  0.00     0.169 C 
BRANCH  26  27
ATOM     27  C   UNL     1      21.899  26.459  16.840  1.00  0.00     0.119 C 
BRANCH  27  28
ATOM     28  N   UNL     1      22.164  25.659  15.665  1.00  0.00    -0.092 NA
ATOM     29  N   UNL     1      22.860  24.626  15.735  1.00  0.00     0.001 N 
ATOM     30  N   UNL     1      23.108  23.436  15.941  1.00  0.00    -0.003 NA
ENDBRANCH  27  28
ENDBRANCH  26  27
ENDBRANCH  25  26
ENDBRANCH  19  25
BRANCH  20  31
ATOM     31  O   UNL     1      26.897  31.331  17.224  1.00  0.00    -0.387 OA
ATOM     32  H   UNL     1      26.212  31.735  16.649  1.00  0.00     0.211 HD
ENDBRANCH  20  31
BRANCH  21  33
ATOM     33  O   UNL     1      24.903  29.984  15.731  1.00  0.00    -0.385 OA
ATOM     34  H   UNL     1      25.659  29.768  15.121  1.00  0.00     0.211 HD
ENDBRANCH  21  33
ENDBRANCH  15  16
ENDBRANCH  10  15
BRANCH  12  35
ATOM     35  O   UNL     1      27.997  29.457  22.330  1.00  0.00    -0.385 OA
ATOM     36  H   UNL     1      28.560  29.108  23.053  1.00  0.00     0.211 HD
ENDBRANCH  12  35
BRANCH  13  37
ATOM     37  O   UNL     1      30.445  30.520  22.982  1.00  0.00    -0.387 OA
ATOM     38  H   UNL     1      30.521  31.036  23.821  1.00  0.00     0.211 HD
ENDBRANCH  13  37
BRANCH  14  39
ATOM     39  O   UNL     1      31.545  31.186  20.638  1.00  0.00    -0.387 OA
ATOM     40  H   UNL     1      32.384  31.636  20.920  1.00  0.00     0.211 HD
ENDBRANCH  14  39
ENDBRANCH   8   9
ENDBRANCH   7   8
ENDBRANCH   1   7
BRANCH   1  41
ATOM     41  C   UNL     1      30.380  32.333  15.800  1.00  0.00     0.364 C 
ATOM     42  O   UNL     1      29.232  31.848  15.967  1.00  0.00    -0.246 OA
BRANCH  41  43
ATOM     43  O   UNL     1      31.075  31.930  14.704  1.00  0.00    -0.477 OA
ATOM     44  H   UNL     1      31.754  32.473  14.175  1.00  0.00     0.296 HD
ENDBRANCH  41  43
ENDBRANCH   1  41
BRANCH   3  45
ATOM     45  O   UNL     1      31.991  35.726  17.881  1.00  0.00    -0.391 OA
ATOM     46  H   UNL     1      31.437  35.047  18.361  1.00  0.00     0.211 HD
ENDBRANCH   3  45
BRANCH   5  47
ATOM     47  C   UNL     1      28.496  35.761  15.914  1.00  0.00     0.176 C 
BRANCH  47  48
ATOM     48  O   UNL     1      28.353  36.937  15.213  1.00  0.00    -0.388 OA
ATOM     49  H   UNL     1      27.807  36.865  14.381  1.00  0.00     0.211 HD
ENDBRANCH  47  48
BRANCH  47  50
ATOM     50  C   UNL     1      27.356  34.785  15.725  1.00  0.00     0.165 C 
BRANCH  50  51
ATOM     51  O   UNL     1      27.141  33.986  16.800  1.00  0.00    -0.388 OA
ATOM     52  H   UNL     1      27.642  34.256  17.583  1.00  0.00     0.211 HD
ENDBRANCH  50  51
BRANCH  50  53
ATOM     53  C   UNL     1      27.522  34.119  14.399  1.00  0.00     0.154 C 
BRANCH  53  54
ATOM     54  N   UNL     1      27.212  34.872  13.243  1.00  0.00    -0.319 N 
ATOM     55  C   UNL     1      28.183  35.260  12.254  1.00  0.00     0.407 C 
ATOM     56  H   UNL     1      26.212  35.190  13.060  1.00  0.00     0.167 HD
ATOM     57  O   UNL     1      29.389  34.963  12.373  1.00  0.00    -0.225 OA
BRANCH  55  58
ATOM     58  O   UNL     1      27.805  35.978  11.136  1.00  0.00    -0.443 OA
BRANCH  58  59
ATOM     59  C   UNL     1      26.822  36.972  11.185  1.00  0.00     0.294 C 
BRANCH  59  60
ATOM     60  C   UNL     1      25.497  36.327  10.926  1.00  0.00     0.120 A 
ATOM     61  C   UNL     1      24.422  36.294  11.834  1.00  0.00     0.139 A 
ATOM     62  N   UNL     1      25.045  35.650   9.862  1.00  0.00    -0.132 NA
ATOM     63  N   UNL     1      23.400  35.617  11.295  1.00  0.00    -0.239 N 
ATOM     64  N   UNL     1      23.789  35.233  10.104  1.00  0.00    -0.066 NA
BRANCH  63  65
ATOM     65  C   UNL     1      22.126  35.381  11.942  1.00  0.00     0.122 C 
ATOM     66  C   UNL     1      21.177  34.803  10.836  1.00  0.00     0.046 C 
ATOM     67  C   UNL     1      21.425  36.646  12.376  1.00  0.00     0.046 C 
BRANCH  65  68
ATOM     68  C   UNL     1      22.211  34.371  12.980  1.00  0.00     0.192 C 
ATOM     69  O   UNL     1      21.636  34.709  14.104  1.00  0.00    -0.291 OA
BRANCH  68  70
ATOM     70  C   UNL     1      22.815  33.075  12.981  1.00  0.00     0.045 A 
ATOM     71  C   UNL     1      24.177  32.855  13.224  1.00  0.00     0.095 A 
ATOM     72  C   UNL     1      22.258  31.835  12.740  1.00  0.00     0.010 A 
ATOM     73  N   UNL     1      24.402  31.559  13.129  1.00  0.00    -0.360 N 
ATOM     74  C   UNL     1      23.285  30.892  12.838  1.00  0.00     0.046 A 
ATOM     75  C   UNL     1      21.002  31.381  12.445  1.00  0.00     0.011 A 
ATOM     76  H   UNL     1      25.361  31.131  13.270  1.00  0.00     0.166 HD
ATOM     77  C   UNL     1      23.043  29.543  12.644  1.00  0.00     0.027 A 
ATOM     78  C   UNL     1      20.762  30.021  12.250  1.00  0.00     0.001 A 
ATOM     79  C   UNL     1      21.780  29.118  12.350  1.00  0.00     0.002 A 
ENDBRANCH  68  70
ENDBRANCH  65  68
ENDBRANCH  63  65
ENDBRANCH  59  60
ENDBRANCH  58  59
ENDBRANCH  55  58
ENDBRANCH  53  54
ENDBRANCH  50  53
ENDBRANCH  47  50
ENDBRANCH   5  47
BRANCH   4  80
ATOM     80  N   UNL     1      31.515  36.331  14.476  1.00  0.00    -0.348 N 
ATOM     81  C   UNL     1      31.323  37.495  13.690  1.00  0.00     0.217 C 
ATOM     82  H   UNL     1      32.058  35.536  14.042  1.00  0.00     0.163 HD
ATOM     83  C   UNL     1      31.838  37.651  12.304  1.00  0.00     0.114 C 
ATOM     84  O   UNL     1      30.662  38.443  14.237  1.00  0.00    -0.275 OA
ENDBRANCH   4  80
TORSDOF 32
BEGIN_RES LYS A 131
REMARK  4 active torsions:
REMARK  status: ('A' for Active; 'I' for Inactive)
REMARK    1  A    between atoms: CA   and  CB  
REMARK    2  A    between atoms: CB   and  CG  
REMARK    3  A    between atoms: CG   and  CD  
REMARK    4  A    between atoms: CD   and  CE  
ROOT
ATOM      1  CA  LYS A 131      29.867  25.555  16.977  1.00 20.52     0.186 C 
ENDROOT
BRANCH   1   2
ATOM      2  CB  LYS A 131      28.345  25.722  17.026  1.00 20.94     0.034 C 
BRANCH   2   3
ATOM      3  CG  LYS A 131      27.601  24.404  16.873  1.00 22.96     0.005 C 
BRANCH   3   4
ATOM      4  CD  LYS A 131      26.172  24.504  17.331  1.00 24.33     0.041 C 
BRANCH   4   5
ATOM      5  CE  LYS A 131      25.991  23.699  18.614  1.00 26.91     0.338 C 
ATOM      6  NZ  LYS A 131      24.836  24.211  19.389  1.00 27.40     0.618 N 
ENDBRANCH   4   5
ENDBRANCH   3   4
ENDBRANCH   2   3
ENDBRANCH   1   2
END_RES LYS A 131
BEGIN_RES LYS A 135
REMARK  4 active torsions:
REMARK  status: ('A' for Active; 'I' for Inactive)
REMARK    5  A    between atoms: CA   and  CB  
REMARK    6  A    between atoms: CB   and  CG  
REMARK    7  A    between atoms: CG   and  CD  
REMARK    8  A    between atoms: CD   and  CE  
ROOT
ATOM      7  CA  LYS A 135      33.193  34.663   9.290  1.00 25.02     0.186 C 
ENDROOT
BRANCH   7   8
ATOM      8  CB  LYS A 135      32.060  35.360  10.034  1.00 26.63     0.034 C 
BRANCH   8   9
ATOM      9  CG  LYS A 135      30.828  35.572   9.193  1.00 29.45     0.005 C 
BRANCH   9  10
ATOM     10  CD  LYS A 135      30.118  34.251   8.939  1.00 32.00     0.041 C 
BRANCH  10  11
ATOM     11  CE  LYS A 135      28.755  34.490   8.318  1.00 34.25     0.338 C 
ATOM     12  NZ  LYS A 135      28.861  35.344   7.102  1.00 35.99     0.618 N 
ENDBRANCH  10  11
ENDBRANCH   9  10
ENDBRANCH   8   9
ENDBRANCH   7   8
END_RES LYS A 135
