REMARK VINA RESULT:    -4.762      2.434      7.029
REMARK INTER + INTRA:         -22.018
REMARK INTER:                 -11.991
REMARK INTRA:                 -10.028
REMARK UNBOUND:               -10.018
REMARK SMILES COc1ccc(-n2cc(COC(=O)NC[C@@H](O)C(O)[C@@H]3O[C@@](OC[C@H]4O[C@@H](O[C@H]5[C@H](O)[C@@H](O)[C@H](OCCN=[N+]=[N-])O[C@@H]5CO)[C@H](O)[C@@H](O)[C@H]4O)(C(=O)O)C[C@H](O)[C@H]3NC(C)=O)nn2)cc1
REMARK SMILES IDX 22 1 54 2 55 3 57 4 20 5 21 6 23 7 24 8 25 9 27 10 26 11
REMARK SMILES IDX 45 12 47 13 49 14 28 15 29 16 42 17 41 18 34 19 30 20 32 21
REMARK SMILES IDX 43 22 44 23 35 25 36 26 37 27 38 28 39 29 40 30 31 31 33 33
REMARK SMILES IDX 46 35 48 37 50 39 51 41 52 42 53 43 56 45 18 47 19 48 16 50
REMARK SMILES IDX 17 51 15 53 14 54 12 55 13 57 11 58 10 59 9 60 8 61 62 62
REMARK SMILES IDX 7 63 63 64 6 65 5 66 64 67 4 68 65 69 3 70 2 71 1 72 58 73
REMARK SMILES IDX 59 74 60 76 61 77
REMARK H PARENT 44 24 31 32 33 34 46 36 48 38 50 40 53 44 56 46 19 49 17 52
REMARK H PARENT 14 56 58 75
REMARK Flexibility Score: inf
ROOT
ATOM      1  C   UNL     1      26.472  37.660   8.174  1.00  0.00     0.272 C 
ATOM      2  C   UNL     1      27.054  36.859   7.070  1.00  0.00     0.113 C 
ATOM      3  C   UNL     1      28.121  37.493   6.268  1.00  0.00     0.145 C 
ATOM      4  C   UNL     1      27.980  39.022   6.411  1.00  0.00     0.142 C 
ATOM      5  C   UNL     1      26.524  39.320   6.471  1.00  0.00     0.178 C 
ATOM      6  O   UNL     1      26.076  38.936   7.733  1.00  0.00    -0.332 OA
ENDROOT
BRANCH   1   7
ATOM      7  O   UNL     1      26.978  37.769   9.362  1.00  0.00    -0.338 OA
BRANCH   7   8
ATOM      8  C   UNL     1      27.830  37.228  10.150  1.00  0.00     0.199 C 
BRANCH   8   9
ATOM      9  C   UNL     1      28.709  37.987  11.103  1.00  0.00     0.179 C 
ATOM     10  C   UNL     1      30.046  37.924  12.955  1.00  0.00     0.282 C 
ATOM     11  O   UNL     1      29.357  37.184  11.978  1.00  0.00    -0.341 OA
ATOM     12  C   UNL     1      31.084  38.844  12.396  1.00  0.00     0.202 C 
ATOM     13  C   UNL     1      30.946  39.176  10.957  1.00  0.00     0.179 C 
ATOM     14  C   UNL     1      29.600  38.974  10.388  1.00  0.00     0.177 C 
BRANCH  10  15
ATOM     15  O   UNL     1      30.657  37.006  13.803  1.00  0.00    -0.341 OA
BRANCH  15  16
ATOM     16  C   UNL     1      29.874  35.917  14.072  1.00  0.00     0.184 C 
ATOM     17  C   UNL     1      29.249  35.974  15.418  1.00  0.00     0.178 C 
ATOM     18  O   UNL     1      28.530  34.779  15.690  1.00  0.00    -0.341 OA
ATOM     19  C   UNL     1      29.524  33.782  15.872  1.00  0.00     0.281 C 
ATOM     20  C   UNL     1      30.756  34.661  13.971  1.00  0.00     0.180 C 
ATOM     21  C   UNL     1      29.978  33.463  14.446  1.00  0.00     0.202 C 
BRANCH  17  22
ATOM     22  C   UNL     1      28.317  37.148  15.561  1.00  0.00     0.191 C 
BRANCH  22  23
ATOM     23  O   UNL     1      27.019  36.725  15.330  1.00  0.00    -0.394 OA
ATOM     24  H   UNL     1      26.965  35.990  14.680  1.00  0.00     0.210 HD
ENDBRANCH  22  23
ENDBRANCH  17  22
BRANCH  19  25
ATOM     25  O   UNL     1      29.028  32.697  16.506  1.00  0.00    -0.350 OA
BRANCH  25  26
ATOM     26  C   UNL     1      27.780  32.248  16.210  1.00  0.00     0.169 C 
BRANCH  26  27
ATOM     27  C   UNL     1      27.635  30.814  15.825  1.00  0.00     0.119 C 
BRANCH  27  28
ATOM     28  N   UNL     1      26.793  30.022  16.670  1.00  0.00    -0.092 NA
ATOM     29  N   UNL     1      27.193  29.592  17.747  1.00  0.00     0.001 N 
ATOM     30  N   UNL     1      27.760  29.128  18.741  1.00  0.00    -0.003 NA
ENDBRANCH  27  28
ENDBRANCH  26  27
ENDBRANCH  25  26
ENDBRANCH  19  25
BRANCH  20  31
ATOM     31  O   UNL     1      31.181  34.522  12.662  1.00  0.00    -0.387 OA
ATOM     32  H   UNL     1      31.280  35.452  12.287  1.00  0.00     0.211 HD
ENDBRANCH  20  31
BRANCH  21  33
ATOM     33  O   UNL     1      30.789  32.351  14.497  1.00  0.00    -0.385 OA
ATOM     34  H   UNL     1      31.162  32.133  13.607  1.00  0.00     0.211 HD
ENDBRANCH  21  33
ENDBRANCH  15  16
ENDBRANCH  10  15
BRANCH  12  35
ATOM     35  O   UNL     1      31.117  40.065  13.091  1.00  0.00    -0.385 OA
ATOM     36  H   UNL     1      31.607  40.752  12.586  1.00  0.00     0.211 HD
ENDBRANCH  12  35
BRANCH  13  37
ATOM     37  O   UNL     1      31.963  38.558  10.221  1.00  0.00    -0.387 OA
ATOM     38  H   UNL     1      32.145  38.999   9.366  1.00  0.00     0.211 HD
ENDBRANCH  13  37
BRANCH  14  39
ATOM     39  O   UNL     1      29.727  38.666   9.031  1.00  0.00    -0.387 OA
ATOM     40  H   UNL     1      30.267  39.388   8.623  1.00  0.00     0.211 HD
ENDBRANCH  14  39
ENDBRANCH   8   9
ENDBRANCH   7   8
ENDBRANCH   1   7
BRANCH   1  41
ATOM     41  C   UNL     1      25.073  36.993   8.367  1.00  0.00     0.364 C 
ATOM     42  O   UNL     1      24.053  37.555   7.959  1.00  0.00    -0.246 OA
BRANCH  41  43
ATOM     43  O   UNL     1      25.064  35.777   9.004  1.00  0.00    -0.477 OA
ATOM     44  H   UNL     1      25.778  35.526   9.702  1.00  0.00     0.296 HD
ENDBRANCH  41  43
ENDBRANCH   1  41
BRANCH   3  45
ATOM     45  O   UNL     1      29.399  37.066   6.486  1.00  0.00    -0.391 OA
ATOM     46  H   UNL     1      29.737  36.380   5.869  1.00  0.00     0.211 HD
ENDBRANCH   3  45
BRANCH   5  47
ATOM     47  C   UNL     1      26.204  40.831   6.385  1.00  0.00     0.176 C 
BRANCH  47  48
ATOM     48  O   UNL     1      24.999  41.040   5.786  1.00  0.00    -0.388 OA
ATOM     49  H   UNL     1      24.791  42.003   5.790  1.00  0.00     0.211 HD
ENDBRANCH  47  48
BRANCH  47  50
ATOM     50  C   UNL     1      26.623  41.556   7.558  1.00  0.00     0.165 C 
BRANCH  50  51
ATOM     51  O   UNL     1      27.722  41.007   8.274  1.00  0.00    -0.388 OA
ATOM     52  H   UNL     1      28.322  40.644   7.592  1.00  0.00     0.211 HD
ENDBRANCH  50  51
BRANCH  50  53
ATOM     53  C   UNL     1      25.714  42.050   8.606  1.00  0.00     0.154 C 
BRANCH  53  54
ATOM     54  N   UNL     1      24.970  41.139   9.352  1.00  0.00    -0.319 N 
ATOM     55  C   UNL     1      25.356  40.517  10.549  1.00  0.00     0.407 C 
ATOM     56  H   UNL     1      23.993  40.872   8.986  1.00  0.00     0.167 HD
ATOM     57  O   UNL     1      26.448  40.751  11.091  1.00  0.00    -0.225 OA
BRANCH  55  58
ATOM     58  O   UNL     1      24.475  39.596  11.161  1.00  0.00    -0.443 OA
BRANCH  58  59
ATOM     59  C   UNL     1      25.008  38.760  12.158  1.00  0.00     0.294 C 
BRANCH  59  60
ATOM     60  C   UNL     1      24.392  37.415  12.066  1.00  0.00     0.121 A 
ATOM     61  C   UNL     1      24.741  36.237  12.698  1.00  0.00     0.144 A 
ATOM     62  N   UNL     1      23.314  37.129  11.311  1.00  0.00    -0.131 NA
ATOM     63  N   UNL     1      23.872  35.297  12.306  1.00  0.00    -0.220 N 
ATOM     64  N   UNL     1      23.011  35.867  11.458  1.00  0.00    -0.062 NA
BRANCH  63  65
ATOM     65  C   UNL     1      23.751  33.923  12.641  1.00  0.00     0.067 A 
ATOM     66  C   UNL     1      22.609  33.189  12.474  1.00  0.00     0.032 A 
ATOM     67  C   UNL     1      24.854  33.268  13.187  1.00  0.00     0.032 A 
ATOM     68  C   UNL     1      22.555  31.850  12.833  1.00  0.00     0.048 A 
ATOM     69  C   UNL     1      24.801  31.935  13.546  1.00  0.00     0.048 A 
ATOM     70  C   UNL     1      23.649  31.198  13.375  1.00  0.00     0.119 A 
BRANCH  70  71
ATOM     71  O   UNL     1      23.580  29.838  13.737  1.00  0.00    -0.497 OA
ATOM     72  C   UNL     1      23.329  28.898  12.682  1.00  0.00     0.278 C 
ENDBRANCH  70  71
ENDBRANCH  63  65
ENDBRANCH  59  60
ENDBRANCH  58  59
ENDBRANCH  55  58
ENDBRANCH  53  54
ENDBRANCH  50  53
ENDBRANCH  47  50
ENDBRANCH   5  47
BRANCH   4  73
ATOM     73  N   UNL     1      28.755  39.651   5.379  1.00  0.00    -0.348 N 
ATOM     74  C   UNL     1      29.877  40.462   5.691  1.00  0.00     0.217 C 
ATOM     75  H   UNL     1      28.511  39.487   4.387  1.00  0.00     0.163 HD
ATOM     76  C   UNL     1      30.662  41.104   4.604  1.00  0.00     0.114 C 
ATOM     77  O   UNL     1      30.255  40.676   6.873  1.00  0.00    -0.275 OA
ENDBRANCH   4  73
TORSDOF 31
BEGIN_RES LYS A 131
REMARK  4 active torsions:
REMARK  status: ('A' for Active; 'I' for Inactive)
REMARK    1  A    between atoms: CA   and  CB  
REMARK    2  A    between atoms: CB   and  CG  
REMARK    3  A    between atoms: CG   and  CD  
REMARK    4  A    between atoms: CD   and  CE  
ROOT
ATOM      1  CA  LYS A 131      29.867  25.555  16.977  1.00 20.52     0.186 C 
ENDROOT
BRANCH   1   2
ATOM      2  CB  LYS A 131      28.345  25.722  17.026  1.00 20.94     0.034 C 
BRANCH   2   3
ATOM      3  CG  LYS A 131      27.601  24.404  16.873  1.00 22.96     0.005 C 
BRANCH   3   4
ATOM      4  CD  LYS A 131      26.354  24.357  17.712  1.00 24.33     0.041 C 
BRANCH   4   5
ATOM      5  CE  LYS A 131      25.699  22.987  17.574  1.00 26.91     0.338 C 
ATOM      6  NZ  LYS A 131      24.282  23.127  17.163  1.00 27.40     0.618 N 
ENDBRANCH   4   5
ENDBRANCH   3   4
ENDBRANCH   2   3
ENDBRANCH   1   2
END_RES LYS A 131
BEGIN_RES LYS A 135
REMARK  4 active torsions:
REMARK  status: ('A' for Active; 'I' for Inactive)
REMARK    5  A    between atoms: CA   and  CB  
REMARK    6  A    between atoms: CB   and  CG  
REMARK    7  A    between atoms: CG   and  CD  
REMARK    8  A    between atoms: CD   and  CE  
ROOT
ATOM      7  CA  LYS A 135      33.193  34.663   9.290  1.00 25.02     0.186 C 
ENDROOT
BRANCH   7   8
ATOM      8  CB  LYS A 135      32.060  35.360  10.034  1.00 26.63     0.034 C 
BRANCH   8   9
ATOM      9  CG  LYS A 135      30.774  35.424   9.250  1.00 29.45     0.005 C 
BRANCH   9  10
ATOM     10  CD  LYS A 135      30.169  34.037   9.098  1.00 32.00     0.041 C 
BRANCH  10  11
ATOM     11  CE  LYS A 135      28.724  34.134   8.646  1.00 34.25     0.338 C 
ATOM     12  NZ  LYS A 135      27.795  33.692   9.723  1.00 35.99     0.618 N 
ENDBRANCH  10  11
ENDBRANCH   9  10
ENDBRANCH   8   9
ENDBRANCH   7   8
END_RES LYS A 135
