REMARK VINA RESULT:    -4.804      3.717      8.640
REMARK INTER + INTRA:         -22.124
REMARK INTER:                 -12.015
REMARK INTRA:                 -10.110
REMARK UNBOUND:               -10.018
REMARK SMILES COc1ccc(-n2cc(COC(=O)NC[C@@H](O)C(O)[C@@H]3O[C@@](OC[C@H]4O[C@@H](O[C@H]5[C@H](O)[C@@H](O)[C@H](OCCN=[N+]=[N-])O[C@@H]5CO)[C@H](O)[C@@H](O)[C@H]4O)(C(=O)O)C[C@H](O)[C@H]3NC(C)=O)nn2)cc1
REMARK SMILES IDX 22 1 54 2 55 3 57 4 20 5 21 6 23 7 24 8 25 9 27 10 26 11
REMARK SMILES IDX 45 12 47 13 49 14 28 15 29 16 42 17 41 18 34 19 30 20 32 21
REMARK SMILES IDX 43 22 44 23 35 25 36 26 37 27 38 28 39 29 40 30 31 31 33 33
REMARK SMILES IDX 46 35 48 37 50 39 51 41 52 42 53 43 56 45 18 47 19 48 16 50
REMARK SMILES IDX 17 51 15 53 14 54 12 55 13 57 11 58 10 59 9 60 8 61 62 62
REMARK SMILES IDX 7 63 63 64 6 65 5 66 64 67 4 68 65 69 3 70 2 71 1 72 58 73
REMARK SMILES IDX 59 74 60 76 61 77
REMARK H PARENT 44 24 31 32 33 34 46 36 48 38 50 40 53 44 56 46 19 49 17 52
REMARK H PARENT 14 56 58 75
REMARK Flexibility Score: inf
ROOT
ATOM      1  C   UNL     1      18.265  31.977  11.773  1.00  0.00     0.272 C 
ATOM      2  C   UNL     1      17.789  31.963  13.178  1.00  0.00     0.113 C 
ATOM      3  C   UNL     1      18.753  32.372  14.220  1.00  0.00     0.145 C 
ATOM      4  C   UNL     1      20.175  32.173  13.658  1.00  0.00     0.142 C 
ATOM      5  C   UNL     1      20.141  30.948  12.814  1.00  0.00     0.178 C 
ATOM      6  O   UNL     1      19.479  31.279  11.633  1.00  0.00    -0.332 OA
ENDROOT
BRANCH   1   7
ATOM      7  O   UNL     1      18.295  33.021  11.007  1.00  0.00    -0.338 OA
BRANCH   7   8
ATOM      8  C   UNL     1      18.212  34.298  11.037  1.00  0.00     0.199 C 
BRANCH   8   9
ATOM      9  C   UNL     1      18.966  35.222  10.124  1.00  0.00     0.179 C 
ATOM     10  C   UNL     1      20.990  35.868   9.282  1.00  0.00     0.282 C 
ATOM     11  O   UNL     1      20.276  34.902  10.011  1.00  0.00    -0.341 OA
ATOM     12  C   UNL     1      20.493  36.060   7.884  1.00  0.00     0.202 C 
ATOM     13  C   UNL     1      19.118  35.574   7.616  1.00  0.00     0.179 C 
ATOM     14  C   UNL     1      18.259  35.417   8.805  1.00  0.00     0.177 C 
BRANCH  10  15
ATOM     15  O   UNL     1      22.316  35.448   9.242  1.00  0.00    -0.341 OA
BRANCH  15  16
ATOM     16  C   UNL     1      23.087  36.006  10.225  1.00  0.00     0.184 C 
ATOM     17  C   UNL     1      24.280  36.711   9.694  1.00  0.00     0.178 C 
ATOM     18  O   UNL     1      25.099  37.185  10.754  1.00  0.00    -0.341 OA
ATOM     19  C   UNL     1      25.678  36.020  11.323  1.00  0.00     0.281 C 
ATOM     20  C   UNL     1      23.538  34.879  11.172  1.00  0.00     0.180 C 
ATOM     21  C   UNL     1      24.541  35.422  12.154  1.00  0.00     0.202 C 
BRANCH  17  22
ATOM     22  C   UNL     1      23.906  37.873   8.811  1.00  0.00     0.191 C 
BRANCH  22  23
ATOM     23  O   UNL     1      23.703  37.413   7.521  1.00  0.00    -0.394 OA
ATOM     24  H   UNL     1      24.488  36.954   7.148  1.00  0.00     0.210 HD
ENDBRANCH  22  23
ENDBRANCH  17  22
BRANCH  19  25
ATOM     25  O   UNL     1      26.759  36.321  12.075  1.00  0.00    -0.350 OA
BRANCH  25  26
ATOM     26  C   UNL     1      27.890  35.573  11.969  1.00  0.00     0.169 C 
BRANCH  26  27
ATOM     27  C   UNL     1      28.989  35.842  12.940  1.00  0.00     0.119 C 
BRANCH  27  28
ATOM     28  N   UNL     1      29.020  35.002  14.099  1.00  0.00    -0.092 NA
ATOM     29  N   UNL     1      27.995  34.725  14.714  1.00  0.00     0.001 N 
ATOM     30  N   UNL     1      26.913  34.627  15.301  1.00  0.00    -0.003 NA
ENDBRANCH  27  28
ENDBRANCH  26  27
ENDBRANCH  25  26
ENDBRANCH  19  25
BRANCH  20  31
ATOM     31  O   UNL     1      22.423  34.355  11.799  1.00  0.00    -0.387 OA
ATOM     32  H   UNL     1      22.393  33.374  11.569  1.00  0.00     0.211 HD
ENDBRANCH  20  31
BRANCH  21  33
ATOM     33  O   UNL     1      25.064  34.405  12.920  1.00  0.00    -0.385 OA
ATOM     34  H   UNL     1      24.721  34.436  13.847  1.00  0.00     0.211 HD
ENDBRANCH  21  33
ENDBRANCH  15  16
ENDBRANCH  10  15
BRANCH  12  35
ATOM     35  O   UNL     1      20.525  37.413   7.508  1.00  0.00    -0.385 OA
ATOM     36  H   UNL     1      19.639  37.831   7.597  1.00  0.00     0.211 HD
ENDBRANCH  12  35
BRANCH  13  37
ATOM     37  O   UNL     1      19.160  34.436   6.801  1.00  0.00    -0.387 OA
ATOM     38  H   UNL     1      18.896  33.617   7.267  1.00  0.00     0.211 HD
ENDBRANCH  13  37
BRANCH  14  39
ATOM     39  O   UNL     1      17.334  34.399   8.560  1.00  0.00    -0.387 OA
ATOM     40  H   UNL     1      16.475  34.692   8.956  1.00  0.00     0.211 HD
ENDBRANCH  14  39
ENDBRANCH   8   9
ENDBRANCH   7   8
ENDBRANCH   1   7
BRANCH   1  41
ATOM     41  C   UNL     1      17.292  30.969  11.082  1.00  0.00     0.364 C 
ATOM     42  O   UNL     1      17.064  31.053   9.873  1.00  0.00    -0.246 OA
BRANCH  41  43
ATOM     43  O   UNL     1      16.731  30.016  11.894  1.00  0.00    -0.477 OA
ATOM     44  H   UNL     1      17.293  29.262  12.314  1.00  0.00     0.296 HD
ENDBRANCH  41  43
ENDBRANCH   1  41
BRANCH   3  45
ATOM     45  O   UNL     1      18.581  33.607  14.775  1.00  0.00    -0.391 OA
ATOM     46  H   UNL     1      19.307  33.924  15.358  1.00  0.00     0.211 HD
ENDBRANCH   3  45
BRANCH   5  47
ATOM     47  C   UNL     1      21.542  30.479  12.359  1.00  0.00     0.176 C 
BRANCH  47  48
ATOM     48  O   UNL     1      22.431  31.509  12.380  1.00  0.00    -0.388 OA
ATOM     49  H   UNL     1      22.082  32.235  12.947  1.00  0.00     0.211 HD
ENDBRANCH  47  48
BRANCH  47  50
ATOM     50  C   UNL     1      21.871  29.160  12.841  1.00  0.00     0.165 C 
BRANCH  50  51
ATOM     51  O   UNL     1      21.013  28.627  13.841  1.00  0.00    -0.388 OA
ATOM     52  H   UNL     1      20.879  29.352  14.483  1.00  0.00     0.211 HD
ENDBRANCH  50  51
BRANCH  50  53
ATOM     53  C   UNL     1      23.219  28.730  13.248  1.00  0.00     0.154 C 
BRANCH  53  54
ATOM     54  N   UNL     1      23.926  29.485  14.181  1.00  0.00    -0.319 N 
ATOM     55  C   UNL     1      23.791  29.441  15.576  1.00  0.00     0.407 C 
ATOM     56  H   UNL     1      24.658  30.183  13.809  1.00  0.00     0.167 HD
ATOM     57  O   UNL     1      22.998  28.668  16.138  1.00  0.00    -0.225 OA
BRANCH  55  58
ATOM     58  O   UNL     1      24.581  30.302  16.372  1.00  0.00    -0.443 OA
BRANCH  58  59
ATOM     59  C   UNL     1      25.555  29.708  17.193  1.00  0.00     0.294 C 
BRANCH  59  60
ATOM     60  C   UNL     1      26.900  30.197  16.808  1.00  0.00     0.121 A 
ATOM     61  C   UNL     1      27.521  31.398  17.092  1.00  0.00     0.144 A 
ATOM     62  N   UNL     1      27.785  29.481  16.086  1.00  0.00    -0.131 NA
ATOM     63  N   UNL     1      28.739  31.363  16.539  1.00  0.00    -0.220 N 
ATOM     64  N   UNL     1      28.876  30.182  15.929  1.00  0.00    -0.062 NA
BRANCH  63  65
ATOM     65  C   UNL     1      29.797  32.310  16.522  1.00  0.00     0.067 A 
ATOM     66  C   UNL     1      29.944  33.314  17.440  1.00  0.00     0.032 A 
ATOM     67  C   UNL     1      30.747  32.232  15.506  1.00  0.00     0.032 A 
ATOM     68  C   UNL     1      30.997  34.214  17.358  1.00  0.00     0.048 A 
ATOM     69  C   UNL     1      31.796  33.128  15.424  1.00  0.00     0.048 A 
ATOM     70  C   UNL     1      31.942  34.138  16.350  1.00  0.00     0.119 A 
BRANCH  70  71
ATOM     71  O   UNL     1      33.005  35.059  16.278  1.00  0.00    -0.497 OA
ATOM     72  C   UNL     1      33.649  35.209  15.004  1.00  0.00     0.278 C 
ENDBRANCH  70  71
ENDBRANCH  63  65
ENDBRANCH  59  60
ENDBRANCH  58  59
ENDBRANCH  55  58
ENDBRANCH  53  54
ENDBRANCH  50  53
ENDBRANCH  47  50
ENDBRANCH   5  47
BRANCH   4  73
ATOM     73  N   UNL     1      21.108  32.214  14.749  1.00  0.00    -0.348 N 
ATOM     74  C   UNL     1      21.779  33.414  15.098  1.00  0.00     0.217 C 
ATOM     75  H   UNL     1      21.272  31.361  15.310  1.00  0.00     0.163 HD
ATOM     76  C   UNL     1      22.742  33.430  16.231  1.00  0.00     0.114 C 
ATOM     77  O   UNL     1      21.600  34.498  14.484  1.00  0.00    -0.275 OA
ENDBRANCH   4  73
TORSDOF 31
BEGIN_RES LYS A 131
REMARK  4 active torsions:
REMARK  status: ('A' for Active; 'I' for Inactive)
REMARK    1  A    between atoms: CA   and  CB  
REMARK    2  A    between atoms: CB   and  CG  
REMARK    3  A    between atoms: CG   and  CD  
REMARK    4  A    between atoms: CD   and  CE  
ROOT
ATOM      1  CA  LYS A 131      29.867  25.555  16.977  1.00 20.52     0.186 C 
ENDROOT
BRANCH   1   2
ATOM      2  CB  LYS A 131      28.345  25.722  17.026  1.00 20.94     0.034 C 
BRANCH   2   3
ATOM      3  CG  LYS A 131      27.602  24.400  16.914  1.00 22.96     0.005 C 
BRANCH   3   4
ATOM      4  CD  LYS A 131      26.558  24.244  17.985  1.00 24.33     0.041 C 
BRANCH   4   5
ATOM      5  CE  LYS A 131      25.503  23.243  17.527  1.00 26.91     0.338 C 
ATOM      6  NZ  LYS A 131      24.304  23.319  18.394  1.00 27.40     0.618 N 
ENDBRANCH   4   5
ENDBRANCH   3   4
ENDBRANCH   2   3
ENDBRANCH   1   2
END_RES LYS A 131
BEGIN_RES LYS A 135
REMARK  4 active torsions:
REMARK  status: ('A' for Active; 'I' for Inactive)
REMARK    5  A    between atoms: CA   and  CB  
REMARK    6  A    between atoms: CB   and  CG  
REMARK    7  A    between atoms: CG   and  CD  
REMARK    8  A    between atoms: CD   and  CE  
ROOT
ATOM      7  CA  LYS A 135      33.193  34.663   9.290  1.00 25.02     0.186 C 
ENDROOT
BRANCH   7   8
ATOM      8  CB  LYS A 135      32.060  35.360  10.034  1.00 26.63     0.034 C 
BRANCH   8   9
ATOM      9  CG  LYS A 135      30.705  34.754   9.773  1.00 29.45     0.005 C 
BRANCH   9  10
ATOM     10  CD  LYS A 135      30.497  34.525   8.284  1.00 32.00     0.041 C 
BRANCH  10  11
ATOM     11  CE  LYS A 135      29.094  34.929   7.875  1.00 34.25     0.338 C 
ATOM     12  NZ  LYS A 135      28.072  34.237   8.709  1.00 35.99     0.618 N 
ENDBRANCH  10  11
ENDBRANCH   9  10
ENDBRANCH   8   9
ENDBRANCH   7   8
END_RES LYS A 135
