REMARK VINA RESULT:    -4.682      2.691      6.352
REMARK INTER + INTRA:         -22.652
REMARK INTER:                 -11.798
REMARK INTRA:                 -10.853
REMARK UNBOUND:               -10.853
REMARK SMILES CC(=O)N[C@@H]1[C@@H](O)C[C@](OC[C@H]2O[C@@H](O[C@H]3[C@H](O)[C@@H](O)[C@H](OCCN=[N+]=[N-])O[C@@H]3CO)[C@H](O)[C@@H](O)[C@H]2O)(C(=O)O)O[C@H]1C(O)[C@H](O)CNC(=O)OCc1cn(-c2ncn3c2c(=O)n(C(C)C)c2ccccc23)nn1
REMARK SMILES IDX 9 1 8 2 6 3 5 4 42 5 41 6 10 7 11 8 12 9 14 10 13 11 32 12
REMARK SMILES IDX 34 13 36 14 15 15 16 16 29 17 28 18 21 19 17 20 19 21 30 22
REMARK SMILES IDX 31 23 22 25 23 26 24 27 25 28 26 29 27 30 18 31 20 33 33 35
REMARK SMILES IDX 35 37 37 39 38 41 39 42 40 43 7 45 43 47 44 48 45 50 46 51
REMARK SMILES IDX 47 53 48 54 49 55 50 57 51 58 52 59 53 60 54 61 74 62 55 63
REMARK SMILES IDX 73 64 56 65 57 66 60 67 58 68 59 69 61 70 72 71 63 72 62 73
REMARK SMILES IDX 71 74 67 75 70 76 68 77 69 78 64 79 65 80 66 81 4 82 2 83
REMARK SMILES IDX 1 85 3 86
REMARK H PARENT 31 24 18 32 20 34 33 36 35 38 37 40 40 44 7 46 44 49 46 52
REMARK H PARENT 48 56 4 84
REMARK Flexibility Score: inf
ROOT
ATOM      1  C   UNL     1      24.139  39.533  11.213  1.00  0.00     0.272 C 
ATOM      2  C   UNL     1      23.896  38.095  11.580  1.00  0.00     0.113 C 
ATOM      3  C   UNL     1      22.790  37.487  10.824  1.00  0.00     0.145 C 
ATOM      4  C   UNL     1      22.789  37.792   9.353  1.00  0.00     0.142 C 
ATOM      5  C   UNL     1      23.422  39.092   9.010  1.00  0.00     0.178 C 
ATOM      6  O   UNL     1      24.383  39.560   9.803  1.00  0.00    -0.332 OA
ENDROOT
BRANCH   1   7
ATOM      7  O   UNL     1      25.376  39.847  11.706  1.00  0.00    -0.338 OA
BRANCH   7   8
ATOM      8  C   UNL     1      26.078  39.173  12.571  1.00  0.00     0.199 C 
BRANCH   8   9
ATOM      9  C   UNL     1      27.516  39.384  12.901  1.00  0.00     0.179 C 
ATOM     10  C   UNL     1      29.486  38.149  12.769  1.00  0.00     0.282 C 
ATOM     11  O   UNL     1      28.136  38.144  12.537  1.00  0.00    -0.341 OA
ATOM     12  C   UNL     1      30.215  39.170  11.914  1.00  0.00     0.202 C 
ATOM     13  C   UNL     1      29.578  40.541  12.054  1.00  0.00     0.179 C 
ATOM     14  C   UNL     1      28.090  40.391  11.903  1.00  0.00     0.177 C 
BRANCH  10  15
ATOM     15  O   UNL     1      29.963  36.890  12.425  1.00  0.00    -0.341 OA
BRANCH  15  16
ATOM     16  C   UNL     1      29.728  35.981  13.424  1.00  0.00     0.184 C 
ATOM     17  C   UNL     1      29.923  36.607  14.757  1.00  0.00     0.178 C 
ATOM     18  O   UNL     1      31.135  36.386  15.361  1.00  0.00    -0.341 OA
ATOM     19  C   UNL     1      32.188  36.119  14.526  1.00  0.00     0.281 C 
ATOM     20  C   UNL     1      30.527  34.705  13.258  1.00  0.00     0.180 C 
ATOM     21  C   UNL     1      31.947  34.932  13.626  1.00  0.00     0.202 C 
BRANCH  17  22
ATOM     22  C   UNL     1      28.806  36.213  15.699  1.00  0.00     0.191 C 
BRANCH  22  23
ATOM     23  O   UNL     1      27.723  35.848  14.864  1.00  0.00    -0.394 OA
ATOM     24  H   UNL     1      26.949  36.370  15.178  1.00  0.00     0.210 HD
ENDBRANCH  22  23
ENDBRANCH  17  22
BRANCH  19  25
ATOM     25  O   UNL     1      33.281  35.765  15.337  1.00  0.00    -0.350 OA
BRANCH  25  26
ATOM     26  C   UNL     1      33.098  36.025  16.668  1.00  0.00     0.169 C 
BRANCH  26  27
ATOM     27  C   UNL     1      34.340  36.082  17.500  1.00  0.00     0.119 C 
BRANCH  27  28
ATOM     28  N   UNL     1      35.463  36.085  16.549  1.00  0.00    -0.092 NA
ATOM     29  N   UNL     1      36.597  35.776  16.846  1.00  0.00     0.001 N 
ATOM     30  N   UNL     1      37.805  35.758  17.100  1.00  0.00    -0.003 NA
ENDBRANCH  27  28
ENDBRANCH  26  27
ENDBRANCH  25  26
ENDBRANCH  19  25
BRANCH  20  31
ATOM     31  O   UNL     1      29.910  33.689  13.999  1.00  0.00    -0.387 OA
ATOM     32  H   UNL     1      28.972  34.011  14.142  1.00  0.00     0.211 HD
ENDBRANCH  20  31
BRANCH  21  33
ATOM     33  O   UNL     1      32.661  35.146  12.433  1.00  0.00    -0.385 OA
ATOM     34  H   UNL     1      32.970  36.085  12.355  1.00  0.00     0.211 HD
ENDBRANCH  21  33
ENDBRANCH  15  16
ENDBRANCH  10  15
BRANCH  12  35
ATOM     35  O   UNL     1      31.507  39.290  12.422  1.00  0.00    -0.385 OA
ATOM     36  H   UNL     1      32.172  38.814  11.870  1.00  0.00     0.211 HD
ENDBRANCH  12  35
BRANCH  13  37
ATOM     37  O   UNL     1      30.016  41.295  10.949  1.00  0.00    -0.387 OA
ATOM     38  H   UNL     1      30.790  40.843  10.513  1.00  0.00     0.211 HD
ENDBRANCH  13  37
BRANCH  14  39
ATOM     39  O   UNL     1      27.885  39.861  10.602  1.00  0.00    -0.387 OA
ATOM     40  H   UNL     1      26.924  39.874  10.377  1.00  0.00     0.211 HD
ENDBRANCH  14  39
ENDBRANCH   8   9
ENDBRANCH   7   8
ENDBRANCH   1   7
BRANCH   1  41
ATOM     41  C   UNL     1      23.023  40.431  11.475  1.00  0.00     0.364 C 
ATOM     42  O   UNL     1      22.821  41.491  10.883  1.00  0.00    -0.246 OA
BRANCH  41  43
ATOM     43  O   UNL     1      22.076  40.115  12.468  1.00  0.00    -0.477 OA
ATOM     44  H   UNL     1      22.383  39.980  13.423  1.00  0.00     0.296 HD
ENDBRANCH  41  43
ENDBRANCH   1  41
BRANCH   3  45
ATOM     45  O   UNL     1      22.894  36.083  11.005  1.00  0.00    -0.391 OA
ATOM     46  H   UNL     1      22.382  35.794  11.794  1.00  0.00     0.211 HD
ENDBRANCH   3  45
BRANCH   5  47
ATOM     47  C   UNL     1      23.904  39.135   7.571  1.00  0.00     0.176 C 
BRANCH  47  48
ATOM     48  O   UNL     1      23.791  37.885   7.004  1.00  0.00    -0.388 OA
ATOM     49  H   UNL     1      23.351  37.890   6.117  1.00  0.00     0.211 HD
ENDBRANCH  47  48
BRANCH  47  50
ATOM     50  C   UNL     1      25.280  39.674   7.394  1.00  0.00     0.165 C 
BRANCH  50  51
ATOM     51  O   UNL     1      25.449  40.612   6.411  1.00  0.00    -0.388 OA
ATOM     52  H   UNL     1      24.659  40.750   5.840  1.00  0.00     0.211 HD
ENDBRANCH  50  51
BRANCH  50  53
ATOM     53  C   UNL     1      26.336  38.616   7.290  1.00  0.00     0.154 C 
BRANCH  53  54
ATOM     54  N   UNL     1      26.712  38.128   8.622  1.00  0.00    -0.319 N 
ATOM     55  C   UNL     1      26.363  36.851   9.089  1.00  0.00     0.407 C 
ATOM     56  H   UNL     1      27.274  38.760   9.269  1.00  0.00     0.167 HD
ATOM     57  O   UNL     1      25.689  36.061   8.379  1.00  0.00    -0.225 OA
BRANCH  55  58
ATOM     58  O   UNL     1      26.786  36.477  10.373  1.00  0.00    -0.443 OA
BRANCH  58  59
ATOM     59  C   UNL     1      27.016  35.131  10.683  1.00  0.00     0.294 C 
BRANCH  59  60
ATOM     60  C   UNL     1      26.272  34.692  11.924  1.00  0.00     0.121 A 
ATOM     61  C   UNL     1      26.139  33.399  12.378  1.00  0.00     0.146 A 
ATOM     62  N   UNL     1      25.617  35.456  12.812  1.00  0.00    -0.131 NA
ATOM     63  N   UNL     1      25.407  33.400  13.531  1.00  0.00    -0.200 N 
ATOM     64  N   UNL     1      25.112  34.665  13.756  1.00  0.00    -0.060 NA
BRANCH  63  65
ATOM     65  C   UNL     1      25.063  32.247  14.299  1.00  0.00     0.186 A 
ATOM     66  N   UNL     1      23.905  31.573  14.197  1.00  0.00    -0.216 NA
ATOM     67  C   UNL     1      25.768  31.588  15.275  1.00  0.00     0.158 A 
ATOM     68  C   UNL     1      23.895  30.547  15.069  1.00  0.00     0.207 A 
ATOM     69  N   UNL     1      25.057  30.538  15.757  1.00  0.00    -0.291 N 
ATOM     70  C   UNL     1      27.015  31.849  15.782  1.00  0.00     0.279 A 
ATOM     71  C   UNL     1      25.545  29.743  16.726  1.00  0.00     0.071 A 
ATOM     72  N   UNL     1      27.534  31.065  16.761  1.00  0.00    -0.302 N 
ATOM     73  O   UNL     1      27.704  32.825  15.349  1.00  0.00    -0.267 OA
ATOM     74  C   UNL     1      24.826  28.688  17.218  1.00  0.00     0.029 A 
ATOM     75  C   UNL     1      26.799  30.028  17.220  1.00  0.00     0.068 A 
ATOM     76  C   UNL     1      25.333  27.862  18.233  1.00  0.00     0.002 A 
ATOM     77  C   UNL     1      27.295  29.212  18.219  1.00  0.00     0.028 A 
ATOM     78  C   UNL     1      26.584  28.135  18.735  1.00  0.00     0.002 A 
BRANCH  72  79
ATOM     79  C   UNL     1      28.869  31.338  17.297  1.00  0.00     0.085 C 
ATOM     80  C   UNL     1      29.969  31.082  16.321  1.00  0.00     0.031 C 
ATOM     81  C   UNL     1      28.943  32.676  17.988  1.00  0.00     0.031 C 
ENDBRANCH  72  79
ENDBRANCH  63  65
ENDBRANCH  59  60
ENDBRANCH  58  59
ENDBRANCH  55  58
ENDBRANCH  53  54
ENDBRANCH  50  53
ENDBRANCH  47  50
ENDBRANCH   5  47
BRANCH   4  82
ATOM     82  N   UNL     1      21.431  37.681   8.865  1.00  0.00    -0.348 N 
ATOM     83  C   UNL     1      20.941  36.548   8.177  1.00  0.00     0.217 C 
ATOM     84  H   UNL     1      20.758  38.471   9.018  1.00  0.00     0.163 HD
ATOM     85  C   UNL     1      19.539  36.447   7.677  1.00  0.00     0.114 C 
ATOM     86  O   UNL     1      21.742  35.586   7.983  1.00  0.00    -0.275 OA
ENDBRANCH   4  82
TORSDOF 31
BEGIN_RES LYS A 131
REMARK  4 active torsions:
REMARK  status: ('A' for Active; 'I' for Inactive)
REMARK    1  A    between atoms: CA   and  CB  
REMARK    2  A    between atoms: CB   and  CG  
REMARK    3  A    between atoms: CG   and  CD  
REMARK    4  A    between atoms: CD   and  CE  
ROOT
ATOM      1  CA  LYS A 131      29.867  25.555  16.977  1.00 20.52     0.186 C 
ENDROOT
BRANCH   1   2
ATOM      2  CB  LYS A 131      28.345  25.722  17.026  1.00 20.94     0.034 C 
BRANCH   2   3
ATOM      3  CG  LYS A 131      27.602  24.397  16.946  1.00 22.96     0.005 C 
BRANCH   3   4
ATOM      4  CD  LYS A 131      26.494  24.307  17.958  1.00 24.33     0.041 C 
BRANCH   4   5
ATOM      5  CE  LYS A 131      25.288  23.615  17.332  1.00 26.91     0.338 C 
ATOM      6  NZ  LYS A 131      24.244  24.607  16.982  1.00 27.40     0.618 N 
ENDBRANCH   4   5
ENDBRANCH   3   4
ENDBRANCH   2   3
ENDBRANCH   1   2
END_RES LYS A 131
BEGIN_RES LYS A 135
REMARK  4 active torsions:
REMARK  status: ('A' for Active; 'I' for Inactive)
REMARK    5  A    between atoms: CA   and  CB  
REMARK    6  A    between atoms: CB   and  CG  
REMARK    7  A    between atoms: CG   and  CD  
REMARK    8  A    between atoms: CD   and  CE  
ROOT
ATOM      7  CA  LYS A 135      33.193  34.663   9.290  1.00 25.02     0.186 C 
ENDROOT
BRANCH   7   8
ATOM      8  CB  LYS A 135      32.060  35.360  10.034  1.00 26.63     0.034 C 
BRANCH   8   9
ATOM      9  CG  LYS A 135      30.691  34.860   9.652  1.00 29.45     0.005 C 
BRANCH   9  10
ATOM     10  CD  LYS A 135      30.087  35.730   8.561  1.00 32.00     0.041 C 
BRANCH  10  11
ATOM     11  CE  LYS A 135      29.186  34.907   7.660  1.00 34.25     0.338 C 
ATOM     12  NZ  LYS A 135      28.714  35.707   6.496  1.00 35.99     0.618 N 
ENDBRANCH  10  11
ENDBRANCH   9  10
ENDBRANCH   8   9
ENDBRANCH   7   8
END_RES LYS A 135
