REMARK VINA RESULT:    -4.096      3.953      7.986
REMARK INTER + INTRA:         -22.012
REMARK INTER:                 -10.898
REMARK INTRA:                 -11.114
REMARK UNBOUND:               -10.971
REMARK SMILES C=CCCCCn1cc(COC(=O)NC[C@@H](O)C(O)[C@@H]2O[C@@](OC[C@H]3O[C@@H](O[C@H]4[C@H](O)[C@@H](O)[C@H](OCCN=[N+]=[N-])O[C@@H]4CO)[C@H](O)[C@@H](O)[C@H]3O)(C(=O)O)C[C@H](O)[C@H]2NC(C)=O)nn1
REMARK SMILES IDX 18 1 20 2 22 3 54 4 21 5 55 6 57 7 23 8 24 9 25 10 27 11
REMARK SMILES IDX 26 12 45 13 47 14 49 15 28 16 29 17 42 18 41 19 34 20 30 21
REMARK SMILES IDX 32 22 43 23 44 24 35 26 36 27 37 28 38 29 39 30 40 31 31 32
REMARK SMILES IDX 33 34 46 36 48 38 50 40 51 42 52 43 53 44 56 46 58 48 59 49
REMARK SMILES IDX 60 51 61 52 19 53 16 55 17 56 15 58 14 59 12 60 13 62 11 63
REMARK SMILES IDX 10 64 9 65 8 66 62 67 7 68 63 69 6 70 5 71 4 72 3 73 2 74
REMARK SMILES IDX 1 75
REMARK H PARENT 44 25 31 33 33 35 46 37 48 39 50 41 53 45 56 47 58 50 19 54
REMARK H PARENT 17 57 14 61
REMARK Flexibility Score: inf
ROOT
ATOM      1  C   UNL     1      29.767  32.289  15.223  1.00  0.00     0.176 C 
ENDROOT
BRANCH   1   2
ATOM      2  C   UNL     1      29.831  33.658  15.906  1.00  0.00     0.178 C 
ATOM      3  C   UNL     1      29.328  34.699  17.894  1.00  0.00     0.272 C 
ATOM      4  C   UNL     1      28.865  35.893  17.168  1.00  0.00     0.113 C 
ATOM      5  O   UNL     1      29.080  33.570  17.024  1.00  0.00    -0.332 OA
ATOM      6  C   UNL     1      29.466  36.112  15.848  1.00  0.00     0.145 C 
ATOM      7  C   UNL     1      29.786  34.845  15.071  1.00  0.00     0.142 C 
BRANCH   3   8
ATOM      8  O   UNL     1      28.520  34.340  18.963  1.00  0.00    -0.338 OA
BRANCH   8   9
ATOM      9  C   UNL     1      27.407  34.972  19.276  1.00  0.00     0.199 C 
BRANCH   9  10
ATOM     10  C   UNL     1      26.083  34.316  19.194  1.00  0.00     0.179 C 
ATOM     11  C   UNL     1      24.534  33.609  17.585  1.00  0.00     0.282 C 
ATOM     12  O   UNL     1      25.516  34.502  17.910  1.00  0.00    -0.341 OA
ATOM     13  C   UNL     1      23.957  32.884  18.738  1.00  0.00     0.202 C 
ATOM     14  C   UNL     1      24.968  32.211  19.626  1.00  0.00     0.179 C 
ATOM     15  C   UNL     1      26.311  32.818  19.355  1.00  0.00     0.177 C 
BRANCH  11  16
ATOM     16  O   UNL     1      24.969  32.877  16.512  1.00  0.00    -0.341 OA
BRANCH  16  17
ATOM     17  C   UNL     1      24.170  32.855  15.408  1.00  0.00     0.184 C 
ATOM     18  C   UNL     1      24.876  32.104  14.304  1.00  0.00     0.178 C 
ATOM     19  O   UNL     1      24.660  32.717  13.059  1.00  0.00    -0.341 OA
ATOM     20  C   UNL     1      25.486  33.836  13.007  1.00  0.00     0.281 C 
ATOM     21  C   UNL     1      23.938  34.280  14.854  1.00  0.00     0.180 C 
ATOM     22  C   UNL     1      25.184  34.762  14.147  1.00  0.00     0.202 C 
BRANCH  18  23
ATOM     23  C   UNL     1      24.493  30.635  14.247  1.00  0.00     0.191 C 
BRANCH  23  24
ATOM     24  O   UNL     1      24.398  30.200  12.936  1.00  0.00    -0.394 OA
ATOM     25  H   UNL     1      23.488  29.849  12.782  1.00  0.00     0.210 HD
ENDBRANCH  23  24
ENDBRANCH  18  23
BRANCH  20  26
ATOM     26  O   UNL     1      25.233  34.461  11.785  1.00  0.00    -0.350 OA
BRANCH  26  27
ATOM     27  C   UNL     1      25.586  35.798  11.763  1.00  0.00     0.169 C 
BRANCH  27  28
ATOM     28  C   UNL     1      26.980  35.888  11.169  1.00  0.00     0.119 C 
BRANCH  28  29
ATOM     29  N   UNL     1      27.155  37.086  10.391  1.00  0.00    -0.092 NA
ATOM     30  N   UNL     1      26.650  37.210   9.282  1.00  0.00     0.001 N 
ATOM     31  N   UNL     1      25.947  37.279   8.273  1.00  0.00    -0.003 NA
ENDBRANCH  28  29
ENDBRANCH  27  28
ENDBRANCH  26  27
ENDBRANCH  20  26
BRANCH  21  32
ATOM     32  O   UNL     1      22.937  34.153  13.894  1.00  0.00    -0.387 OA
ATOM     33  H   UNL     1      22.773  34.965  13.374  1.00  0.00     0.211 HD
ENDBRANCH  21  32
BRANCH  22  34
ATOM     34  O   UNL     1      26.237  34.897  15.048  1.00  0.00    -0.385 OA
ATOM     35  H   UNL     1      26.234  35.842  15.361  1.00  0.00     0.211 HD
ENDBRANCH  22  34
ENDBRANCH  16  17
ENDBRANCH  11  16
BRANCH  13  36
ATOM     36  O   UNL     1      23.257  33.816  19.517  1.00  0.00    -0.385 OA
ATOM     37  H   UNL     1      23.005  33.460  20.388  1.00  0.00     0.211 HD
ENDBRANCH  13  36
BRANCH  14  38
ATOM     38  O   UNL     1      24.988  30.826  19.451  1.00  0.00    -0.387 OA
ATOM     39  H   UNL     1      25.878  30.591  19.119  1.00  0.00     0.211 HD
ENDBRANCH  14  38
BRANCH  15  40
ATOM     40  O   UNL     1      26.912  32.285  18.208  1.00  0.00    -0.387 OA
ATOM     41  H   UNL     1      26.328  31.681  17.713  1.00  0.00     0.211 HD
ENDBRANCH  15  40
ENDBRANCH   9  10
ENDBRANCH   8   9
ENDBRANCH   3   8
BRANCH   3  42
ATOM     42  C   UNL     1      30.769  34.688  18.108  1.00  0.00     0.364 C 
ATOM     43  O   UNL     1      31.381  35.725  18.445  1.00  0.00    -0.246 OA
BRANCH  42  44
ATOM     44  O   UNL     1      31.524  33.565  17.945  1.00  0.00    -0.477 OA
ATOM     45  H   UNL     1      32.324  33.538  17.337  1.00  0.00     0.296 HD
ENDBRANCH  42  44
ENDBRANCH   3  42
BRANCH   6  46
ATOM     46  O   UNL     1      28.598  36.933  15.086  1.00  0.00    -0.391 OA
ATOM     47  H   UNL     1      28.213  37.664  15.631  1.00  0.00     0.211 HD
ENDBRANCH   6  46
BRANCH   7  48
ATOM     48  N   UNL     1      31.082  35.026  14.389  1.00  0.00    -0.348 N 
ATOM     49  C   UNL     1      31.217  35.688  13.147  1.00  0.00     0.217 C 
ATOM     50  H   UNL     1      31.981  34.660  14.804  1.00  0.00     0.163 HD
ATOM     51  C   UNL     1      32.571  35.832  12.494  1.00  0.00     0.114 C 
ATOM     52  O   UNL     1      30.189  36.154  12.594  1.00  0.00    -0.275 OA
ENDBRANCH   7  48
ENDBRANCH   1   2
BRANCH   1  53
ATOM     53  O   UNL     1      31.208  31.935  15.052  1.00  0.00    -0.388 OA
ATOM     54  H   UNL     1      31.527  32.095  15.998  1.00  0.00     0.211 HD
ENDBRANCH   1  53
BRANCH   1  55
ATOM     55  C   UNL     1      29.313  31.182  16.063  1.00  0.00     0.165 C 
BRANCH  55  56
ATOM     56  O   UNL     1      30.262  30.688  16.986  1.00  0.00    -0.388 OA
ATOM     57  H   UNL     1      31.072  30.509  16.447  1.00  0.00     0.211 HD
ENDBRANCH  55  56
BRANCH  55  58
ATOM     58  C   UNL     1      28.586  30.054  15.460  1.00  0.00     0.154 C 
BRANCH  58  59
ATOM     59  N   UNL     1      28.129  29.060  16.351  1.00  0.00    -0.319 N 
ATOM     60  C   UNL     1      26.954  28.954  17.106  1.00  0.00     0.407 C 
ATOM     61  H   UNL     1      28.806  28.217  16.480  1.00  0.00     0.167 HD
ATOM     62  O   UNL     1      26.084  29.840  17.070  1.00  0.00    -0.225 OA
BRANCH  60  63
ATOM     63  O   UNL     1      26.713  27.846  17.929  1.00  0.00    -0.443 OA
BRANCH  63  64
ATOM     64  C   UNL     1      27.658  27.561  18.962  1.00  0.00     0.294 C 
BRANCH  64  65
ATOM     65  C   UNL     1      27.762  28.701  19.908  1.00  0.00     0.120 A 
ATOM     66  C   UNL     1      28.848  29.571  19.983  1.00  0.00     0.138 A 
ATOM     67  N   UNL     1      26.893  29.119  20.840  1.00  0.00    -0.132 NA
ATOM     68  N   UNL     1      28.583  30.460  20.947  1.00  0.00    -0.252 N 
ATOM     69  N   UNL     1      27.411  30.185  21.458  1.00  0.00    -0.067 NA
BRANCH  68  70
ATOM     70  C   UNL     1      29.499  31.545  21.323  1.00  0.00     0.146 C 
BRANCH  70  71
ATOM     71  C   UNL     1      30.792  31.372  20.572  1.00  0.00     0.024 C 
BRANCH  71  72
ATOM     72  C   UNL     1      31.833  30.840  21.532  1.00  0.00     0.006 C 
BRANCH  72  73
ATOM     73  C   UNL     1      32.869  31.906  21.808  1.00  0.00     0.027 C 
BRANCH  73  74
ATOM     74  C   UNL     1      34.212  31.315  22.004  1.00  0.00    -0.035 C 
ATOM     75  C   UNL     1      34.347  30.022  22.228  1.00  0.00     0.004 C 
ENDBRANCH  73  74
ENDBRANCH  72  73
ENDBRANCH  71  72
ENDBRANCH  70  71
ENDBRANCH  68  70
ENDBRANCH  64  65
ENDBRANCH  63  64
ENDBRANCH  60  63
ENDBRANCH  58  59
ENDBRANCH  55  58
ENDBRANCH   1  55
TORSDOF 34
BEGIN_RES LYS A 131
REMARK  4 active torsions:
REMARK  status: ('A' for Active; 'I' for Inactive)
REMARK    1  A    between atoms: CA   and  CB  
REMARK    2  A    between atoms: CB   and  CG  
REMARK    3  A    between atoms: CG   and  CD  
REMARK    4  A    between atoms: CD   and  CE  
ROOT
ATOM      1  CA  LYS A 131      29.867  25.555  16.977  1.00 20.52     0.186 C 
ENDROOT
BRANCH   1   2
ATOM      2  CB  LYS A 131      28.345  25.722  17.026  1.00 20.94     0.034 C 
BRANCH   2   3
ATOM      3  CG  LYS A 131      27.600  24.409  16.839  1.00 22.96     0.005 C 
BRANCH   3   4
ATOM      4  CD  LYS A 131      26.488  24.242  17.837  1.00 24.33     0.041 C 
BRANCH   4   5
ATOM      5  CE  LYS A 131      25.724  22.956  17.537  1.00 26.91     0.338 C 
ATOM      6  NZ  LYS A 131      24.297  23.252  17.269  1.00 27.40     0.618 N 
ENDBRANCH   4   5
ENDBRANCH   3   4
ENDBRANCH   2   3
ENDBRANCH   1   2
END_RES LYS A 131
BEGIN_RES LYS A 135
REMARK  4 active torsions:
REMARK  status: ('A' for Active; 'I' for Inactive)
REMARK    5  A    between atoms: CA   and  CB  
REMARK    6  A    between atoms: CB   and  CG  
REMARK    7  A    between atoms: CG   and  CD  
REMARK    8  A    between atoms: CD   and  CE  
ROOT
ATOM      7  CA  LYS A 135      33.193  34.663   9.290  1.00 25.02     0.186 C 
ENDROOT
BRANCH   7   8
ATOM      8  CB  LYS A 135      32.060  35.360  10.034  1.00 26.63     0.034 C 
BRANCH   8   9
ATOM      9  CG  LYS A 135      30.857  35.642   9.172  1.00 29.45     0.005 C 
BRANCH   9  10
ATOM     10  CD  LYS A 135      30.276  34.348   8.622  1.00 32.00     0.041 C 
BRANCH  10  11
ATOM     11  CE  LYS A 135      28.825  34.542   8.225  1.00 34.25     0.338 C 
ATOM     12  NZ  LYS A 135      28.712  35.379   6.998  1.00 35.99     0.618 N 
ENDBRANCH  10  11
ENDBRANCH   9  10
ENDBRANCH   8   9
ENDBRANCH   7   8
END_RES LYS A 135
