REMARK VINA RESULT:    -4.903      4.453     10.936
REMARK INTER + INTRA:         -24.838
REMARK INTER:                 -13.257
REMARK INTRA:                 -11.581
REMARK UNBOUND:                -9.760
REMARK SMILES CC(=O)N[C@@H]1[C@@H](O)C[C@](OC[C@H]2O[C@@H](O[C@H]3[C@H](O)[C@@H](O)[C@H](OCCN=[N+]=[N-])O[C@@H]3CO)[C@H](O)[C@@H](O)[C@H]2O)(C(=O)O)O[C@H]1C(O)[C@H](O)CNC(=O)OCc1cn(CCCCCCCCCCC(=O)O)nn1
REMARK SMILES IDX 51 1 49 2 48 3 50 5 47 6 45 7 43 8 42 9 9 10 8 11 41 12 6 13
REMARK SMILES IDX 5 14 10 15 11 16 12 17 14 18 13 19 32 20 34 21 36 22 15 23
REMARK SMILES IDX 16 24 29 25 28 26 21 27 17 28 19 29 30 30 31 31 22 33 23 34
REMARK SMILES IDX 24 35 25 36 26 37 27 38 18 39 20 41 33 43 35 45 37 47 38 49
REMARK SMILES IDX 39 50 40 51 7 53 4 55 2 56 1 58 3 59 44 60 46 62 52 64 53 65
REMARK SMILES IDX 54 66 70 67 55 68 69 69 56 70 57 71 58 72 59 73 60 74 61 75
REMARK SMILES IDX 62 76 63 77 64 78 65 79 66 80 67 81 68 82
REMARK H PARENT 48 4 31 32 18 40 20 42 33 44 35 46 37 48 40 52 7 54 4 57 44 61
REMARK H PARENT 46 63 68 83
REMARK Flexibility Score: inf
ROOT
ATOM      1  O   UNL     1      28.626  30.498  19.716  1.00  0.00    -0.443 OA
ENDROOT
BRANCH   1   2
ATOM      2  C   UNL     1      28.681  30.637  18.311  1.00  0.00     0.407 C 
ATOM      3  N   UNL     1      29.920  30.823  17.649  1.00  0.00    -0.319 N 
ATOM      4  H   UNL     1      30.799  30.863  18.230  1.00  0.00     0.167 HD
ATOM      5  O   UNL     1      27.640  30.596  17.618  1.00  0.00    -0.225 OA
BRANCH   3   6
ATOM      6  C   UNL     1      30.023  30.959  16.227  1.00  0.00     0.154 C 
BRANCH   6   7
ATOM      7  C   UNL     1      30.489  32.333  15.758  1.00  0.00     0.165 C 
BRANCH   7   8
ATOM      8  C   UNL     1      29.340  32.927  15.021  1.00  0.00     0.176 C 
BRANCH   8   9
ATOM      9  C   UNL     1      29.644  34.150  14.188  1.00  0.00     0.178 C 
ATOM     10  C   UNL     1      30.980  36.052  14.252  1.00  0.00     0.272 C 
ATOM     11  C   UNL     1      29.834  36.771  13.572  1.00  0.00     0.113 C 
ATOM     12  O   UNL     1      30.446  34.972  14.929  1.00  0.00    -0.332 OA
ATOM     13  C   UNL     1      28.485  36.255  13.956  1.00  0.00     0.145 C 
ATOM     14  C   UNL     1      28.415  34.782  13.612  1.00  0.00     0.142 C 
BRANCH  10  15
ATOM     15  O   UNL     1      31.642  36.910  15.147  1.00  0.00    -0.338 OA
BRANCH  15  16
ATOM     16  C   UNL     1      31.488  38.239  14.944  1.00  0.00     0.199 C 
BRANCH  16  17
ATOM     17  C   UNL     1      30.983  38.826  16.279  1.00  0.00     0.179 C 
ATOM     18  C   UNL     1      32.484  38.144  17.976  1.00  0.00     0.282 C 
ATOM     19  O   UNL     1      31.289  38.073  17.343  1.00  0.00    -0.341 OA
ATOM     20  C   UNL     1      33.281  39.346  17.636  1.00  0.00     0.202 C 
ATOM     21  C   UNL     1      32.341  40.535  17.486  1.00  0.00     0.179 C 
ATOM     22  C   UNL     1      31.348  40.291  16.369  1.00  0.00     0.177 C 
BRANCH  18  23
ATOM     23  O   UNL     1      33.154  36.922  17.713  1.00  0.00    -0.341 OA
BRANCH  23  24
ATOM     24  C   UNL     1      32.950  36.096  18.811  1.00  0.00     0.184 C 
ATOM     25  C   UNL     1      34.187  35.501  19.398  1.00  0.00     0.178 C 
ATOM     26  O   UNL     1      33.875  34.576  20.350  1.00  0.00    -0.341 OA
ATOM     27  C   UNL     1      32.611  34.425  20.785  1.00  0.00     0.281 C 
ATOM     28  C   UNL     1      32.058  34.911  18.403  1.00  0.00     0.180 C 
ATOM     29  C   UNL     1      31.572  34.294  19.695  1.00  0.00     0.202 C 
BRANCH  25  30
ATOM     30  C   UNL     1      35.142  36.530  19.974  1.00  0.00     0.191 C 
BRANCH  30  31
ATOM     31  O   UNL     1      34.520  37.542  20.656  1.00  0.00    -0.394 OA
ATOM     32  H   UNL     1      35.156  38.299  20.743  1.00  0.00     0.210 HD
ENDBRANCH  30  31
ENDBRANCH  25  30
BRANCH  27  33
ATOM     33  O   UNL     1      32.251  35.492  21.597  1.00  0.00    -0.350 OA
BRANCH  33  34
ATOM     34  C   UNL     1      32.687  35.324  22.911  1.00  0.00     0.169 C 
BRANCH  34  35
ATOM     35  C   UNL     1      31.566  35.463  23.902  1.00  0.00     0.119 C 
BRANCH  35  36
ATOM     36  N   UNL     1      30.853  34.187  23.981  1.00  0.00    -0.092 NA
ATOM     37  N   UNL     1      29.776  34.020  23.368  1.00  0.00     0.001 N 
ATOM     38  N   UNL     1      28.737  34.140  22.682  1.00  0.00    -0.003 NA
ENDBRANCH  35  36
ENDBRANCH  34  35
ENDBRANCH  33  34
ENDBRANCH  27  33
BRANCH  28  39
ATOM     39  O   UNL     1      30.981  35.297  17.635  1.00  0.00    -0.387 OA
ATOM     40  H   UNL     1      30.415  35.986  18.064  1.00  0.00     0.211 HD
ENDBRANCH  28  39
BRANCH  29  41
ATOM     41  O   UNL     1      31.378  32.937  19.461  1.00  0.00    -0.385 OA
ATOM     42  H   UNL     1      30.587  32.851  18.844  1.00  0.00     0.211 HD
ENDBRANCH  29  41
ENDBRANCH  23  24
ENDBRANCH  18  23
BRANCH  20  43
ATOM     43  O   UNL     1      34.165  39.717  18.659  1.00  0.00    -0.385 OA
ATOM     44  H   UNL     1      33.623  39.695  19.502  1.00  0.00     0.211 HD
ENDBRANCH  20  43
BRANCH  21  45
ATOM     45  O   UNL     1      33.060  41.700  17.223  1.00  0.00    -0.387 OA
ATOM     46  H   UNL     1      34.018  41.454  17.279  1.00  0.00     0.211 HD
ENDBRANCH  21  45
BRANCH  22  47
ATOM     47  O   UNL     1      31.921  40.714  15.194  1.00  0.00    -0.387 OA
ATOM     48  H   UNL     1      31.242  41.216  14.676  1.00  0.00     0.211 HD
ENDBRANCH  22  47
ENDBRANCH  16  17
ENDBRANCH  15  16
ENDBRANCH  10  15
BRANCH  10  49
ATOM     49  C   UNL     1      32.012  35.634  13.300  1.00  0.00     0.364 C 
ATOM     50  O   UNL     1      32.217  36.222  12.225  1.00  0.00    -0.246 OA
BRANCH  49  51
ATOM     51  O   UNL     1      32.817  34.540  13.572  1.00  0.00    -0.477 OA
ATOM     52  H   UNL     1      33.315  34.435  14.459  1.00  0.00     0.296 HD
ENDBRANCH  49  51
ENDBRANCH  10  49
BRANCH  13  53
ATOM     53  O   UNL     1      28.091  36.517  15.250  1.00  0.00    -0.391 OA
ATOM     54  H   UNL     1      27.716  35.722  15.726  1.00  0.00     0.211 HD
ENDBRANCH  13  53
BRANCH  14  55
ATOM     55  N   UNL     1      28.284  34.679  12.197  1.00  0.00    -0.348 N 
ATOM     56  C   UNL     1      27.048  34.494  11.515  1.00  0.00     0.217 C 
ATOM     57  H   UNL     1      29.130  34.737  11.580  1.00  0.00     0.163 HD
ATOM     58  C   UNL     1      26.993  34.396  10.046  1.00  0.00     0.114 C 
ATOM     59  O   UNL     1      26.014  34.419  12.204  1.00  0.00    -0.275 OA
ENDBRANCH  14  55
ENDBRANCH   8   9
BRANCH   8  60
ATOM     60  O   UNL     1      28.285  33.074  15.880  1.00  0.00    -0.388 OA
ATOM     61  H   UNL     1      28.319  33.855  16.454  1.00  0.00     0.211 HD
ENDBRANCH   8  60
ENDBRANCH   7   8
BRANCH   7  62
ATOM     62  O   UNL     1      31.632  32.134  14.993  1.00  0.00    -0.388 OA
ATOM     63  H   UNL     1      32.453  32.398  15.474  1.00  0.00     0.211 HD
ENDBRANCH   7  62
ENDBRANCH   6   7
ENDBRANCH   3   6
ENDBRANCH   1   2
BRANCH   1  64
ATOM     64  C   UNL     1      29.358  29.400  20.277  1.00  0.00     0.294 C 
BRANCH  64  65
ATOM     65  C   UNL     1      30.552  29.966  20.940  1.00  0.00     0.120 A 
ATOM     66  C   UNL     1      31.824  29.427  20.877  1.00  0.00     0.138 A 
ATOM     67  N   UNL     1      30.633  31.072  21.692  1.00  0.00    -0.132 NA
ATOM     68  N   UNL     1      32.617  30.241  21.600  1.00  0.00    -0.252 N 
ATOM     69  N   UNL     1      31.863  31.244  22.091  1.00  0.00    -0.067 NA
BRANCH  68  70
ATOM     70  C   UNL     1      34.021  30.136  21.851  1.00  0.00     0.146 C 
BRANCH  70  71
ATOM     71  C   UNL     1      34.696  31.382  22.305  1.00  0.00     0.024 C 
BRANCH  71  72
ATOM     72  C   UNL     1      35.807  31.879  21.448  1.00  0.00     0.002 C 
BRANCH  72  73
ATOM     73  C   UNL     1      37.171  31.797  22.041  1.00  0.00     0.000 C 
BRANCH  73  74
ATOM     74  C   UNL     1      38.294  32.151  21.129  1.00  0.00     0.000 C 
BRANCH  74  75
ATOM     75  C   UNL     1      37.798  33.018  20.005  1.00  0.00     0.000 C 
BRANCH  75  76
ATOM     76  C   UNL     1      38.597  32.856  18.731  1.00  0.00     0.000 C 
BRANCH  76  77
ATOM     77  C   UNL     1      38.249  33.857  17.679  1.00  0.00     0.001 C 
BRANCH  77  78
ATOM     78  C   UNL     1      39.405  34.325  16.850  1.00  0.00     0.012 C 
BRANCH  78  79
ATOM     79  C   UNL     1      38.867  35.209  15.738  1.00  0.00     0.122 C 
BRANCH  79  80
ATOM     80  C   UNL     1      38.341  34.354  14.659  1.00  0.00     0.303 C 
ATOM     81  O   UNL     1      37.114  34.287  14.440  1.00  0.00    -0.252 OA
BRANCH  80  82
ATOM     82  O   UNL     1      39.186  33.599  13.859  1.00  0.00    -0.481 OA
ATOM     83  H   UNL     1      39.266  32.602  13.954  1.00  0.00     0.296 HD
ENDBRANCH  80  82
ENDBRANCH  79  80
ENDBRANCH  78  79
ENDBRANCH  77  78
ENDBRANCH  76  77
ENDBRANCH  75  76
ENDBRANCH  74  75
ENDBRANCH  73  74
ENDBRANCH  72  73
ENDBRANCH  71  72
ENDBRANCH  70  71
ENDBRANCH  68  70
ENDBRANCH  64  65
ENDBRANCH   1  64
TORSDOF 41
BEGIN_RES LYS A 131
REMARK  4 active torsions:
REMARK  status: ('A' for Active; 'I' for Inactive)
REMARK    1  A    between atoms: CA   and  CB  
REMARK    2  A    between atoms: CB   and  CG  
REMARK    3  A    between atoms: CG   and  CD  
REMARK    4  A    between atoms: CD   and  CE  
ROOT
ATOM      1  CA  LYS A 131      29.867  25.555  16.977  1.00 20.52     0.186 C 
ENDROOT
BRANCH   1   2
ATOM      2  CB  LYS A 131      28.345  25.722  17.026  1.00 20.94     0.034 C 
BRANCH   2   3
ATOM      3  CG  LYS A 131      27.601  24.403  16.888  1.00 22.96     0.005 C 
BRANCH   3   4
ATOM      4  CD  LYS A 131      26.502  24.263  17.904  1.00 24.33     0.041 C 
BRANCH   4   5
ATOM      5  CE  LYS A 131      25.152  24.468  17.225  1.00 26.91     0.338 C 
ATOM      6  NZ  LYS A 131      24.507  25.709  17.715  1.00 27.40     0.618 N 
ENDBRANCH   4   5
ENDBRANCH   3   4
ENDBRANCH   2   3
ENDBRANCH   1   2
END_RES LYS A 131
BEGIN_RES LYS A 135
REMARK  4 active torsions:
REMARK  status: ('A' for Active; 'I' for Inactive)
REMARK    5  A    between atoms: CA   and  CB  
REMARK    6  A    between atoms: CB   and  CG  
REMARK    7  A    between atoms: CG   and  CD  
REMARK    8  A    between atoms: CD   and  CE  
ROOT
ATOM      7  CA  LYS A 135      33.193  34.663   9.290  1.00 25.02     0.186 C 
ENDROOT
BRANCH   7   8
ATOM      8  CB  LYS A 135      32.060  35.360  10.034  1.00 26.63     0.034 C 
BRANCH   8   9
ATOM      9  CG  LYS A 135      30.689  34.887   9.624  1.00 29.45     0.005 C 
BRANCH   9  10
ATOM     10  CD  LYS A 135      30.682  34.464   8.163  1.00 32.00     0.041 C 
BRANCH  10  11
ATOM     11  CE  LYS A 135      29.505  35.083   7.435  1.00 34.25     0.338 C 
ATOM     12  NZ  LYS A 135      29.195  36.438   7.970  1.00 35.99     0.618 N 
ENDBRANCH  10  11
ENDBRANCH   9  10
ENDBRANCH   8   9
ENDBRANCH   7   8
END_RES LYS A 135
