REMARK VINA RESULT:    -4.917      7.112     14.401
REMARK INTER + INTRA:         -23.991
REMARK INTER:                 -10.569
REMARK INTRA:                 -13.422
REMARK UNBOUND:               -10.737
REMARK SMILES CC(=O)N[C@@H]1[C@@H](O)C[C@](OC[C@H]2O[C@@H](O[C@H]3[C@H](O)[C@@H](O)[C@H](OCCN=[N+]=[N-])O[C@@H]3CO)[C@H](O)[C@@H](O)[C@H]2O)(C(=O)O)O[C@H]1C(O)[C@H](O)CNC(=O)OCc1cn(CCNC(=O)NCc2ccco2)nn1
REMARK SMILES IDX 43 1 42 2 9 3 8 4 41 5 6 6 5 7 10 8 11 9 12 10 14 11 13 12
REMARK SMILES IDX 32 13 34 14 36 15 15 16 16 17 29 18 28 19 21 20 17 21 19 22
REMARK SMILES IDX 30 23 31 24 22 26 23 27 24 28 25 29 26 30 27 31 18 32 20 34
REMARK SMILES IDX 33 36 35 38 37 40 38 42 39 43 40 44 7 46 4 48 2 49 1 51 3 52
REMARK SMILES IDX 44 53 45 55 46 56 47 58 48 59 49 60 50 62 51 63 52 64 53 65
REMARK SMILES IDX 54 66 69 67 55 68 68 69 56 70 57 71 58 72 59 73 60 75 61 76
REMARK SMILES IDX 62 78 63 79 64 80 67 81 65 82 66 83
REMARK H PARENT 31 25 18 33 20 35 33 37 35 39 37 41 40 45 7 47 4 50 44 54
REMARK H PARENT 46 57 48 61 58 74 61 77
REMARK Flexibility Score: inf
ROOT
ATOM      1  C   UNL     1      32.316  40.420   6.977  1.00  0.00     0.176 C 
ENDROOT
BRANCH   1   2
ATOM      2  C   UNL     1      32.687  40.771   8.382  1.00  0.00     0.178 C 
ATOM      3  C   UNL     1      30.690  40.750   9.673  1.00  0.00     0.272 C 
ATOM      4  C   UNL     1      30.516  42.157   9.016  1.00  0.00     0.113 C 
ATOM      5  O   UNL     1      31.878  40.215   9.326  1.00  0.00    -0.332 OA
ATOM      6  C   UNL     1      31.763  42.948   9.020  1.00  0.00     0.145 C 
ATOM      7  C   UNL     1      33.014  42.198   8.633  1.00  0.00     0.142 C 
BRANCH   3   8
ATOM      8  O   UNL     1      29.689  40.002   9.089  1.00  0.00    -0.338 OA
BRANCH   8   9
ATOM      9  C   UNL     1      29.693  38.674   9.158  1.00  0.00     0.199 C 
BRANCH   9  10
ATOM     10  C   UNL     1      29.128  37.741   8.203  1.00  0.00     0.179 C 
ATOM     11  C   UNL     1      27.695  36.017   7.717  1.00  0.00     0.282 C 
ATOM     12  O   UNL     1      27.992  37.055   8.600  1.00  0.00    -0.341 OA
ATOM     13  C   UNL     1      28.270  36.160   6.357  1.00  0.00     0.202 C 
ATOM     14  C   UNL     1      28.442  37.566   5.860  1.00  0.00     0.179 C 
ATOM     15  C   UNL     1      28.676  38.548   6.970  1.00  0.00     0.177 C 
BRANCH  11  16
ATOM     16  O   UNL     1      26.332  35.786   7.620  1.00  0.00    -0.341 OA
BRANCH  16  17
ATOM     17  C   UNL     1      25.586  36.543   8.547  1.00  0.00     0.184 C 
ATOM     18  C   UNL     1      24.804  35.575   9.385  1.00  0.00     0.178 C 
ATOM     19  O   UNL     1      23.566  36.087   9.768  1.00  0.00    -0.341 OA
ATOM     20  C   UNL     1      22.811  36.203   8.607  1.00  0.00     0.281 C 
ATOM     21  C   UNL     1      24.773  37.529   7.776  1.00  0.00     0.180 C 
ATOM     22  C   UNL     1      23.301  37.365   7.810  1.00  0.00     0.202 C 
BRANCH  18  23
ATOM     23  C   UNL     1      25.581  35.336  10.680  1.00  0.00     0.191 C 
BRANCH  23  24
ATOM     24  O   UNL     1      26.494  36.404  10.814  1.00  0.00    -0.394 OA
ATOM     25  H   UNL     1      26.649  36.476  11.801  1.00  0.00     0.210 HD
ENDBRANCH  23  24
ENDBRANCH  18  23
BRANCH  20  26
ATOM     26  O   UNL     1      21.507  36.492   9.018  1.00  0.00    -0.350 OA
BRANCH  26  27
ATOM     27  C   UNL     1      21.477  36.960  10.331  1.00  0.00     0.169 C 
BRANCH  27  28
ATOM     28  C   UNL     1      20.392  38.039  10.382  1.00  0.00     0.119 C 
BRANCH  28  29
ATOM     29  N   UNL     1      20.951  39.217   9.743  1.00  0.00    -0.092 NA
ATOM     30  N   UNL     1      22.014  39.714  10.144  1.00  0.00     0.001 N 
ATOM     31  N   UNL     1      23.205  39.997  10.355  1.00  0.00    -0.003 NA
ENDBRANCH  28  29
ENDBRANCH  27  28
ENDBRANCH  26  27
ENDBRANCH  20  26
BRANCH  21  32
ATOM     32  O   UNL     1      25.127  38.812   8.240  1.00  0.00    -0.387 OA
ATOM     33  H   UNL     1      25.813  39.228   7.688  1.00  0.00     0.211 HD
ENDBRANCH  21  32
BRANCH  22  34
ATOM     34  O   UNL     1      22.851  37.146   6.484  1.00  0.00    -0.385 OA
ATOM     35  H   UNL     1      22.675  36.157   6.430  1.00  0.00     0.211 HD
ENDBRANCH  22  34
ENDBRANCH  16  17
ENDBRANCH  11  16
BRANCH  13  36
ATOM     36  O   UNL     1      29.426  35.390   6.169  1.00  0.00    -0.385 OA
ATOM     37  H   UNL     1      30.211  35.948   5.968  1.00  0.00     0.211 HD
ENDBRANCH  13  36
BRANCH  14  38
ATOM     38  O   UNL     1      27.367  37.973   5.060  1.00  0.00    -0.387 OA
ATOM     39  H   UNL     1      27.447  37.435   4.224  1.00  0.00     0.211 HD
ENDBRANCH  14  38
BRANCH  15  40
ATOM     40  O   UNL     1      27.588  39.336   7.260  1.00  0.00    -0.387 OA
ATOM     41  H   UNL     1      27.782  39.837   8.074  1.00  0.00     0.211 HD
ENDBRANCH  15  40
ENDBRANCH   9  10
ENDBRANCH   8   9
ENDBRANCH   3   8
BRANCH   3  42
ATOM     42  C   UNL     1      30.426  41.003  11.087  1.00  0.00     0.364 C 
ATOM     43  O   UNL     1      31.299  40.832  11.950  1.00  0.00    -0.246 OA
BRANCH  42  44
ATOM     44  O   UNL     1      29.192  41.448  11.572  1.00  0.00    -0.477 OA
ATOM     45  H   UNL     1      28.335  41.077  11.159  1.00  0.00     0.296 HD
ENDBRANCH  42  44
ENDBRANCH   3  42
BRANCH   6  46
ATOM     46  O   UNL     1      31.587  44.019   8.124  1.00  0.00    -0.391 OA
ATOM     47  H   UNL     1      31.618  44.870   8.630  1.00  0.00     0.211 HD
ENDBRANCH   6  46
BRANCH   7  48
ATOM     48  N   UNL     1      33.995  42.345   9.709  1.00  0.00    -0.348 N 
ATOM     49  C   UNL     1      35.352  42.564   9.434  1.00  0.00     0.217 C 
ATOM     50  H   UNL     1      33.655  42.282  10.692  1.00  0.00     0.163 HD
ATOM     51  C   UNL     1      36.390  42.719  10.496  1.00  0.00     0.114 C 
ATOM     52  O   UNL     1      35.696  42.631   8.211  1.00  0.00    -0.275 OA
ENDBRANCH   7  48
ENDBRANCH   1   2
BRANCH   1  53
ATOM     53  O   UNL     1      32.515  39.002   6.814  1.00  0.00    -0.388 OA
ATOM     54  H   UNL     1      32.354  38.619   7.690  1.00  0.00     0.211 HD
ENDBRANCH   1  53
BRANCH   1  55
ATOM     55  C   UNL     1      33.181  40.996   5.894  1.00  0.00     0.165 C 
BRANCH  55  56
ATOM     56  O   UNL     1      33.548  42.314   6.028  1.00  0.00    -0.388 OA
ATOM     57  H   UNL     1      34.464  42.437   6.384  1.00  0.00     0.211 HD
ENDBRANCH  55  56
BRANCH  55  58
ATOM     58  C   UNL     1      32.578  40.743   4.509  1.00  0.00     0.154 C 
BRANCH  58  59
ATOM     59  N   UNL     1      31.175  41.081   4.487  1.00  0.00    -0.319 N 
ATOM     60  C   UNL     1      30.692  42.366   4.148  1.00  0.00     0.407 C 
ATOM     61  H   UNL     1      30.487  40.342   4.730  1.00  0.00     0.167 HD
ATOM     62  O   UNL     1      31.512  43.272   3.847  1.00  0.00    -0.225 OA
BRANCH  60  63
ATOM     63  O   UNL     1      29.333  42.663   4.138  1.00  0.00    -0.443 OA
BRANCH  63  64
ATOM     64  C   UNL     1      28.424  41.697   3.620  1.00  0.00     0.294 C 
BRANCH  64  65
ATOM     65  C   UNL     1      27.371  41.548   4.672  1.00  0.00     0.120 A 
ATOM     66  C   UNL     1      27.214  42.370   5.755  1.00  0.00     0.138 A 
ATOM     67  N   UNL     1      26.408  40.595   4.730  1.00  0.00    -0.132 NA
ATOM     68  N   UNL     1      26.177  41.899   6.432  1.00  0.00    -0.250 N 
ATOM     69  N   UNL     1      25.694  40.825   5.807  1.00  0.00    -0.067 NA
BRANCH  68  70
ATOM     70  C   UNL     1      25.663  42.472   7.675  1.00  0.00     0.167 C 
BRANCH  70  71
ATOM     71  C   UNL     1      26.816  42.466   8.679  1.00  0.00     0.141 C 
BRANCH  71  72
ATOM     72  N   UNL     1      26.825  41.174   9.300  1.00  0.00    -0.336 N 
ATOM     73  C   UNL     1      26.431  40.939  10.633  1.00  0.00     0.315 C 
ATOM     74  H   UNL     1      27.152  40.369   8.701  1.00  0.00     0.165 HD
ATOM     75  O   UNL     1      26.060  41.874  11.374  1.00  0.00    -0.249 OA
ATOM     76  N   UNL     1      26.460  39.593  11.132  1.00  0.00    -0.331 N 
ATOM     77  H   UNL     1      26.779  38.838  10.473  1.00  0.00     0.165 HD
BRANCH  76  78
ATOM     78  C   UNL     1      26.063  39.312  12.484  1.00  0.00     0.193 C 
BRANCH  78  79
ATOM     79  C   UNL     1      27.232  38.854  13.282  1.00  0.00     0.122 A 
ATOM     80  C   UNL     1      27.155  37.955  14.339  1.00  0.00     0.047 A 
ATOM     81  O   UNL     1      28.464  39.204  13.129  1.00  0.00    -0.467 OA
ATOM     82  C   UNL     1      28.432  37.802  14.795  1.00  0.00     0.042 A 
ATOM     83  C   UNL     1      29.225  38.599  14.015  1.00  0.00     0.195 A 
ENDBRANCH  78  79
ENDBRANCH  76  78
ENDBRANCH  71  72
ENDBRANCH  70  71
ENDBRANCH  68  70
ENDBRANCH  64  65
ENDBRANCH  63  64
ENDBRANCH  60  63
ENDBRANCH  58  59
ENDBRANCH  55  58
ENDBRANCH   1  55
TORSDOF 34
BEGIN_RES LYS A 131
REMARK  4 active torsions:
REMARK  status: ('A' for Active; 'I' for Inactive)
REMARK    1  A    between atoms: CA   and  CB  
REMARK    2  A    between atoms: CB   and  CG  
REMARK    3  A    between atoms: CG   and  CD  
REMARK    4  A    between atoms: CD   and  CE  
ROOT
ATOM      1  CA  LYS A 131      29.867  25.555  16.977  1.00 20.52     0.186 C 
ENDROOT
BRANCH   1   2
ATOM      2  CB  LYS A 131      28.345  25.722  17.026  1.00 20.94     0.034 C 
BRANCH   2   3
ATOM      3  CG  LYS A 131      27.601  24.401  16.900  1.00 22.96     0.005 C 
BRANCH   3   4
ATOM      4  CD  LYS A 131      26.537  24.248  17.951  1.00 24.33     0.041 C 
BRANCH   4   5
ATOM      5  CE  LYS A 131      25.162  24.390  17.308  1.00 26.91     0.338 C 
ATOM      6  NZ  LYS A 131      24.538  25.677  17.695  1.00 27.40     0.618 N 
ENDBRANCH   4   5
ENDBRANCH   3   4
ENDBRANCH   2   3
ENDBRANCH   1   2
END_RES LYS A 131
BEGIN_RES LYS A 135
REMARK  4 active torsions:
REMARK  status: ('A' for Active; 'I' for Inactive)
REMARK    5  A    between atoms: CA   and  CB  
REMARK    6  A    between atoms: CB   and  CG  
REMARK    7  A    between atoms: CG   and  CD  
REMARK    8  A    between atoms: CD   and  CE  
ROOT
ATOM      7  CA  LYS A 135      33.193  34.663   9.290  1.00 25.02     0.186 C 
ENDROOT
BRANCH   7   8
ATOM      8  CB  LYS A 135      32.060  35.360  10.034  1.00 26.63     0.034 C 
BRANCH   8   9
ATOM      9  CG  LYS A 135      30.689  34.900   9.611  1.00 29.45     0.005 C 
BRANCH   9  10
ATOM     10  CD  LYS A 135      29.750  34.840  10.806  1.00 32.00     0.041 C 
BRANCH  10  11
ATOM     11  CE  LYS A 135      30.213  35.789  11.895  1.00 34.25     0.338 C 
ATOM     12  NZ  LYS A 135      30.292  35.097  13.211  1.00 35.99     0.618 N 
ENDBRANCH  10  11
ENDBRANCH   9  10
ENDBRANCH   8   9
ENDBRANCH   7   8
END_RES LYS A 135
