REMARK VINA RESULT:    -4.216      2.197      3.292
REMARK INTER + INTRA:         -21.321
REMARK INTER:                 -10.551
REMARK INTRA:                 -10.770
REMARK UNBOUND:               -10.944
REMARK SMILES CC(=O)N[C@@H]1[C@@H](O)C[C@](OC[C@H]2O[C@@H](O[C@H]3[C@H](O)[C@@H](O)[C@H](OCCN=[N+]=[N-])O[C@@H]3CO)[C@H](O)[C@@H](O)[C@H]2O)(C(=O)O)O[C@H]1C(O)[C@H](O)CNC(=O)OCc1cn(-c2cccnc2)nn1
REMARK SMILES IDX 9 1 8 2 6 3 5 4 42 5 41 6 10 7 11 8 12 9 14 10 13 11 32 12
REMARK SMILES IDX 34 13 36 14 15 15 16 16 29 17 28 18 21 19 17 20 19 21 30 22
REMARK SMILES IDX 31 23 22 25 23 26 24 27 25 28 26 29 27 30 18 31 20 33 33 35
REMARK SMILES IDX 35 37 37 39 38 41 39 42 40 43 7 45 43 47 44 48 45 50 46 51
REMARK SMILES IDX 47 53 48 54 49 55 50 57 51 58 52 59 53 60 54 61 63 62 55 63
REMARK SMILES IDX 62 64 56 65 57 66 61 67 58 68 60 69 59 70 4 71 2 72 1 74
REMARK SMILES IDX 3 75
REMARK H PARENT 31 24 18 32 20 34 33 36 35 38 37 40 40 44 7 46 44 49 46 52
REMARK H PARENT 48 56 4 73
REMARK Flexibility Score: inf
ROOT
ATOM      1  C   UNL     1      30.801  32.140  21.745  1.00  0.00     0.272 C 
ATOM      2  C   UNL     1      32.226  32.263  21.385  1.00  0.00     0.113 C 
ATOM      3  C   UNL     1      33.121  31.668  22.415  1.00  0.00     0.145 C 
ATOM      4  C   UNL     1      32.612  30.376  23.003  1.00  0.00     0.142 C 
ATOM      5  C   UNL     1      31.311  29.938  22.434  1.00  0.00     0.178 C 
ATOM      6  O   UNL     1      30.382  30.966  22.345  1.00  0.00    -0.332 OA
ENDROOT
BRANCH   1   7
ATOM      7  O   UNL     1      29.961  32.283  20.642  1.00  0.00    -0.338 OA
BRANCH   7   8
ATOM      8  C   UNL     1      30.553  32.531  19.445  1.00  0.00     0.199 C 
BRANCH   8   9
ATOM      9  C   UNL     1      29.429  32.586  18.392  1.00  0.00     0.179 C 
ATOM     10  C   UNL     1      30.745  33.466  16.666  1.00  0.00     0.282 C 
ATOM     11  O   UNL     1      29.662  33.571  17.511  1.00  0.00    -0.341 OA
ATOM     12  C   UNL     1      30.860  32.078  16.137  1.00  0.00     0.202 C 
ATOM     13  C   UNL     1      29.483  31.414  16.279  1.00  0.00     0.179 C 
ATOM     14  C   UNL     1      29.198  31.224  17.761  1.00  0.00     0.177 C 
BRANCH  10  15
ATOM     15  O   UNL     1      31.853  33.901  17.391  1.00  0.00    -0.341 OA
BRANCH  15  16
ATOM     16  C   UNL     1      32.337  35.110  17.013  1.00  0.00     0.184 C 
ATOM     17  C   UNL     1      31.723  36.302  17.680  1.00  0.00     0.178 C 
ATOM     18  O   UNL     1      32.661  37.333  17.634  1.00  0.00    -0.341 OA
ATOM     19  C   UNL     1      33.288  37.463  16.400  1.00  0.00     0.281 C 
ATOM     20  C   UNL     1      32.180  35.386  15.522  1.00  0.00     0.180 C 
ATOM     21  C   UNL     1      32.490  36.868  15.263  1.00  0.00     0.202 C 
BRANCH  17  22
ATOM     22  C   UNL     1      31.259  36.117  19.077  1.00  0.00     0.191 C 
BRANCH  22  23
ATOM     23  O   UNL     1      32.201  35.522  19.874  1.00  0.00    -0.394 OA
ATOM     24  H   UNL     1      32.747  36.240  20.284  1.00  0.00     0.210 HD
ENDBRANCH  22  23
ENDBRANCH  17  22
BRANCH  19  25
ATOM     25  O   UNL     1      34.553  36.950  16.373  1.00  0.00    -0.350 OA
BRANCH  25  26
ATOM     26  C   UNL     1      35.390  37.163  17.408  1.00  0.00     0.169 C 
BRANCH  26  27
ATOM     27  C   UNL     1      35.747  36.012  18.283  1.00  0.00     0.119 C 
BRANCH  27  28
ATOM     28  N   UNL     1      37.129  35.700  18.408  1.00  0.00    -0.092 NA
ATOM     29  N   UNL     1      37.536  34.612  18.865  1.00  0.00     0.001 N 
ATOM     30  N   UNL     1      37.820  33.812  19.773  1.00  0.00    -0.003 NA
ENDBRANCH  27  28
ENDBRANCH  26  27
ENDBRANCH  25  26
ENDBRANCH  19  25
BRANCH  20  31
ATOM     31  O   UNL     1      33.118  34.647  14.815  1.00  0.00    -0.387 OA
ATOM     32  H   UNL     1      32.922  34.604  13.843  1.00  0.00     0.211 HD
ENDBRANCH  20  31
BRANCH  21  33
ATOM     33  O   UNL     1      31.329  37.605  15.041  1.00  0.00    -0.385 OA
ATOM     34  H   UNL     1      30.970  37.355  14.154  1.00  0.00     0.211 HD
ENDBRANCH  21  33
ENDBRANCH  15  16
ENDBRANCH  10  15
BRANCH  12  35
ATOM     35  O   UNL     1      31.067  32.121  14.745  1.00  0.00    -0.385 OA
ATOM     36  H   UNL     1      31.045  31.178  14.398  1.00  0.00     0.211 HD
ENDBRANCH  12  35
BRANCH  13  37
ATOM     37  O   UNL     1      29.377  30.248  15.565  1.00  0.00    -0.387 OA
ATOM     38  H   UNL     1      29.815  29.510  16.058  1.00  0.00     0.211 HD
ENDBRANCH  13  37
BRANCH  14  39
ATOM     39  O   UNL     1      29.992  30.234  18.304  1.00  0.00    -0.387 OA
ATOM     40  H   UNL     1      30.766  30.677  18.744  1.00  0.00     0.211 HD
ENDBRANCH  14  39
ENDBRANCH   8   9
ENDBRANCH   7   8
ENDBRANCH   1   7
BRANCH   1  41
ATOM     41  C   UNL     1      30.484  33.289  22.681  1.00  0.00     0.364 C 
ATOM     42  O   UNL     1      30.354  34.427  22.200  1.00  0.00    -0.246 OA
BRANCH  41  43
ATOM     43  O   UNL     1      30.337  33.128  24.037  1.00  0.00    -0.477 OA
ATOM     44  H   UNL     1      30.040  33.850  24.682  1.00  0.00     0.296 HD
ENDBRANCH  41  43
ENDBRANCH   1  41
BRANCH   3  45
ATOM     45  O   UNL     1      34.368  31.456  21.781  1.00  0.00    -0.391 OA
ATOM     46  H   UNL     1      35.117  31.548  22.399  1.00  0.00     0.211 HD
ENDBRANCH   3  45
BRANCH   5  47
ATOM     47  C   UNL     1      31.388  29.138  21.178  1.00  0.00     0.176 C 
BRANCH  47  48
ATOM     48  O   UNL     1      30.062  28.946  20.710  1.00  0.00    -0.388 OA
ATOM     49  H   UNL     1      30.078  28.251  19.995  1.00  0.00     0.211 HD
ENDBRANCH  47  48
BRANCH  47  50
ATOM     50  C   UNL     1      31.986  27.770  21.283  1.00  0.00     0.165 C 
BRANCH  50  51
ATOM     51  O   UNL     1      31.390  27.096  20.132  1.00  0.00    -0.388 OA
ATOM     52  H   UNL     1      32.163  26.760  19.617  1.00  0.00     0.211 HD
ENDBRANCH  50  51
BRANCH  50  53
ATOM     53  C   UNL     1      31.499  26.934  22.422  1.00  0.00     0.154 C 
BRANCH  53  54
ATOM     54  N   UNL     1      30.151  26.468  22.356  1.00  0.00    -0.319 N 
ATOM     55  C   UNL     1      29.297  26.718  23.494  1.00  0.00     0.407 C 
ATOM     56  H   UNL     1      29.711  25.987  21.579  1.00  0.00     0.167 HD
ATOM     57  O   UNL     1      29.781  27.329  24.468  1.00  0.00    -0.225 OA
BRANCH  55  58
ATOM     58  O   UNL     1      27.989  26.302  23.518  1.00  0.00    -0.443 OA
BRANCH  58  59
ATOM     59  C   UNL     1      26.953  27.245  23.633  1.00  0.00     0.294 C 
BRANCH  59  60
ATOM     60  C   UNL     1      26.969  28.121  22.442  1.00  0.00     0.121 A 
ATOM     61  C   UNL     1      26.585  27.843  21.150  1.00  0.00     0.144 A 
ATOM     62  N   UNL     1      27.388  29.422  22.413  1.00  0.00    -0.131 NA
ATOM     63  N   UNL     1      26.768  28.935  20.390  1.00  0.00    -0.219 N 
ATOM     64  N   UNL     1      27.255  29.871  21.184  1.00  0.00    -0.062 NA
BRANCH  63  65
ATOM     65  C   UNL     1      26.522  29.159  19.005  1.00  0.00     0.085 A 
ATOM     66  C   UNL     1      25.682  30.153  18.550  1.00  0.00     0.031 A 
ATOM     67  C   UNL     1      27.120  28.370  18.041  1.00  0.00     0.139 A 
ATOM     68  C   UNL     1      25.454  30.346  17.206  1.00  0.00     0.022 A 
ATOM     69  N   UNL     1      26.887  28.570  16.720  1.00  0.00    -0.262 NA
ATOM     70  C   UNL     1      26.068  29.539  16.276  1.00  0.00     0.111 A 
ENDBRANCH  63  65
ENDBRANCH  59  60
ENDBRANCH  58  59
ENDBRANCH  55  58
ENDBRANCH  53  54
ENDBRANCH  50  53
ENDBRANCH  47  50
ENDBRANCH   5  47
BRANCH   4  71
ATOM     71  N   UNL     1      32.508  30.478  24.456  1.00  0.00    -0.348 N 
ATOM     72  C   UNL     1      32.935  29.469  25.353  1.00  0.00     0.217 C 
ATOM     73  H   UNL     1      32.094  31.343  24.900  1.00  0.00     0.163 HD
ATOM     74  C   UNL     1      32.802  29.617  26.836  1.00  0.00     0.114 C 
ATOM     75  O   UNL     1      33.447  28.404  24.912  1.00  0.00    -0.275 OA
ENDBRANCH   4  71
TORSDOF 30
BEGIN_RES LYS A 131
REMARK  4 active torsions:
REMARK  status: ('A' for Active; 'I' for Inactive)
REMARK    1  A    between atoms: CA   and  CB  
REMARK    2  A    between atoms: CB   and  CG  
REMARK    3  A    between atoms: CG   and  CD  
REMARK    4  A    between atoms: CD   and  CE  
ROOT
ATOM      1  CA  LYS A 131      29.867  25.555  16.977  1.00 20.52     0.186 C 
ENDROOT
BRANCH   1   2
ATOM      2  CB  LYS A 131      28.345  25.722  17.026  1.00 20.94     0.034 C 
BRANCH   2   3
ATOM      3  CG  LYS A 131      27.601  24.402  16.891  1.00 22.96     0.005 C 
BRANCH   3   4
ATOM      4  CD  LYS A 131      26.155  24.524  17.284  1.00 24.33     0.041 C 
BRANCH   4   5
ATOM      5  CE  LYS A 131      25.680  23.208  17.892  1.00 26.91     0.338 C 
ATOM      6  NZ  LYS A 131      25.537  23.336  19.361  1.00 27.40     0.618 N 
ENDBRANCH   4   5
ENDBRANCH   3   4
ENDBRANCH   2   3
ENDBRANCH   1   2
END_RES LYS A 131
BEGIN_RES LYS A 135
REMARK  4 active torsions:
REMARK  status: ('A' for Active; 'I' for Inactive)
REMARK    5  A    between atoms: CA   and  CB  
REMARK    6  A    between atoms: CB   and  CG  
REMARK    7  A    between atoms: CG   and  CD  
REMARK    8  A    between atoms: CD   and  CE  
ROOT
ATOM      7  CA  LYS A 135      33.193  34.663   9.290  1.00 25.02     0.186 C 
ENDROOT
BRANCH   7   8
ATOM      8  CB  LYS A 135      32.060  35.360  10.034  1.00 26.63     0.034 C 
BRANCH   8   9
ATOM      9  CG  LYS A 135      30.711  34.728   9.806  1.00 29.45     0.005 C 
BRANCH   9  10
ATOM     10  CD  LYS A 135      30.492  34.452   8.326  1.00 32.00     0.041 C 
BRANCH  10  11
ATOM     11  CE  LYS A 135      29.096  34.873   7.907  1.00 34.25     0.338 C 
ATOM     12  NZ  LYS A 135      28.069  34.333   8.841  1.00 35.99     0.618 N 
ENDBRANCH  10  11
ENDBRANCH   9  10
ENDBRANCH   8   9
ENDBRANCH   7   8
END_RES LYS A 135
