REMARK VINA RESULT:    -3.092      4.159     10.156
REMARK INTER + INTRA:         -22.424
REMARK INTER:                 -11.606
REMARK INTRA:                 -10.818
REMARK UNBOUND:               -13.729
REMARK SMILES CCOC(CCn1cc(COC(=O)NC[C@@H](O)C(O)[C@@H]2O[C@@](OC[C@H]3O[C@@H](O[C@H]4[C@H](O)[C@@H](O)[C@H](OCCN=[N+]=[N-])O[C@@H]4CO)[C@H](O)[C@@H](O)[C@H]3O)(C(=O)O)C[C@H](O)[C@H]2NC(C)=O)nn1)OCC
REMARK SMILES IDX 18 1 20 2 22 3 54 4 21 5 55 6 57 7 23 8 24 9 25 10 27 11
REMARK SMILES IDX 26 12 45 13 47 14 49 15 28 16 29 17 42 18 41 19 34 20 30 21
REMARK SMILES IDX 32 22 43 23 44 24 35 26 36 27 37 28 38 29 39 30 40 31 31 32
REMARK SMILES IDX 33 34 46 36 48 38 50 40 51 42 52 43 53 44 56 46 58 48 59 49
REMARK SMILES IDX 60 51 61 52 19 53 16 55 17 56 15 58 14 59 12 60 13 62 11 63
REMARK SMILES IDX 10 64 9 65 8 66 62 67 7 68 63 69 6 70 5 71 4 72 3 73 2 74
REMARK SMILES IDX 1 75 64 76 65 77 66 78
REMARK H PARENT 44 25 31 33 33 35 46 37 48 39 50 41 53 45 56 47 58 50 19 54
REMARK H PARENT 17 57 14 61
REMARK Flexibility Score: inf
ROOT
ATOM      1  C   UNL     1      29.895  37.836   9.796  1.00  0.00     0.176 C 
ENDROOT
BRANCH   1   2
ATOM      2  C   UNL     1      29.219  36.898   8.841  1.00  0.00     0.178 C 
ATOM      3  C   UNL     1      27.687  36.760   7.113  1.00  0.00     0.272 C 
ATOM      4  C   UNL     1      28.179  35.357   7.149  1.00  0.00     0.113 C 
ATOM      5  O   UNL     1      28.285  37.591   8.087  1.00  0.00    -0.332 OA
ATOM      6  C   UNL     1      28.277  34.729   8.496  1.00  0.00     0.145 C 
ATOM      7  C   UNL     1      28.411  35.818   9.568  1.00  0.00     0.142 C 
BRANCH   3   8
ATOM      8  O   UNL     1      26.369  36.979   7.141  1.00  0.00    -0.338 OA
BRANCH   8   9
ATOM      9  C   UNL     1      25.713  37.250   8.284  1.00  0.00     0.199 C 
BRANCH   9  10
ATOM     10  C   UNL     1      24.848  38.481   8.141  1.00  0.00     0.179 C 
ATOM     11  C   UNL     1      24.702  40.605   7.426  1.00  0.00     0.282 C 
ATOM     12  O   UNL     1      25.246  39.328   7.123  1.00  0.00    -0.341 OA
ATOM     13  C   UNL     1      23.236  40.543   7.209  1.00  0.00     0.202 C 
ATOM     14  C   UNL     1      22.641  39.448   8.062  1.00  0.00     0.179 C 
ATOM     15  C   UNL     1      23.372  38.134   7.972  1.00  0.00     0.177 C 
BRANCH  11  16
ATOM     16  O   UNL     1      25.376  41.571   6.671  1.00  0.00    -0.341 OA
BRANCH  16  17
ATOM     17  C   UNL     1      26.714  41.425   6.858  1.00  0.00     0.184 C 
ATOM     18  C   UNL     1      27.459  42.493   7.562  1.00  0.00     0.178 C 
ATOM     19  O   UNL     1      28.688  41.963   7.977  1.00  0.00    -0.341 OA
ATOM     20  C   UNL     1      29.499  41.686   6.867  1.00  0.00     0.281 C 
ATOM     21  C   UNL     1      27.447  41.291   5.485  1.00  0.00     0.180 C 
ATOM     22  C   UNL     1      28.829  40.753   5.882  1.00  0.00     0.202 C 
BRANCH  18  23
ATOM     23  C   UNL     1      26.721  42.970   8.777  1.00  0.00     0.191 C 
BRANCH  23  24
ATOM     24  O   UNL     1      26.861  42.099   9.858  1.00  0.00    -0.394 OA
ATOM     25  H   UNL     1      27.699  42.218  10.337  1.00  0.00     0.210 HD
ENDBRANCH  23  24
ENDBRANCH  18  23
BRANCH  20  26
ATOM     26  O   UNL     1      30.629  41.053   7.352  1.00  0.00    -0.350 OA
BRANCH  26  27
ATOM     27  C   UNL     1      31.763  41.803   7.435  1.00  0.00     0.169 C 
BRANCH  27  28
ATOM     28  C   UNL     1      32.616  41.602   6.210  1.00  0.00     0.119 C 
BRANCH  28  29
ATOM     29  N   UNL     1      32.578  40.193   5.825  1.00  0.00    -0.092 NA
ATOM     30  N   UNL     1      33.663  39.590   5.950  1.00  0.00     0.001 N 
ATOM     31  N   UNL     1      34.660  38.937   5.634  1.00  0.00    -0.003 NA
ENDBRANCH  28  29
ENDBRANCH  27  28
ENDBRANCH  26  27
ENDBRANCH  20  26
BRANCH  21  32
ATOM     32  O   UNL     1      26.801  40.408   4.662  1.00  0.00    -0.387 OA
ATOM     33  H   UNL     1      26.440  39.623   5.142  1.00  0.00     0.211 HD
ENDBRANCH  21  32
BRANCH  22  34
ATOM     34  O   UNL     1      29.635  40.600   4.786  1.00  0.00    -0.385 OA
ATOM     35  H   UNL     1      29.549  39.640   4.492  1.00  0.00     0.211 HD
ENDBRANCH  22  34
ENDBRANCH  16  17
ENDBRANCH  11  16
BRANCH  13  36
ATOM     36  O   UNL     1      22.606  41.729   7.620  1.00  0.00    -0.385 OA
ATOM     37  H   UNL     1      22.914  42.504   7.099  1.00  0.00     0.211 HD
ENDBRANCH  13  36
BRANCH  14  38
ATOM     38  O   UNL     1      21.273  39.309   7.850  1.00  0.00    -0.387 OA
ATOM     39  H   UNL     1      21.050  38.400   7.515  1.00  0.00     0.211 HD
ENDBRANCH  14  38
BRANCH  15  40
ATOM     40  O   UNL     1      23.185  37.501   6.753  1.00  0.00    -0.387 OA
ATOM     41  H   UNL     1      22.704  38.083   6.123  1.00  0.00     0.211 HD
ENDBRANCH  15  40
ENDBRANCH   9  10
ENDBRANCH   8   9
ENDBRANCH   3   8
BRANCH   3  42
ATOM     42  C   UNL     1      28.183  37.345   5.826  1.00  0.00     0.364 C 
ATOM     43  O   UNL     1      27.403  37.690   4.920  1.00  0.00    -0.246 OA
BRANCH  42  44
ATOM     44  O   UNL     1      29.542  37.528   5.592  1.00  0.00    -0.477 OA
ATOM     45  H   UNL     1      29.837  37.795   4.659  1.00  0.00     0.296 HD
ENDBRANCH  42  44
ENDBRANCH   3  42
BRANCH   6  46
ATOM     46  O   UNL     1      27.262  33.858   8.805  1.00  0.00    -0.391 OA
ATOM     47  H   UNL     1      26.898  33.964   9.719  1.00  0.00     0.211 HD
ENDBRANCH   6  46
BRANCH   7  48
ATOM     48  N   UNL     1      29.040  35.339  10.755  1.00  0.00    -0.348 N 
ATOM     49  C   UNL     1      28.215  34.990  11.861  1.00  0.00     0.217 C 
ATOM     50  H   UNL     1      30.068  35.230  10.853  1.00  0.00     0.163 HD
ATOM     51  C   UNL     1      28.841  34.489  13.112  1.00  0.00     0.114 C 
ATOM     52  O   UNL     1      26.944  35.098  11.800  1.00  0.00    -0.275 OA
ENDBRANCH   7  48
ENDBRANCH   1   2
BRANCH   1  53
ATOM     53  O   UNL     1      30.850  38.548   9.047  1.00  0.00    -0.388 OA
ATOM     54  H   UNL     1      30.439  39.371   8.651  1.00  0.00     0.211 HD
ENDBRANCH   1  53
BRANCH   1  55
ATOM     55  C   UNL     1      28.865  38.846  10.262  1.00  0.00     0.165 C 
BRANCH  55  56
ATOM     56  O   UNL     1      29.195  40.109   9.866  1.00  0.00    -0.388 OA
ATOM     57  H   UNL     1      28.869  40.829  10.462  1.00  0.00     0.211 HD
ENDBRANCH  55  56
BRANCH  55  58
ATOM     58  C   UNL     1      28.708  38.782  11.756  1.00  0.00     0.154 C 
BRANCH  58  59
ATOM     59  N   UNL     1      27.494  38.183  12.229  1.00  0.00    -0.319 N 
ATOM     60  C   UNL     1      26.225  38.780  12.184  1.00  0.00     0.407 C 
ATOM     61  H   UNL     1      27.597  37.206  12.643  1.00  0.00     0.167 HD
ATOM     62  O   UNL     1      26.022  39.911  11.711  1.00  0.00    -0.225 OA
BRANCH  60  63
ATOM     63  O   UNL     1      25.095  38.098  12.690  1.00  0.00    -0.443 OA
BRANCH  63  64
ATOM     64  C   UNL     1      23.789  38.504  12.256  1.00  0.00     0.294 C 
BRANCH  64  65
ATOM     65  C   UNL     1      23.175  37.383  11.500  1.00  0.00     0.120 A 
ATOM     66  C   UNL     1      21.878  37.284  11.056  1.00  0.00     0.138 A 
ATOM     67  N   UNL     1      23.791  36.259  11.125  1.00  0.00    -0.132 NA
ATOM     68  N   UNL     1      21.767  36.094  10.430  1.00  0.00    -0.252 N 
ATOM     69  N   UNL     1      22.945  35.499  10.489  1.00  0.00    -0.067 NA
BRANCH  68  70
ATOM     70  C   UNL     1      20.561  35.613   9.822  1.00  0.00     0.151 C 
BRANCH  70  71
ATOM     71  C   UNL     1      20.665  35.335   8.350  1.00  0.00     0.086 C 
BRANCH  71  72
ATOM     72  C   UNL     1      19.401  35.841   7.656  1.00  0.00     0.251 C 
BRANCH  72  73
ATOM     73  O   UNL     1      19.415  37.218   7.769  1.00  0.00    -0.353 OA
BRANCH  73  74
ATOM     74  C   UNL     1      18.182  37.786   7.473  1.00  0.00     0.160 C 
ATOM     75  C   UNL     1      17.741  38.750   8.557  1.00  0.00     0.035 C 
ENDBRANCH  73  74
ENDBRANCH  72  73
BRANCH  72  76
ATOM     76  O   UNL     1      18.278  35.214   8.106  1.00  0.00    -0.353 OA
BRANCH  76  77
ATOM     77  C   UNL     1      18.116  33.897   7.771  1.00  0.00     0.160 C 
ATOM     78  C   UNL     1      17.547  33.149   8.954  1.00  0.00     0.035 C 
ENDBRANCH  76  77
ENDBRANCH  72  76
ENDBRANCH  71  72
ENDBRANCH  70  71
ENDBRANCH  68  70
ENDBRANCH  64  65
ENDBRANCH  63  64
ENDBRANCH  60  63
ENDBRANCH  58  59
ENDBRANCH  55  58
ENDBRANCH   1  55
TORSDOF 36
BEGIN_RES LYS A 131
REMARK  4 active torsions:
REMARK  status: ('A' for Active; 'I' for Inactive)
REMARK    1  A    between atoms: CA   and  CB  
REMARK    2  A    between atoms: CB   and  CG  
REMARK    3  A    between atoms: CG   and  CD  
REMARK    4  A    between atoms: CD   and  CE  
ROOT
ATOM      1  CA  LYS A 131      29.867  25.555  16.977  1.00 20.52     0.186 C 
ENDROOT
BRANCH   1   2
ATOM      2  CB  LYS A 131      28.345  25.722  17.026  1.00 20.94     0.034 C 
BRANCH   2   3
ATOM      3  CG  LYS A 131      27.602  24.399  16.918  1.00 22.96     0.005 C 
BRANCH   3   4
ATOM      4  CD  LYS A 131      26.551  24.252  17.984  1.00 24.33     0.041 C 
BRANCH   4   5
ATOM      5  CE  LYS A 131      25.295  23.633  17.378  1.00 26.91     0.338 C 
ATOM      6  NZ  LYS A 131      24.371  24.691  16.907  1.00 27.40     0.618 N 
ENDBRANCH   4   5
ENDBRANCH   3   4
ENDBRANCH   2   3
ENDBRANCH   1   2
END_RES LYS A 131
BEGIN_RES LYS A 135
REMARK  4 active torsions:
REMARK  status: ('A' for Active; 'I' for Inactive)
REMARK    5  A    between atoms: CA   and  CB  
REMARK    6  A    between atoms: CB   and  CG  
REMARK    7  A    between atoms: CG   and  CD  
REMARK    8  A    between atoms: CD   and  CE  
ROOT
ATOM      7  CA  LYS A 135      33.193  34.663   9.290  1.00 25.02     0.186 C 
ENDROOT
BRANCH   7   8
ATOM      8  CB  LYS A 135      32.060  35.360  10.034  1.00 26.63     0.034 C 
BRANCH   8   9
ATOM      9  CG  LYS A 135      32.237  35.369  11.530  1.00 29.45     0.005 C 
BRANCH   9  10
ATOM     10  CD  LYS A 135      32.271  36.794  12.059  1.00 32.00     0.041 C 
BRANCH  10  11
ATOM     11  CE  LYS A 135      31.908  36.826  13.531  1.00 34.25     0.338 C 
ATOM     12  NZ  LYS A 135      32.347  35.580  14.218  1.00 35.99     0.618 N 
ENDBRANCH  10  11
ENDBRANCH   9  10
ENDBRANCH   8   9
ENDBRANCH   7   8
END_RES LYS A 135
