REMARK VINA RESULT:    -5.324      4.099      7.598
REMARK INTER + INTRA:         -23.146
REMARK INTER:                 -12.858
REMARK INTRA:                 -10.288
REMARK UNBOUND:                -9.729
REMARK SMILES CC(=O)N[C@@H]1[C@@H](O)C[C@](OC[C@H]2O[C@@H](O[C@H]3[C@H](O)[C@@H](O)[C@H](OCCN=[N+]=[N-])O[C@@H]3CO)[C@H](O)[C@@H](O)[C@H]2O)(C(=O)O)O[C@H]1C(O)[C@H](O)CNC(=O)OCc1cn(-c2ncccc2C#N)nn1
REMARK SMILES IDX 9 1 8 2 6 3 5 4 42 5 41 6 10 7 11 8 12 9 14 10 13 11 32 12
REMARK SMILES IDX 34 13 36 14 15 15 16 16 29 17 28 18 21 19 17 20 19 21 30 22
REMARK SMILES IDX 31 23 22 25 23 26 24 27 25 28 26 29 27 30 18 31 20 33 33 35
REMARK SMILES IDX 35 37 37 39 38 41 39 42 40 43 7 45 43 47 44 48 45 50 46 51
REMARK SMILES IDX 47 53 48 54 49 55 50 57 51 58 52 59 53 60 54 61 65 62 55 63
REMARK SMILES IDX 64 64 56 65 57 66 61 67 58 68 60 69 59 70 62 71 63 72 4 73
REMARK SMILES IDX 2 74 1 76 3 77
REMARK H PARENT 31 24 18 32 20 34 33 36 35 38 37 40 40 44 7 46 44 49 46 52
REMARK H PARENT 48 56 4 75
REMARK Flexibility Score: inf
ROOT
ATOM      1  C   UNL     1      31.092  35.537  13.680  1.00  0.00     0.272 C 
ATOM      2  C   UNL     1      32.381  35.128  13.106  1.00  0.00     0.113 C 
ATOM      3  C   UNL     1      33.490  35.117  14.084  1.00  0.00     0.145 C 
ATOM      4  C   UNL     1      33.126  34.846  15.507  1.00  0.00     0.142 C 
ATOM      5  C   UNL     1      31.683  34.525  15.776  1.00  0.00     0.178 C 
ATOM      6  O   UNL     1      30.819  35.049  14.937  1.00  0.00    -0.332 OA
ENDROOT
BRANCH   1   7
ATOM      7  O   UNL     1      29.948  35.362  13.010  1.00  0.00    -0.338 OA
BRANCH   7   8
ATOM      8  C   UNL     1      29.011  34.466  12.994  1.00  0.00     0.199 C 
BRANCH   8   9
ATOM      9  C   UNL     1      27.674  35.209  12.900  1.00  0.00     0.179 C 
ATOM     10  C   UNL     1      25.481  35.006  12.360  1.00  0.00     0.282 C 
ATOM     11  O   UNL     1      26.817  34.549  12.062  1.00  0.00    -0.341 OA
ATOM     12  C   UNL     1      25.042  34.440  13.662  1.00  0.00     0.202 C 
ATOM     13  C   UNL     1      26.073  34.725  14.759  1.00  0.00     0.179 C 
ATOM     14  C   UNL     1      27.105  35.631  14.204  1.00  0.00     0.177 C 
BRANCH  10  15
ATOM     15  O   UNL     1      24.639  34.700  11.349  1.00  0.00    -0.341 OA
BRANCH  15  16
ATOM     16  C   UNL     1      24.510  35.650  10.375  1.00  0.00     0.184 C 
ATOM     17  C   UNL     1      24.468  37.065  11.024  1.00  0.00     0.178 C 
ATOM     18  O   UNL     1      23.177  37.569  10.873  1.00  0.00    -0.341 OA
ATOM     19  C   UNL     1      22.232  36.670  11.388  1.00  0.00     0.281 C 
ATOM     20  C   UNL     1      23.285  35.506   9.510  1.00  0.00     0.180 C 
ATOM     21  C   UNL     1      22.030  35.567  10.388  1.00  0.00     0.202 C 
BRANCH  17  22
ATOM     22  C   UNL     1      25.500  37.922  10.365  1.00  0.00     0.191 C 
BRANCH  22  23
ATOM     23  O   UNL     1      26.145  37.250   9.310  1.00  0.00    -0.394 OA
ATOM     24  H   UNL     1      26.287  37.838   8.530  1.00  0.00     0.210 HD
ENDBRANCH  22  23
ENDBRANCH  17  22
BRANCH  19  25
ATOM     25  O   UNL     1      21.087  37.395  11.629  1.00  0.00    -0.350 OA
BRANCH  25  26
ATOM     26  C   UNL     1      20.199  37.334  10.539  1.00  0.00     0.169 C 
BRANCH  26  27
ATOM     27  C   UNL     1      20.093  38.688   9.868  1.00  0.00     0.119 C 
BRANCH  27  28
ATOM     28  N   UNL     1      20.864  38.590   8.621  1.00  0.00    -0.092 NA
ATOM     29  N   UNL     1      21.701  39.511   8.433  1.00  0.00     0.001 N 
ATOM     30  N   UNL     1      22.265  40.532   8.011  1.00  0.00    -0.003 NA
ENDBRANCH  27  28
ENDBRANCH  26  27
ENDBRANCH  25  26
ENDBRANCH  19  25
BRANCH  20  31
ATOM     31  O   UNL     1      23.206  36.460   8.522  1.00  0.00    -0.387 OA
ATOM     32  H   UNL     1      22.963  37.362   8.787  1.00  0.00     0.211 HD
ENDBRANCH  20  31
BRANCH  21  33
ATOM     33  O   UNL     1      21.822  34.333  10.997  1.00  0.00    -0.385 OA
ATOM     34  H   UNL     1      20.994  33.950  10.598  1.00  0.00     0.211 HD
ENDBRANCH  21  33
ENDBRANCH  15  16
ENDBRANCH  10  15
BRANCH  12  35
ATOM     35  O   UNL     1      23.823  34.970  14.046  1.00  0.00    -0.385 OA
ATOM     36  H   UNL     1      23.602  35.715  13.395  1.00  0.00     0.211 HD
ENDBRANCH  12  35
BRANCH  13  37
ATOM     37  O   UNL     1      26.631  33.499  15.192  1.00  0.00    -0.387 OA
ATOM     38  H   UNL     1      27.569  33.416  14.860  1.00  0.00     0.211 HD
ENDBRANCH  13  37
BRANCH  14  39
ATOM     39  O   UNL     1      28.139  35.920  15.100  1.00  0.00    -0.387 OA
ATOM     40  H   UNL     1      28.498  35.064  15.499  1.00  0.00     0.211 HD
ENDBRANCH  14  39
ENDBRANCH   8   9
ENDBRANCH   7   8
ENDBRANCH   1   7
BRANCH   1  41
ATOM     41  C   UNL     1      31.202  37.049  13.871  1.00  0.00     0.364 C 
ATOM     42  O   UNL     1      30.745  37.666  14.818  1.00  0.00    -0.246 OA
BRANCH  41  43
ATOM     43  O   UNL     1      31.877  37.807  12.893  1.00  0.00    -0.477 OA
ATOM     44  H   UNL     1      32.307  37.388  12.083  1.00  0.00     0.296 HD
ENDBRANCH  41  43
ENDBRANCH   1  41
BRANCH   3  45
ATOM     45  O   UNL     1      34.526  34.270  13.649  1.00  0.00    -0.391 OA
ATOM     46  H   UNL     1      34.884  34.720  12.816  1.00  0.00     0.211 HD
ENDBRANCH   3  45
BRANCH   5  47
ATOM     47  C   UNL     1      31.480  32.998  15.992  1.00  0.00     0.176 C 
BRANCH  47  48
ATOM     48  O   UNL     1      31.578  32.410  14.696  1.00  0.00    -0.388 OA
ATOM     49  H   UNL     1      31.282  31.484  14.712  1.00  0.00     0.211 HD
ENDBRANCH  47  48
BRANCH  47  50
ATOM     50  C   UNL     1      30.212  32.590  16.538  1.00  0.00     0.165 C 
BRANCH  50  51
ATOM     51  O   UNL     1      29.268  33.610  16.817  1.00  0.00    -0.388 OA
ATOM     52  H   UNL     1      28.348  33.197  16.845  1.00  0.00     0.211 HD
ENDBRANCH  50  51
BRANCH  50  53
ATOM     53  C   UNL     1      30.289  31.832  17.824  1.00  0.00     0.154 C 
BRANCH  53  54
ATOM     54  N   UNL     1      29.342  30.833  18.123  1.00  0.00    -0.319 N 
ATOM     55  C   UNL     1      28.078  30.944  18.700  1.00  0.00     0.407 C 
ATOM     56  H   UNL     1      29.622  29.806  17.879  1.00  0.00     0.167 HD
ATOM     57  O   UNL     1      27.672  32.091  19.009  1.00  0.00    -0.225 OA
BRANCH  55  58
ATOM     58  O   UNL     1      27.302  29.786  18.910  1.00  0.00    -0.443 OA
BRANCH  58  59
ATOM     59  C   UNL     1      27.087  28.917  17.838  1.00  0.00     0.294 C 
BRANCH  59  60
ATOM     60  C   UNL     1      26.427  29.559  16.717  1.00  0.00     0.121 A 
ATOM     61  C   UNL     1      25.193  29.287  16.258  1.00  0.00     0.146 A 
ATOM     62  N   UNL     1      26.976  30.532  15.868  1.00  0.00    -0.131 NA
ATOM     63  N   UNL     1      24.936  30.019  15.183  1.00  0.00    -0.201 N 
ATOM     64  N   UNL     1      26.016  30.722  15.013  1.00  0.00    -0.060 NA
BRANCH  63  65
ATOM     65  C   UNL     1      23.770  30.129  14.394  1.00  0.00     0.173 A 
ATOM     66  N   UNL     1      23.628  29.191  13.421  1.00  0.00    -0.236 NA
ATOM     67  C   UNL     1      22.894  31.217  14.505  1.00  0.00     0.097 A 
ATOM     68  C   UNL     1      22.540  29.355  12.485  1.00  0.00     0.113 A 
ATOM     69  C   UNL     1      21.885  31.312  13.571  1.00  0.00     0.025 A 
ATOM     70  C   UNL     1      21.751  30.394  12.616  1.00  0.00     0.022 A 
BRANCH  67  71
ATOM     71  C   UNL     1      22.917  32.179  15.560  1.00  0.00     0.103 C 
ATOM     72  N   UNL     1      22.922  32.983  16.464  1.00  0.00    -0.192 NA
ENDBRANCH  67  71
ENDBRANCH  63  65
ENDBRANCH  59  60
ENDBRANCH  58  59
ENDBRANCH  55  58
ENDBRANCH  53  54
ENDBRANCH  50  53
ENDBRANCH  47  50
ENDBRANCH   5  47
BRANCH   4  73
ATOM     73  N   UNL     1      33.716  35.919  16.277  1.00  0.00    -0.348 N 
ATOM     74  C   UNL     1      35.072  36.174  16.501  1.00  0.00     0.217 C 
ATOM     75  H   UNL     1      33.042  36.617  16.760  1.00  0.00     0.163 HD
ATOM     76  C   UNL     1      35.508  37.387  17.301  1.00  0.00     0.114 C 
ATOM     77  O   UNL     1      36.015  35.466  16.083  1.00  0.00    -0.275 OA
ENDBRANCH   4  73
TORSDOF 31
BEGIN_RES LYS A 131
REMARK  4 active torsions:
REMARK  status: ('A' for Active; 'I' for Inactive)
REMARK    1  A    between atoms: CA   and  CB  
REMARK    2  A    between atoms: CB   and  CG  
REMARK    3  A    between atoms: CG   and  CD  
REMARK    4  A    between atoms: CD   and  CE  
ROOT
ATOM      1  CA  LYS A 131      29.867  25.555  16.977  1.00 20.52     0.186 C 
ENDROOT
BRANCH   1   2
ATOM      2  CB  LYS A 131      28.345  25.722  17.026  1.00 20.94     0.034 C 
BRANCH   2   3
ATOM      3  CG  LYS A 131      27.601  24.401  16.903  1.00 22.96     0.005 C 
BRANCH   3   4
ATOM      4  CD  LYS A 131      26.540  24.248  17.957  1.00 24.33     0.041 C 
BRANCH   4   5
ATOM      5  CE  LYS A 131      25.249  23.757  17.312  1.00 26.91     0.338 C 
ATOM      6  NZ  LYS A 131      24.748  22.548  18.008  1.00 27.40     0.618 N 
ENDBRANCH   4   5
ENDBRANCH   3   4
ENDBRANCH   2   3
ENDBRANCH   1   2
END_RES LYS A 131
BEGIN_RES LYS A 135
REMARK  4 active torsions:
REMARK  status: ('A' for Active; 'I' for Inactive)
REMARK    5  A    between atoms: CA   and  CB  
REMARK    6  A    between atoms: CB   and  CG  
REMARK    7  A    between atoms: CG   and  CD  
REMARK    8  A    between atoms: CD   and  CE  
ROOT
ATOM      7  CA  LYS A 135      33.193  34.663   9.290  1.00 25.02     0.186 C 
ENDROOT
BRANCH   7   8
ATOM      8  CB  LYS A 135      32.060  35.360  10.034  1.00 26.63     0.034 C 
BRANCH   8   9
ATOM      9  CG  LYS A 135      30.772  35.417   9.254  1.00 29.45     0.005 C 
BRANCH   9  10
ATOM     10  CD  LYS A 135      30.174  34.027   9.102  1.00 32.00     0.041 C 
BRANCH  10  11
ATOM     11  CE  LYS A 135      28.659  34.095   9.109  1.00 34.25     0.338 C 
ATOM     12  NZ  LYS A 135      28.150  34.844   7.926  1.00 35.99     0.618 N 
ENDBRANCH  10  11
ENDBRANCH   9  10
ENDBRANCH   8   9
ENDBRANCH   7   8
END_RES LYS A 135
