REMARK VINA RESULT:    -4.758      2.572      7.415
REMARK INTER + INTRA:         -23.202
REMARK INTER:                 -12.416
REMARK INTRA:                 -10.785
REMARK UNBOUND:               -11.213
REMARK SMILES CC(=O)N[C@@H]1[C@@H](O)C[C@](OC[C@H]2O[C@@H](O[C@H]3[C@H](O)[C@@H](O)[C@H](OCCN=[N+]=[N-])O[C@@H]3CO)[C@H](O)[C@@H](O)[C@H]2O)(C(=O)O)O[C@H]1C(O)[C@H](O)CNC(=O)OCc1cn(CC2=CC[C@H]3C[C@@H]2C3(C)C)nn1
REMARK SMILES IDX 9 1 8 2 6 3 5 4 42 5 41 6 10 7 11 8 12 9 14 10 13 11 32 12
REMARK SMILES IDX 34 13 36 14 15 15 16 16 29 17 28 18 21 19 17 20 19 21 30 22
REMARK SMILES IDX 31 23 22 25 23 26 24 27 25 28 26 29 27 30 18 31 20 33 33 35
REMARK SMILES IDX 35 37 37 39 38 41 39 42 40 43 7 45 43 47 44 48 45 50 46 51
REMARK SMILES IDX 47 53 48 54 49 55 50 57 51 58 52 59 53 60 54 61 67 62 55 63
REMARK SMILES IDX 66 64 56 65 57 66 58 67 62 68 59 69 61 70 63 71 60 72 64 73
REMARK SMILES IDX 65 74 4 75 2 76 1 78 3 79
REMARK H PARENT 31 24 18 32 20 34 33 36 35 38 37 40 40 44 7 46 44 49 46 52
REMARK H PARENT 48 56 4 77
REMARK Flexibility Score: inf
ROOT
ATOM      1  C   UNL     1      23.261  36.858   9.517  1.00  0.00     0.272 C 
ATOM      2  C   UNL     1      22.976  35.541   8.872  1.00  0.00     0.113 C 
ATOM      3  C   UNL     1      21.626  35.593   8.136  1.00  0.00     0.145 C 
ATOM      4  C   UNL     1      20.517  35.844   9.092  1.00  0.00     0.142 C 
ATOM      5  C   UNL     1      21.148  36.321  10.384  1.00  0.00     0.178 C 
ATOM      6  O   UNL     1      22.062  37.291  10.180  1.00  0.00    -0.332 OA
ENDROOT
BRANCH   1   7
ATOM      7  O   UNL     1      23.571  37.868   8.718  1.00  0.00    -0.338 OA
BRANCH   7   8
ATOM      8  C   UNL     1      24.552  38.730   8.796  1.00  0.00     0.199 C 
BRANCH   8   9
ATOM      9  C   UNL     1      25.818  38.695   8.051  1.00  0.00     0.179 C 
ATOM     10  C   UNL     1      28.081  38.476   8.479  1.00  0.00     0.282 C 
ATOM     11  O   UNL     1      26.806  38.223   8.970  1.00  0.00    -0.341 OA
ATOM     12  C   UNL     1      28.280  38.216   7.053  1.00  0.00     0.202 C 
ATOM     13  C   UNL     1      27.123  37.854   6.209  1.00  0.00     0.179 C 
ATOM     14  C   UNL     1      25.869  37.570   6.998  1.00  0.00     0.177 C 
BRANCH  10  15
ATOM     15  O   UNL     1      28.916  37.632   9.235  1.00  0.00    -0.341 OA
BRANCH  15  16
ATOM     16  C   UNL     1      29.505  38.284  10.303  1.00  0.00     0.184 C 
ATOM     17  C   UNL     1      30.999  38.141  10.238  1.00  0.00     0.178 C 
ATOM     18  O   UNL     1      31.649  38.435  11.424  1.00  0.00    -0.341 OA
ATOM     19  C   UNL     1      30.895  39.016  12.402  1.00  0.00     0.281 C 
ATOM     20  C   UNL     1      29.053  37.551  11.571  1.00  0.00     0.180 C 
ATOM     21  C   UNL     1      29.658  38.230  12.762  1.00  0.00     0.202 C 
BRANCH  17  22
ATOM     22  C   UNL     1      31.515  39.086   9.147  1.00  0.00     0.191 C 
BRANCH  22  23
ATOM     23  O   UNL     1      31.562  38.376   7.956  1.00  0.00    -0.394 OA
ATOM     24  H   UNL     1      30.678  38.495   7.491  1.00  0.00     0.210 HD
ENDBRANCH  22  23
ENDBRANCH  17  22
BRANCH  19  25
ATOM     25  O   UNL     1      30.516  40.322  12.066  1.00  0.00    -0.350 OA
BRANCH  25  26
ATOM     26  C   UNL     1      30.933  41.248  13.024  1.00  0.00     0.169 C 
BRANCH  26  27
ATOM     27  C   UNL     1      29.650  41.894  13.552  1.00  0.00     0.119 C 
BRANCH  27  28
ATOM     28  N   UNL     1      29.600  41.752  14.992  1.00  0.00    -0.092 NA
ATOM     29  N   UNL     1      29.726  40.675  15.545  1.00  0.00     0.001 N 
ATOM     30  N   UNL     1      29.719  39.549  16.057  1.00  0.00    -0.003 NA
ENDBRANCH  27  28
ENDBRANCH  26  27
ENDBRANCH  25  26
ENDBRANCH  19  25
BRANCH  20  31
ATOM     31  O   UNL     1      27.654  37.625  11.686  1.00  0.00    -0.387 OA
ATOM     32  H   UNL     1      27.289  38.255  11.027  1.00  0.00     0.211 HD
ENDBRANCH  20  31
BRANCH  21  33
ATOM     33  O   UNL     1      29.930  37.345  13.804  1.00  0.00    -0.385 OA
ATOM     34  H   UNL     1      29.076  36.888  14.049  1.00  0.00     0.211 HD
ENDBRANCH  21  33
ENDBRANCH  15  16
ENDBRANCH  10  15
BRANCH  12  35
ATOM     35  O   UNL     1      28.869  39.380   6.490  1.00  0.00    -0.385 OA
ATOM     36  H   UNL     1      29.628  39.700   7.041  1.00  0.00     0.211 HD
ENDBRANCH  12  35
BRANCH  13  37
ATOM     37  O   UNL     1      27.427  36.830   5.306  1.00  0.00    -0.387 OA
ATOM     38  H   UNL     1      28.392  36.865   5.064  1.00  0.00     0.211 HD
ENDBRANCH  13  37
BRANCH  14  39
ATOM     39  O   UNL     1      26.076  36.363   7.698  1.00  0.00    -0.387 OA
ATOM     40  H   UNL     1      26.859  35.886   7.326  1.00  0.00     0.211 HD
ENDBRANCH  14  39
ENDBRANCH   8   9
ENDBRANCH   7   8
ENDBRANCH   1   7
BRANCH   1  41
ATOM     41  C   UNL     1      24.173  36.676  10.675  1.00  0.00     0.364 C 
ATOM     42  O   UNL     1      23.820  37.087  11.836  1.00  0.00    -0.246 OA
BRANCH  41  43
ATOM     43  O   UNL     1      25.393  36.093  10.589  1.00  0.00    -0.477 OA
ATOM     44  H   UNL     1      26.029  35.867  11.335  1.00  0.00     0.296 HD
ENDBRANCH  41  43
ENDBRANCH   1  41
BRANCH   3  45
ATOM     45  O   UNL     1      21.736  36.733   7.326  1.00  0.00    -0.391 OA
ATOM     46  H   UNL     1      21.297  37.482   7.800  1.00  0.00     0.211 HD
ENDBRANCH   3  45
BRANCH   5  47
ATOM     47  C   UNL     1      20.079  36.883  11.324  1.00  0.00     0.176 C 
BRANCH  47  48
ATOM     48  O   UNL     1      20.055  38.252  11.263  1.00  0.00    -0.388 OA
ATOM     49  H   UNL     1      20.416  38.640  10.418  1.00  0.00     0.211 HD
ENDBRANCH  47  48
BRANCH  47  50
ATOM     50  C   UNL     1      20.301  36.402  12.727  1.00  0.00     0.165 C 
BRANCH  50  51
ATOM     51  O   UNL     1      21.475  37.073  13.175  1.00  0.00    -0.388 OA
ATOM     52  H   UNL     1      21.275  37.250  14.148  1.00  0.00     0.211 HD
ENDBRANCH  50  51
BRANCH  50  53
ATOM     53  C   UNL     1      20.622  34.943  12.778  1.00  0.00     0.154 C 
BRANCH  53  54
ATOM     54  N   UNL     1      22.008  34.632  12.923  1.00  0.00    -0.319 N 
ATOM     55  C   UNL     1      22.410  33.363  13.404  1.00  0.00     0.407 C 
ATOM     56  H   UNL     1      22.725  35.353  12.659  1.00  0.00     0.167 HD
ATOM     57  O   UNL     1      21.562  32.513  13.705  1.00  0.00    -0.225 OA
BRANCH  55  58
ATOM     58  O   UNL     1      23.748  33.051  13.545  1.00  0.00    -0.443 OA
BRANCH  58  59
ATOM     59  C   UNL     1      24.801  33.533  12.780  1.00  0.00     0.294 C 
BRANCH  59  60
ATOM     60  C   UNL     1      25.899  34.169  13.564  1.00  0.00     0.120 A 
ATOM     61  C   UNL     1      26.339  33.843  14.825  1.00  0.00     0.138 A 
ATOM     62  N   UNL     1      26.683  35.206  13.157  1.00  0.00    -0.132 NA
ATOM     63  N   UNL     1      27.347  34.656  15.150  1.00  0.00    -0.248 N 
ATOM     64  N   UNL     1      27.534  35.468  14.128  1.00  0.00    -0.067 NA
BRANCH  63  65
ATOM     65  C   UNL     1      28.118  34.657  16.407  1.00  0.00     0.177 C 
BRANCH  65  66
ATOM     66  C   UNL     1      29.438  34.035  16.057  1.00  0.00    -0.049 C 
ATOM     67  C   UNL     1      29.576  32.695  16.011  1.00  0.00    -0.025 C 
ATOM     68  C   UNL     1      30.630  34.837  15.745  1.00  0.00     0.023 C 
ATOM     69  C   UNL     1      30.925  32.120  15.817  1.00  0.00     0.031 C 
ATOM     70  C   UNL     1      31.296  34.176  14.530  1.00  0.00     0.013 C 
ATOM     71  C   UNL     1      31.790  34.350  16.560  1.00  0.00    -0.026 C 
ATOM     72  C   UNL     1      31.923  33.208  15.542  1.00  0.00    -0.000 C 
ATOM     73  C   UNL     1      33.020  35.222  16.490  1.00  0.00     0.012 C 
ATOM     74  C   UNL     1      31.515  33.921  17.961  1.00  0.00     0.012 C 
ENDBRANCH  65  66
ENDBRANCH  63  65
ENDBRANCH  59  60
ENDBRANCH  58  59
ENDBRANCH  55  58
ENDBRANCH  53  54
ENDBRANCH  50  53
ENDBRANCH  47  50
ENDBRANCH   5  47
BRANCH   4  75
ATOM     75  N   UNL     1      19.668  34.747   9.401  1.00  0.00    -0.348 N 
ATOM     76  C   UNL     1      18.437  34.442   8.802  1.00  0.00     0.217 C 
ATOM     77  H   UNL     1      20.017  34.099  10.166  1.00  0.00     0.163 HD
ATOM     78  C   UNL     1      17.648  33.256   9.223  1.00  0.00     0.114 C 
ATOM     79  O   UNL     1      18.041  35.209   7.907  1.00  0.00    -0.275 OA
ENDBRANCH   4  75
TORSDOF 31
BEGIN_RES LYS A 131
REMARK  4 active torsions:
REMARK  status: ('A' for Active; 'I' for Inactive)
REMARK    1  A    between atoms: CA   and  CB  
REMARK    2  A    between atoms: CB   and  CG  
REMARK    3  A    between atoms: CG   and  CD  
REMARK    4  A    between atoms: CD   and  CE  
ROOT
ATOM      1  CA  LYS A 131      29.867  25.555  16.977  1.00 20.52     0.186 C 
ENDROOT
BRANCH   1   2
ATOM      2  CB  LYS A 131      28.345  25.722  17.026  1.00 20.94     0.034 C 
BRANCH   2   3
ATOM      3  CG  LYS A 131      27.602  24.400  16.916  1.00 22.96     0.005 C 
BRANCH   3   4
ATOM      4  CD  LYS A 131      26.162  24.523  17.333  1.00 24.33     0.041 C 
BRANCH   4   5
ATOM      5  CE  LYS A 131      25.923  23.693  18.590  1.00 26.91     0.338 C 
ATOM      6  NZ  LYS A 131      24.568  23.093  18.566  1.00 27.40     0.618 N 
ENDBRANCH   4   5
ENDBRANCH   3   4
ENDBRANCH   2   3
ENDBRANCH   1   2
END_RES LYS A 131
BEGIN_RES LYS A 135
REMARK  4 active torsions:
REMARK  status: ('A' for Active; 'I' for Inactive)
REMARK    5  A    between atoms: CA   and  CB  
REMARK    6  A    between atoms: CB   and  CG  
REMARK    7  A    between atoms: CG   and  CD  
REMARK    8  A    between atoms: CD   and  CE  
ROOT
ATOM      7  CA  LYS A 135      33.193  34.663   9.290  1.00 25.02     0.186 C 
ENDROOT
BRANCH   7   8
ATOM      8  CB  LYS A 135      32.060  35.360  10.034  1.00 26.63     0.034 C 
BRANCH   8   9
ATOM      9  CG  LYS A 135      30.777  34.570  10.055  1.00 29.45     0.005 C 
BRANCH   9  10
ATOM     10  CD  LYS A 135      30.218  34.416   8.649  1.00 32.00     0.041 C 
BRANCH  10  11
ATOM     11  CE  LYS A 135      28.716  34.209   8.692  1.00 34.25     0.338 C 
ATOM     12  NZ  LYS A 135      28.224  34.147  10.096  1.00 35.99     0.618 N 
ENDBRANCH  10  11
ENDBRANCH   9  10
ENDBRANCH   8   9
ENDBRANCH   7   8
END_RES LYS A 135
