REMARK VINA RESULT:    -4.355      3.162      9.128
REMARK INTER + INTRA:         -21.664
REMARK INTER:                  -8.850
REMARK INTRA:                 -12.814
REMARK UNBOUND:               -10.943
REMARK SMILES CC(=O)N[C@@H]1[C@@H](O)C[C@](OC[C@H]2O[C@@H](O[C@H]3[C@H](O)[C@@H](O)[C@H](OCCN=[N+]=[N-])O[C@@H]3CO)[C@H](O)[C@@H](O)[C@H]2O)(C(=O)O)O[C@H]1C(O)[C@H](O)CNC(=O)OCc1cn([C@@H]2C[C@H]3CC[C@@H](C2)N3C)nn1
REMARK SMILES IDX 9 1 8 2 6 3 5 4 42 5 41 6 10 7 11 8 12 9 14 10 13 11 32 12
REMARK SMILES IDX 34 13 36 14 15 15 16 16 29 17 28 18 21 19 17 20 19 21 30 22
REMARK SMILES IDX 31 23 22 25 23 26 24 27 25 28 26 29 27 30 18 31 20 33 33 35
REMARK SMILES IDX 35 37 37 39 38 41 39 42 40 43 7 45 43 47 44 48 45 50 46 51
REMARK SMILES IDX 47 53 48 54 49 55 50 57 51 58 52 59 53 60 54 61 66 62 55 63
REMARK SMILES IDX 65 64 56 65 62 66 57 67 61 68 58 69 63 70 60 71 59 72 64 73
REMARK SMILES IDX 4 74 2 75 1 77 3 78
REMARK H PARENT 31 24 18 32 20 34 33 36 35 38 37 40 40 44 7 46 44 49 46 52
REMARK H PARENT 48 56 4 76
REMARK Flexibility Score: inf
ROOT
ATOM      1  C   UNL     1      29.681  32.780  15.453  1.00  0.00     0.272 C 
ATOM      2  C   UNL     1      31.115  32.577  15.736  1.00  0.00     0.113 C 
ATOM      3  C   UNL     1      31.501  33.095  17.114  1.00  0.00     0.145 C 
ATOM      4  C   UNL     1      31.044  34.567  17.249  1.00  0.00     0.142 C 
ATOM      5  C   UNL     1      29.697  34.769  16.679  1.00  0.00     0.178 C 
ATOM      6  O   UNL     1      29.102  33.536  16.510  1.00  0.00    -0.332 OA
ENDROOT
BRANCH   1   7
ATOM      7  O   UNL     1      28.856  31.755  15.160  1.00  0.00    -0.338 OA
BRANCH   7   8
ATOM      8  C   UNL     1      28.553  30.683  15.818  1.00  0.00     0.199 C 
BRANCH   8   9
ATOM      9  C   UNL     1      27.141  30.139  15.664  1.00  0.00     0.179 C 
ATOM     10  C   UNL     1      25.823  29.720  17.565  1.00  0.00     0.282 C 
ATOM     11  O   UNL     1      26.881  29.345  16.790  1.00  0.00    -0.341 OA
ATOM     12  C   UNL     1      24.535  29.845  16.823  1.00  0.00     0.202 C 
ATOM     13  C   UNL     1      24.748  30.749  15.659  1.00  0.00     0.179 C 
ATOM     14  C   UNL     1      26.144  31.246  15.518  1.00  0.00     0.177 C 
BRANCH  10  15
ATOM     15  O   UNL     1      26.098  30.785  18.405  1.00  0.00    -0.341 OA
BRANCH  15  16
ATOM     16  C   UNL     1      26.411  30.426  19.699  1.00  0.00     0.184 C 
ATOM     17  C   UNL     1      25.531  31.077  20.691  1.00  0.00     0.178 C 
ATOM     18  O   UNL     1      25.738  30.588  21.985  1.00  0.00    -0.341 OA
ATOM     19  C   UNL     1      26.925  29.865  22.117  1.00  0.00     0.281 C 
ATOM     20  C   UNL     1      27.837  30.982  20.031  1.00  0.00     0.180 C 
ATOM     21  C   UNL     1      28.109  30.502  21.420  1.00  0.00     0.202 C 
BRANCH  17  22
ATOM     22  C   UNL     1      24.073  31.118  20.395  1.00  0.00     0.191 C 
BRANCH  22  23
ATOM     23  O   UNL     1      23.577  29.831  20.202  1.00  0.00    -0.394 OA
ATOM     24  H   UNL     1      22.858  29.862  19.524  1.00  0.00     0.210 HD
ENDBRANCH  22  23
ENDBRANCH  17  22
BRANCH  19  25
ATOM     25  O   UNL     1      26.758  28.534  21.855  1.00  0.00    -0.350 OA
BRANCH  25  26
ATOM     26  C   UNL     1      25.687  27.877  22.347  1.00  0.00     0.169 C 
BRANCH  26  27
ATOM     27  C   UNL     1      25.690  26.406  22.150  1.00  0.00     0.119 C 
BRANCH  27  28
ATOM     28  N   UNL     1      25.395  25.959  20.833  1.00  0.00    -0.092 NA
ATOM     29  N   UNL     1      24.898  26.675  19.958  1.00  0.00     0.001 N 
ATOM     30  N   UNL     1      24.060  26.991  19.108  1.00  0.00    -0.003 NA
ENDBRANCH  27  28
ENDBRANCH  26  27
ENDBRANCH  25  26
ENDBRANCH  19  25
BRANCH  20  31
ATOM     31  O   UNL     1      28.776  30.477  19.168  1.00  0.00    -0.387 OA
ATOM     32  H   UNL     1      29.324  29.778  19.615  1.00  0.00     0.211 HD
ENDBRANCH  20  31
BRANCH  21  33
ATOM     33  O   UNL     1      28.583  31.549  22.219  1.00  0.00    -0.385 OA
ATOM     34  H   UNL     1      28.089  32.351  21.996  1.00  0.00     0.211 HD
ENDBRANCH  21  33
ENDBRANCH  15  16
ENDBRANCH  10  15
BRANCH  12  35
ATOM     35  O   UNL     1      24.136  28.570  16.370  1.00  0.00    -0.385 OA
ATOM     36  H   UNL     1      23.305  28.330  16.860  1.00  0.00     0.211 HD
ENDBRANCH  12  35
BRANCH  13  37
ATOM     37  O   UNL     1      23.886  31.869  15.727  1.00  0.00    -0.387 OA
ATOM     38  H   UNL     1      22.946  31.581  15.627  1.00  0.00     0.211 HD
ENDBRANCH  13  37
BRANCH  14  39
ATOM     39  O   UNL     1      26.360  32.323  16.386  1.00  0.00    -0.387 OA
ATOM     40  H   UNL     1      27.259  32.163  16.797  1.00  0.00     0.211 HD
ENDBRANCH  14  39
ENDBRANCH   8   9
ENDBRANCH   7   8
ENDBRANCH   1   7
BRANCH   1  41
ATOM     41  C   UNL     1      29.592  33.669  14.229  1.00  0.00     0.364 C 
ATOM     42  O   UNL     1      28.542  34.165  13.788  1.00  0.00    -0.246 OA
BRANCH  41  43
ATOM     43  O   UNL     1      30.754  33.980  13.518  1.00  0.00    -0.477 OA
ATOM     44  H   UNL     1      30.834  33.727  12.525  1.00  0.00     0.296 HD
ENDBRANCH  41  43
ENDBRANCH   1  41
BRANCH   3  45
ATOM     45  O   UNL     1      31.053  32.319  18.160  1.00  0.00    -0.391 OA
ATOM     46  H   UNL     1      30.527  31.553  17.777  1.00  0.00     0.211 HD
ENDBRANCH   3  45
BRANCH   5  47
ATOM     47  C   UNL     1      28.736  35.423  17.742  1.00  0.00     0.176 C 
BRANCH  47  48
ATOM     48  O   UNL     1      29.655  36.227  18.544  1.00  0.00    -0.388 OA
ATOM     49  H   UNL     1      30.470  35.649  18.648  1.00  0.00     0.211 HD
ENDBRANCH  47  48
BRANCH  47  50
ATOM     50  C   UNL     1      28.236  34.433  18.740  1.00  0.00     0.165 C 
BRANCH  50  51
ATOM     51  O   UNL     1      26.884  34.229  18.589  1.00  0.00    -0.388 OA
ATOM     52  H   UNL     1      26.620  33.377  18.206  1.00  0.00     0.211 HD
ENDBRANCH  50  51
BRANCH  50  53
ATOM     53  C   UNL     1      28.675  34.646  20.140  1.00  0.00     0.154 C 
BRANCH  53  54
ATOM     54  N   UNL     1      29.834  33.808  20.451  1.00  0.00    -0.319 N 
ATOM     55  C   UNL     1      31.006  34.361  20.978  1.00  0.00     0.407 C 
ATOM     56  H   UNL     1      29.758  32.796  20.272  1.00  0.00     0.167 HD
ATOM     57  O   UNL     1      31.049  35.610  21.183  1.00  0.00    -0.225 OA
BRANCH  55  58
ATOM     58  O   UNL     1      32.129  33.601  21.288  1.00  0.00    -0.443 OA
BRANCH  58  59
ATOM     59  C   UNL     1      32.115  32.700  22.388  1.00  0.00     0.294 C 
BRANCH  59  60
ATOM     60  C   UNL     1      31.959  31.299  21.885  1.00  0.00     0.120 A 
ATOM     61  C   UNL     1      32.377  30.139  22.503  1.00  0.00     0.138 A 
ATOM     62  N   UNL     1      31.391  30.914  20.747  1.00  0.00    -0.132 NA
ATOM     63  N   UNL     1      32.058  29.088  21.735  1.00  0.00    -0.249 N 
ATOM     64  N   UNL     1      31.448  29.610  20.654  1.00  0.00    -0.067 NA
BRANCH  63  65
ATOM     65  C   UNL     1      32.277  27.676  21.936  1.00  0.00     0.112 C 
ATOM     66  C   UNL     1      32.627  27.314  23.350  1.00  0.00     0.046 C 
ATOM     67  C   UNL     1      30.962  26.948  21.619  1.00  0.00     0.046 C 
ATOM     68  C   UNL     1      31.435  27.485  24.255  1.00  0.00     0.058 C 
ATOM     69  C   UNL     1      29.889  27.385  22.596  1.00  0.00     0.058 C 
ATOM     70  N   UNL     1      30.474  28.317  23.544  1.00  0.00    -0.300 NA
ATOM     71  C   UNL     1      30.690  26.193  24.464  1.00  0.00     0.021 C 
ATOM     72  C   UNL     1      29.528  26.231  23.511  1.00  0.00     0.021 C 
ATOM     73  C   UNL     1      29.521  28.800  24.497  1.00  0.00     0.105 C 
ENDBRANCH  63  65
ENDBRANCH  59  60
ENDBRANCH  58  59
ENDBRANCH  55  58
ENDBRANCH  53  54
ENDBRANCH  50  53
ENDBRANCH  47  50
ENDBRANCH   5  47
BRANCH   4  74
ATOM     74  N   UNL     1      32.110  35.395  16.669  1.00  0.00    -0.348 N 
ATOM     75  C   UNL     1      33.229  35.826  17.476  1.00  0.00     0.217 C 
ATOM     76  H   UNL     1      32.134  35.716  15.683  1.00  0.00     0.163 HD
ATOM     77  C   UNL     1      34.331  36.652  16.975  1.00  0.00     0.114 C 
ATOM     78  O   UNL     1      33.227  35.455  18.669  1.00  0.00    -0.275 OA
ENDBRANCH   4  74
TORSDOF 30
BEGIN_RES LYS A 131
REMARK  4 active torsions:
REMARK  status: ('A' for Active; 'I' for Inactive)
REMARK    1  A    between atoms: CA   and  CB  
REMARK    2  A    between atoms: CB   and  CG  
REMARK    3  A    between atoms: CG   and  CD  
REMARK    4  A    between atoms: CD   and  CE  
ROOT
ATOM      1  CA  LYS A 131      29.867  25.555  16.977  1.00 20.52     0.186 C 
ENDROOT
BRANCH   1   2
ATOM      2  CB  LYS A 131      28.345  25.722  17.026  1.00 20.94     0.034 C 
BRANCH   2   3
ATOM      3  CG  LYS A 131      27.601  24.401  16.900  1.00 22.96     0.005 C 
BRANCH   3   4
ATOM      4  CD  LYS A 131      26.149  24.532  17.265  1.00 24.33     0.041 C 
BRANCH   4   5
ATOM      5  CE  LYS A 131      25.580  23.155  17.592  1.00 26.91     0.338 C 
ATOM      6  NZ  LYS A 131      24.182  23.044  17.112  1.00 27.40     0.618 N 
ENDBRANCH   4   5
ENDBRANCH   3   4
ENDBRANCH   2   3
ENDBRANCH   1   2
END_RES LYS A 131
BEGIN_RES LYS A 135
REMARK  4 active torsions:
REMARK  status: ('A' for Active; 'I' for Inactive)
REMARK    5  A    between atoms: CA   and  CB  
REMARK    6  A    between atoms: CB   and  CG  
REMARK    7  A    between atoms: CG   and  CD  
REMARK    8  A    between atoms: CD   and  CE  
ROOT
ATOM      7  CA  LYS A 135      33.193  34.663   9.290  1.00 25.02     0.186 C 
ENDROOT
BRANCH   7   8
ATOM      8  CB  LYS A 135      32.060  35.360  10.034  1.00 26.63     0.034 C 
BRANCH   8   9
ATOM      9  CG  LYS A 135      30.791  35.474   9.229  1.00 29.45     0.005 C 
BRANCH   9  10
ATOM     10  CD  LYS A 135      30.214  34.098   8.938  1.00 32.00     0.041 C 
BRANCH  10  11
ATOM     11  CE  LYS A 135      28.708  34.102   9.121  1.00 34.25     0.338 C 
ATOM     12  NZ  LYS A 135      28.035  34.830   8.010  1.00 35.99     0.618 N 
ENDBRANCH  10  11
ENDBRANCH   9  10
ENDBRANCH   8   9
ENDBRANCH   7   8
END_RES LYS A 135
