REMARK VINA RESULT:    -4.254      4.152      7.589
REMARK INTER + INTRA:         -22.477
REMARK INTER:                 -12.775
REMARK INTRA:                  -9.702
REMARK UNBOUND:               -11.507
REMARK SMILES COc1ccc(Cn2cc(COC(=O)NC[C@@H](O)C(O)[C@@H]3O[C@@](OC[C@H]4O[C@@H](O[C@H]5[C@H](O)[C@@H](O)[C@H](OCCN=[N+]=[N-])O[C@@H]5CO)[C@H](O)[C@@H](O)[C@H]4O)(C(=O)O)C[C@H](O)[C@H]3NC(C)=O)nn2)cc1
REMARK SMILES IDX 23 1 55 2 56 3 58 4 21 5 22 6 24 7 25 8 26 9 28 10 27 11
REMARK SMILES IDX 46 12 48 13 50 14 29 15 30 16 43 17 42 18 35 19 31 20 33 21
REMARK SMILES IDX 44 22 45 23 36 25 37 26 38 27 39 28 40 29 41 30 32 31 34 33
REMARK SMILES IDX 47 35 49 37 51 39 52 41 53 42 54 43 57 45 19 47 20 48 17 50
REMARK SMILES IDX 18 51 16 53 15 54 13 55 14 57 12 58 11 59 10 60 9 61 63 62
REMARK SMILES IDX 8 63 64 64 7 65 6 66 5 67 65 68 4 69 66 70 3 71 2 72 1 73
REMARK SMILES IDX 59 74 60 75 61 77 62 78
REMARK H PARENT 45 24 32 32 34 34 47 36 49 38 51 40 54 44 57 46 20 49 18 52
REMARK H PARENT 15 56 59 76
REMARK Flexibility Score: inf
ROOT
ATOM      1  C   UNL     1      28.716  36.494  13.392  1.00  0.00     0.272 C 
ATOM      2  C   UNL     1      29.630  35.687  12.493  1.00  0.00     0.113 C 
ATOM      3  C   UNL     1      30.995  35.552  13.137  1.00  0.00     0.145 C 
ATOM      4  C   UNL     1      30.943  35.174  14.588  1.00  0.00     0.142 C 
ATOM      5  C   UNL     1      29.529  35.099  15.141  1.00  0.00     0.178 C 
ATOM      6  O   UNL     1      28.737  36.132  14.677  1.00  0.00    -0.332 OA
ENDROOT
BRANCH   1   7
ATOM      7  O   UNL     1      27.518  36.740  12.813  1.00  0.00    -0.338 OA
BRANCH   7   8
ATOM      8  C   UNL     1      26.998  35.992  11.833  1.00  0.00     0.199 C 
BRANCH   8   9
ATOM      9  C   UNL     1      26.118  36.777  10.885  1.00  0.00     0.179 C 
ATOM     10  C   UNL     1      24.624  36.369   9.216  1.00  0.00     0.282 C 
ATOM     11  O   UNL     1      24.988  35.990  10.527  1.00  0.00    -0.341 OA
ATOM     12  C   UNL     1      24.698  37.839   9.024  1.00  0.00     0.202 C 
ATOM     13  C   UNL     1      24.790  38.678  10.253  1.00  0.00     0.179 C 
ATOM     14  C   UNL     1      25.578  38.061  11.392  1.00  0.00     0.177 C 
BRANCH  10  15
ATOM     15  O   UNL     1      23.494  35.730   8.792  1.00  0.00    -0.341 OA
BRANCH  15  16
ATOM     16  C   UNL     1      22.288  36.249   9.216  1.00  0.00     0.184 C 
ATOM     17  C   UNL     1      21.449  35.312  10.051  1.00  0.00     0.178 C 
ATOM     18  O   UNL     1      20.092  35.591   9.898  1.00  0.00    -0.341 OA
ATOM     19  C   UNL     1      19.838  36.954   9.666  1.00  0.00     0.281 C 
ATOM     20  C   UNL     1      21.451  36.413   7.933  1.00  0.00     0.180 C 
ATOM     21  C   UNL     1      20.345  37.373   8.273  1.00  0.00     0.202 C 
BRANCH  17  22
ATOM     22  C   UNL     1      21.739  35.342  11.518  1.00  0.00     0.191 C 
BRANCH  22  23
ATOM     23  O   UNL     1      22.493  36.475  11.818  1.00  0.00    -0.394 OA
ATOM     24  H   UNL     1      23.455  36.218  11.733  1.00  0.00     0.210 HD
ENDBRANCH  22  23
ENDBRANCH  17  22
BRANCH  19  25
ATOM     25  O   UNL     1      20.310  37.788  10.627  1.00  0.00    -0.350 OA
BRANCH  25  26
ATOM     26  C   UNL     1      19.433  38.458  11.423  1.00  0.00     0.169 C 
BRANCH  26  27
ATOM     27  C   UNL     1      18.532  37.661  12.290  1.00  0.00     0.119 C 
BRANCH  27  28
ATOM     28  N   UNL     1      18.949  37.556  13.645  1.00  0.00    -0.092 NA
ATOM     29  N   UNL     1      20.122  37.385  14.009  1.00  0.00     0.001 N 
ATOM     30  N   UNL     1      21.246  37.644  14.497  1.00  0.00    -0.003 NA
ENDBRANCH  27  28
ENDBRANCH  26  27
ENDBRANCH  25  26
ENDBRANCH  19  25
BRANCH  20  31
ATOM     31  O   UNL     1      22.212  36.770   6.856  1.00  0.00    -0.387 OA
ATOM     32  H   UNL     1      22.681  35.978   6.442  1.00  0.00     0.211 HD
ENDBRANCH  20  31
BRANCH  21  33
ATOM     33  O   UNL     1      19.323  37.334   7.325  1.00  0.00    -0.385 OA
ATOM     34  H   UNL     1      18.941  38.245   7.224  1.00  0.00     0.211 HD
ENDBRANCH  21  33
ENDBRANCH  15  16
ENDBRANCH  10  15
BRANCH  12  35
ATOM     35  O   UNL     1      25.721  38.203   8.110  1.00  0.00    -0.385 OA
ATOM     36  H   UNL     1      25.848  39.200   8.142  1.00  0.00     0.211 HD
ENDBRANCH  12  35
BRANCH  13  37
ATOM     37  O   UNL     1      23.513  39.101  10.694  1.00  0.00    -0.387 OA
ATOM     38  H   UNL     1      23.531  39.132  11.685  1.00  0.00     0.211 HD
ENDBRANCH  13  37
BRANCH  14  39
ATOM     39  O   UNL     1      24.802  37.920  12.537  1.00  0.00    -0.387 OA
ATOM     40  H   UNL     1      24.134  37.196  12.450  1.00  0.00     0.211 HD
ENDBRANCH  14  39
ENDBRANCH   8   9
ENDBRANCH   7   8
ENDBRANCH   1   7
BRANCH   1  41
ATOM     41  C   UNL     1      29.344  37.922  13.271  1.00  0.00     0.364 C 
ATOM     42  O   UNL     1      29.676  38.539  14.305  1.00  0.00    -0.246 OA
BRANCH  41  43
ATOM     43  O   UNL     1      29.553  38.535  12.084  1.00  0.00    -0.477 OA
ATOM     44  H   UNL     1      29.395  39.477  11.827  1.00  0.00     0.296 HD
ENDBRANCH  41  43
ENDBRANCH   1  41
BRANCH   3  45
ATOM     45  O   UNL     1      31.616  34.507  12.390  1.00  0.00    -0.391 OA
ATOM     46  H   UNL     1      32.392  34.863  11.887  1.00  0.00     0.211 HD
ENDBRANCH   3  45
BRANCH   5  47
ATOM     47  C   UNL     1      29.049  33.713  14.955  1.00  0.00     0.176 C 
BRANCH  47  48
ATOM     48  O   UNL     1      27.902  33.394  15.739  1.00  0.00    -0.388 OA
ATOM     49  H   UNL     1      27.366  32.751  15.226  1.00  0.00     0.211 HD
ENDBRANCH  47  48
BRANCH  47  50
ATOM     50  C   UNL     1      30.005  32.636  15.547  1.00  0.00     0.165 C 
BRANCH  50  51
ATOM     51  O   UNL     1      29.962  31.408  15.019  1.00  0.00    -0.388 OA
ATOM     52  H   UNL     1      30.367  30.740  15.626  1.00  0.00     0.211 HD
ENDBRANCH  50  51
BRANCH  50  53
ATOM     53  C   UNL     1      29.726  32.603  17.066  1.00  0.00     0.154 C 
BRANCH  53  54
ATOM     54  N   UNL     1      29.070  31.408  17.484  1.00  0.00    -0.319 N 
ATOM     55  C   UNL     1      27.899  31.494  18.305  1.00  0.00     0.407 C 
ATOM     56  H   UNL     1      29.417  30.482  17.213  1.00  0.00     0.167 HD
ATOM     57  O   UNL     1      27.468  32.632  18.642  1.00  0.00    -0.225 OA
BRANCH  55  58
ATOM     58  O   UNL     1      27.285  30.318  18.697  1.00  0.00    -0.443 OA
BRANCH  58  59
ATOM     59  C   UNL     1      26.844  29.383  17.694  1.00  0.00     0.294 C 
BRANCH  59  60
ATOM     60  C   UNL     1      25.888  30.079  16.808  1.00  0.00     0.120 A 
ATOM     61  C   UNL     1      26.049  30.354  15.447  1.00  0.00     0.138 A 
ATOM     62  N   UNL     1      24.695  30.589  17.136  1.00  0.00    -0.132 NA
ATOM     63  N   UNL     1      24.955  31.009  15.042  1.00  0.00    -0.248 N 
ATOM     64  N   UNL     1      24.140  31.144  16.078  1.00  0.00    -0.067 NA
BRANCH  63  65
ATOM     65  C   UNL     1      24.701  31.489  13.707  1.00  0.00     0.181 C 
BRANCH  65  66
ATOM     66  C   UNL     1      23.468  30.855  13.191  1.00  0.00    -0.026 A 
ATOM     67  C   UNL     1      22.331  31.630  12.980  1.00  0.00     0.009 A 
ATOM     68  C   UNL     1      23.387  29.521  12.890  1.00  0.00     0.009 A 
ATOM     69  C   UNL     1      21.161  31.095  12.486  1.00  0.00     0.047 A 
ATOM     70  C   UNL     1      22.199  28.978  12.388  1.00  0.00     0.047 A 
ATOM     71  C   UNL     1      21.084  29.743  12.181  1.00  0.00     0.118 A 
BRANCH  71  72
ATOM     72  O   UNL     1      19.889  29.255  11.688  1.00  0.00    -0.497 OA
ATOM     73  C   UNL     1      19.265  28.080  12.118  1.00  0.00     0.278 C 
ENDBRANCH  71  72
ENDBRANCH  65  66
ENDBRANCH  63  65
ENDBRANCH  59  60
ENDBRANCH  58  59
ENDBRANCH  55  58
ENDBRANCH  53  54
ENDBRANCH  50  53
ENDBRANCH  47  50
ENDBRANCH   5  47
BRANCH   4  74
ATOM     74  N   UNL     1      31.824  35.929  15.452  1.00  0.00    -0.348 N 
ATOM     75  C   UNL     1      33.233  35.748  15.527  1.00  0.00     0.217 C 
ATOM     76  H   UNL     1      31.419  36.643  16.075  1.00  0.00     0.163 HD
ATOM     77  C   UNL     1      34.056  36.593  16.473  1.00  0.00     0.114 C 
ATOM     78  O   UNL     1      33.790  34.886  14.806  1.00  0.00    -0.275 OA
ENDBRANCH   4  74
TORSDOF 32
BEGIN_RES LYS A 131
REMARK  4 active torsions:
REMARK  status: ('A' for Active; 'I' for Inactive)
REMARK    1  A    between atoms: CA   and  CB  
REMARK    2  A    between atoms: CB   and  CG  
REMARK    3  A    between atoms: CG   and  CD  
REMARK    4  A    between atoms: CD   and  CE  
ROOT
ATOM      1  CA  LYS A 131      29.867  25.555  16.977  1.00 20.52     0.186 C 
ENDROOT
BRANCH   1   2
ATOM      2  CB  LYS A 131      28.345  25.722  17.026  1.00 20.94     0.034 C 
BRANCH   2   3
ATOM      3  CG  LYS A 131      27.602  24.398  16.939  1.00 22.96     0.005 C 
BRANCH   3   4
ATOM      4  CD  LYS A 131      26.612  24.229  18.058  1.00 24.33     0.041 C 
BRANCH   4   5
ATOM      5  CE  LYS A 131      25.239  23.906  17.478  1.00 26.91     0.338 C 
ATOM      6  NZ  LYS A 131      25.001  22.443  17.491  1.00 27.40     0.618 N 
ENDBRANCH   4   5
ENDBRANCH   3   4
ENDBRANCH   2   3
ENDBRANCH   1   2
END_RES LYS A 131
BEGIN_RES LYS A 135
REMARK  4 active torsions:
REMARK  status: ('A' for Active; 'I' for Inactive)
REMARK    5  A    between atoms: CA   and  CB  
REMARK    6  A    between atoms: CB   and  CG  
REMARK    7  A    between atoms: CG   and  CD  
REMARK    8  A    between atoms: CD   and  CE  
ROOT
ATOM      7  CA  LYS A 135      33.193  34.663   9.290  1.00 25.02     0.186 C 
ENDROOT
BRANCH   7   8
ATOM      8  CB  LYS A 135      32.060  35.360  10.034  1.00 26.63     0.034 C 
BRANCH   8   9
ATOM      9  CG  LYS A 135      30.824  35.564   9.196  1.00 29.45     0.005 C 
BRANCH   9  10
ATOM     10  CD  LYS A 135      30.142  34.234   8.914  1.00 32.00     0.041 C 
BRANCH  10  11
ATOM     11  CE  LYS A 135      28.687  34.451   8.543  1.00 34.25     0.338 C 
ATOM     12  NZ  LYS A 135      27.785  33.663   9.427  1.00 35.99     0.618 N 
ENDBRANCH  10  11
ENDBRANCH   9  10
ENDBRANCH   8   9
ENDBRANCH   7   8
END_RES LYS A 135
