REMARK VINA RESULT:    -4.892      3.727      9.711
REMARK INTER + INTRA:         -21.164
REMARK INTER:                 -10.471
REMARK INTRA:                 -10.693
REMARK UNBOUND:                -9.122
REMARK SMILES CC(=O)N[C@@H]1[C@@H](O)C[C@](OC[C@H]2O[C@@H](O[C@H]3[C@H](O)[C@@H](O)[C@H](OCCN=[N+]=[N-])O[C@@H]3CO)[C@H](O)[C@@H](O)[C@H]2O)(C(=O)O)O[C@H]1C(O)[C@H](O)CNC(=O)OCc1cn(-c2ccc(Cl)cc2)nn1
REMARK SMILES IDX 9 1 8 2 6 3 5 4 42 5 41 6 10 7 11 8 12 9 14 10 13 11 32 12
REMARK SMILES IDX 34 13 36 14 15 15 16 16 29 17 28 18 21 19 17 20 19 21 30 22
REMARK SMILES IDX 31 23 22 25 23 26 24 27 25 28 26 29 27 30 18 31 20 33 33 35
REMARK SMILES IDX 35 37 37 39 38 41 39 42 40 43 7 45 43 47 44 48 45 50 46 51
REMARK SMILES IDX 47 53 48 54 49 55 50 57 51 58 52 59 53 60 54 61 64 62 55 63
REMARK SMILES IDX 63 64 56 65 57 66 62 67 58 68 61 69 59 70 60 71 4 72 2 73
REMARK SMILES IDX 1 75 3 76
REMARK H PARENT 31 24 18 32 20 34 33 36 35 38 37 40 40 44 7 46 44 49 46 52
REMARK H PARENT 48 56 4 74
REMARK Flexibility Score: inf
ROOT
ATOM      1  C   UNL     1      28.495  39.576   9.805  1.00  0.00     0.272 C 
ATOM      2  C   UNL     1      27.297  39.832  10.623  1.00  0.00     0.113 C 
ATOM      3  C   UNL     1      26.088  39.011  10.428  1.00  0.00     0.145 C 
ATOM      4  C   UNL     1      26.378  37.861   9.488  1.00  0.00     0.142 C 
ATOM      5  C   UNL     1      27.149  38.504   8.315  1.00  0.00     0.178 C 
ATOM      6  O   UNL     1      28.460  38.568   8.878  1.00  0.00    -0.332 OA
ENDROOT
BRANCH   1   7
ATOM      7  O   UNL     1      29.567  39.321  10.705  1.00  0.00    -0.338 OA
BRANCH   7   8
ATOM      8  C   UNL     1      29.805  37.989  10.905  1.00  0.00     0.199 C 
BRANCH   8   9
ATOM      9  C   UNL     1      29.673  37.602  12.375  1.00  0.00     0.179 C 
ATOM     10  C   UNL     1      29.831  35.501  13.422  1.00  0.00     0.282 C 
ATOM     11  O   UNL     1      29.169  36.350  12.534  1.00  0.00    -0.341 OA
ATOM     12  C   UNL     1      31.217  35.337  12.955  1.00  0.00     0.202 C 
ATOM     13  C   UNL     1      31.915  36.690  12.957  1.00  0.00     0.179 C 
ATOM     14  C   UNL     1      30.964  37.833  13.127  1.00  0.00     0.177 C 
BRANCH  10  15
ATOM     15  O   UNL     1      29.025  34.364  13.437  1.00  0.00    -0.341 OA
BRANCH  15  16
ATOM     16  C   UNL     1      28.570  33.945  14.612  1.00  0.00     0.184 C 
ATOM     17  C   UNL     1      27.276  34.552  15.022  1.00  0.00     0.178 C 
ATOM     18  O   UNL     1      26.706  33.856  16.083  1.00  0.00    -0.341 OA
ATOM     19  C   UNL     1      27.453  33.792  17.214  1.00  0.00     0.281 C 
ATOM     20  C   UNL     1      29.530  34.185  15.796  1.00  0.00     0.180 C 
ATOM     21  C   UNL     1      28.782  34.436  17.056  1.00  0.00     0.202 C 
BRANCH  17  22
ATOM     22  C   UNL     1      26.241  34.730  13.955  1.00  0.00     0.191 C 
BRANCH  22  23
ATOM     23  O   UNL     1      26.361  35.955  13.299  1.00  0.00    -0.394 OA
ATOM     24  H   UNL     1      27.237  36.352  13.515  1.00  0.00     0.210 HD
ENDBRANCH  22  23
ENDBRANCH  17  22
BRANCH  19  25
ATOM     25  O   UNL     1      27.664  32.458  17.581  1.00  0.00    -0.350 OA
BRANCH  25  26
ATOM     26  C   UNL     1      28.218  32.358  18.848  1.00  0.00     0.169 C 
BRANCH  26  27
ATOM     27  C   UNL     1      29.116  31.172  19.026  1.00  0.00     0.119 C 
BRANCH  27  28
ATOM     28  N   UNL     1      30.462  31.596  18.646  1.00  0.00    -0.092 NA
ATOM     29  N   UNL     1      30.910  32.571  19.275  1.00  0.00     0.001 N 
ATOM     30  N   UNL     1      31.518  33.290  20.098  1.00  0.00    -0.003 NA
ENDBRANCH  27  28
ENDBRANCH  26  27
ENDBRANCH  25  26
ENDBRANCH  19  25
BRANCH  20  31
ATOM     31  O   UNL     1      30.289  33.035  15.924  1.00  0.00    -0.387 OA
ATOM     32  H   UNL     1      31.163  33.220  15.453  1.00  0.00     0.211 HD
ENDBRANCH  20  31
BRANCH  21  33
ATOM     33  O   UNL     1      28.679  35.809  17.357  1.00  0.00    -0.385 OA
ATOM     34  H   UNL     1      29.546  36.052  17.751  1.00  0.00     0.211 HD
ENDBRANCH  21  33
ENDBRANCH  15  16
ENDBRANCH  10  15
BRANCH  12  35
ATOM     35  O   UNL     1      32.001  34.452  13.696  1.00  0.00    -0.385 OA
ATOM     36  H   UNL     1      32.085  34.754  14.657  1.00  0.00     0.211 HD
ENDBRANCH  12  35
BRANCH  13  37
ATOM     37  O   UNL     1      32.692  36.778  11.804  1.00  0.00    -0.387 OA
ATOM     38  H   UNL     1      32.363  37.400  11.137  1.00  0.00     0.211 HD
ENDBRANCH  13  37
BRANCH  14  39
ATOM     39  O   UNL     1      31.522  39.001  12.551  1.00  0.00    -0.387 OA
ATOM     40  H   UNL     1      32.467  39.003  12.788  1.00  0.00     0.211 HD
ENDBRANCH  14  39
ENDBRANCH   8   9
ENDBRANCH   7   8
ENDBRANCH   1   7
BRANCH   1  41
ATOM     41  C   UNL     1      28.876  40.853   9.100  1.00  0.00     0.364 C 
ATOM     42  O   UNL     1      29.906  40.936   8.396  1.00  0.00    -0.246 OA
BRANCH  41  43
ATOM     43  O   UNL     1      28.071  41.957   9.233  1.00  0.00    -0.477 OA
ATOM     44  H   UNL     1      27.605  42.416   8.453  1.00  0.00     0.296 HD
ENDBRANCH  41  43
ENDBRANCH   1  41
BRANCH   3  45
ATOM     45  O   UNL     1      25.658  38.448  11.629  1.00  0.00    -0.391 OA
ATOM     46  H   UNL     1      26.099  38.920  12.361  1.00  0.00     0.211 HD
ENDBRANCH   3  45
BRANCH   5  47
ATOM     47  C   UNL     1      27.200  37.641   7.106  1.00  0.00     0.176 C 
BRANCH  47  48
ATOM     48  O   UNL     1      25.897  37.293   6.776  1.00  0.00    -0.388 OA
ATOM     49  H   UNL     1      25.707  37.295   5.806  1.00  0.00     0.211 HD
ENDBRANCH  47  48
BRANCH  47  50
ATOM     50  C   UNL     1      27.959  38.077   5.927  1.00  0.00     0.165 C 
BRANCH  50  51
ATOM     51  O   UNL     1      29.334  38.104   6.365  1.00  0.00    -0.388 OA
ATOM     52  H   UNL     1      29.482  38.886   6.947  1.00  0.00     0.211 HD
ENDBRANCH  50  51
BRANCH  50  53
ATOM     53  C   UNL     1      27.721  39.534   5.557  1.00  0.00     0.154 C 
BRANCH  53  54
ATOM     54  N   UNL     1      26.335  39.910   5.505  1.00  0.00    -0.319 N 
ATOM     55  C   UNL     1      25.948  41.167   6.036  1.00  0.00     0.407 C 
ATOM     56  H   UNL     1      25.588  39.301   5.095  1.00  0.00     0.167 HD
ATOM     57  O   UNL     1      26.785  41.957   6.568  1.00  0.00    -0.225 OA
BRANCH  55  58
ATOM     58  O   UNL     1      24.629  41.578   5.991  1.00  0.00    -0.443 OA
BRANCH  58  59
ATOM     59  C   UNL     1      23.803  41.609   7.158  1.00  0.00     0.294 C 
BRANCH  59  60
ATOM     60  C   UNL     1      23.279  40.245   7.454  1.00  0.00     0.121 A 
ATOM     61  C   UNL     1      22.194  39.964   8.272  1.00  0.00     0.144 A 
ATOM     62  N   UNL     1      23.738  39.068   7.005  1.00  0.00    -0.131 NA
ATOM     63  N   UNL     1      22.030  38.635   8.295  1.00  0.00    -0.220 N 
ATOM     64  N   UNL     1      22.959  38.130   7.536  1.00  0.00    -0.062 NA
BRANCH  63  65
ATOM     65  C   UNL     1      20.994  37.999   9.046  1.00  0.00     0.066 A 
ATOM     66  C   UNL     1      20.074  37.180   8.442  1.00  0.00     0.030 A 
ATOM     67  C   UNL     1      20.898  38.196  10.396  1.00  0.00     0.030 A 
ATOM     68  C   UNL     1      19.051  36.545   9.149  1.00  0.00     0.023 A 
ATOM     69  C   UNL     1      19.892  37.578  11.124  1.00  0.00     0.023 A 
ATOM     70  C   UNL     1      18.960  36.746  10.500  1.00  0.00     0.041 A 
ATOM     71  Cl  UNL     1      17.684  35.966  11.438  1.00  0.00    -0.084 Cl
ENDBRANCH  63  65
ENDBRANCH  59  60
ENDBRANCH  58  59
ENDBRANCH  55  58
ENDBRANCH  53  54
ENDBRANCH  50  53
ENDBRANCH  47  50
ENDBRANCH   5  47
BRANCH   4  72
ATOM     72  N   UNL     1      25.197  37.178   9.119  1.00  0.00    -0.348 N 
ATOM     73  C   UNL     1      24.848  35.948   9.781  1.00  0.00     0.217 C 
ATOM     74  H   UNL     1      24.526  37.496   8.401  1.00  0.00     0.163 HD
ATOM     75  C   UNL     1      23.610  35.203   9.416  1.00  0.00     0.114 C 
ATOM     76  O   UNL     1      25.617  35.517  10.679  1.00  0.00    -0.275 OA
ENDBRANCH   4  72
TORSDOF 30
BEGIN_RES LYS A 131
REMARK  4 active torsions:
REMARK  status: ('A' for Active; 'I' for Inactive)
REMARK    1  A    between atoms: CA   and  CB  
REMARK    2  A    between atoms: CB   and  CG  
REMARK    3  A    between atoms: CG   and  CD  
REMARK    4  A    between atoms: CD   and  CE  
ROOT
ATOM      1  CA  LYS A 131      29.867  25.555  16.977  1.00 20.52     0.186 C 
ENDROOT
BRANCH   1   2
ATOM      2  CB  LYS A 131      28.345  25.722  17.026  1.00 20.94     0.034 C 
BRANCH   2   3
ATOM      3  CG  LYS A 131      27.601  24.401  16.905  1.00 22.96     0.005 C 
BRANCH   3   4
ATOM      4  CD  LYS A 131      26.232  24.463  17.521  1.00 24.33     0.041 C 
BRANCH   4   5
ATOM      5  CE  LYS A 131      26.268  25.361  18.754  1.00 26.91     0.338 C 
ATOM      6  NZ  LYS A 131      25.377  24.828  19.811  1.00 27.40     0.618 N 
ENDBRANCH   4   5
ENDBRANCH   3   4
ENDBRANCH   2   3
ENDBRANCH   1   2
END_RES LYS A 131
BEGIN_RES LYS A 135
REMARK  4 active torsions:
REMARK  status: ('A' for Active; 'I' for Inactive)
REMARK    5  A    between atoms: CA   and  CB  
REMARK    6  A    between atoms: CB   and  CG  
REMARK    7  A    between atoms: CG   and  CD  
REMARK    8  A    between atoms: CD   and  CE  
ROOT
ATOM      7  CA  LYS A 135      33.193  34.663   9.290  1.00 25.02     0.186 C 
ENDROOT
BRANCH   7   8
ATOM      8  CB  LYS A 135      32.060  35.360  10.034  1.00 26.63     0.034 C 
BRANCH   8   9
ATOM      9  CG  LYS A 135      30.697  34.802   9.715  1.00 29.45     0.005 C 
BRANCH   9  10
ATOM     10  CD  LYS A 135      30.576  34.495   8.230  1.00 32.00     0.041 C 
BRANCH  10  11
ATOM     11  CE  LYS A 135      29.206  34.890   7.715  1.00 34.25     0.338 C 
ATOM     12  NZ  LYS A 135      28.136  34.477   8.665  1.00 35.99     0.618 N 
ENDBRANCH  10  11
ENDBRANCH   9  10
ENDBRANCH   8   9
ENDBRANCH   7   8
END_RES LYS A 135
