REMARK VINA RESULT:    -4.110      3.681      7.386
REMARK INTER + INTRA:         -23.542
REMARK INTER:                 -13.348
REMARK INTRA:                 -10.194
REMARK UNBOUND:               -13.184
REMARK SMILES CC(=O)N[C@@H]1[C@@H](O)C[C@](OC[C@H]2O[C@@H](O[C@H]3[C@H](O)[C@@H](O)[C@H](OCCN=[N+]=[N-])O[C@@H]3CO)[C@H](O)[C@@H](O)[C@H]2O)(C(=O)O)O[C@H]1C(O)[C@H](O)CNC(=O)OCc1cn(-c2cc(Cl)ccc2C(=O)N(C)C)nn1
REMARK SMILES IDX 9 1 8 2 6 3 5 4 42 5 41 6 10 7 11 8 12 9 14 10 13 11 32 12
REMARK SMILES IDX 34 13 36 14 15 15 16 16 29 17 28 18 21 19 17 20 19 21 30 22
REMARK SMILES IDX 31 23 22 25 23 26 24 27 25 28 26 29 27 30 18 31 20 33 33 35
REMARK SMILES IDX 35 37 37 39 38 41 39 42 40 43 7 45 43 47 44 48 45 50 46 51
REMARK SMILES IDX 47 53 48 54 49 55 50 57 51 58 52 59 53 60 54 61 69 62 55 63
REMARK SMILES IDX 68 64 56 65 57 66 62 67 58 68 61 69 59 70 60 71 63 72 64 73
REMARK SMILES IDX 65 74 66 75 67 76 4 77 2 78 1 80 3 81
REMARK H PARENT 31 24 18 32 20 34 33 36 35 38 37 40 40 44 7 46 44 49 46 52
REMARK H PARENT 48 56 4 79
REMARK Flexibility Score: inf
ROOT
ATOM      1  C   UNL     1      31.390  36.148  13.869  1.00  0.00     0.272 C 
ATOM      2  C   UNL     1      31.894  37.261  14.708  1.00  0.00     0.113 C 
ATOM      3  C   UNL     1      30.769  37.851  15.520  1.00  0.00     0.145 C 
ATOM      4  C   UNL     1      29.737  38.345  14.535  1.00  0.00     0.142 C 
ATOM      5  C   UNL     1      29.303  37.277  13.623  1.00  0.00     0.178 C 
ATOM      6  O   UNL     1      30.124  36.223  13.379  1.00  0.00    -0.332 OA
ENDROOT
BRANCH   1   7
ATOM      7  O   UNL     1      31.498  34.928  14.516  1.00  0.00    -0.338 OA
BRANCH   7   8
ATOM      8  C   UNL     1      30.459  34.067  14.460  1.00  0.00     0.199 C 
BRANCH   8   9
ATOM      9  C   UNL     1      30.121  33.576  15.876  1.00  0.00     0.179 C 
ATOM     10  C   UNL     1      28.206  33.043  17.045  1.00  0.00     0.282 C 
ATOM     11  O   UNL     1      28.865  34.004  16.193  1.00  0.00    -0.341 OA
ATOM     12  C   UNL     1      29.217  32.621  18.086  1.00  0.00     0.202 C 
ATOM     13  C   UNL     1      30.318  31.780  17.476  1.00  0.00     0.179 C 
ATOM     14  C   UNL     1      30.449  32.149  16.009  1.00  0.00     0.177 C 
BRANCH  10  15
ATOM     15  O   UNL     1      27.763  32.087  16.234  1.00  0.00    -0.341 OA
BRANCH  15  16
ATOM     16  C   UNL     1      26.426  31.953  15.907  1.00  0.00     0.184 C 
ATOM     17  C   UNL     1      26.249  30.548  15.430  1.00  0.00     0.178 C 
ATOM     18  O   UNL     1      24.911  30.330  15.055  1.00  0.00    -0.341 OA
ATOM     19  C   UNL     1      24.863  31.001  13.785  1.00  0.00     0.281 C 
ATOM     20  C   UNL     1      26.047  32.930  14.823  1.00  0.00     0.180 C 
ATOM     21  C   UNL     1      24.859  32.462  14.040  1.00  0.00     0.202 C 
BRANCH  17  22
ATOM     22  C   UNL     1      26.648  29.549  16.497  1.00  0.00     0.191 C 
BRANCH  22  23
ATOM     23  O   UNL     1      27.966  29.199  16.299  1.00  0.00    -0.394 OA
ATOM     24  H   UNL     1      28.386  29.812  15.644  1.00  0.00     0.210 HD
ENDBRANCH  22  23
ENDBRANCH  17  22
BRANCH  19  25
ATOM     25  O   UNL     1      23.792  30.547  13.119  1.00  0.00    -0.350 OA
BRANCH  25  26
ATOM     26  C   UNL     1      22.570  30.758  13.734  1.00  0.00     0.169 C 
BRANCH  26  27
ATOM     27  C   UNL     1      21.491  31.248  12.790  1.00  0.00     0.119 C 
BRANCH  27  28
ATOM     28  N   UNL     1      21.698  32.639  12.449  1.00  0.00    -0.092 NA
ATOM     29  N   UNL     1      21.472  33.523  13.267  1.00  0.00     0.001 N 
ATOM     30  N   UNL     1      21.276  34.267  14.251  1.00  0.00    -0.003 NA
ENDBRANCH  27  28
ENDBRANCH  26  27
ENDBRANCH  25  26
ENDBRANCH  19  25
BRANCH  20  31
ATOM     31  O   UNL     1      25.718  34.183  15.352  1.00  0.00    -0.387 OA
ATOM     32  H   UNL     1      24.761  34.405  15.156  1.00  0.00     0.211 HD
ENDBRANCH  20  31
BRANCH  21  33
ATOM     33  O   UNL     1      24.819  33.153  12.831  1.00  0.00    -0.385 OA
ATOM     34  H   UNL     1      25.010  32.590  12.050  1.00  0.00     0.211 HD
ENDBRANCH  21  33
ENDBRANCH  15  16
ENDBRANCH  10  15
BRANCH  12  35
ATOM     35  O   UNL     1      29.822  33.805  18.552  1.00  0.00    -0.385 OA
ATOM     36  H   UNL     1      30.518  33.606  19.256  1.00  0.00     0.211 HD
ENDBRANCH  12  35
BRANCH  13  37
ATOM     37  O   UNL     1      30.124  30.427  17.573  1.00  0.00    -0.387 OA
ATOM     38  H   UNL     1      29.279  30.117  17.168  1.00  0.00     0.211 HD
ENDBRANCH  13  37
BRANCH  14  39
ATOM     39  O   UNL     1      29.867  31.265  15.145  1.00  0.00    -0.387 OA
ATOM     40  H   UNL     1      30.419  30.486  14.910  1.00  0.00     0.211 HD
ENDBRANCH  14  39
ENDBRANCH   8   9
ENDBRANCH   7   8
ENDBRANCH   1   7
BRANCH   1  41
ATOM     41  C   UNL     1      32.341  35.999  12.666  1.00  0.00     0.364 C 
ATOM     42  O   UNL     1      32.354  36.957  11.860  1.00  0.00    -0.246 OA
BRANCH  41  43
ATOM     43  O   UNL     1      33.128  34.910  12.460  1.00  0.00    -0.477 OA
ATOM     44  H   UNL     1      32.814  33.966  12.406  1.00  0.00     0.296 HD
ENDBRANCH  41  43
ENDBRANCH   1  41
BRANCH   3  45
ATOM     45  O   UNL     1      30.315  36.934  16.424  1.00  0.00    -0.391 OA
ATOM     46  H   UNL     1      30.134  37.232  17.321  1.00  0.00     0.211 HD
ENDBRANCH   3  45
BRANCH   5  47
ATOM     47  C   UNL     1      27.931  36.683  13.918  1.00  0.00     0.176 C 
BRANCH  47  48
ATOM     48  O   UNL     1      27.756  36.258  15.205  1.00  0.00    -0.388 OA
ATOM     49  H   UNL     1      27.068  35.550  15.323  1.00  0.00     0.211 HD
ENDBRANCH  47  48
BRANCH  47  50
ATOM     50  C   UNL     1      26.767  37.486  13.468  1.00  0.00     0.165 C 
BRANCH  50  51
ATOM     51  O   UNL     1      25.956  37.914  14.546  1.00  0.00    -0.388 OA
ATOM     52  H   UNL     1      25.128  38.339  14.220  1.00  0.00     0.211 HD
ENDBRANCH  50  51
BRANCH  50  53
ATOM     53  C   UNL     1      25.837  36.504  12.719  1.00  0.00     0.154 C 
BRANCH  53  54
ATOM     54  N   UNL     1      25.975  36.675  11.299  1.00  0.00    -0.319 N 
ATOM     55  C   UNL     1      25.124  36.012  10.393  1.00  0.00     0.407 C 
ATOM     56  H   UNL     1      26.723  37.307  10.885  1.00  0.00     0.167 HD
ATOM     57  O   UNL     1      24.203  35.267  10.799  1.00  0.00    -0.225 OA
BRANCH  55  58
ATOM     58  O   UNL     1      25.283  36.161   9.010  1.00  0.00    -0.443 OA
BRANCH  58  59
ATOM     59  C   UNL     1      26.087  35.294   8.259  1.00  0.00     0.294 C 
BRANCH  59  60
ATOM     60  C   UNL     1      27.186  36.038   7.573  1.00  0.00     0.121 A 
ATOM     61  C   UNL     1      27.679  37.289   7.998  1.00  0.00     0.144 A 
ATOM     62  N   UNL     1      27.898  35.726   6.501  1.00  0.00    -0.131 NA
ATOM     63  N   UNL     1      28.648  37.666   7.177  1.00  0.00    -0.219 N 
ATOM     64  N   UNL     1      28.757  36.686   6.270  1.00  0.00    -0.062 NA
BRANCH  63  65
ATOM     65  C   UNL     1      29.476  38.813   7.139  1.00  0.00     0.081 A 
ATOM     66  C   UNL     1      30.696  38.799   7.828  1.00  0.00     0.049 A 
ATOM     67  C   UNL     1      29.169  39.979   6.498  1.00  0.00     0.065 A 
ATOM     68  C   UNL     1      31.511  39.883   7.852  1.00  0.00     0.043 A 
ATOM     69  C   UNL     1      30.014  41.104   6.523  1.00  0.00     0.017 A 
ATOM     70  Cl  UNL     1      33.028  39.798   8.736  1.00  0.00    -0.084 Cl
ATOM     71  C   UNL     1      31.201  41.051   7.211  1.00  0.00     0.021 A 
BRANCH  67  72
ATOM     72  C   UNL     1      27.950  40.117   5.696  1.00  0.00     0.255 C 
ATOM     73  O   UNL     1      27.979  39.766   4.499  1.00  0.00    -0.269 OA
ATOM     74  N   UNL     1      26.783  40.631   6.268  1.00  0.00    -0.345 N 
ATOM     75  C   UNL     1      26.764  41.039   7.670  1.00  0.00     0.146 C 
ATOM     76  C   UNL     1      25.551  40.770   5.495  1.00  0.00     0.146 C 
ENDBRANCH  67  72
ENDBRANCH  63  65
ENDBRANCH  59  60
ENDBRANCH  58  59
ENDBRANCH  55  58
ENDBRANCH  53  54
ENDBRANCH  50  53
ENDBRANCH  47  50
ENDBRANCH   5  47
BRANCH   4  77
ATOM     77  N   UNL     1      30.344  39.485  13.842  1.00  0.00    -0.348 N 
ATOM     78  C   UNL     1      29.588  40.585  13.384  1.00  0.00     0.217 C 
ATOM     79  H   UNL     1      31.369  39.497  13.671  1.00  0.00     0.163 HD
ATOM     80  C   UNL     1      30.195  41.740  12.680  1.00  0.00     0.114 C 
ATOM     81  O   UNL     1      28.344  40.587  13.580  1.00  0.00    -0.275 OA
ENDBRANCH   4  77
TORSDOF 31
BEGIN_RES LYS A 131
REMARK  4 active torsions:
REMARK  status: ('A' for Active; 'I' for Inactive)
REMARK    1  A    between atoms: CA   and  CB  
REMARK    2  A    between atoms: CB   and  CG  
REMARK    3  A    between atoms: CG   and  CD  
REMARK    4  A    between atoms: CD   and  CE  
ROOT
ATOM      1  CA  LYS A 131      29.867  25.555  16.977  1.00 20.52     0.186 C 
ENDROOT
BRANCH   1   2
ATOM      2  CB  LYS A 131      28.345  25.722  17.026  1.00 20.94     0.034 C 
BRANCH   2   3
ATOM      3  CG  LYS A 131      27.601  24.401  16.905  1.00 22.96     0.005 C 
BRANCH   3   4
ATOM      4  CD  LYS A 131      26.157  24.525  17.305  1.00 24.33     0.041 C 
BRANCH   4   5
ATOM      5  CE  LYS A 131      25.881  23.619  18.501  1.00 26.91     0.338 C 
ATOM      6  NZ  LYS A 131      25.500  24.424  19.685  1.00 27.40     0.618 N 
ENDBRANCH   4   5
ENDBRANCH   3   4
ENDBRANCH   2   3
ENDBRANCH   1   2
END_RES LYS A 131
BEGIN_RES LYS A 135
REMARK  4 active torsions:
REMARK  status: ('A' for Active; 'I' for Inactive)
REMARK    5  A    between atoms: CA   and  CB  
REMARK    6  A    between atoms: CB   and  CG  
REMARK    7  A    between atoms: CG   and  CD  
REMARK    8  A    between atoms: CD   and  CE  
ROOT
ATOM      7  CA  LYS A 135      33.193  34.663   9.290  1.00 25.02     0.186 C 
ENDROOT
BRANCH   7   8
ATOM      8  CB  LYS A 135      32.060  35.360  10.034  1.00 26.63     0.034 C 
BRANCH   8   9
ATOM      9  CG  LYS A 135      30.795  35.485   9.225  1.00 29.45     0.005 C 
BRANCH   9  10
ATOM     10  CD  LYS A 135      30.303  34.115   8.783  1.00 32.00     0.041 C 
BRANCH  10  11
ATOM     11  CE  LYS A 135      29.008  33.761   9.489  1.00 34.25     0.338 C 
ATOM     12  NZ  LYS A 135      28.747  34.687  10.627  1.00 35.99     0.618 N 
ENDBRANCH  10  11
ENDBRANCH   9  10
ENDBRANCH   8   9
ENDBRANCH   7   8
END_RES LYS A 135
