REMARK VINA RESULT:    -4.854      3.344      9.601
REMARK INTER + INTRA:         -25.723
REMARK INTER:                 -12.116
REMARK INTRA:                 -13.607
REMARK UNBOUND:               -11.931
REMARK SMILES CC(=O)N[C@@H]1[C@@H](O)C[C@](OC[C@H]2O[C@@H](O[C@H]3[C@H](O)[C@@H](O)[C@H](OCCN=[N+]=[N-])O[C@@H]3CO)[C@H](O)[C@@H](O)[C@H]2O)(C(=O)O)O[C@H]1C(O)[C@H](O)CNC(=O)OCc1cn(CC(=O)NCC(O)Cn2ccnc2[N+](=O)[O-])nn1
REMARK SMILES IDX 47 1 45 2 43 3 42 4 9 5 8 6 41 7 6 8 5 9 10 10 11 11 12 12
REMARK SMILES IDX 14 13 13 14 32 15 34 16 36 17 15 18 16 19 29 20 28 21 21 22
REMARK SMILES IDX 17 23 19 24 30 25 31 26 22 28 23 29 24 30 25 31 26 32 27 33
REMARK SMILES IDX 18 34 20 36 33 38 35 40 37 42 38 44 39 45 40 46 7 48 4 50
REMARK SMILES IDX 2 51 1 53 3 54 44 55 46 57 48 59 49 60 50 62 51 63 52 64
REMARK SMILES IDX 53 65 54 66 73 67 55 68 72 69 56 70 57 71 58 72 59 73 60 75
REMARK SMILES IDX 61 76 62 77 63 79 64 80 65 81 68 82 66 83 67 84 69 85 70 86
REMARK SMILES IDX 71 87
REMARK H PARENT 31 27 18 35 20 37 33 39 35 41 37 43 40 47 7 49 4 52 44 56
REMARK H PARENT 46 58 48 61 59 74 62 78
REMARK Flexibility Score: inf
ROOT
ATOM      1  C   UNL     1      30.556  39.240  10.788  1.00  0.00     0.154 C 
ENDROOT
BRANCH   1   2
ATOM      2  C   UNL     1      30.808  37.991  11.564  1.00  0.00     0.165 C 
BRANCH   2   3
ATOM      3  C   UNL     1      30.192  37.918  12.911  1.00  0.00     0.176 C 
BRANCH   3   4
ATOM      4  C   UNL     1      30.896  37.200  13.987  1.00  0.00     0.178 C 
ATOM      5  C   UNL     1      32.141  35.327  14.573  1.00  0.00     0.272 C 
ATOM      6  C   UNL     1      32.547  36.239  15.676  1.00  0.00     0.113 C 
ATOM      7  O   UNL     1      31.343  35.955  13.599  1.00  0.00    -0.332 OA
ATOM      8  C   UNL     1      31.426  36.979  16.325  1.00  0.00     0.145 C 
ATOM      9  C   UNL     1      30.249  37.118  15.317  1.00  0.00     0.142 C 
BRANCH   5  10
ATOM     10  O   UNL     1      31.519  34.166  14.928  1.00  0.00    -0.338 OA
BRANCH  10  11
ATOM     11  C   UNL     1      31.902  33.566  16.086  1.00  0.00     0.199 C 
BRANCH  11  12
ATOM     12  C   UNL     1      30.732  33.080  16.919  1.00  0.00     0.179 C 
ATOM     13  C   UNL     1      28.413  33.250  17.091  1.00  0.00     0.282 C 
ATOM     14  O   UNL     1      29.636  33.864  16.842  1.00  0.00    -0.341 OA
ATOM     15  C   UNL     1      28.526  32.188  18.157  1.00  0.00     0.202 C 
ATOM     16  C   UNL     1      29.548  31.138  17.787  1.00  0.00     0.179 C 
ATOM     17  C   UNL     1      30.416  31.634  16.647  1.00  0.00     0.177 C 
BRANCH  13  18
ATOM     18  O   UNL     1      27.817  32.734  15.997  1.00  0.00    -0.341 OA
BRANCH  18  19
ATOM     19  C   UNL     1      26.908  33.420  15.286  1.00  0.00     0.184 C 
ATOM     20  C   UNL     1      25.632  32.710  14.922  1.00  0.00     0.178 C 
ATOM     21  O   UNL     1      24.706  33.708  14.608  1.00  0.00    -0.341 OA
ATOM     22  C   UNL     1      25.033  34.338  13.411  1.00  0.00     0.281 C 
ATOM     23  C   UNL     1      27.460  33.906  13.936  1.00  0.00     0.180 C 
ATOM     24  C   UNL     1      26.432  34.875  13.397  1.00  0.00     0.202 C 
BRANCH  20  25
ATOM     25  C   UNL     1      25.098  31.972  16.114  1.00  0.00     0.191 C 
BRANCH  25  26
ATOM     26  O   UNL     1      25.862  30.834  16.405  1.00  0.00    -0.394 OA
ATOM     27  H   UNL     1      26.127  30.475  15.500  1.00  0.00     0.210 HD
ENDBRANCH  25  26
ENDBRANCH  20  25
BRANCH  22  28
ATOM     28  O   UNL     1      24.166  35.418  13.265  1.00  0.00    -0.350 OA
BRANCH  28  29
ATOM     29  C   UNL     1      24.282  36.310  14.332  1.00  0.00     0.169 C 
BRANCH  29  30
ATOM     30  C   UNL     1      23.528  37.574  13.911  1.00  0.00     0.119 C 
BRANCH  30  31
ATOM     31  N   UNL     1      22.785  37.332  12.686  1.00  0.00    -0.092 NA
ATOM     32  N   UNL     1      22.595  38.318  11.943  1.00  0.00     0.001 N 
ATOM     33  N   UNL     1      22.627  39.156  11.051  1.00  0.00    -0.003 NA
ENDBRANCH  30  31
ENDBRANCH  29  30
ENDBRANCH  28  29
ENDBRANCH  22  28
BRANCH  23  34
ATOM     34  O   UNL     1      28.641  34.621  14.103  1.00  0.00    -0.387 OA
ATOM     35  H   UNL     1      28.836  35.007  13.191  1.00  0.00     0.211 HD
ENDBRANCH  23  34
BRANCH  24  36
ATOM     36  O   UNL     1      26.717  35.298  12.100  1.00  0.00    -0.385 OA
ATOM     37  H   UNL     1      25.849  35.382  11.606  1.00  0.00     0.211 HD
ENDBRANCH  24  36
ENDBRANCH  18  19
ENDBRANCH  13  18
BRANCH  15  38
ATOM     38  O   UNL     1      28.795  32.745  19.414  1.00  0.00    -0.385 OA
ATOM     39  H   UNL     1      29.743  33.083  19.348  1.00  0.00     0.211 HD
ENDBRANCH  15  38
BRANCH  16  40
ATOM     40  O   UNL     1      28.931  29.967  17.355  1.00  0.00    -0.387 OA
ATOM     41  H   UNL     1      28.645  29.387  18.121  1.00  0.00     0.211 HD
ENDBRANCH  16  40
BRANCH  17  42
ATOM     42  O   UNL     1      29.898  31.391  15.397  1.00  0.00    -0.387 OA
ATOM     43  H   UNL     1      29.480  30.489  15.319  1.00  0.00     0.211 HD
ENDBRANCH  17  42
ENDBRANCH  11  12
ENDBRANCH  10  11
ENDBRANCH   5  10
BRANCH   5  44
ATOM     44  C   UNL     1      33.398  34.995  13.805  1.00  0.00     0.364 C 
ATOM     45  O   UNL     1      34.428  34.795  14.474  1.00  0.00    -0.246 OA
BRANCH  44  46
ATOM     46  O   UNL     1      33.447  34.910  12.434  1.00  0.00    -0.477 OA
ATOM     47  H   UNL     1      32.749  35.407  11.851  1.00  0.00     0.296 HD
ENDBRANCH  44  46
ENDBRANCH   5  44
BRANCH   8  48
ATOM     48  O   UNL     1      30.978  36.515  17.519  1.00  0.00    -0.391 OA
ATOM     49  H   UNL     1      30.253  37.005  17.935  1.00  0.00     0.211 HD
ENDBRANCH   8  48
BRANCH   9  50
ATOM     50  N   UNL     1      29.475  38.220  15.749  1.00  0.00    -0.348 N 
ATOM     51  C   UNL     1      28.050  38.104  15.930  1.00  0.00     0.217 C 
ATOM     52  H   UNL     1      29.899  39.133  15.958  1.00  0.00     0.163 HD
ATOM     53  C   UNL     1      27.217  39.252  16.376  1.00  0.00     0.114 C 
ATOM     54  O   UNL     1      27.519  36.998  15.698  1.00  0.00    -0.275 OA
ENDBRANCH   9  50
ENDBRANCH   3   4
BRANCH   3  55
ATOM     55  O   UNL     1      28.870  37.436  12.735  1.00  0.00    -0.388 OA
ATOM     56  H   UNL     1      28.312  37.866  13.403  1.00  0.00     0.211 HD
ENDBRANCH   3  55
ENDBRANCH   2   3
BRANCH   2  57
ATOM     57  O   UNL     1      32.095  37.524  11.441  1.00  0.00    -0.388 OA
ATOM     58  H   UNL     1      32.775  38.009  11.943  1.00  0.00     0.211 HD
ENDBRANCH   2  57
ENDBRANCH   1   2
BRANCH   1  59
ATOM     59  N   UNL     1      30.756  39.013   9.383  1.00  0.00    -0.319 N 
ATOM     60  C   UNL     1      31.832  39.569   8.647  1.00  0.00     0.407 C 
ATOM     61  H   UNL     1      30.080  38.402   8.836  1.00  0.00     0.167 HD
ATOM     62  O   UNL     1      32.666  40.288   9.235  1.00  0.00    -0.225 OA
BRANCH  60  63
ATOM     63  O   UNL     1      32.031  39.373   7.297  1.00  0.00    -0.443 OA
BRANCH  63  64
ATOM     64  C   UNL     1      31.518  40.255   6.333  1.00  0.00     0.294 C 
BRANCH  64  65
ATOM     65  C   UNL     1      30.182  39.960   5.820  1.00  0.00     0.120 A 
ATOM     66  C   UNL     1      29.435  40.681   4.924  1.00  0.00     0.138 A 
ATOM     67  N   UNL     1      29.412  38.910   6.149  1.00  0.00    -0.132 NA
ATOM     68  N   UNL     1      28.248  40.057   4.737  1.00  0.00    -0.243 N 
ATOM     69  N   UNL     1      28.251  38.995   5.480  1.00  0.00    -0.067 NA
BRANCH  68  70
ATOM     70  C   UNL     1      27.181  40.489   3.843  1.00  0.00     0.245 C 
BRANCH  70  71
ATOM     71  C   UNL     1      26.032  40.950   4.650  1.00  0.00     0.241 C 
ATOM     72  O   UNL     1      25.459  42.066   4.408  1.00  0.00    -0.273 OA
ATOM     73  N   UNL     1      25.493  40.193   5.732  1.00  0.00    -0.352 N 
ATOM     74  H   UNL     1      25.922  39.282   5.968  1.00  0.00     0.163 HD
BRANCH  73  75
ATOM     75  C   UNL     1      24.361  40.729   6.465  1.00  0.00     0.151 C 
BRANCH  75  76
ATOM     76  C   UNL     1      24.059  39.943   7.703  1.00  0.00     0.168 C 
BRANCH  76  77
ATOM     77  O   UNL     1      23.912  40.748   8.818  1.00  0.00    -0.388 OA
ATOM     78  H   UNL     1      22.953  40.962   8.907  1.00  0.00     0.211 HD
ENDBRANCH  76  77
BRANCH  76  79
ATOM     79  C   UNL     1      25.196  38.953   7.902  1.00  0.00     0.239 C 
BRANCH  79  80
ATOM     80  N   UNL     1      24.756  37.766   8.578  1.00  0.00    -0.227 N 
ATOM     81  C   UNL     1      23.671  37.029   8.221  1.00  0.00     0.204 A 
ATOM     82  C   UNL     1      25.267  37.146   9.670  1.00  0.00     0.434 A 
ATOM     83  C   UNL     1      23.532  35.976   9.091  1.00  0.00     0.245 A 
ATOM     84  N   UNL     1      24.521  36.066   9.974  1.00  0.00    -0.074 NA
BRANCH  82  85
ATOM     85  N   UNL     1      26.429  37.566  10.383  1.00  0.00    -0.047 N 
ATOM     86  O   UNL     1      27.582  37.365  10.001  1.00  0.00    -0.390 OA
ATOM     87  O   UNL     1      26.251  38.233  11.587  1.00  0.00    -0.390 OA
ENDBRANCH  82  85
ENDBRANCH  79  80
ENDBRANCH  76  79
ENDBRANCH  75  76
ENDBRANCH  73  75
ENDBRANCH  70  71
ENDBRANCH  68  70
ENDBRANCH  64  65
ENDBRANCH  63  64
ENDBRANCH  60  63
ENDBRANCH   1  59
TORSDOF 37
BEGIN_RES LYS A 131
REMARK  4 active torsions:
REMARK  status: ('A' for Active; 'I' for Inactive)
REMARK    1  A    between atoms: CA   and  CB  
REMARK    2  A    between atoms: CB   and  CG  
REMARK    3  A    between atoms: CG   and  CD  
REMARK    4  A    between atoms: CD   and  CE  
ROOT
ATOM      1  CA  LYS A 131      29.867  25.555  16.977  1.00 20.52     0.186 C 
ENDROOT
BRANCH   1   2
ATOM      2  CB  LYS A 131      28.345  25.722  17.026  1.00 20.94     0.034 C 
BRANCH   2   3
ATOM      3  CG  LYS A 131      27.602  24.398  16.933  1.00 22.96     0.005 C 
BRANCH   3   4
ATOM      4  CD  LYS A 131      26.627  24.215  18.062  1.00 24.33     0.041 C 
BRANCH   4   5
ATOM      5  CE  LYS A 131      26.278  25.574  18.659  1.00 26.91     0.338 C 
ATOM      6  NZ  LYS A 131      24.930  26.004  18.219  1.00 27.40     0.618 N 
ENDBRANCH   4   5
ENDBRANCH   3   4
ENDBRANCH   2   3
ENDBRANCH   1   2
END_RES LYS A 131
BEGIN_RES LYS A 135
REMARK  4 active torsions:
REMARK  status: ('A' for Active; 'I' for Inactive)
REMARK    5  A    between atoms: CA   and  CB  
REMARK    6  A    between atoms: CB   and  CG  
REMARK    7  A    between atoms: CG   and  CD  
REMARK    8  A    between atoms: CD   and  CE  
ROOT
ATOM      7  CA  LYS A 135      33.193  34.663   9.290  1.00 25.02     0.186 C 
ENDROOT
BRANCH   7   8
ATOM      8  CB  LYS A 135      32.060  35.360  10.034  1.00 26.63     0.034 C 
BRANCH   8   9
ATOM      9  CG  LYS A 135      30.722  34.689   9.860  1.00 29.45     0.005 C 
BRANCH   9  10
ATOM     10  CD  LYS A 135      30.298  34.707   8.400  1.00 32.00     0.041 C 
BRANCH  10  11
ATOM     11  CE  LYS A 135      28.795  34.545   8.279  1.00 34.25     0.338 C 
ATOM     12  NZ  LYS A 135      28.240  33.805   9.447  1.00 35.99     0.618 N 
ENDBRANCH  10  11
ENDBRANCH   9  10
ENDBRANCH   8   9
ENDBRANCH   7   8
END_RES LYS A 135
