REMARK VINA RESULT:    -4.471      3.144      5.296
REMARK INTER + INTRA:         -21.620
REMARK INTER:                 -10.894
REMARK INTRA:                 -10.726
REMARK UNBOUND:               -10.616
REMARK SMILES CC(=O)N[C@@H]1[C@@H](O)C[C@](OC[C@H]2O[C@@H](O[C@H]3[C@H](O)[C@@H](O)[C@H](OCCN=[N+]=[N-])O[C@@H]3CO)[C@H](O)[C@@H](O)[C@H]2O)(C(=O)O)O[C@H]1C(O)[C@H](O)CNC(=O)OCc1cn(C2CCCC2)nn1
REMARK SMILES IDX 9 1 8 2 6 3 5 4 42 5 41 6 10 7 11 8 12 9 14 10 13 11 32 12
REMARK SMILES IDX 34 13 36 14 15 15 16 16 29 17 28 18 21 19 17 20 19 21 30 22
REMARK SMILES IDX 31 23 22 25 23 26 24 27 25 28 26 29 27 30 18 31 20 33 33 35
REMARK SMILES IDX 35 37 37 39 38 41 39 42 40 43 7 45 43 47 44 48 45 50 46 51
REMARK SMILES IDX 47 53 48 54 49 55 50 57 51 58 52 59 53 60 54 61 62 62 55 63
REMARK SMILES IDX 61 64 56 65 57 66 60 67 58 68 59 69 4 70 2 71 1 73 3 74
REMARK H PARENT 31 24 18 32 20 34 33 36 35 38 37 40 40 44 7 46 44 49 46 52
REMARK H PARENT 48 56 4 72
REMARK Flexibility Score: inf
ROOT
ATOM      1  C   UNL     1      24.322  36.167  10.754  1.00  0.00     0.272 C 
ATOM      2  C   UNL     1      23.909  35.210   9.699  1.00  0.00     0.113 C 
ATOM      3  C   UNL     1      22.632  35.551   9.016  1.00  0.00     0.145 C 
ATOM      4  C   UNL     1      21.534  35.865  10.062  1.00  0.00     0.142 C 
ATOM      5  C   UNL     1      22.139  35.693  11.410  1.00  0.00     0.178 C 
ATOM      6  O   UNL     1      23.192  36.671  11.439  1.00  0.00    -0.332 OA
ENDROOT
BRANCH   1   7
ATOM      7  O   UNL     1      25.026  37.222  10.296  1.00  0.00    -0.338 OA
BRANCH   7   8
ATOM      8  C   UNL     1      25.985  37.033   9.334  1.00  0.00     0.199 C 
BRANCH   8   9
ATOM      9  C   UNL     1      26.246  38.389   8.684  1.00  0.00     0.179 C 
ATOM     10  C   UNL     1      28.570  38.542   8.710  1.00  0.00     0.282 C 
ATOM     11  O   UNL     1      27.347  39.025   9.159  1.00  0.00    -0.341 OA
ATOM     12  C   UNL     1      28.529  37.996   7.326  1.00  0.00     0.202 C 
ATOM     13  C   UNL     1      27.414  38.530   6.482  1.00  0.00     0.179 C 
ATOM     14  C   UNL     1      26.119  38.274   7.212  1.00  0.00     0.177 C 
BRANCH  10  15
ATOM     15  O   UNL     1      29.155  37.680   9.636  1.00  0.00    -0.341 OA
BRANCH  15  16
ATOM     16  C   UNL     1      29.564  38.347  10.790  1.00  0.00     0.184 C 
ATOM     17  C   UNL     1      31.031  38.281  11.053  1.00  0.00     0.178 C 
ATOM     18  O   UNL     1      31.295  38.909  12.269  1.00  0.00    -0.341 OA
ATOM     19  C   UNL     1      30.923  38.083  13.314  1.00  0.00     0.281 C 
ATOM     20  C   UNL     1      28.875  37.634  11.947  1.00  0.00     0.180 C 
ATOM     21  C   UNL     1      29.406  38.024  13.288  1.00  0.00     0.202 C 
BRANCH  17  22
ATOM     22  C   UNL     1      31.869  39.038  10.028  1.00  0.00     0.191 C 
BRANCH  22  23
ATOM     23  O   UNL     1      31.879  38.226   8.882  1.00  0.00    -0.394 OA
ATOM     24  H   UNL     1      31.506  38.693   8.116  1.00  0.00     0.210 HD
ENDBRANCH  22  23
ENDBRANCH  17  22
BRANCH  19  25
ATOM     25  O   UNL     1      31.290  38.682  14.515  1.00  0.00    -0.350 OA
BRANCH  25  26
ATOM     26  C   UNL     1      30.381  39.705  14.833  1.00  0.00     0.169 C 
BRANCH  26  27
ATOM     27  C   UNL     1      31.098  41.039  14.941  1.00  0.00     0.119 C 
BRANCH  27  28
ATOM     28  N   UNL     1      30.350  42.081  14.299  1.00  0.00    -0.092 NA
ATOM     29  N   UNL     1      29.756  41.897  13.217  1.00  0.00     0.001 N 
ATOM     30  N   UNL     1      29.625  41.803  11.999  1.00  0.00    -0.003 NA
ENDBRANCH  27  28
ENDBRANCH  26  27
ENDBRANCH  25  26
ENDBRANCH  19  25
BRANCH  20  31
ATOM     31  O   UNL     1      27.532  37.996  11.880  1.00  0.00    -0.387 OA
ATOM     32  H   UNL     1      27.385  38.847  11.398  1.00  0.00     0.211 HD
ENDBRANCH  20  31
BRANCH  21  33
ATOM     33  O   UNL     1      29.025  37.037  14.210  1.00  0.00    -0.385 OA
ATOM     34  H   UNL     1      28.133  36.724  13.910  1.00  0.00     0.211 HD
ENDBRANCH  21  33
ENDBRANCH  15  16
ENDBRANCH  10  15
BRANCH  12  35
ATOM     35  O   UNL     1      29.721  38.294   6.624  1.00  0.00    -0.385 OA
ATOM     36  H   UNL     1      29.934  37.517   6.074  1.00  0.00     0.211 HD
ENDBRANCH  12  35
BRANCH  13  37
ATOM     37  O   UNL     1      27.381  37.851   5.279  1.00  0.00    -0.387 OA
ATOM     38  H   UNL     1      26.520  38.043   4.846  1.00  0.00     0.211 HD
ENDBRANCH  13  37
BRANCH  14  39
ATOM     39  O   UNL     1      25.608  37.057   6.779  1.00  0.00    -0.387 OA
ATOM     40  H   UNL     1      26.207  36.584   6.184  1.00  0.00     0.211 HD
ENDBRANCH  14  39
ENDBRANCH   8   9
ENDBRANCH   7   8
ENDBRANCH   1   7
BRANCH   1  41
ATOM     41  C   UNL     1      25.063  35.404  11.830  1.00  0.00     0.364 C 
ATOM     42  O   UNL     1      25.342  34.199  11.723  1.00  0.00    -0.246 OA
BRANCH  41  43
ATOM     43  O   UNL     1      25.418  36.143  12.962  1.00  0.00    -0.477 OA
ATOM     44  H   UNL     1      25.472  37.167  12.887  1.00  0.00     0.296 HD
ENDBRANCH  41  43
ENDBRANCH   1  41
BRANCH   3  45
ATOM     45  O   UNL     1      22.709  36.525   8.053  1.00  0.00    -0.391 OA
ATOM     46  H   UNL     1      22.085  37.259   8.259  1.00  0.00     0.211 HD
ENDBRANCH   3  45
BRANCH   5  47
ATOM     47  C   UNL     1      21.257  36.087  12.568  1.00  0.00     0.176 C 
BRANCH  47  48
ATOM     48  O   UNL     1      21.289  37.543  12.600  1.00  0.00    -0.388 OA
ATOM     49  H   UNL     1      22.246  37.737  12.472  1.00  0.00     0.211 HD
ENDBRANCH  47  48
BRANCH  47  50
ATOM     50  C   UNL     1      21.774  35.739  13.936  1.00  0.00     0.165 C 
BRANCH  50  51
ATOM     51  O   UNL     1      22.836  36.426  14.409  1.00  0.00    -0.388 OA
ATOM     52  H   UNL     1      23.432  35.930  15.011  1.00  0.00     0.211 HD
ENDBRANCH  50  51
BRANCH  50  53
ATOM     53  C   UNL     1      22.138  34.259  13.931  1.00  0.00     0.154 C 
BRANCH  53  54
ATOM     54  N   UNL     1      23.502  34.123  14.461  1.00  0.00    -0.319 N 
ATOM     55  C   UNL     1      24.140  32.858  14.518  1.00  0.00     0.407 C 
ATOM     56  H   UNL     1      24.039  34.957  14.811  1.00  0.00     0.167 HD
ATOM     57  O   UNL     1      23.521  31.842  14.105  1.00  0.00    -0.225 OA
BRANCH  55  58
ATOM     58  O   UNL     1      25.416  32.714  15.011  1.00  0.00    -0.443 OA
BRANCH  58  59
ATOM     59  C   UNL     1      26.159  33.805  15.522  1.00  0.00     0.294 C 
BRANCH  59  60
ATOM     60  C   UNL     1      27.557  33.835  15.037  1.00  0.00     0.120 A 
ATOM     61  C   UNL     1      28.711  33.329  15.592  1.00  0.00     0.138 A 
ATOM     62  N   UNL     1      27.954  34.411  13.881  1.00  0.00    -0.132 NA
ATOM     63  N   UNL     1      29.738  33.604  14.784  1.00  0.00    -0.249 N 
ATOM     64  N   UNL     1      29.240  34.263  13.751  1.00  0.00    -0.067 NA
BRANCH  63  65
ATOM     65  C   UNL     1      31.146  33.266  14.959  1.00  0.00     0.109 C 
ATOM     66  C   UNL     1      32.064  34.362  14.530  1.00  0.00     0.027 C 
ATOM     67  C   UNL     1      31.418  33.100  16.439  1.00  0.00     0.027 C 
ATOM     68  C   UNL     1      32.385  35.192  15.746  1.00  0.00     0.002 C 
ATOM     69  C   UNL     1      31.873  34.435  16.944  1.00  0.00     0.002 C 
ENDBRANCH  63  65
ENDBRANCH  59  60
ENDBRANCH  58  59
ENDBRANCH  55  58
ENDBRANCH  53  54
ENDBRANCH  50  53
ENDBRANCH  47  50
ENDBRANCH   5  47
BRANCH   4  70
ATOM     70  N   UNL     1      20.376  35.053   9.764  1.00  0.00    -0.348 N 
ATOM     71  C   UNL     1      19.227  35.646   9.112  1.00  0.00     0.217 C 
ATOM     72  H   UNL     1      20.314  34.036   9.975  1.00  0.00     0.163 HD
ATOM     73  C   UNL     1      18.027  34.831   8.797  1.00  0.00     0.114 C 
ATOM     74  O   UNL     1      19.223  36.867   8.798  1.00  0.00    -0.275 OA
ENDBRANCH   4  70
TORSDOF 30
BEGIN_RES LYS A 131
REMARK  4 active torsions:
REMARK  status: ('A' for Active; 'I' for Inactive)
REMARK    1  A    between atoms: CA   and  CB  
REMARK    2  A    between atoms: CB   and  CG  
REMARK    3  A    between atoms: CG   and  CD  
REMARK    4  A    between atoms: CD   and  CE  
ROOT
ATOM      1  CA  LYS A 131      29.867  25.555  16.977  1.00 20.52     0.186 C 
ENDROOT
BRANCH   1   2
ATOM      2  CB  LYS A 131      28.345  25.722  17.026  1.00 20.94     0.034 C 
BRANCH   2   3
ATOM      3  CG  LYS A 131      27.601  24.401  16.904  1.00 22.96     0.005 C 
BRANCH   3   4
ATOM      4  CD  LYS A 131      26.174  24.510  17.364  1.00 24.33     0.041 C 
BRANCH   4   5
ATOM      5  CE  LYS A 131      25.990  25.804  18.150  1.00 26.91     0.338 C 
ATOM      6  NZ  LYS A 131      25.715  25.510  19.577  1.00 27.40     0.618 N 
ENDBRANCH   4   5
ENDBRANCH   3   4
ENDBRANCH   2   3
ENDBRANCH   1   2
END_RES LYS A 131
BEGIN_RES LYS A 135
REMARK  4 active torsions:
REMARK  status: ('A' for Active; 'I' for Inactive)
REMARK    5  A    between atoms: CA   and  CB  
REMARK    6  A    between atoms: CB   and  CG  
REMARK    7  A    between atoms: CG   and  CD  
REMARK    8  A    between atoms: CD   and  CE  
ROOT
ATOM      7  CA  LYS A 135      33.193  34.663   9.290  1.00 25.02     0.186 C 
ENDROOT
BRANCH   7   8
ATOM      8  CB  LYS A 135      32.060  35.360  10.034  1.00 26.63     0.034 C 
BRANCH   8   9
ATOM      9  CG  LYS A 135      30.740  34.641   9.931  1.00 29.45     0.005 C 
BRANCH   9  10
ATOM     10  CD  LYS A 135      30.315  34.504   8.478  1.00 32.00     0.041 C 
BRANCH  10  11
ATOM     11  CE  LYS A 135      28.803  34.457   8.367  1.00 34.25     0.338 C 
ATOM     12  NZ  LYS A 135      28.199  33.787   9.552  1.00 35.99     0.618 N 
ENDBRANCH  10  11
ENDBRANCH   9  10
ENDBRANCH   8   9
ENDBRANCH   7   8
END_RES LYS A 135
