REMARK VINA RESULT:    -4.077      0.000      0.000
REMARK INTER + INTRA:         -22.753
REMARK INTER:                 -11.191
REMARK INTRA:                 -11.562
REMARK UNBOUND:               -12.359
REMARK SMILES CC(=O)N[C@@H]1[C@@H](O)C[C@](OC[C@H]2O[C@@H](O[C@H]3[C@H](O)[C@@H](O)[C@H](OCCN=[N+]=[N-])O[C@@H]3CO)[C@H](O)[C@@H](O)[C@H]2O)(C(=O)O)O[C@H]1C(O)[C@H](O)CNC(=O)OCc1cn(CC(=O)O)nn1
REMARK SMILES IDX 9 1 8 2 6 3 5 4 42 5 41 6 10 7 11 8 12 9 14 10 13 11 32 12
REMARK SMILES IDX 34 13 36 14 15 15 16 16 29 17 28 18 21 19 17 20 19 21 30 22
REMARK SMILES IDX 31 23 22 25 23 26 24 27 25 28 26 29 27 30 18 31 20 33 33 35
REMARK SMILES IDX 35 37 37 39 38 41 39 42 40 43 7 45 43 47 44 48 45 50 46 51
REMARK SMILES IDX 47 53 48 54 49 55 50 57 51 58 52 59 53 60 54 61 61 62 55 63
REMARK SMILES IDX 60 64 56 65 57 66 58 67 59 68 4 70 2 71 1 73 3 74
REMARK H PARENT 31 24 18 32 20 34 33 36 35 38 37 40 40 44 7 46 44 49 46 52
REMARK H PARENT 48 56 59 69 4 72
REMARK Flexibility Score: inf
ROOT
ATOM      1  C   UNL     1      31.221  34.787  13.749  1.00  0.00     0.272 C 
ATOM      2  C   UNL     1      31.792  33.501  14.273  1.00  0.00     0.113 C 
ATOM      3  C   UNL     1      31.580  33.214  15.701  1.00  0.00     0.145 C 
ATOM      4  C   UNL     1      31.173  34.399  16.569  1.00  0.00     0.142 C 
ATOM      5  C   UNL     1      31.641  35.627  15.852  1.00  0.00     0.178 C 
ATOM      6  O   UNL     1      30.802  35.657  14.707  1.00  0.00    -0.332 OA
ENDROOT
BRANCH   1   7
ATOM      7  O   UNL     1      30.152  34.556  12.857  1.00  0.00    -0.338 OA
BRANCH   7   8
ATOM      8  C   UNL     1      28.916  34.582  13.426  1.00  0.00     0.199 C 
BRANCH   8   9
ATOM      9  C   UNL     1      28.031  35.596  12.682  1.00  0.00     0.179 C 
ATOM     10  C   UNL     1      25.889  35.420  11.844  1.00  0.00     0.282 C 
ATOM     11  O   UNL     1      27.254  35.009  11.716  1.00  0.00    -0.341 OA
ATOM     12  C   UNL     1      25.445  34.841  13.137  1.00  0.00     0.202 C 
ATOM     13  C   UNL     1      26.047  35.738  14.230  1.00  0.00     0.179 C 
ATOM     14  C   UNL     1      27.261  36.437  13.679  1.00  0.00     0.177 C 
BRANCH  10  15
ATOM     15  O   UNL     1      25.234  35.026  10.715  1.00  0.00    -0.341 OA
BRANCH  15  16
ATOM     16  C   UNL     1      24.565  36.060  10.059  1.00  0.00     0.184 C 
ATOM     17  C   UNL     1      23.313  35.501   9.452  1.00  0.00     0.178 C 
ATOM     18  O   UNL     1      22.959  36.186   8.321  1.00  0.00    -0.341 OA
ATOM     19  C   UNL     1      23.178  37.540   8.317  1.00  0.00     0.281 C 
ATOM     20  C   UNL     1      25.412  36.645   8.949  1.00  0.00     0.180 C 
ATOM     21  C   UNL     1      24.658  37.869   8.424  1.00  0.00     0.202 C 
BRANCH  17  22
ATOM     22  C   UNL     1      22.186  35.581  10.466  1.00  0.00     0.191 C 
BRANCH  22  23
ATOM     23  O   UNL     1      22.660  36.385  11.506  1.00  0.00    -0.394 OA
ATOM     24  H   UNL     1      21.977  37.033  11.787  1.00  0.00     0.210 HD
ENDBRANCH  22  23
ENDBRANCH  17  22
BRANCH  19  25
ATOM     25  O   UNL     1      22.429  38.163   9.278  1.00  0.00    -0.350 OA
BRANCH  25  26
ATOM     26  C   UNL     1      22.692  39.501   9.427  1.00  0.00     0.169 C 
BRANCH  26  27
ATOM     27  C   UNL     1      21.759  40.413   8.676  1.00  0.00     0.119 C 
BRANCH  27  28
ATOM     28  N   UNL     1      22.501  41.454   7.960  1.00  0.00    -0.092 NA
ATOM     29  N   UNL     1      23.221  41.052   7.025  1.00  0.00     0.001 N 
ATOM     30  N   UNL     1      24.254  40.986   6.331  1.00  0.00    -0.003 NA
ENDBRANCH  27  28
ENDBRANCH  26  27
ENDBRANCH  25  26
ENDBRANCH  19  25
BRANCH  20  31
ATOM     31  O   UNL     1      26.645  37.080   9.369  1.00  0.00    -0.387 OA
ATOM     32  H   UNL     1      26.656  37.571  10.206  1.00  0.00     0.211 HD
ENDBRANCH  20  31
BRANCH  21  33
ATOM     33  O   UNL     1      25.136  38.259   7.187  1.00  0.00    -0.385 OA
ATOM     34  H   UNL     1      26.064  37.947   7.036  1.00  0.00     0.211 HD
ENDBRANCH  21  33
ENDBRANCH  15  16
ENDBRANCH  10  15
BRANCH  12  35
ATOM     35  O   UNL     1      24.106  34.636  13.305  1.00  0.00    -0.385 OA
ATOM     36  H   UNL     1      23.605  35.433  13.069  1.00  0.00     0.211 HD
ENDBRANCH  12  35
BRANCH  13  37
ATOM     37  O   UNL     1      26.389  34.909  15.288  1.00  0.00    -0.387 OA
ATOM     38  H   UNL     1      27.173  34.327  15.084  1.00  0.00     0.211 HD
ENDBRANCH  13  37
BRANCH  14  39
ATOM     39  O   UNL     1      28.098  36.686  14.766  1.00  0.00    -0.387 OA
ATOM     40  H   UNL     1      28.478  35.859  15.146  1.00  0.00     0.211 HD
ENDBRANCH  14  39
ENDBRANCH   8   9
ENDBRANCH   7   8
ENDBRANCH   1   7
BRANCH   1  41
ATOM     41  C   UNL     1      32.262  35.451  12.932  1.00  0.00     0.364 C 
ATOM     42  O   UNL     1      32.067  36.560  12.400  1.00  0.00    -0.246 OA
BRANCH  41  43
ATOM     43  O   UNL     1      33.502  34.872  12.721  1.00  0.00    -0.477 OA
ATOM     44  H   UNL     1      34.338  35.418  12.479  1.00  0.00     0.296 HD
ENDBRANCH  41  43
ENDBRANCH   1  41
BRANCH   3  45
ATOM     45  O   UNL     1      30.784  32.092  15.952  1.00  0.00    -0.391 OA
ATOM     46  H   UNL     1      30.794  31.433  15.238  1.00  0.00     0.211 HD
ENDBRANCH   3  45
BRANCH   5  47
ATOM     47  C   UNL     1      31.521  36.929  16.567  1.00  0.00     0.176 C 
BRANCH  47  48
ATOM     48  O   UNL     1      30.127  37.029  16.889  1.00  0.00    -0.388 OA
ATOM     49  H   UNL     1      29.600  36.485  16.237  1.00  0.00     0.211 HD
ENDBRANCH  47  48
BRANCH  47  50
ATOM     50  C   UNL     1      31.888  38.136  15.732  1.00  0.00     0.165 C 
BRANCH  50  51
ATOM     51  O   UNL     1      32.708  38.995  16.509  1.00  0.00    -0.388 OA
ATOM     52  H   UNL     1      33.395  39.357  15.909  1.00  0.00     0.211 HD
ENDBRANCH  50  51
BRANCH  50  53
ATOM     53  C   UNL     1      30.718  38.892  15.239  1.00  0.00     0.154 C 
BRANCH  53  54
ATOM     54  N   UNL     1      30.376  38.566  13.885  1.00  0.00    -0.319 N 
ATOM     55  C   UNL     1      30.095  39.465  12.833  1.00  0.00     0.407 C 
ATOM     56  H   UNL     1      30.313  37.530  13.575  1.00  0.00     0.167 HD
ATOM     57  O   UNL     1      30.110  40.687  13.004  1.00  0.00    -0.225 OA
BRANCH  55  58
ATOM     58  O   UNL     1      29.782  39.025  11.542  1.00  0.00    -0.443 OA
BRANCH  58  59
ATOM     59  C   UNL     1      30.383  39.617  10.403  1.00  0.00     0.294 C 
BRANCH  59  60
ATOM     60  C   UNL     1      29.569  39.344   9.178  1.00  0.00     0.120 A 
ATOM     61  C   UNL     1      30.024  38.797   7.987  1.00  0.00     0.139 A 
ATOM     62  N   UNL     1      28.260  39.572   8.992  1.00  0.00    -0.132 NA
ATOM     63  N   UNL     1      28.984  38.717   7.138  1.00  0.00    -0.241 N 
ATOM     64  N   UNL     1      27.923  39.194   7.771  1.00  0.00    -0.066 NA
BRANCH  63  65
ATOM     65  C   UNL     1      28.984  38.203   5.765  1.00  0.00     0.268 C 
BRANCH  65  66
ATOM     66  C   UNL     1      28.247  36.927   5.756  1.00  0.00     0.325 C 
ATOM     67  O   UNL     1      28.841  35.859   5.964  1.00  0.00    -0.250 OA
BRANCH  66  68
ATOM     68  O   UNL     1      26.889  36.923   5.513  1.00  0.00    -0.480 OA
ATOM     69  H   UNL     1      26.270  36.228   5.875  1.00  0.00     0.296 HD
ENDBRANCH  66  68
ENDBRANCH  65  66
ENDBRANCH  63  65
ENDBRANCH  59  60
ENDBRANCH  58  59
ENDBRANCH  55  58
ENDBRANCH  53  54
ENDBRANCH  50  53
ENDBRANCH  47  50
ENDBRANCH   5  47
BRANCH   4  70
ATOM     70  N   UNL     1      31.587  34.219  17.918  1.00  0.00    -0.348 N 
ATOM     71  C   UNL     1      30.752  33.585  18.903  1.00  0.00     0.217 C 
ATOM     72  H   UNL     1      32.526  34.528  18.236  1.00  0.00     0.163 HD
ATOM     73  C   UNL     1      31.266  33.439  20.284  1.00  0.00     0.114 C 
ATOM     74  O   UNL     1      29.610  33.163  18.606  1.00  0.00    -0.275 OA
ENDBRANCH   4  70
TORSDOF 32
BEGIN_RES LYS A 131
REMARK  4 active torsions:
REMARK  status: ('A' for Active; 'I' for Inactive)
REMARK    1  A    between atoms: CA   and  CB  
REMARK    2  A    between atoms: CB   and  CG  
REMARK    3  A    between atoms: CG   and  CD  
REMARK    4  A    between atoms: CD   and  CE  
ROOT
ATOM      1  CA  LYS A 131      29.867  25.555  16.977  1.00 20.52     0.186 C 
ENDROOT
BRANCH   1   2
ATOM      2  CB  LYS A 131      28.345  25.722  17.026  1.00 20.94     0.034 C 
BRANCH   2   3
ATOM      3  CG  LYS A 131      27.599  24.462  16.614  1.00 22.96     0.005 C 
BRANCH   3   4
ATOM      4  CD  LYS A 131      27.147  23.658  17.801  1.00 24.33     0.041 C 
BRANCH   4   5
ATOM      5  CE  LYS A 131      26.038  24.407  18.532  1.00 26.91     0.338 C 
ATOM      6  NZ  LYS A 131      25.541  23.610  19.678  1.00 27.40     0.618 N 
ENDBRANCH   4   5
ENDBRANCH   3   4
ENDBRANCH   2   3
ENDBRANCH   1   2
END_RES LYS A 131
BEGIN_RES LYS A 135
REMARK  4 active torsions:
REMARK  status: ('A' for Active; 'I' for Inactive)
REMARK    5  A    between atoms: CA   and  CB  
REMARK    6  A    between atoms: CB   and  CG  
REMARK    7  A    between atoms: CG   and  CD  
REMARK    8  A    between atoms: CD   and  CE  
ROOT
ATOM      7  CA  LYS A 135      33.193  34.663   9.290  1.00 25.02     0.186 C 
ENDROOT
BRANCH   7   8
ATOM      8  CB  LYS A 135      32.060  35.360  10.034  1.00 26.63     0.034 C 
BRANCH   8   9
ATOM      9  CG  LYS A 135      30.810  35.528   9.209  1.00 29.45     0.005 C 
BRANCH   9  10
ATOM     10  CD  LYS A 135      30.327  34.183   8.688  1.00 32.00     0.041 C 
BRANCH  10  11
ATOM     11  CE  LYS A 135      29.052  33.765   9.396  1.00 34.25     0.338 C 
ATOM     12  NZ  LYS A 135      27.849  34.144   8.604  1.00 35.99     0.618 N 
ENDBRANCH  10  11
ENDBRANCH   9  10
ENDBRANCH   8   9
ENDBRANCH   7   8
END_RES LYS A 135
