REMARK VINA RESULT:    -5.244      3.413      7.280
REMARK INTER + INTRA:         -22.975
REMARK INTER:                 -11.870
REMARK INTRA:                 -11.106
REMARK UNBOUND:               -10.068
REMARK SMILES CC(=O)N[C@@H]1[C@@H](O)C[C@](OC[C@H]2O[C@@H](O[C@H]3[C@H](O)[C@@H](O)[C@H](OCCN=[N+]=[N-])O[C@@H]3CO)[C@H](O)[C@@H](O)[C@H]2O)(C(=O)O)O[C@H]1C(O)[C@H](O)CNC(=O)OCc1cn(-c2cnc3ccccc3c2)nn1
REMARK SMILES IDX 9 1 8 2 6 3 5 4 42 5 41 6 10 7 11 8 12 9 14 10 13 11 32 12
REMARK SMILES IDX 34 13 36 14 15 15 16 16 29 17 28 18 21 19 17 20 19 21 30 22
REMARK SMILES IDX 31 23 22 25 23 26 24 27 25 28 26 29 27 30 18 31 20 33 33 35
REMARK SMILES IDX 35 37 37 39 38 41 39 42 40 43 7 45 43 47 44 48 45 50 46 51
REMARK SMILES IDX 47 53 48 54 49 55 50 57 51 58 52 59 53 60 54 61 67 62 55 63
REMARK SMILES IDX 66 64 56 65 57 66 65 67 58 68 64 69 59 70 63 71 60 72 62 73
REMARK SMILES IDX 61 74 4 75 2 76 1 78 3 79
REMARK H PARENT 31 24 18 32 20 34 33 36 35 38 37 40 40 44 7 46 44 49 46 52
REMARK H PARENT 48 56 4 77
REMARK Flexibility Score: inf
ROOT
ATOM      1  C   UNL     1      26.800  36.976  14.263  1.00  0.00     0.272 C 
ATOM      2  C   UNL     1      26.260  37.800  15.376  1.00  0.00     0.113 C 
ATOM      3  C   UNL     1      24.785  37.543  15.619  1.00  0.00     0.145 C 
ATOM      4  C   UNL     1      24.649  36.022  15.689  1.00  0.00     0.142 C 
ATOM      5  C   UNL     1      24.952  35.510  14.272  1.00  0.00     0.178 C 
ATOM      6  O   UNL     1      26.348  35.692  14.172  1.00  0.00    -0.332 OA
ENDROOT
BRANCH   1   7
ATOM      7  O   UNL     1      28.204  36.859  14.351  1.00  0.00    -0.338 OA
BRANCH   7   8
ATOM      8  C   UNL     1      28.697  35.648  13.952  1.00  0.00     0.199 C 
BRANCH   8   9
ATOM      9  C   UNL     1      29.814  35.251  14.893  1.00  0.00     0.179 C 
ATOM     10  C   UNL     1      30.320  34.283  16.912  1.00  0.00     0.282 C 
ATOM     11  O   UNL     1      29.432  34.333  15.850  1.00  0.00    -0.341 OA
ATOM     12  C   UNL     1      31.711  34.692  16.521  1.00  0.00     0.202 C 
ATOM     13  C   UNL     1      32.066  34.371  15.113  1.00  0.00     0.179 C 
ATOM     14  C   UNL     1      31.074  35.001  14.178  1.00  0.00     0.177 C 
BRANCH  10  15
ATOM     15  O   UNL     1      30.267  33.035  17.493  1.00  0.00    -0.341 OA
BRANCH  15  16
ATOM     16  C   UNL     1      29.100  32.339  17.179  1.00  0.00     0.184 C 
ATOM     17  C   UNL     1      28.197  32.133  18.370  1.00  0.00     0.178 C 
ATOM     18  O   UNL     1      27.729  30.869  18.546  1.00  0.00    -0.341 OA
ATOM     19  C   UNL     1      27.268  30.198  17.447  1.00  0.00     0.281 C 
ATOM     20  C   UNL     1      29.376  31.081  16.403  1.00  0.00     0.180 C 
ATOM     21  C   UNL     1      28.105  30.317  16.211  1.00  0.00     0.202 C 
BRANCH  17  22
ATOM     22  C   UNL     1      27.112  33.211  18.417  1.00  0.00     0.191 C 
BRANCH  22  23
ATOM     23  O   UNL     1      26.689  33.584  17.145  1.00  0.00    -0.394 OA
ATOM     24  H   UNL     1      25.799  33.245  16.923  1.00  0.00     0.210 HD
ENDBRANCH  22  23
ENDBRANCH  17  22
BRANCH  19  25
ATOM     25  O   UNL     1      25.917  30.439  17.183  1.00  0.00    -0.350 OA
BRANCH  25  26
ATOM     26  C   UNL     1      25.188  29.278  17.041  1.00  0.00     0.169 C 
BRANCH  26  27
ATOM     27  C   UNL     1      24.135  29.398  15.964  1.00  0.00     0.119 C 
BRANCH  27  28
ATOM     28  N   UNL     1      24.648  30.122  14.820  1.00  0.00    -0.092 NA
ATOM     29  N   UNL     1      24.216  29.946  13.681  1.00  0.00     0.001 N 
ATOM     30  N   UNL     1      23.538  30.067  12.660  1.00  0.00    -0.003 NA
ENDBRANCH  27  28
ENDBRANCH  26  27
ENDBRANCH  25  26
ENDBRANCH  19  25
BRANCH  20  31
ATOM     31  O   UNL     1      29.843  31.456  15.124  1.00  0.00    -0.387 OA
ATOM     32  H   UNL     1      29.909  32.447  15.063  1.00  0.00     0.211 HD
ENDBRANCH  20  31
BRANCH  21  33
ATOM     33  O   UNL     1      28.463  29.052  15.688  1.00  0.00    -0.385 OA
ATOM     34  H   UNL     1      27.658  28.455  15.680  1.00  0.00     0.211 HD
ENDBRANCH  21  33
ENDBRANCH  15  16
ENDBRANCH  10  15
BRANCH  12  35
ATOM     35  O   UNL     1      31.984  36.036  16.759  1.00  0.00    -0.385 OA
ATOM     36  H   UNL     1      31.186  36.525  17.070  1.00  0.00     0.211 HD
ENDBRANCH  12  35
BRANCH  13  37
ATOM     37  O   UNL     1      32.152  32.990  14.922  1.00  0.00    -0.387 OA
ATOM     38  H   UNL     1      32.871  32.787  14.301  1.00  0.00     0.211 HD
ENDBRANCH  13  37
BRANCH  14  39
ATOM     39  O   UNL     1      30.959  34.158  13.078  1.00  0.00    -0.387 OA
ATOM     40  H   UNL     1      31.315  34.542  12.255  1.00  0.00     0.211 HD
ENDBRANCH  14  39
ENDBRANCH   8   9
ENDBRANCH   7   8
ENDBRANCH   1   7
BRANCH   1  41
ATOM     41  C   UNL     1      26.451  37.652  12.965  1.00  0.00     0.364 C 
ATOM     42  O   UNL     1      26.738  38.878  12.773  1.00  0.00    -0.246 OA
BRANCH  41  43
ATOM     43  O   UNL     1      25.815  37.031  11.915  1.00  0.00    -0.477 OA
ATOM     44  H   UNL     1      25.961  37.301  10.931  1.00  0.00     0.296 HD
ENDBRANCH  41  43
ENDBRANCH   1  41
BRANCH   3  45
ATOM     45  O   UNL     1      24.326  38.152  16.762  1.00  0.00    -0.391 OA
ATOM     46  H   UNL     1      24.347  37.495  17.489  1.00  0.00     0.211 HD
ENDBRANCH   3  45
BRANCH   5  47
ATOM     47  C   UNL     1      24.734  34.027  14.164  1.00  0.00     0.176 C 
BRANCH  47  48
ATOM     48  O   UNL     1      25.999  33.408  14.349  1.00  0.00    -0.388 OA
ATOM     49  H   UNL     1      25.913  32.583  14.891  1.00  0.00     0.211 HD
ENDBRANCH  47  48
BRANCH  47  50
ATOM     50  C   UNL     1      24.247  33.554  12.801  1.00  0.00     0.165 C 
BRANCH  50  51
ATOM     51  O   UNL     1      24.992  34.399  11.904  1.00  0.00    -0.388 OA
ATOM     52  H   UNL     1      25.884  33.992  11.805  1.00  0.00     0.211 HD
ENDBRANCH  50  51
BRANCH  50  53
ATOM     53  C   UNL     1      22.821  34.006  12.568  1.00  0.00     0.154 C 
BRANCH  53  54
ATOM     54  N   UNL     1      22.508  34.465  11.267  1.00  0.00    -0.319 N 
ATOM     55  C   UNL     1      21.923  35.715  10.974  1.00  0.00     0.407 C 
ATOM     56  H   UNL     1      22.733  33.807  10.454  1.00  0.00     0.167 HD
ATOM     57  O   UNL     1      21.640  36.486  11.911  1.00  0.00    -0.225 OA
BRANCH  55  58
ATOM     58  O   UNL     1      21.686  36.028   9.655  1.00  0.00    -0.443 OA
BRANCH  58  59
ATOM     59  C   UNL     1      22.312  37.101   9.006  1.00  0.00     0.294 C 
BRANCH  59  60
ATOM     60  C   UNL     1      23.790  36.867   8.945  1.00  0.00     0.121 A 
ATOM     61  C   UNL     1      24.766  37.733   8.583  1.00  0.00     0.144 A 
ATOM     62  N   UNL     1      24.380  35.688   9.254  1.00  0.00    -0.131 NA
ATOM     63  N   UNL     1      25.927  37.057   8.682  1.00  0.00    -0.219 N 
ATOM     64  N   UNL     1      25.680  35.811   9.093  1.00  0.00    -0.062 NA
BRANCH  63  65
ATOM     65  C   UNL     1      27.207  37.610   8.387  1.00  0.00     0.085 A 
ATOM     66  C   UNL     1      27.481  38.048   7.131  1.00  0.00     0.140 A 
ATOM     67  C   UNL     1      28.146  37.694   9.403  1.00  0.00     0.040 A 
ATOM     68  N   UNL     1      28.695  38.574   6.870  1.00  0.00    -0.254 NA
ATOM     69  C   UNL     1      29.368  38.231   9.119  1.00  0.00     0.002 A 
ATOM     70  C   UNL     1      29.607  38.659   7.845  1.00  0.00     0.070 A 
ATOM     71  C   UNL     1      30.319  38.326  10.114  1.00  0.00     0.010 A 
ATOM     72  C   UNL     1      30.859  39.207   7.562  1.00  0.00     0.029 A 
ATOM     73  C   UNL     1      31.555  38.873   9.811  1.00  0.00     0.001 A 
ATOM     74  C   UNL     1      31.829  39.320   8.517  1.00  0.00     0.002 A 
ENDBRANCH  63  65
ENDBRANCH  59  60
ENDBRANCH  58  59
ENDBRANCH  55  58
ENDBRANCH  53  54
ENDBRANCH  50  53
ENDBRANCH  47  50
ENDBRANCH   5  47
BRANCH   4  75
ATOM     75  N   UNL     1      23.406  35.623  16.228  1.00  0.00    -0.348 N 
ATOM     76  C   UNL     1      23.293  35.246  17.618  1.00  0.00     0.217 C 
ATOM     77  H   UNL     1      22.513  35.586  15.695  1.00  0.00     0.163 HD
ATOM     78  C   UNL     1      22.012  34.829  18.192  1.00  0.00     0.114 C 
ATOM     79  O   UNL     1      24.356  35.295  18.308  1.00  0.00    -0.275 OA
ENDBRANCH   4  75
TORSDOF 30
BEGIN_RES LYS A 131
REMARK  4 active torsions:
REMARK  status: ('A' for Active; 'I' for Inactive)
REMARK    1  A    between atoms: CA   and  CB  
REMARK    2  A    between atoms: CB   and  CG  
REMARK    3  A    between atoms: CG   and  CD  
REMARK    4  A    between atoms: CD   and  CE  
ROOT
ATOM      1  CA  LYS A 131      29.867  25.555  16.977  1.00 20.52     0.186 C 
ENDROOT
BRANCH   1   2
ATOM      2  CB  LYS A 131      28.345  25.722  17.026  1.00 20.94     0.034 C 
BRANCH   2   3
ATOM      3  CG  LYS A 131      27.601  24.403  16.887  1.00 22.96     0.005 C 
BRANCH   3   4
ATOM      4  CD  LYS A 131      26.169  24.510  17.334  1.00 24.33     0.041 C 
BRANCH   4   5
ATOM      5  CE  LYS A 131      25.776  23.245  18.091  1.00 26.91     0.338 C 
ATOM      6  NZ  LYS A 131      25.471  23.561  19.506  1.00 27.40     0.618 N 
ENDBRANCH   4   5
ENDBRANCH   3   4
ENDBRANCH   2   3
ENDBRANCH   1   2
END_RES LYS A 131
BEGIN_RES LYS A 135
REMARK  4 active torsions:
REMARK  status: ('A' for Active; 'I' for Inactive)
REMARK    5  A    between atoms: CA   and  CB  
REMARK    6  A    between atoms: CB   and  CG  
REMARK    7  A    between atoms: CG   and  CD  
REMARK    8  A    between atoms: CD   and  CE  
ROOT
ATOM      7  CA  LYS A 135      33.193  34.663   9.290  1.00 25.02     0.186 C 
ENDROOT
BRANCH   7   8
ATOM      8  CB  LYS A 135      32.060  35.360  10.034  1.00 26.63     0.034 C 
BRANCH   8   9
ATOM      9  CG  LYS A 135      30.716  34.709   9.832  1.00 29.45     0.005 C 
BRANCH   9  10
ATOM     10  CD  LYS A 135      30.327  34.726   8.362  1.00 32.00     0.041 C 
BRANCH  10  11
ATOM     11  CE  LYS A 135      28.852  34.415   8.198  1.00 34.25     0.338 C 
ATOM     12  NZ  LYS A 135      28.306  33.746   9.412  1.00 35.99     0.618 N 
ENDBRANCH  10  11
ENDBRANCH   9  10
ENDBRANCH   8   9
ENDBRANCH   7   8
END_RES LYS A 135
