REMARK VINA RESULT:    -4.181      2.606      6.557
REMARK INTER + INTRA:         -22.780
REMARK INTER:                 -10.150
REMARK INTRA:                 -12.630
REMARK UNBOUND:               -12.122
REMARK SMILES CC(=O)N[C@@H]1[C@@H](O)C[C@](OC[C@H]2O[C@@H](O[C@H]3[C@H](O)[C@@H](O)[C@H](OCCN=[N+]=[N-])O[C@@H]3CO)[C@H](O)[C@@H](O)[C@H]2O)(C(=O)O)O[C@H]1C(O)[C@H](O)CNC(=O)OCc1cn(-c2ccc(O)c([N+](=O)[O-])c2)nn1
REMARK SMILES IDX 9 1 8 2 6 3 5 4 42 5 41 6 10 7 11 8 12 9 14 10 13 11 32 12
REMARK SMILES IDX 34 13 36 14 15 15 16 16 29 17 28 18 21 19 17 20 19 21 30 22
REMARK SMILES IDX 31 23 22 25 23 26 24 27 25 28 26 29 27 30 18 31 20 33 33 35
REMARK SMILES IDX 35 37 37 39 38 41 39 42 40 43 7 45 43 47 44 48 45 50 46 51
REMARK SMILES IDX 47 53 48 54 49 55 50 57 51 58 52 59 53 60 54 61 67 62 55 63
REMARK SMILES IDX 66 64 56 65 57 66 65 67 58 68 61 69 59 70 62 71 63 72 64 73
REMARK SMILES IDX 60 74 4 76 2 77 1 79 3 80
REMARK H PARENT 31 24 18 32 20 34 33 36 35 38 37 40 40 44 7 46 44 49 46 52
REMARK H PARENT 48 56 60 75 4 78
REMARK Flexibility Score: inf
ROOT
ATOM      1  C   UNL     1      29.892  33.414  15.930  1.00  0.00     0.272 C 
ATOM      2  C   UNL     1      30.931  32.302  16.169  1.00  0.00     0.113 C 
ATOM      3  C   UNL     1      30.200  30.974  16.341  1.00  0.00     0.145 C 
ATOM      4  C   UNL     1      29.454  31.128  17.692  1.00  0.00     0.142 C 
ATOM      5  C   UNL     1      28.866  32.508  17.787  1.00  0.00     0.178 C 
ATOM      6  O   UNL     1      28.690  33.065  16.507  1.00  0.00    -0.332 OA
ENDROOT
BRANCH   1   7
ATOM      7  O   UNL     1      29.743  33.463  14.557  1.00  0.00    -0.338 OA
BRANCH   7   8
ATOM      8  C   UNL     1      30.852  33.771  13.828  1.00  0.00     0.199 C 
BRANCH   8   9
ATOM      9  C   UNL     1      30.431  34.943  12.908  1.00  0.00     0.179 C 
ATOM     10  C   UNL     1      28.793  36.512  12.888  1.00  0.00     0.282 C 
ATOM     11  O   UNL     1      29.137  35.205  13.242  1.00  0.00    -0.341 OA
ATOM     12  C   UNL     1      29.477  37.418  13.852  1.00  0.00     0.202 C 
ATOM     13  C   UNL     1      30.968  37.292  13.674  1.00  0.00     0.179 C 
ATOM     14  C   UNL     1      31.423  36.029  13.042  1.00  0.00     0.177 C 
BRANCH  10  15
ATOM     15  O   UNL     1      27.397  36.643  12.874  1.00  0.00    -0.341 OA
BRANCH  15  16
ATOM     16  C   UNL     1      26.838  35.382  12.939  1.00  0.00     0.184 C 
ATOM     17  C   UNL     1      25.706  35.133  12.004  1.00  0.00     0.178 C 
ATOM     18  O   UNL     1      25.474  33.763  11.988  1.00  0.00    -0.341 OA
ATOM     19  C   UNL     1      24.891  33.349  13.222  1.00  0.00     0.281 C 
ATOM     20  C   UNL     1      26.242  35.160  14.354  1.00  0.00     0.180 C 
ATOM     21  C   UNL     1      25.758  33.712  14.369  1.00  0.00     0.202 C 
BRANCH  17  22
ATOM     22  C   UNL     1      25.890  35.627  10.608  1.00  0.00     0.191 C 
BRANCH  22  23
ATOM     23  O   UNL     1      25.713  36.998  10.535  1.00  0.00    -0.394 OA
ATOM     24  H   UNL     1      24.791  37.163  10.158  1.00  0.00     0.210 HD
ENDBRANCH  22  23
ENDBRANCH  17  22
BRANCH  19  25
ATOM     25  O   UNL     1      24.812  31.967  13.088  1.00  0.00    -0.350 OA
BRANCH  25  26
ATOM     26  C   UNL     1      23.528  31.470  13.189  1.00  0.00     0.169 C 
BRANCH  26  27
ATOM     27  C   UNL     1      23.467  30.251  14.056  1.00  0.00     0.119 C 
BRANCH  27  28
ATOM     28  N   UNL     1      24.086  30.573  15.340  1.00  0.00    -0.092 NA
ATOM     29  N   UNL     1      25.215  30.105  15.607  1.00  0.00     0.001 N 
ATOM     30  N   UNL     1      26.435  30.108  15.855  1.00  0.00    -0.003 NA
ENDBRANCH  27  28
ENDBRANCH  26  27
ENDBRANCH  25  26
ENDBRANCH  19  25
BRANCH  20  31
ATOM     31  O   UNL     1      27.223  35.278  15.326  1.00  0.00    -0.387 OA
ATOM     32  H   UNL     1      27.205  36.168  15.773  1.00  0.00     0.211 HD
ENDBRANCH  20  31
BRANCH  21  33
ATOM     33  O   UNL     1      25.057  33.581  15.565  1.00  0.00    -0.385 OA
ATOM     34  H   UNL     1      24.868  32.646  15.774  1.00  0.00     0.211 HD
ENDBRANCH  21  33
ENDBRANCH  15  16
ENDBRANCH  10  15
BRANCH  12  35
ATOM     35  O   UNL     1      29.095  38.749  13.726  1.00  0.00    -0.385 OA
ATOM     36  H   UNL     1      29.860  39.315  13.417  1.00  0.00     0.211 HD
ENDBRANCH  12  35
BRANCH  13  37
ATOM     37  O   UNL     1      31.549  37.557  14.919  1.00  0.00    -0.387 OA
ATOM     38  H   UNL     1      31.958  38.462  14.857  1.00  0.00     0.211 HD
ENDBRANCH  13  37
BRANCH  14  39
ATOM     39  O   UNL     1      32.595  35.606  13.706  1.00  0.00    -0.387 OA
ATOM     40  H   UNL     1      33.328  35.411  13.086  1.00  0.00     0.211 HD
ENDBRANCH  14  39
ENDBRANCH   8   9
ENDBRANCH   7   8
ENDBRANCH   1   7
BRANCH   1  41
ATOM     41  C   UNL     1      30.514  34.645  16.406  1.00  0.00     0.364 C 
ATOM     42  O   UNL     1      31.746  34.830  16.588  1.00  0.00    -0.246 OA
BRANCH  41  43
ATOM     43  O   UNL     1      29.707  35.747  16.696  1.00  0.00    -0.477 OA
ATOM     44  H   UNL     1      29.597  36.114  17.635  1.00  0.00     0.296 HD
ENDBRANCH  41  43
ENDBRANCH   1  41
BRANCH   3  45
ATOM     45  O   UNL     1      29.309  30.751  15.325  1.00  0.00    -0.391 OA
ATOM     46  H   UNL     1      28.407  30.624  15.703  1.00  0.00     0.211 HD
ENDBRANCH   3  45
BRANCH   5  47
ATOM     47  C   UNL     1      27.490  32.424  18.402  1.00  0.00     0.176 C 
BRANCH  47  48
ATOM     48  O   UNL     1      27.155  31.085  18.527  1.00  0.00    -0.388 OA
ATOM     49  H   UNL     1      27.924  30.521  18.788  1.00  0.00     0.211 HD
ENDBRANCH  47  48
BRANCH  47  50
ATOM     50  C   UNL     1      27.374  33.088  19.750  1.00  0.00     0.165 C 
BRANCH  50  51
ATOM     51  O   UNL     1      27.062  32.026  20.640  1.00  0.00    -0.388 OA
ATOM     52  H   UNL     1      27.701  31.268  20.528  1.00  0.00     0.211 HD
ENDBRANCH  50  51
BRANCH  50  53
ATOM     53  C   UNL     1      26.206  34.032  19.810  1.00  0.00     0.154 C 
BRANCH  53  54
ATOM     54  N   UNL     1      25.249  33.708  18.786  1.00  0.00    -0.319 N 
ATOM     55  C   UNL     1      24.134  32.859  18.939  1.00  0.00     0.407 C 
ATOM     56  H   UNL     1      25.370  34.134  17.816  1.00  0.00     0.167 HD
ATOM     57  O   UNL     1      23.957  32.337  20.048  1.00  0.00    -0.225 OA
BRANCH  55  58
ATOM     58  O   UNL     1      23.227  32.571  17.946  1.00  0.00    -0.443 OA
BRANCH  58  59
ATOM     59  C   UNL     1      22.037  33.307  17.816  1.00  0.00     0.294 C 
BRANCH  59  60
ATOM     60  C   UNL     1      22.117  34.098  16.552  1.00  0.00     0.121 A 
ATOM     61  C   UNL     1      21.489  33.778  15.345  1.00  0.00     0.144 A 
ATOM     62  N   UNL     1      22.774  35.230  16.272  1.00  0.00    -0.131 NA
ATOM     63  N   UNL     1      21.794  34.704  14.443  1.00  0.00    -0.220 N 
ATOM     64  N   UNL     1      22.583  35.578  15.049  1.00  0.00    -0.062 NA
BRANCH  63  65
ATOM     65  C   UNL     1      21.359  34.746  13.073  1.00  0.00     0.073 A 
ATOM     66  C   UNL     1      20.244  34.078  12.670  1.00  0.00     0.033 A 
ATOM     67  C   UNL     1      22.044  35.458  12.126  1.00  0.00     0.118 A 
ATOM     68  C   UNL     1      19.787  34.090  11.373  1.00  0.00     0.056 A 
ATOM     69  C   UNL     1      21.600  35.489  10.789  1.00  0.00     0.312 A 
ATOM     70  C   UNL     1      20.478  34.819  10.380  1.00  0.00     0.194 A 
BRANCH  69  71
ATOM     71  N   UNL     1      22.360  36.249   9.882  1.00  0.00     0.066 N 
ATOM     72  O   UNL     1      22.589  35.736   8.742  1.00  0.00    -0.258 OA
ATOM     73  O   UNL     1      22.841  37.478  10.198  1.00  0.00    -0.258 OA
ENDBRANCH  69  71
BRANCH  70  74
ATOM     74  O   UNL     1      19.972  34.801   9.091  1.00  0.00    -0.502 OA
ATOM     75  H   UNL     1      20.255  35.415   8.396  1.00  0.00     0.293 HD
ENDBRANCH  70  74
ENDBRANCH  63  65
ENDBRANCH  59  60
ENDBRANCH  58  59
ENDBRANCH  55  58
ENDBRANCH  53  54
ENDBRANCH  50  53
ENDBRANCH  47  50
ENDBRANCH   5  47
BRANCH   4  76
ATOM     76  N   UNL     1      30.480  30.889  18.689  1.00  0.00    -0.348 N 
ATOM     77  C   UNL     1      30.187  30.188  19.904  1.00  0.00     0.217 C 
ATOM     78  H   UNL     1      31.452  31.220  18.549  1.00  0.00     0.163 HD
ATOM     79  C   UNL     1      31.251  29.956  20.909  1.00  0.00     0.114 C 
ATOM     80  O   UNL     1      29.004  29.774  20.093  1.00  0.00    -0.275 OA
ENDBRANCH   4  76
TORSDOF 32
BEGIN_RES LYS A 131
REMARK  4 active torsions:
REMARK  status: ('A' for Active; 'I' for Inactive)
REMARK    1  A    between atoms: CA   and  CB  
REMARK    2  A    between atoms: CB   and  CG  
REMARK    3  A    between atoms: CG   and  CD  
REMARK    4  A    between atoms: CD   and  CE  
ROOT
ATOM      1  CA  LYS A 131      29.867  25.555  16.977  1.00 20.52     0.186 C 
ENDROOT
BRANCH   1   2
ATOM      2  CB  LYS A 131      28.345  25.722  17.026  1.00 20.94     0.034 C 
BRANCH   2   3
ATOM      3  CG  LYS A 131      27.848  26.221  18.374  1.00 22.96     0.005 C 
BRANCH   3   4
ATOM      4  CD  LYS A 131      27.078  27.506  18.254  1.00 24.33     0.041 C 
BRANCH   4   5
ATOM      5  CE  LYS A 131      25.652  27.293  18.751  1.00 26.91     0.338 C 
ATOM      6  NZ  LYS A 131      24.704  27.267  17.611  1.00 27.40     0.618 N 
ENDBRANCH   4   5
ENDBRANCH   3   4
ENDBRANCH   2   3
ENDBRANCH   1   2
END_RES LYS A 131
BEGIN_RES LYS A 135
REMARK  4 active torsions:
REMARK  status: ('A' for Active; 'I' for Inactive)
REMARK    5  A    between atoms: CA   and  CB  
REMARK    6  A    between atoms: CB   and  CG  
REMARK    7  A    between atoms: CG   and  CD  
REMARK    8  A    between atoms: CD   and  CE  
ROOT
ATOM      7  CA  LYS A 135      33.193  34.663   9.290  1.00 25.02     0.186 C 
ENDROOT
BRANCH   7   8
ATOM      8  CB  LYS A 135      32.060  35.360  10.034  1.00 26.63     0.034 C 
BRANCH   8   9
ATOM      9  CG  LYS A 135      30.801  35.501   9.219  1.00 29.45     0.005 C 
BRANCH   9  10
ATOM     10  CD  LYS A 135      30.168  34.140   8.969  1.00 32.00     0.041 C 
BRANCH  10  11
ATOM     11  CE  LYS A 135      28.716  34.296   8.559  1.00 34.25     0.338 C 
ATOM     12  NZ  LYS A 135      28.577  35.258   7.432  1.00 35.99     0.618 N 
ENDBRANCH  10  11
ENDBRANCH   9  10
ENDBRANCH   8   9
ENDBRANCH   7   8
END_RES LYS A 135
