REMARK VINA RESULT:    -4.341      4.072      8.093
REMARK INTER + INTRA:         -24.774
REMARK INTER:                 -13.623
REMARK INTRA:                 -11.151
REMARK UNBOUND:               -13.073
REMARK SMILES CC(=O)N[C@@H]1[C@@H](O)C[C@](OC[C@H]2O[C@@H](O[C@H]3[C@H](O)[C@@H](O)[C@H](OCCN=[N+]=[N-])O[C@@H]3CO)[C@H](O)[C@@H](O)[C@H]2O)(C(=O)O)O[C@H]1C(O)[C@H](O)CNC(=O)OCc1cn(C[C@@H](C)CN2CCN(c3ccc(Cl)cc3)CC2)nn1
REMARK SMILES IDX 43 1 42 2 9 3 8 4 41 5 6 6 5 7 10 8 11 9 12 10 14 11 13 12
REMARK SMILES IDX 32 13 34 14 36 15 15 16 16 17 29 18 28 19 21 20 17 21 19 22
REMARK SMILES IDX 30 23 31 24 22 26 23 27 24 28 25 29 26 30 27 31 18 32 20 34
REMARK SMILES IDX 33 36 35 38 37 40 38 42 39 43 40 44 7 46 4 48 2 49 1 51 3 52
REMARK SMILES IDX 44 53 45 55 46 56 47 58 48 59 49 60 50 62 51 63 52 64 53 65
REMARK SMILES IDX 54 66 74 67 55 68 73 69 56 70 57 71 58 72 59 73 60 74 61 75
REMARK SMILES IDX 72 76 62 77 71 78 63 79 64 80 65 81 70 82 66 83 69 84 67 85
REMARK SMILES IDX 68 86
REMARK H PARENT 31 25 18 33 20 35 33 37 35 39 37 41 40 45 7 47 4 50 44 54
REMARK H PARENT 46 57 48 61
REMARK Flexibility Score: inf
ROOT
ATOM      1  C   UNL     1      28.595  38.209   5.721  1.00  0.00     0.176 C 
ENDROOT
BRANCH   1   2
ATOM      2  C   UNL     1      27.848  39.109   6.694  1.00  0.00     0.178 C 
ATOM      3  C   UNL     1      25.768  40.146   7.120  1.00  0.00     0.272 C 
ATOM      4  C   UNL     1      26.535  41.078   7.920  1.00  0.00     0.113 C 
ATOM      5  O   UNL     1      26.631  39.460   6.210  1.00  0.00    -0.332 OA
ATOM      6  C   UNL     1      27.851  41.477   7.280  1.00  0.00     0.145 C 
ATOM      7  C   UNL     1      28.711  40.207   7.216  1.00  0.00     0.142 C 
BRANCH   3   8
ATOM      8  O   UNL     1      24.756  40.546   6.356  1.00  0.00    -0.338 OA
BRANCH   8   9
ATOM      9  C   UNL     1      23.885  41.499   6.561  1.00  0.00     0.199 C 
BRANCH   9  10
ATOM     10  C   UNL     1      22.510  41.255   7.112  1.00  0.00     0.179 C 
ATOM     11  C   UNL     1      21.687  39.921   8.841  1.00  0.00     0.282 C 
ATOM     12  O   UNL     1      22.329  40.007   7.634  1.00  0.00    -0.341 OA
ATOM     13  C   UNL     1      22.536  40.594   9.902  1.00  0.00     0.202 C 
ATOM     14  C   UNL     1      22.741  42.020   9.504  1.00  0.00     0.179 C 
ATOM     15  C   UNL     1      22.210  42.347   8.150  1.00  0.00     0.177 C 
BRANCH  11  16
ATOM     16  O   UNL     1      21.635  38.542   9.157  1.00  0.00    -0.341 OA
BRANCH  16  17
ATOM     17  C   UNL     1      20.580  37.960   8.501  1.00  0.00     0.184 C 
ATOM     18  C   UNL     1      19.304  37.975   9.317  1.00  0.00     0.178 C 
ATOM     19  O   UNL     1      18.888  36.755   9.753  1.00  0.00    -0.341 OA
ATOM     20  C   UNL     1      18.714  35.781   8.786  1.00  0.00     0.281 C 
ATOM     21  C   UNL     1      20.909  36.544   8.040  1.00  0.00     0.180 C 
ATOM     22  C   UNL     1      19.609  35.923   7.586  1.00  0.00     0.202 C 
BRANCH  18  23
ATOM     23  C   UNL     1      18.206  38.782   8.642  1.00  0.00     0.191 C 
BRANCH  23  24
ATOM     24  O   UNL     1      16.984  38.603   9.242  1.00  0.00    -0.394 OA
ATOM     25  H   UNL     1      16.724  37.643   9.093  1.00  0.00     0.210 HD
ENDBRANCH  23  24
ENDBRANCH  18  23
BRANCH  20  26
ATOM     26  O   UNL     1      17.391  35.672   8.375  1.00  0.00    -0.350 OA
BRANCH  26  27
ATOM     27  C   UNL     1      16.645  34.727   9.019  1.00  0.00     0.169 C 
BRANCH  27  28
ATOM     28  C   UNL     1      17.385  33.427   9.162  1.00  0.00     0.119 C 
BRANCH  28  29
ATOM     29  N   UNL     1      17.463  32.776   7.865  1.00  0.00    -0.092 NA
ATOM     30  N   UNL     1      16.444  32.247   7.384  1.00  0.00     0.001 N 
ATOM     31  N   UNL     1      15.375  31.768   7.028  1.00  0.00    -0.003 NA
ENDBRANCH  28  29
ENDBRANCH  27  28
ENDBRANCH  26  27
ENDBRANCH  20  26
BRANCH  21  32
ATOM     32  O   UNL     1      21.768  36.570   6.943  1.00  0.00    -0.387 OA
ATOM     33  H   UNL     1      21.263  36.127   6.199  1.00  0.00     0.211 HD
ENDBRANCH  21  32
BRANCH  22  34
ATOM     34  O   UNL     1      19.891  34.621   7.102  1.00  0.00    -0.385 OA
ATOM     35  H   UNL     1      20.308  34.049   7.765  1.00  0.00     0.211 HD
ENDBRANCH  22  34
ENDBRANCH  16  17
ENDBRANCH  11  16
BRANCH  13  36
ATOM     36  O   UNL     1      21.897  40.447  11.121  1.00  0.00    -0.385 OA
ATOM     37  H   UNL     1      22.132  41.252  11.668  1.00  0.00     0.211 HD
ENDBRANCH  13  36
BRANCH  14  38
ATOM     38  O   UNL     1      24.072  42.438   9.632  1.00  0.00    -0.387 OA
ATOM     39  H   UNL     1      24.627  41.737  10.042  1.00  0.00     0.211 HD
ENDBRANCH  14  38
BRANCH  15  40
ATOM     40  O   UNL     1      22.715  43.540   7.694  1.00  0.00    -0.387 OA
ATOM     41  H   UNL     1      22.124  43.975   7.038  1.00  0.00     0.211 HD
ENDBRANCH  15  40
ENDBRANCH   9  10
ENDBRANCH   8   9
ENDBRANCH   3   8
BRANCH   3  42
ATOM     42  C   UNL     1      25.307  38.983   7.977  1.00  0.00     0.364 C 
ATOM     43  O   UNL     1      25.703  38.877   9.189  1.00  0.00    -0.246 OA
BRANCH  42  44
ATOM     44  O   UNL     1      24.469  37.988   7.541  1.00  0.00    -0.477 OA
ATOM     45  H   UNL     1      23.667  37.693   8.085  1.00  0.00     0.296 HD
ENDBRANCH  42  44
ENDBRANCH   3  42
BRANCH   6  46
ATOM     46  O   UNL     1      27.558  41.926   5.992  1.00  0.00    -0.391 OA
ATOM     47  H   UNL     1      28.377  42.042   5.452  1.00  0.00     0.211 HD
ENDBRANCH   6  46
BRANCH   7  48
ATOM     48  N   UNL     1      29.192  39.951   8.559  1.00  0.00    -0.348 N 
ATOM     49  C   UNL     1      30.583  39.977   8.833  1.00  0.00     0.217 C 
ATOM     50  H   UNL     1      28.542  39.738   9.365  1.00  0.00     0.163 HD
ATOM     51  C   UNL     1      31.041  39.705  10.241  1.00  0.00     0.114 C 
ATOM     52  O   UNL     1      31.457  40.217   7.953  1.00  0.00    -0.275 OA
ENDBRANCH   7  48
ENDBRANCH   1   2
BRANCH   1  53
ATOM     53  O   UNL     1      29.893  38.062   6.209  1.00  0.00    -0.388 OA
ATOM     54  H   UNL     1      29.893  37.694   7.123  1.00  0.00     0.211 HD
ENDBRANCH   1  53
BRANCH   1  55
ATOM     55  C   UNL     1      28.022  36.824   5.606  1.00  0.00     0.165 C 
BRANCH  55  56
ATOM     56  O   UNL     1      26.655  36.747   5.660  1.00  0.00    -0.388 OA
ATOM     57  H   UNL     1      26.307  35.907   5.314  1.00  0.00     0.211 HD
ENDBRANCH  55  56
BRANCH  55  58
ATOM     58  C   UNL     1      28.655  35.813   6.499  1.00  0.00     0.154 C 
BRANCH  58  59
ATOM     59  N   UNL     1      27.933  35.805   7.773  1.00  0.00    -0.319 N 
ATOM     60  C   UNL     1      28.515  36.321   8.954  1.00  0.00     0.407 C 
ATOM     61  H   UNL     1      26.972  35.409   7.803  1.00  0.00     0.167 HD
ATOM     62  O   UNL     1      29.679  36.787   8.884  1.00  0.00    -0.225 OA
BRANCH  60  63
ATOM     63  O   UNL     1      27.810  36.309  10.150  1.00  0.00    -0.443 OA
BRANCH  63  64
ATOM     64  C   UNL     1      27.082  35.127  10.483  1.00  0.00     0.294 C 
BRANCH  64  65
ATOM     65  C   UNL     1      25.631  35.269  10.224  1.00  0.00     0.120 A 
ATOM     66  C   UNL     1      24.612  35.221  11.149  1.00  0.00     0.138 A 
ATOM     67  N   UNL     1      25.022  35.471   9.032  1.00  0.00    -0.132 NA
ATOM     68  N   UNL     1      23.469  35.389  10.492  1.00  0.00    -0.252 N 
ATOM     69  N   UNL     1      23.721  35.541   9.211  1.00  0.00    -0.067 NA
BRANCH  68  70
ATOM     70  C   UNL     1      22.147  35.390  11.120  1.00  0.00     0.150 C 
BRANCH  70  71
ATOM     71  C   UNL     1      22.204  36.060  12.496  1.00  0.00     0.022 C 
ATOM     72  C   UNL     1      21.231  37.217  12.432  1.00  0.00     0.011 C 
BRANCH  71  73
ATOM     73  C   UNL     1      21.810  35.064  13.541  1.00  0.00     0.089 C 
BRANCH  73  74
ATOM     74  N   UNL     1      22.813  34.497  14.342  1.00  0.00    -0.299 NA
ATOM     75  C   UNL     1      23.748  35.296  15.014  1.00  0.00     0.106 C 
ATOM     76  C   UNL     1      23.242  33.194  13.947  1.00  0.00     0.106 C 
ATOM     77  C   UNL     1      25.190  34.869  14.742  1.00  0.00     0.132 C 
ATOM     78  C   UNL     1      24.154  32.617  15.015  1.00  0.00     0.132 C 
ATOM     79  N   UNL     1      25.330  33.445  15.046  1.00  0.00    -0.369 N 
BRANCH  79  80
ATOM     80  C   UNL     1      26.597  32.932  15.351  1.00  0.00     0.037 A 
ATOM     81  C   UNL     1      26.777  31.634  15.822  1.00  0.00     0.027 A 
ATOM     82  C   UNL     1      27.763  33.672  15.198  1.00  0.00     0.027 A 
ATOM     83  C   UNL     1      28.009  31.104  16.121  1.00  0.00     0.022 A 
ATOM     84  C   UNL     1      29.002  33.142  15.497  1.00  0.00     0.022 A 
ATOM     85  C   UNL     1      29.145  31.854  15.963  1.00  0.00     0.041 A 
ATOM     86  Cl  UNL     1      30.699  31.186  16.339  1.00  0.00    -0.084 Cl
ENDBRANCH  79  80
ENDBRANCH  73  74
ENDBRANCH  71  73
ENDBRANCH  70  71
ENDBRANCH  68  70
ENDBRANCH  64  65
ENDBRANCH  63  64
ENDBRANCH  60  63
ENDBRANCH  58  59
ENDBRANCH  55  58
ENDBRANCH   1  55
TORSDOF 34
BEGIN_RES LYS A 131
REMARK  4 active torsions:
REMARK  status: ('A' for Active; 'I' for Inactive)
REMARK    1  A    between atoms: CA   and  CB  
REMARK    2  A    between atoms: CB   and  CG  
REMARK    3  A    between atoms: CG   and  CD  
REMARK    4  A    between atoms: CD   and  CE  
ROOT
ATOM      1  CA  LYS A 131      29.867  25.555  16.977  1.00 20.52     0.186 C 
ENDROOT
BRANCH   1   2
ATOM      2  CB  LYS A 131      28.345  25.722  17.026  1.00 20.94     0.034 C 
BRANCH   2   3
ATOM      3  CG  LYS A 131      27.602  24.398  16.928  1.00 22.96     0.005 C 
BRANCH   3   4
ATOM      4  CD  LYS A 131      26.520  24.278  17.966  1.00 24.33     0.041 C 
BRANCH   4   5
ATOM      5  CE  LYS A 131      25.260  23.708  17.323  1.00 26.91     0.338 C 
ATOM      6  NZ  LYS A 131      24.836  22.471  18.021  1.00 27.40     0.618 N 
ENDBRANCH   4   5
ENDBRANCH   3   4
ENDBRANCH   2   3
ENDBRANCH   1   2
END_RES LYS A 131
BEGIN_RES LYS A 135
REMARK  4 active torsions:
REMARK  status: ('A' for Active; 'I' for Inactive)
REMARK    5  A    between atoms: CA   and  CB  
REMARK    6  A    between atoms: CB   and  CG  
REMARK    7  A    between atoms: CG   and  CD  
REMARK    8  A    between atoms: CD   and  CE  
ROOT
ATOM      7  CA  LYS A 135      33.193  34.663   9.290  1.00 25.02     0.186 C 
ENDROOT
BRANCH   7   8
ATOM      8  CB  LYS A 135      32.060  35.360  10.034  1.00 26.63     0.034 C 
BRANCH   8   9
ATOM      9  CG  LYS A 135      32.530  36.213  11.184  1.00 29.45     0.005 C 
BRANCH   9  10
ATOM     10  CD  LYS A 135      32.072  35.625  12.510  1.00 32.00     0.041 C 
BRANCH  10  11
ATOM     11  CE  LYS A 135      30.684  35.029  12.378  1.00 34.25     0.338 C 
ATOM     12  NZ  LYS A 135      29.658  35.914  12.995  1.00 35.99     0.618 N 
ENDBRANCH  10  11
ENDBRANCH   9  10
ENDBRANCH   8   9
ENDBRANCH   7   8
END_RES LYS A 135
