REMARK VINA RESULT:    -5.810      2.534      4.285
REMARK INTER + INTRA:         -24.398
REMARK INTER:                 -13.711
REMARK INTRA:                 -10.687
REMARK UNBOUND:                -9.416
REMARK SMILES CC(=O)N[C@@H]1[C@@H](O)C[C@](OC[C@H]2O[C@@H](O[C@H]3[C@H](O)[C@@H](O)[C@H](OCCN=[N+]=[N-])O[C@@H]3CO)[C@H](O)[C@@H](O)[C@H]2O)(C(=O)O)O[C@H]1C(O)[C@H](O)CNC(=O)OCc1cn(C(C)(C)C(=O)c2c[nH]c3ccccc23)nn1
REMARK SMILES IDX 9 1 8 2 6 3 5 4 42 5 41 6 10 7 11 8 12 9 14 10 13 11 32 12
REMARK SMILES IDX 34 13 36 14 15 15 16 16 29 17 28 18 21 19 17 20 19 21 30 22
REMARK SMILES IDX 31 23 22 25 23 26 24 27 25 28 26 29 27 30 18 31 20 33 33 35
REMARK SMILES IDX 35 37 37 39 38 41 39 42 40 43 7 45 43 47 44 48 45 50 46 51
REMARK SMILES IDX 47 53 48 54 49 55 50 57 51 58 52 59 53 60 54 61 71 62 55 63
REMARK SMILES IDX 70 64 56 65 57 66 58 67 59 68 60 69 61 70 62 71 69 72 63 73
REMARK SMILES IDX 64 74 68 75 65 77 67 78 66 79 4 80 2 81 1 83 3 84
REMARK H PARENT 31 24 18 32 20 34 33 36 35 38 37 40 40 44 7 46 44 49 46 52
REMARK H PARENT 48 56 63 76 4 82
REMARK Flexibility Score: inf
ROOT
ATOM      1  C   UNL     1      23.625  36.053   9.458  1.00  0.00     0.272 C 
ATOM      2  C   UNL     1      22.283  35.678   8.853  1.00  0.00     0.113 C 
ATOM      3  C   UNL     1      21.903  36.598   7.720  1.00  0.00     0.145 C 
ATOM      4  C   UNL     1      21.616  38.020   8.316  1.00  0.00     0.142 C 
ATOM      5  C   UNL     1      22.606  38.179   9.424  1.00  0.00     0.178 C 
ATOM      6  O   UNL     1      23.734  37.420   9.192  1.00  0.00    -0.332 OA
ENDROOT
BRANCH   1   7
ATOM      7  O   UNL     1      24.696  35.368   9.049  1.00  0.00    -0.338 OA
BRANCH   7   8
ATOM      8  C   UNL     1      25.928  35.272   9.422  1.00  0.00     0.199 C 
BRANCH   8   9
ATOM      9  C   UNL     1      26.871  34.651   8.389  1.00  0.00     0.179 C 
ATOM     10  C   UNL     1      28.277  36.502   7.918  1.00  0.00     0.282 C 
ATOM     11  O   UNL     1      27.358  35.588   7.543  1.00  0.00    -0.341 OA
ATOM     12  C   UNL     1      29.401  35.943   8.747  1.00  0.00     0.202 C 
ATOM     13  C   UNL     1      29.323  34.420   8.762  1.00  0.00     0.179 C 
ATOM     14  C   UNL     1      27.972  33.928   9.117  1.00  0.00     0.177 C 
BRANCH  10  15
ATOM     15  O   UNL     1      27.680  37.536   8.618  1.00  0.00    -0.341 OA
BRANCH  15  16
ATOM     16  C   UNL     1      27.487  38.664   7.875  1.00  0.00     0.184 C 
ATOM     17  C   UNL     1      27.938  39.957   8.451  1.00  0.00     0.178 C 
ATOM     18  O   UNL     1      28.053  40.858   7.372  1.00  0.00    -0.341 OA
ATOM     19  C   UNL     1      26.873  41.105   6.732  1.00  0.00     0.281 C 
ATOM     20  C   UNL     1      26.049  38.848   7.431  1.00  0.00     0.180 C 
ATOM     21  C   UNL     1      26.097  39.873   6.319  1.00  0.00     0.202 C 
BRANCH  17  22
ATOM     22  C   UNL     1      29.312  39.917   9.088  1.00  0.00     0.191 C 
BRANCH  22  23
ATOM     23  O   UNL     1      29.146  39.462  10.401  1.00  0.00    -0.394 OA
ATOM     24  H   UNL     1      29.924  39.659  10.973  1.00  0.00     0.210 HD
ENDBRANCH  22  23
ENDBRANCH  17  22
BRANCH  19  25
ATOM     25  O   UNL     1      27.168  41.784   5.546  1.00  0.00    -0.350 OA
BRANCH  25  26
ATOM     26  C   UNL     1      27.426  43.107   5.851  1.00  0.00     0.169 C 
BRANCH  26  27
ATOM     27  C   UNL     1      26.232  43.995   5.627  1.00  0.00     0.119 C 
BRANCH  27  28
ATOM     28  N   UNL     1      25.337  43.508   4.600  1.00  0.00    -0.092 NA
ATOM     29  N   UNL     1      24.112  43.408   4.812  1.00  0.00     0.001 N 
ATOM     30  N   UNL     1      22.940  43.783   4.899  1.00  0.00    -0.003 NA
ENDBRANCH  27  28
ENDBRANCH  26  27
ENDBRANCH  25  26
ENDBRANCH  19  25
BRANCH  20  31
ATOM     31  O   UNL     1      25.474  37.686   6.970  1.00  0.00    -0.387 OA
ATOM     32  H   UNL     1      26.146  37.195   6.452  1.00  0.00     0.211 HD
ENDBRANCH  20  31
BRANCH  21  33
ATOM     33  O   UNL     1      24.789  40.280   6.060  1.00  0.00    -0.385 OA
ATOM     34  H   UNL     1      24.498  41.011   6.670  1.00  0.00     0.211 HD
ENDBRANCH  21  33
ENDBRANCH  15  16
ENDBRANCH  10  15
BRANCH  12  35
ATOM     35  O   UNL     1      30.666  36.361   8.336  1.00  0.00    -0.385 OA
ATOM     36  H   UNL     1      31.060  36.933   9.028  1.00  0.00     0.211 HD
ENDBRANCH  12  35
BRANCH  13  37
ATOM     37  O   UNL     1      30.284  34.019   9.720  1.00  0.00    -0.387 OA
ATOM     38  H   UNL     1      30.709  34.805  10.143  1.00  0.00     0.211 HD
ENDBRANCH  13  37
BRANCH  14  39
ATOM     39  O   UNL     1      27.729  34.099  10.503  1.00  0.00    -0.387 OA
ATOM     40  H   UNL     1      28.453  34.655  10.894  1.00  0.00     0.211 HD
ENDBRANCH  14  39
ENDBRANCH   8   9
ENDBRANCH   7   8
ENDBRANCH   1   7
BRANCH   1  41
ATOM     41  C   UNL     1      23.526  35.851  10.920  1.00  0.00     0.364 C 
ATOM     42  O   UNL     1      22.738  34.974  11.358  1.00  0.00    -0.246 OA
BRANCH  41  43
ATOM     43  O   UNL     1      24.236  36.563  11.834  1.00  0.00    -0.477 OA
ATOM     44  H   UNL     1      23.943  36.816  12.775  1.00  0.00     0.296 HD
ENDBRANCH  41  43
ENDBRANCH   1  41
BRANCH   3  45
ATOM     45  O   UNL     1      22.887  36.835   6.790  1.00  0.00    -0.391 OA
ATOM     46  H   UNL     1      23.378  36.011   6.511  1.00  0.00     0.211 HD
ENDBRANCH   3  45
BRANCH   5  47
ATOM     47  C   UNL     1      23.073  39.553   9.734  1.00  0.00     0.176 C 
BRANCH  47  48
ATOM     48  O   UNL     1      23.060  40.400   8.649  1.00  0.00    -0.388 OA
ATOM     49  H   UNL     1      23.917  40.442   8.139  1.00  0.00     0.211 HD
ENDBRANCH  47  48
BRANCH  47  50
ATOM     50  C   UNL     1      22.559  40.177  11.013  1.00  0.00     0.165 C 
BRANCH  50  51
ATOM     51  O   UNL     1      21.676  41.186  10.809  1.00  0.00    -0.388 OA
ATOM     52  H   UNL     1      22.103  42.042  10.660  1.00  0.00     0.211 HD
ENDBRANCH  50  51
BRANCH  50  53
ATOM     53  C   UNL     1      23.727  40.457  11.902  1.00  0.00     0.154 C 
BRANCH  53  54
ATOM     54  N   UNL     1      24.602  39.385  12.192  1.00  0.00    -0.319 N 
ATOM     55  C   UNL     1      26.028  39.442  12.006  1.00  0.00     0.407 C 
ATOM     56  H   UNL     1      24.221  38.467  12.572  1.00  0.00     0.167 HD
ATOM     57  O   UNL     1      26.586  40.459  11.546  1.00  0.00    -0.225 OA
BRANCH  55  58
ATOM     58  O   UNL     1      26.827  38.363  12.332  1.00  0.00    -0.443 OA
BRANCH  58  59
ATOM     59  C   UNL     1      27.209  38.090  13.650  1.00  0.00     0.294 C 
BRANCH  59  60
ATOM     60  C   UNL     1      27.063  36.618  13.880  1.00  0.00     0.120 A 
ATOM     61  C   UNL     1      27.205  35.976  15.124  1.00  0.00     0.139 A 
ATOM     62  N   UNL     1      26.808  35.620  13.025  1.00  0.00    -0.132 NA
ATOM     63  N   UNL     1      27.037  34.656  14.970  1.00  0.00    -0.239 N 
ATOM     64  N   UNL     1      26.797  34.454  13.697  1.00  0.00    -0.066 NA
BRANCH  63  65
ATOM     65  C   UNL     1      27.112  33.679  16.035  1.00  0.00     0.122 C 
ATOM     66  C   UNL     1      26.813  32.289  15.372  1.00  0.00     0.046 C 
ATOM     67  C   UNL     1      26.012  33.817  17.061  1.00  0.00     0.046 C 
BRANCH  65  68
ATOM     68  C   UNL     1      28.441  33.584  16.607  1.00  0.00     0.192 C 
ATOM     69  O   UNL     1      28.466  33.633  17.913  1.00  0.00    -0.291 OA
BRANCH  68  70
ATOM     70  C   UNL     1      29.723  33.448  15.987  1.00  0.00     0.045 A 
ATOM     71  C   UNL     1      30.208  32.242  15.468  1.00  0.00     0.095 A 
ATOM     72  C   UNL     1      30.718  34.385  15.791  1.00  0.00     0.010 A 
ATOM     73  N   UNL     1      31.420  32.462  14.995  1.00  0.00    -0.360 N 
ATOM     74  C   UNL     1      31.783  33.734  15.161  1.00  0.00     0.046 A 
ATOM     75  C   UNL     1      30.860  35.717  16.069  1.00  0.00     0.011 A 
ATOM     76  H   UNL     1      32.007  31.703  14.545  1.00  0.00     0.166 HD
ATOM     77  C   UNL     1      32.943  34.411  14.828  1.00  0.00     0.027 A 
ATOM     78  C   UNL     1      32.031  36.394  15.732  1.00  0.00     0.001 A 
ATOM     79  C   UNL     1      33.057  35.739  15.118  1.00  0.00     0.002 A 
ENDBRANCH  68  70
ENDBRANCH  65  68
ENDBRANCH  63  65
ENDBRANCH  59  60
ENDBRANCH  58  59
ENDBRANCH  55  58
ENDBRANCH  53  54
ENDBRANCH  50  53
ENDBRANCH  47  50
ENDBRANCH   5  47
BRANCH   4  80
ATOM     80  N   UNL     1      20.264  37.872   8.847  1.00  0.00    -0.348 N 
ATOM     81  C   UNL     1      19.367  38.952   9.043  1.00  0.00     0.217 C 
ATOM     82  H   UNL     1      19.924  36.906   9.105  1.00  0.00     0.163 HD
ATOM     83  C   UNL     1      17.992  38.797   9.587  1.00  0.00     0.114 C 
ATOM     84  O   UNL     1      19.801  40.112   8.724  1.00  0.00    -0.275 OA
ENDBRANCH   4  80
TORSDOF 32
BEGIN_RES LYS A 131
REMARK  4 active torsions:
REMARK  status: ('A' for Active; 'I' for Inactive)
REMARK    1  A    between atoms: CA   and  CB  
REMARK    2  A    between atoms: CB   and  CG  
REMARK    3  A    between atoms: CG   and  CD  
REMARK    4  A    between atoms: CD   and  CE  
ROOT
ATOM      1  CA  LYS A 131      29.867  25.555  16.977  1.00 20.52     0.186 C 
ENDROOT
BRANCH   1   2
ATOM      2  CB  LYS A 131      28.345  25.722  17.026  1.00 20.94     0.034 C 
BRANCH   2   3
ATOM      3  CG  LYS A 131      27.602  24.398  16.931  1.00 22.96     0.005 C 
BRANCH   3   4
ATOM      4  CD  LYS A 131      26.515  24.283  17.964  1.00 24.33     0.041 C 
BRANCH   4   5
ATOM      5  CE  LYS A 131      25.313  23.564  17.360  1.00 26.91     0.338 C 
ATOM      6  NZ  LYS A 131      24.286  24.542  16.929  1.00 27.40     0.618 N 
ENDBRANCH   4   5
ENDBRANCH   3   4
ENDBRANCH   2   3
ENDBRANCH   1   2
END_RES LYS A 131
BEGIN_RES LYS A 135
REMARK  4 active torsions:
REMARK  status: ('A' for Active; 'I' for Inactive)
REMARK    5  A    between atoms: CA   and  CB  
REMARK    6  A    between atoms: CB   and  CG  
REMARK    7  A    between atoms: CG   and  CD  
REMARK    8  A    between atoms: CD   and  CE  
ROOT
ATOM      7  CA  LYS A 135      33.193  34.663   9.290  1.00 25.02     0.186 C 
ENDROOT
BRANCH   7   8
ATOM      8  CB  LYS A 135      32.060  35.360  10.034  1.00 26.63     0.034 C 
BRANCH   8   9
ATOM      9  CG  LYS A 135      32.427  35.780  11.434  1.00 29.45     0.005 C 
BRANCH   9  10
ATOM     10  CD  LYS A 135      31.814  37.131  11.767  1.00 32.00     0.041 C 
BRANCH  10  11
ATOM     11  CE  LYS A 135      30.384  36.964  12.245  1.00 34.25     0.338 C 
ATOM     12  NZ  LYS A 135      30.109  35.552  12.631  1.00 35.99     0.618 N 
ENDBRANCH  10  11
ENDBRANCH   9  10
ENDBRANCH   8   9
ENDBRANCH   7   8
END_RES LYS A 135
