REMARK VINA RESULT:    -5.082      2.621      7.255
REMARK INTER + INTRA:         -22.926
REMARK INTER:                 -11.615
REMARK INTRA:                 -11.311
REMARK UNBOUND:               -10.416
REMARK SMILES CC(=O)N[C@@H]1[C@@H](O)C[C@](OC[C@H]2O[C@@H](O[C@H]3[C@H](O)[C@@H](O)[C@H](OCCN=[N+]=[N-])O[C@@H]3CO)[C@H](O)[C@@H](O)[C@H]2O)(C(=O)O)O[C@H]1C(O)[C@H](O)CNC(=O)OCc1cn(-c2ccc3c(c2)OCO3)nn1
REMARK SMILES IDX 9 1 8 2 6 3 5 4 42 5 41 6 10 7 11 8 12 9 14 10 13 11 32 12
REMARK SMILES IDX 34 13 36 14 15 15 16 16 29 17 28 18 21 19 17 20 19 21 30 22
REMARK SMILES IDX 31 23 22 25 23 26 24 27 25 28 26 29 27 30 18 31 20 33 33 35
REMARK SMILES IDX 35 37 37 39 38 41 39 42 40 43 7 45 43 47 44 48 45 50 46 51
REMARK SMILES IDX 47 53 48 54 49 55 50 57 51 58 52 59 53 60 54 61 66 62 55 63
REMARK SMILES IDX 65 64 56 65 57 66 61 67 58 68 60 69 59 70 62 71 64 72 63 73
REMARK SMILES IDX 4 74 2 75 1 77 3 78
REMARK H PARENT 31 24 18 32 20 34 33 36 35 38 37 40 40 44 7 46 44 49 46 52
REMARK H PARENT 48 56 4 76
REMARK Flexibility Score: inf
ROOT
ATOM      1  C   UNL     1      31.305  33.898  15.946  1.00  0.00     0.272 C 
ATOM      2  C   UNL     1      32.530  34.578  15.401  1.00  0.00     0.113 C 
ATOM      3  C   UNL     1      32.592  36.063  15.804  1.00  0.00     0.145 C 
ATOM      4  C   UNL     1      31.446  36.721  15.063  1.00  0.00     0.142 C 
ATOM      5  C   UNL     1      30.212  35.923  15.428  1.00  0.00     0.178 C 
ATOM      6  O   UNL     1      30.405  34.933  16.331  1.00  0.00    -0.332 OA
ENDROOT
BRANCH   1   7
ATOM      7  O   UNL     1      31.511  33.193  17.046  1.00  0.00    -0.338 OA
BRANCH   7   8
ATOM      8  C   UNL     1      31.272  33.397  18.305  1.00  0.00     0.199 C 
BRANCH   8   9
ATOM      9  C   UNL     1      30.123  32.738  19.022  1.00  0.00     0.179 C 
ATOM     10  C   UNL     1      27.882  32.240  18.633  1.00  0.00     0.282 C 
ATOM     11  O   UNL     1      28.971  33.017  18.334  1.00  0.00    -0.341 OA
ATOM     12  C   UNL     1      28.052  31.390  19.848  1.00  0.00     0.202 C 
ATOM     13  C   UNL     1      29.290  30.514  19.756  1.00  0.00     0.179 C 
ATOM     14  C   UNL     1      30.378  31.209  19.003  1.00  0.00     0.177 C 
BRANCH  10  15
ATOM     15  O   UNL     1      27.699  31.358  17.549  1.00  0.00    -0.341 OA
BRANCH  15  16
ATOM     16  C   UNL     1      26.675  31.732  16.716  1.00  0.00     0.184 C 
ATOM     17  C   UNL     1      25.465  32.092  17.538  1.00  0.00     0.178 C 
ATOM     18  O   UNL     1      24.673  31.017  17.864  1.00  0.00    -0.341 OA
ATOM     19  C   UNL     1      25.388  29.822  17.956  1.00  0.00     0.281 C 
ATOM     20  C   UNL     1      26.409  30.573  15.785  1.00  0.00     0.180 C 
ATOM     21  C   UNL     1      25.948  29.400  16.621  1.00  0.00     0.202 C 
BRANCH  17  22
ATOM     22  C   UNL     1      24.583  33.103  16.819  1.00  0.00     0.191 C 
BRANCH  22  23
ATOM     23  O   UNL     1      25.300  33.805  15.858  1.00  0.00    -0.394 OA
ATOM     24  H   UNL     1      25.597  34.709  16.187  1.00  0.00     0.210 HD
ENDBRANCH  22  23
ENDBRANCH  17  22
BRANCH  19  25
ATOM     25  O   UNL     1      24.467  28.863  18.357  1.00  0.00    -0.350 OA
BRANCH  25  26
ATOM     26  C   UNL     1      24.202  28.020  17.283  1.00  0.00     0.169 C 
BRANCH  26  27
ATOM     27  C   UNL     1      24.318  26.556  17.692  1.00  0.00     0.119 C 
BRANCH  27  28
ATOM     28  N   UNL     1      24.768  26.548  19.092  1.00  0.00    -0.092 NA
ATOM     29  N   UNL     1      25.991  26.635  19.331  1.00  0.00     0.001 N 
ATOM     30  N   UNL     1      27.234  26.680  19.354  1.00  0.00    -0.003 NA
ENDBRANCH  27  28
ENDBRANCH  26  27
ENDBRANCH  25  26
ENDBRANCH  19  25
BRANCH  20  31
ATOM     31  O   UNL     1      25.528  30.877  14.767  1.00  0.00    -0.387 OA
ATOM     32  H   UNL     1      24.765  30.233  14.686  1.00  0.00     0.211 HD
ENDBRANCH  20  31
BRANCH  21  33
ATOM     33  O   UNL     1      27.063  28.596  16.867  1.00  0.00    -0.385 OA
ATOM     34  H   UNL     1      27.516  28.817  17.721  1.00  0.00     0.211 HD
ENDBRANCH  21  33
ENDBRANCH  15  16
ENDBRANCH  10  15
BRANCH  12  35
ATOM     35  O   UNL     1      28.098  32.099  21.046  1.00  0.00    -0.385 OA
ATOM     36  H   UNL     1      27.891  31.456  21.793  1.00  0.00     0.211 HD
ENDBRANCH  12  35
BRANCH  13  37
ATOM     37  O   UNL     1      28.927  29.326  19.118  1.00  0.00    -0.387 OA
ATOM     38  H   UNL     1      29.110  28.523  19.641  1.00  0.00     0.211 HD
ENDBRANCH  13  37
BRANCH  14  39
ATOM     39  O   UNL     1      30.371  30.750  17.690  1.00  0.00    -0.387 OA
ATOM     40  H   UNL     1      29.729  30.041  17.521  1.00  0.00     0.211 HD
ENDBRANCH  14  39
ENDBRANCH   8   9
ENDBRANCH   7   8
ENDBRANCH   1   7
BRANCH   1  41
ATOM     41  C   UNL     1      30.591  33.138  14.869  1.00  0.00     0.364 C 
ATOM     42  O   UNL     1      29.882  32.149  15.266  1.00  0.00    -0.246 OA
BRANCH  41  43
ATOM     43  O   UNL     1      30.634  33.400  13.537  1.00  0.00    -0.477 OA
ATOM     44  H   UNL     1      30.685  34.326  13.144  1.00  0.00     0.296 HD
ENDBRANCH  41  43
ENDBRANCH   1  41
BRANCH   3  45
ATOM     45  O   UNL     1      32.375  36.079  17.188  1.00  0.00    -0.391 OA
ATOM     46  H   UNL     1      31.526  35.638  17.408  1.00  0.00     0.211 HD
ENDBRANCH   3  45
BRANCH   5  47
ATOM     47  C   UNL     1      29.288  36.940  16.129  1.00  0.00     0.176 C 
BRANCH  47  48
ATOM     48  O   UNL     1      29.108  38.086  15.409  1.00  0.00    -0.388 OA
ATOM     49  H   UNL     1      28.562  38.775  15.863  1.00  0.00     0.211 HD
ENDBRANCH  47  48
BRANCH  47  50
ATOM     50  C   UNL     1      27.938  36.316  16.458  1.00  0.00     0.165 C 
BRANCH  50  51
ATOM     51  O   UNL     1      27.881  34.995  16.164  1.00  0.00    -0.388 OA
ATOM     52  H   UNL     1      27.039  34.531  16.354  1.00  0.00     0.211 HD
ENDBRANCH  50  51
BRANCH  50  53
ATOM     53  C   UNL     1      26.917  37.107  15.702  1.00  0.00     0.154 C 
BRANCH  53  54
ATOM     54  N   UNL     1      26.423  36.411  14.555  1.00  0.00    -0.319 N 
ATOM     55  C   UNL     1      26.861  36.597  13.218  1.00  0.00     0.407 C 
ATOM     56  H   UNL     1      25.647  35.665  14.655  1.00  0.00     0.167 HD
ATOM     57  O   UNL     1      27.765  37.414  12.949  1.00  0.00    -0.225 OA
BRANCH  55  58
ATOM     58  O   UNL     1      26.300  35.875  12.161  1.00  0.00    -0.443 OA
BRANCH  58  59
ATOM     59  C   UNL     1      24.932  35.880  11.857  1.00  0.00     0.294 C 
BRANCH  59  60
ATOM     60  C   UNL     1      24.337  34.580  12.317  1.00  0.00     0.121 A 
ATOM     61  C   UNL     1      23.057  34.115  12.007  1.00  0.00     0.144 A 
ATOM     62  N   UNL     1      24.886  33.627  13.081  1.00  0.00    -0.131 NA
ATOM     63  N   UNL     1      22.883  32.910  12.592  1.00  0.00    -0.220 N 
ATOM     64  N   UNL     1      24.017  32.659  13.229  1.00  0.00    -0.062 NA
BRANCH  63  65
ATOM     65  C   UNL     1      21.753  32.075  12.545  1.00  0.00     0.070 A 
ATOM     66  C   UNL     1      20.494  32.608  12.515  1.00  0.00     0.032 A 
ATOM     67  C   UNL     1      21.898  30.709  12.524  1.00  0.00     0.079 A 
ATOM     68  C   UNL     1      19.377  31.762  12.465  1.00  0.00     0.053 A 
ATOM     69  C   UNL     1      20.810  29.863  12.475  1.00  0.00     0.167 A 
ATOM     70  C   UNL     1      19.550  30.400  12.445  1.00  0.00     0.165 A 
ATOM     71  O   UNL     1      20.721  28.489  12.446  1.00  0.00    -0.454 OA
ATOM     72  O   UNL     1      18.640  29.352  12.396  1.00  0.00    -0.454 OA
ATOM     73  C   UNL     1      19.344  28.177  12.691  1.00  0.00     0.468 C 
ENDBRANCH  63  65
ENDBRANCH  59  60
ENDBRANCH  58  59
ENDBRANCH  55  58
ENDBRANCH  53  54
ENDBRANCH  50  53
ENDBRANCH  47  50
ENDBRANCH   5  47
BRANCH   4  74
ATOM     74  N   UNL     1      31.740  36.748  13.663  1.00  0.00    -0.348 N 
ATOM     75  C   UNL     1      31.413  37.890  12.843  1.00  0.00     0.217 C 
ATOM     76  H   UNL     1      32.194  35.973  13.134  1.00  0.00     0.163 HD
ATOM     77  C   UNL     1      31.723  37.905  11.389  1.00  0.00     0.114 C 
ATOM     78  O   UNL     1      30.868  38.869  13.364  1.00  0.00    -0.275 OA
ENDBRANCH   4  74
TORSDOF 30
BEGIN_RES LYS A 131
REMARK  4 active torsions:
REMARK  status: ('A' for Active; 'I' for Inactive)
REMARK    1  A    between atoms: CA   and  CB  
REMARK    2  A    between atoms: CB   and  CG  
REMARK    3  A    between atoms: CG   and  CD  
REMARK    4  A    between atoms: CD   and  CE  
ROOT
ATOM      1  CA  LYS A 131      29.867  25.555  16.977  1.00 20.52     0.186 C 
ENDROOT
BRANCH   1   2
ATOM      2  CB  LYS A 131      28.345  25.722  17.026  1.00 20.94     0.034 C 
BRANCH   2   3
ATOM      3  CG  LYS A 131      27.599  24.489  16.539  1.00 22.96     0.005 C 
BRANCH   3   4
ATOM      4  CD  LYS A 131      27.295  23.532  17.657  1.00 24.33     0.041 C 
BRANCH   4   5
ATOM      5  CE  LYS A 131      25.800  23.226  17.673  1.00 26.91     0.338 C 
ATOM      6  NZ  LYS A 131      25.324  23.035  19.063  1.00 27.40     0.618 N 
ENDBRANCH   4   5
ENDBRANCH   3   4
ENDBRANCH   2   3
ENDBRANCH   1   2
END_RES LYS A 131
BEGIN_RES LYS A 135
REMARK  4 active torsions:
REMARK  status: ('A' for Active; 'I' for Inactive)
REMARK    5  A    between atoms: CA   and  CB  
REMARK    6  A    between atoms: CB   and  CG  
REMARK    7  A    between atoms: CG   and  CD  
REMARK    8  A    between atoms: CD   and  CE  
ROOT
ATOM      7  CA  LYS A 135      33.193  34.663   9.290  1.00 25.02     0.186 C 
ENDROOT
BRANCH   7   8
ATOM      8  CB  LYS A 135      32.060  35.360  10.034  1.00 26.63     0.034 C 
BRANCH   8   9
ATOM      9  CG  LYS A 135      30.736  34.649   9.919  1.00 29.45     0.005 C 
BRANCH   9  10
ATOM     10  CD  LYS A 135      30.329  34.507   8.460  1.00 32.00     0.041 C 
BRANCH  10  11
ATOM     11  CE  LYS A 135      28.818  34.530   8.325  1.00 34.25     0.338 C 
ATOM     12  NZ  LYS A 135      28.167  33.820   9.460  1.00 35.99     0.618 N 
ENDBRANCH  10  11
ENDBRANCH   9  10
ENDBRANCH   8   9
ENDBRANCH   7   8
END_RES LYS A 135
