REMARK VINA RESULT:    -4.188      5.230     10.492
REMARK INTER + INTRA:         -21.715
REMARK INTER:                 -10.315
REMARK INTRA:                 -11.400
REMARK UNBOUND:               -10.427
REMARK SMILES CCN(CC)CCn1cc(COC(=O)NC[C@@H](O)C(O)[C@@H]2O[C@@](OC[C@H]3O[C@@H](O[C@H]4[C@H](O)[C@@H](O)[C@H](OCCN=[N+]=[N-])O[C@@H]4CO)[C@H](O)[C@@H](O)[C@H]3O)(C(=O)O)C[C@H](O)[C@H]2NC(C)=O)nn1
REMARK SMILES IDX 19 1 21 2 23 3 55 4 22 5 56 6 58 7 24 8 25 9 26 10 28 11
REMARK SMILES IDX 27 12 46 13 48 14 50 15 29 16 30 17 43 18 42 19 35 20 31 21
REMARK SMILES IDX 33 22 44 23 45 24 36 26 37 27 38 28 39 29 40 30 41 31 32 32
REMARK SMILES IDX 34 34 47 36 49 38 51 40 52 42 53 43 54 44 57 46 59 48 60 49
REMARK SMILES IDX 61 51 62 52 20 53 17 55 18 56 16 58 15 59 13 60 14 62 12 63
REMARK SMILES IDX 11 64 10 65 9 66 63 67 8 68 64 69 7 70 6 71 3 72 2 73 1 74
REMARK SMILES IDX 4 75 5 76
REMARK H PARENT 45 25 32 33 34 35 47 37 49 39 51 41 54 45 57 47 59 50 20 54
REMARK H PARENT 18 57 15 61
REMARK Flexibility Score: inf
ROOT
ATOM      1  C   UNL     1      28.688  38.659   6.952  1.00  0.00     0.176 C 
ENDROOT
BRANCH   1   2
ATOM      2  C   UNL     1      27.301  39.233   7.077  1.00  0.00     0.178 C 
ATOM      3  C   UNL     1      26.075  40.952   7.992  1.00  0.00     0.272 C 
ATOM      4  C   UNL     1      25.030  40.269   7.097  1.00  0.00     0.113 C 
ATOM      5  O   UNL     1      27.323  40.401   7.800  1.00  0.00    -0.332 OA
ATOM      6  C   UNL     1      24.939  38.793   7.305  1.00  0.00     0.145 C 
ATOM      7  C   UNL     1      26.322  38.307   7.766  1.00  0.00     0.142 C 
BRANCH   3   8
ATOM      8  O   UNL     1      25.602  40.868   9.279  1.00  0.00    -0.338 OA
BRANCH   8   9
ATOM      9  C   UNL     1      26.466  41.263  10.271  1.00  0.00     0.199 C 
BRANCH   9  10
ATOM     10  C   UNL     1      25.905  40.927  11.664  1.00  0.00     0.179 C 
ATOM     11  C   UNL     1      24.096  39.570  12.311  1.00  0.00     0.282 C 
ATOM     12  O   UNL     1      24.627  40.540  11.474  1.00  0.00    -0.341 OA
ATOM     13  C   UNL     1      24.753  39.541  13.632  1.00  0.00     0.202 C 
ATOM     14  C   UNL     1      26.246  39.378  13.572  1.00  0.00     0.179 C 
ATOM     15  C   UNL     1      26.750  39.820  12.216  1.00  0.00     0.177 C 
BRANCH  11  16
ATOM     16  O   UNL     1      24.101  38.407  11.554  1.00  0.00    -0.341 OA
BRANCH  16  17
ATOM     17  C   UNL     1      22.995  37.643  11.679  1.00  0.00     0.184 C 
ATOM     18  C   UNL     1      23.307  36.186  11.899  1.00  0.00     0.178 C 
ATOM     19  O   UNL     1      22.075  35.507  12.127  1.00  0.00    -0.341 OA
ATOM     20  C   UNL     1      21.484  35.278  10.904  1.00  0.00     0.281 C 
ATOM     21  C   UNL     1      22.070  37.710  10.469  1.00  0.00     0.180 C 
ATOM     22  C   UNL     1      21.695  36.362   9.940  1.00  0.00     0.202 C 
BRANCH  18  23
ATOM     23  C   UNL     1      24.296  35.886  12.967  1.00  0.00     0.191 C 
BRANCH  23  24
ATOM     24  O   UNL     1      25.567  36.085  12.443  1.00  0.00    -0.394 OA
ATOM     25  H   UNL     1      25.969  35.269  12.053  1.00  0.00     0.210 HD
ENDBRANCH  23  24
ENDBRANCH  18  23
BRANCH  20  26
ATOM     26  O   UNL     1      20.162  34.863  11.035  1.00  0.00    -0.350 OA
BRANCH  26  27
ATOM     27  C   UNL     1      19.296  35.407  10.134  1.00  0.00     0.169 C 
BRANCH  27  28
ATOM     28  C   UNL     1      18.954  34.463   8.997  1.00  0.00     0.119 C 
BRANCH  28  29
ATOM     29  N   UNL     1      19.201  35.081   7.709  1.00  0.00    -0.092 NA
ATOM     30  N   UNL     1      19.127  36.303   7.527  1.00  0.00     0.001 N 
ATOM     31  N   UNL     1      18.615  37.390   7.256  1.00  0.00    -0.003 NA
ENDBRANCH  28  29
ENDBRANCH  27  28
ENDBRANCH  26  27
ENDBRANCH  20  26
BRANCH  21  32
ATOM     32  O   UNL     1      20.926  38.395  10.833  1.00  0.00    -0.387 OA
ATOM     33  H   UNL     1      21.065  39.075  11.523  1.00  0.00     0.211 HD
ENDBRANCH  21  32
BRANCH  22  34
ATOM     34  O   UNL     1      22.606  35.934   8.942  1.00  0.00    -0.385 OA
ATOM     35  H   UNL     1      22.962  36.762   8.529  1.00  0.00     0.211 HD
ENDBRANCH  22  34
ENDBRANCH  16  17
ENDBRANCH  11  16
BRANCH  13  36
ATOM     36  O   UNL     1      24.510  40.790  14.276  1.00  0.00    -0.385 OA
ATOM     37  H   UNL     1      25.330  41.152  14.658  1.00  0.00     0.211 HD
ENDBRANCH  13  36
BRANCH  14  38
ATOM     38  O   UNL     1      26.689  38.105  13.896  1.00  0.00    -0.387 OA
ATOM     39  H   UNL     1      27.583  37.913  13.571  1.00  0.00     0.211 HD
ENDBRANCH  14  38
BRANCH  15  40
ATOM     40  O   UNL     1      26.675  38.731  11.358  1.00  0.00    -0.387 OA
ATOM     41  H   UNL     1      25.771  38.690  10.931  1.00  0.00     0.211 HD
ENDBRANCH  15  40
ENDBRANCH   9  10
ENDBRANCH   8   9
ENDBRANCH   3   8
BRANCH   3  42
ATOM     42  C   UNL     1      26.094  42.361   7.523  1.00  0.00     0.364 C 
ATOM     43  O   UNL     1      27.127  42.840   6.943  1.00  0.00    -0.246 OA
BRANCH  42  44
ATOM     44  O   UNL     1      25.046  43.247   7.664  1.00  0.00    -0.477 OA
ATOM     45  H   UNL     1      25.178  44.112   8.177  1.00  0.00     0.296 HD
ENDBRANCH  42  44
ENDBRANCH   3  42
BRANCH   6  46
ATOM     46  O   UNL     1      23.923  38.378   8.131  1.00  0.00    -0.391 OA
ATOM     47  H   UNL     1      23.590  39.177   8.614  1.00  0.00     0.211 HD
ENDBRANCH   6  46
BRANCH   7  48
ATOM     48  N   UNL     1      26.511  36.924   7.491  1.00  0.00    -0.348 N 
ATOM     49  C   UNL     1      26.183  35.972   8.525  1.00  0.00     0.217 C 
ATOM     50  H   UNL     1      26.864  36.523   6.604  1.00  0.00     0.163 HD
ATOM     51  C   UNL     1      26.357  34.514   8.310  1.00  0.00     0.114 C 
ATOM     52  O   UNL     1      25.740  36.346   9.643  1.00  0.00    -0.275 OA
ENDBRANCH   7  48
ENDBRANCH   1   2
BRANCH   1  53
ATOM     53  O   UNL     1      28.869  38.236   5.642  1.00  0.00    -0.388 OA
ATOM     54  H   UNL     1      28.002  38.343   5.138  1.00  0.00     0.211 HD
ENDBRANCH   1  53
BRANCH   1  55
ATOM     55  C   UNL     1      29.650  39.782   7.244  1.00  0.00     0.165 C 
BRANCH  55  56
ATOM     56  O   UNL     1      29.524  40.762   6.252  1.00  0.00    -0.388 OA
ATOM     57  H   UNL     1      29.082  41.548   6.655  1.00  0.00     0.211 HD
ENDBRANCH  55  56
BRANCH  55  58
ATOM     58  C   UNL     1      31.075  39.387   7.374  1.00  0.00     0.154 C 
BRANCH  58  59
ATOM     59  N   UNL     1      31.329  38.430   8.395  1.00  0.00    -0.319 N 
ATOM     60  C   UNL     1      31.655  38.883   9.718  1.00  0.00     0.407 C 
ATOM     61  H   UNL     1      31.294  37.426   8.214  1.00  0.00     0.167 HD
ATOM     62  O   UNL     1      31.725  40.100   9.981  1.00  0.00    -0.225 OA
BRANCH  60  63
ATOM     63  O   UNL     1      31.893  37.932  10.697  1.00  0.00    -0.443 OA
BRANCH  63  64
ATOM     64  C   UNL     1      31.412  38.188  12.027  1.00  0.00     0.294 C 
BRANCH  64  65
ATOM     65  C   UNL     1      30.251  37.317  12.253  1.00  0.00     0.120 A 
ATOM     66  C   UNL     1      30.195  36.344  13.257  1.00  0.00     0.138 A 
ATOM     67  N   UNL     1      29.080  37.240  11.627  1.00  0.00    -0.132 NA
ATOM     68  N   UNL     1      29.001  35.729  13.194  1.00  0.00    -0.251 N 
ATOM     69  N   UNL     1      28.350  36.284  12.207  1.00  0.00    -0.067 NA
BRANCH  68  70
ATOM     70  C   UNL     1      28.514  34.658  14.043  1.00  0.00     0.161 C 
BRANCH  70  71
ATOM     71  C   UNL     1      29.631  34.277  14.990  1.00  0.00     0.108 C 
BRANCH  71  72
ATOM     72  N   UNL     1      29.848  32.862  15.077  1.00  0.00    -0.302 NA
BRANCH  72  73
ATOM     73  C   UNL     1      28.860  32.209  15.891  1.00  0.00     0.081 C 
ATOM     74  C   UNL     1      29.038  30.701  15.749  1.00  0.00     0.021 C 
ENDBRANCH  72  73
BRANCH  72  75
ATOM     75  C   UNL     1      31.191  32.517  15.425  1.00  0.00     0.081 C 
ATOM     76  C   UNL     1      32.110  33.717  15.302  1.00  0.00     0.021 C 
ENDBRANCH  72  75
ENDBRANCH  71  72
ENDBRANCH  70  71
ENDBRANCH  68  70
ENDBRANCH  64  65
ENDBRANCH  63  64
ENDBRANCH  60  63
ENDBRANCH  58  59
ENDBRANCH  55  58
ENDBRANCH   1  55
TORSDOF 34
BEGIN_RES LYS A 131
REMARK  4 active torsions:
REMARK  status: ('A' for Active; 'I' for Inactive)
REMARK    1  A    between atoms: CA   and  CB  
REMARK    2  A    between atoms: CB   and  CG  
REMARK    3  A    between atoms: CG   and  CD  
REMARK    4  A    between atoms: CD   and  CE  
ROOT
ATOM      1  CA  LYS A 131      29.867  25.555  16.977  1.00 20.52     0.186 C 
ENDROOT
BRANCH   1   2
ATOM      2  CB  LYS A 131      28.345  25.722  17.026  1.00 20.94     0.034 C 
BRANCH   2   3
ATOM      3  CG  LYS A 131      27.599  24.478  16.569  1.00 22.96     0.005 C 
BRANCH   3   4
ATOM      4  CD  LYS A 131      26.999  23.722  17.722  1.00 24.33     0.041 C 
BRANCH   4   5
ATOM      5  CE  LYS A 131      25.482  23.688  17.575  1.00 26.91     0.338 C 
ATOM      6  NZ  LYS A 131      24.979  22.300  17.698  1.00 27.40     0.618 N 
ENDBRANCH   4   5
ENDBRANCH   3   4
ENDBRANCH   2   3
ENDBRANCH   1   2
END_RES LYS A 131
BEGIN_RES LYS A 135
REMARK  4 active torsions:
REMARK  status: ('A' for Active; 'I' for Inactive)
REMARK    5  A    between atoms: CA   and  CB  
REMARK    6  A    between atoms: CB   and  CG  
REMARK    7  A    between atoms: CG   and  CD  
REMARK    8  A    between atoms: CD   and  CE  
ROOT
ATOM      7  CA  LYS A 135      33.193  34.663   9.290  1.00 25.02     0.186 C 
ENDROOT
BRANCH   7   8
ATOM      8  CB  LYS A 135      32.060  35.360  10.034  1.00 26.63     0.034 C 
BRANCH   8   9
ATOM      9  CG  LYS A 135      30.883  34.463  10.316  1.00 29.45     0.005 C 
BRANCH   9  10
ATOM     10  CD  LYS A 135      30.121  34.159   9.035  1.00 32.00     0.041 C 
BRANCH  10  11
ATOM     11  CE  LYS A 135      29.805  35.439   8.287  1.00 34.25     0.338 C 
ATOM     12  NZ  LYS A 135      29.508  35.164   6.853  1.00 35.99     0.618 N 
ENDBRANCH  10  11
ENDBRANCH   9  10
ENDBRANCH   8   9
ENDBRANCH   7   8
END_RES LYS A 135
