REMARK VINA RESULT:    -4.567      4.605     10.827
REMARK INTER + INTRA:         -22.711
REMARK INTER:                 -10.142
REMARK INTRA:                 -12.569
REMARK UNBOUND:               -11.068
REMARK SMILES CC(=O)N[C@@H]1[C@@H](O)C[C@](OC[C@H]2O[C@@H](O[C@H]3[C@H](O)[C@@H](O)[C@H](OCCN=[N+]=[N-])O[C@@H]3CO)[C@H](O)[C@@H](O)[C@H]2O)(C(=O)O)O[C@H]1C(O)[C@H](O)CNC(=O)OCc1cn(Cc2cc(Br)cc(Br)c2O)nn1
REMARK SMILES IDX 9 1 8 2 6 3 5 4 42 5 41 6 10 7 11 8 12 9 14 10 13 11 32 12
REMARK SMILES IDX 34 13 36 14 15 15 16 16 29 17 28 18 21 19 17 20 19 21 30 22
REMARK SMILES IDX 31 23 22 25 23 26 24 27 25 28 26 29 27 30 18 31 20 33 33 35
REMARK SMILES IDX 35 37 37 39 38 41 39 42 40 43 7 45 43 47 44 48 45 50 46 51
REMARK SMILES IDX 47 53 48 54 49 55 50 57 51 58 52 59 53 60 54 61 67 62 55 63
REMARK SMILES IDX 66 64 56 65 57 66 58 67 64 68 59 69 62 70 60 71 61 72 63 73
REMARK SMILES IDX 65 74 4 76 2 77 1 79 3 80
REMARK H PARENT 31 24 18 32 20 34 33 36 35 38 37 40 40 44 7 46 44 49 46 52
REMARK H PARENT 48 56 65 75 4 78
REMARK Flexibility Score: inf
ROOT
ATOM      1  C   UNL     1      29.813  32.503  19.499  1.00  0.00     0.272 C 
ATOM      2  C   UNL     1      29.898  31.248  18.505  1.00  0.00     0.113 C 
ATOM      3  C   UNL     1      29.187  31.550  17.249  1.00  0.00     0.145 C 
ATOM      4  C   UNL     1      29.735  32.808  16.628  1.00  0.00     0.142 C 
ATOM      5  C   UNL     1      30.475  33.717  17.563  1.00  0.00     0.178 C 
ATOM      6  O   UNL     1      30.410  33.542  18.878  1.00  0.00    -0.332 OA
ENDROOT
BRANCH   1   7
ATOM      7  O   UNL     1      30.578  32.036  20.513  1.00  0.00    -0.338 OA
BRANCH   7   8
ATOM      8  C   UNL     1      30.986  30.794  20.682  1.00  0.00     0.199 C 
BRANCH   8   9
ATOM      9  C   UNL     1      31.214  30.217  22.036  1.00  0.00     0.179 C 
ATOM     10  C   UNL     1      29.470  28.672  22.030  1.00  0.00     0.282 C 
ATOM     11  O   UNL     1      30.094  29.727  22.614  1.00  0.00    -0.341 OA
ATOM     12  C   UNL     1      30.425  27.623  21.562  1.00  0.00     0.202 C 
ATOM     13  C   UNL     1      31.772  27.800  22.210  1.00  0.00     0.179 C 
ATOM     14  C   UNL     1      32.337  29.178  22.029  1.00  0.00     0.177 C 
BRANCH  10  15
ATOM     15  O   UNL     1      28.576  29.099  21.036  1.00  0.00    -0.341 OA
BRANCH  15  16
ATOM     16  C   UNL     1      27.359  28.457  21.057  1.00  0.00     0.184 C 
ATOM     17  C   UNL     1      26.715  28.440  19.690  1.00  0.00     0.178 C 
ATOM     18  O   UNL     1      25.407  28.049  19.685  1.00  0.00    -0.341 OA
ATOM     19  C   UNL     1      24.944  27.443  20.839  1.00  0.00     0.281 C 
ATOM     20  C   UNL     1      26.350  29.203  21.937  1.00  0.00     0.180 C 
ATOM     21  C   UNL     1      25.167  28.275  22.072  1.00  0.00     0.202 C 
BRANCH  17  22
ATOM     22  C   UNL     1      27.508  27.634  18.682  1.00  0.00     0.191 C 
BRANCH  22  23
ATOM     23  O   UNL     1      28.225  26.628  19.291  1.00  0.00    -0.394 OA
ATOM     24  H   UNL     1      27.697  25.797  19.243  1.00  0.00     0.210 HD
ENDBRANCH  22  23
ENDBRANCH  17  22
BRANCH  19  25
ATOM     25  O   UNL     1      25.503  26.179  20.936  1.00  0.00    -0.350 OA
BRANCH  25  26
ATOM     26  C   UNL     1      24.745  25.361  21.730  1.00  0.00     0.169 C 
BRANCH  26  27
ATOM     27  C   UNL     1      25.497  24.475  22.663  1.00  0.00     0.119 C 
BRANCH  27  28
ATOM     28  N   UNL     1      25.876  25.141  23.893  1.00  0.00    -0.092 NA
ATOM     29  N   UNL     1      26.904  25.778  24.007  1.00  0.00     0.001 N 
ATOM     30  N   UNL     1      27.749  26.650  24.196  1.00  0.00    -0.003 NA
ENDBRANCH  27  28
ENDBRANCH  26  27
ENDBRANCH  25  26
ENDBRANCH  19  25
BRANCH  20  31
ATOM     31  O   UNL     1      26.863  29.609  23.138  1.00  0.00    -0.387 OA
ATOM     32  H   UNL     1      27.554  28.919  23.394  1.00  0.00     0.211 HD
ENDBRANCH  20  31
BRANCH  21  33
ATOM     33  O   UNL     1      24.002  28.971  22.376  1.00  0.00    -0.385 OA
ATOM     34  H   UNL     1      24.196  29.907  22.555  1.00  0.00     0.211 HD
ENDBRANCH  21  33
ENDBRANCH  15  16
ENDBRANCH  10  15
BRANCH  12  35
ATOM     35  O   UNL     1      29.881  26.364  21.917  1.00  0.00    -0.385 OA
ATOM     36  H   UNL     1      30.299  26.145  22.783  1.00  0.00     0.211 HD
ENDBRANCH  12  35
BRANCH  13  37
ATOM     37  O   UNL     1      32.682  26.827  21.798  1.00  0.00    -0.387 OA
ATOM     38  H   UNL     1      33.451  26.896  22.418  1.00  0.00     0.211 HD
ENDBRANCH  13  37
BRANCH  14  39
ATOM     39  O   UNL     1      33.018  29.249  20.827  1.00  0.00    -0.387 OA
ATOM     40  H   UNL     1      32.528  29.820  20.177  1.00  0.00     0.211 HD
ENDBRANCH  14  39
ENDBRANCH   8   9
ENDBRANCH   7   8
ENDBRANCH   1   7
BRANCH   1  41
ATOM     41  C   UNL     1      28.388  32.692  19.749  1.00  0.00     0.364 C 
ATOM     42  O   UNL     1      27.865  33.869  19.749  1.00  0.00    -0.246 OA
BRANCH  41  43
ATOM     43  O   UNL     1      27.497  31.681  19.992  1.00  0.00    -0.477 OA
ATOM     44  H   UNL     1      27.768  30.861  20.515  1.00  0.00     0.296 HD
ENDBRANCH  41  43
ENDBRANCH   1  41
BRANCH   3  45
ATOM     45  O   UNL     1      29.318  30.450  16.382  1.00  0.00    -0.391 OA
ATOM     46  H   UNL     1      29.705  29.687  16.868  1.00  0.00     0.211 HD
ENDBRANCH   3  45
BRANCH   5  47
ATOM     47  C   UNL     1      31.882  33.883  17.020  1.00  0.00     0.176 C 
BRANCH  47  48
ATOM     48  O   UNL     1      32.004  33.154  15.810  1.00  0.00    -0.388 OA
ATOM     49  H   UNL     1      31.763  33.711  15.044  1.00  0.00     0.211 HD
ENDBRANCH  47  48
BRANCH  47  50
ATOM     50  C   UNL     1      32.360  35.269  16.878  1.00  0.00     0.165 C 
BRANCH  50  51
ATOM     51  O   UNL     1      31.654  36.158  17.658  1.00  0.00    -0.388 OA
ATOM     52  H   UNL     1      30.788  35.802  17.981  1.00  0.00     0.211 HD
ENDBRANCH  50  51
BRANCH  50  53
ATOM     53  C   UNL     1      32.544  35.810  15.502  1.00  0.00     0.154 C 
BRANCH  53  54
ATOM     54  N   UNL     1      31.365  36.164  14.789  1.00  0.00    -0.319 N 
ATOM     55  C   UNL     1      30.961  37.542  14.818  1.00  0.00     0.407 C 
ATOM     56  H   UNL     1      30.769  35.499  14.272  1.00  0.00     0.167 HD
ATOM     57  O   UNL     1      31.672  38.379  15.474  1.00  0.00    -0.225 OA
BRANCH  55  58
ATOM     58  O   UNL     1      29.838  37.940  14.150  1.00  0.00    -0.443 OA
BRANCH  58  59
ATOM     59  C   UNL     1      28.745  38.546  14.791  1.00  0.00     0.294 C 
BRANCH  59  60
ATOM     60  C   UNL     1      28.014  37.560  15.617  1.00  0.00     0.120 A 
ATOM     61  C   UNL     1      26.654  37.276  15.658  1.00  0.00     0.138 A 
ATOM     62  N   UNL     1      28.552  36.716  16.512  1.00  0.00    -0.132 NA
ATOM     63  N   UNL     1      26.411  36.302  16.548  1.00  0.00    -0.248 N 
ATOM     64  N   UNL     1      27.604  35.980  17.055  1.00  0.00    -0.067 NA
BRANCH  63  65
ATOM     65  C   UNL     1      25.142  35.677  16.935  1.00  0.00     0.185 C 
BRANCH  65  66
ATOM     66  C   UNL     1      24.909  34.539  16.016  1.00  0.00     0.018 A 
ATOM     67  C   UNL     1      24.207  34.759  14.847  1.00  0.00     0.025 A 
ATOM     68  C   UNL     1      25.373  33.256  16.287  1.00  0.00     0.134 A 
ATOM     69  C   UNL     1      23.954  33.741  13.941  1.00  0.00     0.019 A 
ATOM     70  C   UNL     1      25.136  32.217  15.401  1.00  0.00     0.061 A 
ATOM     71  Br  UNL     1      22.980  34.091  12.343  1.00  0.00    -0.051 Br
ATOM     72  C   UNL     1      24.423  32.483  14.232  1.00  0.00     0.035 A 
ATOM     73  Br  UNL     1      25.777  30.485  15.791  1.00  0.00    -0.047 Br
BRANCH  68  74
ATOM     74  O   UNL     1      26.066  33.102  17.471  1.00  0.00    -0.506 OA
ATOM     75  H   UNL     1      26.704  32.330  17.574  1.00  0.00     0.293 HD
ENDBRANCH  68  74
ENDBRANCH  65  66
ENDBRANCH  63  65
ENDBRANCH  59  60
ENDBRANCH  58  59
ENDBRANCH  55  58
ENDBRANCH  53  54
ENDBRANCH  50  53
ENDBRANCH  47  50
ENDBRANCH   5  47
BRANCH   4  76
ATOM     76  N   UNL     1      28.699  33.463  15.858  1.00  0.00    -0.348 N 
ATOM     77  C   UNL     1      28.941  33.759  14.492  1.00  0.00     0.217 C 
ATOM     78  H   UNL     1      27.773  33.736  16.262  1.00  0.00     0.163 HD
ATOM     79  C   UNL     1      27.869  34.436  13.696  1.00  0.00     0.114 C 
ATOM     80  O   UNL     1      30.058  33.446  13.959  1.00  0.00    -0.275 OA
ENDBRANCH   4  76
TORSDOF 32
BEGIN_RES LYS A 131
REMARK  4 active torsions:
REMARK  status: ('A' for Active; 'I' for Inactive)
REMARK    1  A    between atoms: CA   and  CB  
REMARK    2  A    between atoms: CB   and  CG  
REMARK    3  A    between atoms: CG   and  CD  
REMARK    4  A    between atoms: CD   and  CE  
ROOT
ATOM      1  CA  LYS A 131      29.867  25.555  16.977  1.00 20.52     0.186 C 
ENDROOT
BRANCH   1   2
ATOM      2  CB  LYS A 131      28.345  25.722  17.026  1.00 20.94     0.034 C 
BRANCH   2   3
ATOM      3  CG  LYS A 131      27.600  24.410  16.834  1.00 22.96     0.005 C 
BRANCH   3   4
ATOM      4  CD  LYS A 131      26.154  24.515  17.233  1.00 24.33     0.041 C 
BRANCH   4   5
ATOM      5  CE  LYS A 131      25.617  23.128  17.571  1.00 26.91     0.338 C 
ATOM      6  NZ  LYS A 131      25.411  22.993  19.032  1.00 27.40     0.618 N 
ENDBRANCH   4   5
ENDBRANCH   3   4
ENDBRANCH   2   3
ENDBRANCH   1   2
END_RES LYS A 131
BEGIN_RES LYS A 135
REMARK  4 active torsions:
REMARK  status: ('A' for Active; 'I' for Inactive)
REMARK    5  A    between atoms: CA   and  CB  
REMARK    6  A    between atoms: CB   and  CG  
REMARK    7  A    between atoms: CG   and  CD  
REMARK    8  A    between atoms: CD   and  CE  
ROOT
ATOM      7  CA  LYS A 135      33.193  34.663   9.290  1.00 25.02     0.186 C 
ENDROOT
BRANCH   7   8
ATOM      8  CB  LYS A 135      32.060  35.360  10.034  1.00 26.63     0.034 C 
BRANCH   8   9
ATOM      9  CG  LYS A 135      30.796  35.487   9.224  1.00 29.45     0.005 C 
BRANCH   9  10
ATOM     10  CD  LYS A 135      30.179  34.119   8.974  1.00 32.00     0.041 C 
BRANCH  10  11
ATOM     11  CE  LYS A 135      28.729  34.100   9.416  1.00 34.25     0.338 C 
ATOM     12  NZ  LYS A 135      27.831  34.587   8.333  1.00 35.99     0.618 N 
ENDBRANCH  10  11
ENDBRANCH   9  10
ENDBRANCH   8   9
ENDBRANCH   7   8
END_RES LYS A 135
