REMARK VINA RESULT:    -4.448      3.445      6.046
REMARK INTER + INTRA:         -22.537
REMARK INTER:                 -10.525
REMARK INTRA:                 -12.012
REMARK UNBOUND:               -10.809
REMARK SMILES COc1ccc(Cn2cc(COC(=O)NC[C@@H](O)C(O)[C@@H]3O[C@@](OC[C@H]4O[C@@H](O[C@H]5[C@H](O)[C@@H](O)[C@H](OCCN=[N+]=[N-])O[C@@H]5CO)[C@H](O)[C@@H](O)[C@H]4O)(C(=O)O)C[C@H](O)[C@H]3NC(C)=O)nn2)cc1OC
REMARK SMILES IDX 23 1 55 2 56 3 58 4 21 5 22 6 24 7 25 8 26 9 28 10 27 11
REMARK SMILES IDX 46 12 48 13 50 14 29 15 30 16 43 17 42 18 35 19 31 20 33 21
REMARK SMILES IDX 44 22 45 23 36 25 37 26 38 27 39 28 40 29 41 30 32 31 34 33
REMARK SMILES IDX 47 35 49 37 51 39 52 41 53 42 54 43 57 45 19 47 20 48 17 50
REMARK SMILES IDX 18 51 16 53 15 54 13 55 14 57 12 58 11 59 10 60 9 61 63 62
REMARK SMILES IDX 8 63 64 64 7 65 6 66 65 67 5 68 66 69 4 70 3 71 67 72 68 73
REMARK SMILES IDX 2 74 1 75 59 76 60 77 61 79 62 80
REMARK H PARENT 45 24 32 32 34 34 47 36 49 38 51 40 54 44 57 46 20 49 18 52
REMARK H PARENT 15 56 59 78
REMARK Flexibility Score: inf
ROOT
ATOM      1  C   UNL     1      29.620  38.076  12.019  1.00  0.00     0.272 C 
ATOM      2  C   UNL     1      29.403  36.864  12.908  1.00  0.00     0.113 C 
ATOM      3  C   UNL     1      28.057  36.646  13.497  1.00  0.00     0.145 C 
ATOM      4  C   UNL     1      27.288  37.965  13.522  1.00  0.00     0.142 C 
ATOM      5  C   UNL     1      28.315  39.012  13.694  1.00  0.00     0.178 C 
ATOM      6  O   UNL     1      28.957  39.227  12.489  1.00  0.00    -0.332 OA
ENDROOT
BRANCH   1   7
ATOM      7  O   UNL     1      29.047  37.720  10.805  1.00  0.00    -0.338 OA
BRANCH   7   8
ATOM      8  C   UNL     1      28.646  38.725   9.980  1.00  0.00     0.199 C 
BRANCH   8   9
ATOM      9  C   UNL     1      28.328  38.204   8.605  1.00  0.00     0.179 C 
ATOM     10  C   UNL     1      26.762  37.270   7.248  1.00  0.00     0.282 C 
ATOM     11  O   UNL     1      26.938  38.133   8.398  1.00  0.00    -0.341 OA
ATOM     12  C   UNL     1      27.164  37.978   6.039  1.00  0.00     0.202 C 
ATOM     13  C   UNL     1      28.482  38.716   6.203  1.00  0.00     0.179 C 
ATOM     14  C   UNL     1      28.771  39.235   7.557  1.00  0.00     0.177 C 
BRANCH  10  15
ATOM     15  O   UNL     1      25.447  36.854   7.283  1.00  0.00    -0.341 OA
BRANCH  15  16
ATOM     16  C   UNL     1      24.704  37.668   8.139  1.00  0.00     0.184 C 
ATOM     17  C   UNL     1      23.916  36.914   9.135  1.00  0.00     0.178 C 
ATOM     18  O   UNL     1      23.453  37.816  10.090  1.00  0.00    -0.341 OA
ATOM     19  C   UNL     1      23.088  39.007   9.572  1.00  0.00     0.281 C 
ATOM     20  C   UNL     1      23.766  38.501   7.258  1.00  0.00     0.180 C 
ATOM     21  C   UNL     1      22.607  38.986   8.139  1.00  0.00     0.202 C 
BRANCH  17  22
ATOM     22  C   UNL     1      24.687  35.781   9.771  1.00  0.00     0.191 C 
BRANCH  22  23
ATOM     23  O   UNL     1      25.762  36.363  10.442  1.00  0.00    -0.394 OA
ATOM     24  H   UNL     1      25.460  36.643  11.357  1.00  0.00     0.210 HD
ENDBRANCH  22  23
ENDBRANCH  17  22
BRANCH  19  25
ATOM     25  O   UNL     1      24.246  39.866   9.574  1.00  0.00    -0.350 OA
BRANCH  25  26
ATOM     26  C   UNL     1      24.091  40.748  10.662  1.00  0.00     0.169 C 
BRANCH  26  27
ATOM     27  C   UNL     1      25.110  40.511  11.761  1.00  0.00     0.119 C 
BRANCH  27  28
ATOM     28  N   UNL     1      25.839  41.727  11.990  1.00  0.00    -0.092 NA
ATOM     29  N   UNL     1      26.769  42.085  11.261  1.00  0.00     0.001 N 
ATOM     30  N   UNL     1      27.744  42.082  10.483  1.00  0.00    -0.003 NA
ENDBRANCH  27  28
ENDBRANCH  26  27
ENDBRANCH  25  26
ENDBRANCH  19  25
BRANCH  20  31
ATOM     31  O   UNL     1      24.469  39.624   6.854  1.00  0.00    -0.387 OA
ATOM     32  H   UNL     1      24.031  40.428   7.267  1.00  0.00     0.211 HD
ENDBRANCH  20  31
BRANCH  21  33
ATOM     33  O   UNL     1      21.568  38.095   8.011  1.00  0.00    -0.385 OA
ATOM     34  H   UNL     1      21.882  37.172   7.807  1.00  0.00     0.211 HD
ENDBRANCH  21  33
ENDBRANCH  15  16
ENDBRANCH  10  15
BRANCH  12  35
ATOM     35  O   UNL     1      27.342  37.114   4.971  1.00  0.00    -0.385 OA
ATOM     36  H   UNL     1      27.133  36.166   5.216  1.00  0.00     0.211 HD
ENDBRANCH  12  35
BRANCH  13  37
ATOM     37  O   UNL     1      28.504  39.760   5.240  1.00  0.00    -0.387 OA
ATOM     38  H   UNL     1      28.732  39.336   4.372  1.00  0.00     0.211 HD
ENDBRANCH  13  37
BRANCH  14  39
ATOM     39  O   UNL     1      28.017  40.396   7.839  1.00  0.00    -0.387 OA
ATOM     40  H   UNL     1      28.138  41.089   7.103  1.00  0.00     0.211 HD
ENDBRANCH  14  39
ENDBRANCH   8   9
ENDBRANCH   7   8
ENDBRANCH   1   7
BRANCH   1  41
ATOM     41  C   UNL     1      31.076  38.362  11.976  1.00  0.00     0.364 C 
ATOM     42  O   UNL     1      31.512  39.514  12.038  1.00  0.00    -0.246 OA
BRANCH  41  43
ATOM     43  O   UNL     1      32.069  37.352  11.857  1.00  0.00    -0.477 OA
ATOM     44  H   UNL     1      32.244  37.014  10.882  1.00  0.00     0.296 HD
ENDBRANCH  41  43
ENDBRANCH   1  41
BRANCH   3  45
ATOM     45  O   UNL     1      27.325  35.732  12.778  1.00  0.00    -0.391 OA
ATOM     46  H   UNL     1      27.564  35.784  11.807  1.00  0.00     0.211 HD
ENDBRANCH   3  45
BRANCH   5  47
ATOM     47  C   UNL     1      27.866  40.188  14.432  1.00  0.00     0.176 C 
BRANCH  47  48
ATOM     48  O   UNL     1      27.711  40.037  15.804  1.00  0.00    -0.388 OA
ATOM     49  H   UNL     1      28.308  39.409  16.226  1.00  0.00     0.211 HD
ENDBRANCH  47  48
BRANCH  47  50
ATOM     50  C   UNL     1      29.107  41.234  14.474  1.00  0.00     0.165 C 
BRANCH  50  51
ATOM     51  O   UNL     1      29.396  41.554  13.205  1.00  0.00    -0.388 OA
ATOM     52  H   UNL     1      28.907  42.365  12.878  1.00  0.00     0.211 HD
ENDBRANCH  50  51
BRANCH  50  53
ATOM     53  C   UNL     1      30.094  40.797  15.432  1.00  0.00     0.154 C 
BRANCH  53  54
ATOM     54  N   UNL     1      31.230  39.994  15.125  1.00  0.00    -0.319 N 
ATOM     55  C   UNL     1      31.228  38.676  15.644  1.00  0.00     0.407 C 
ATOM     56  H   UNL     1      32.046  40.273  14.585  1.00  0.00     0.167 HD
ATOM     57  O   UNL     1      30.254  38.262  16.355  1.00  0.00    -0.225 OA
BRANCH  55  58
ATOM     58  O   UNL     1      32.232  37.733  15.451  1.00  0.00    -0.443 OA
BRANCH  58  59
ATOM     59  C   UNL     1      32.881  37.223  16.666  1.00  0.00     0.294 C 
BRANCH  59  60
ATOM     60  C   UNL     1      32.368  35.824  16.742  1.00  0.00     0.120 A 
ATOM     61  C   UNL     1      32.174  34.975  15.627  1.00  0.00     0.138 A 
ATOM     62  N   UNL     1      32.085  35.117  17.829  1.00  0.00    -0.132 NA
ATOM     63  N   UNL     1      31.783  33.786  16.144  1.00  0.00    -0.248 N 
ATOM     64  N   UNL     1      31.732  33.877  17.427  1.00  0.00    -0.067 NA
BRANCH  63  65
ATOM     65  C   UNL     1      31.528  32.568  15.327  1.00  0.00     0.181 C 
BRANCH  65  66
ATOM     66  C   UNL     1      30.069  32.245  15.651  1.00  0.00    -0.023 A 
ATOM     67  C   UNL     1      29.034  33.079  15.285  1.00  0.00     0.056 A 
ATOM     68  C   UNL     1      29.811  31.034  16.209  1.00  0.00     0.010 A 
ATOM     69  C   UNL     1      27.727  32.571  15.531  1.00  0.00     0.161 A 
ATOM     70  C   UNL     1      28.490  30.544  16.447  1.00  0.00     0.051 A 
ATOM     71  C   UNL     1      27.470  31.377  16.073  1.00  0.00     0.160 A 
BRANCH  69  72
ATOM     72  O   UNL     1      26.634  33.370  15.189  1.00  0.00    -0.493 OA
ATOM     73  C   UNL     1      26.226  34.478  15.999  1.00  0.00     0.278 C 
ENDBRANCH  69  72
BRANCH  71  74
ATOM     74  O   UNL     1      26.118  30.966  16.243  1.00  0.00    -0.493 OA
ATOM     75  C   UNL     1      25.587  30.921  17.585  1.00  0.00     0.278 C 
ENDBRANCH  71  74
ENDBRANCH  65  66
ENDBRANCH  63  65
ENDBRANCH  59  60
ENDBRANCH  58  59
ENDBRANCH  55  58
ENDBRANCH  53  54
ENDBRANCH  50  53
ENDBRANCH  47  50
ENDBRANCH   5  47
BRANCH   4  76
ATOM     76  N   UNL     1      26.302  37.897  14.566  1.00  0.00    -0.348 N 
ATOM     77  C   UNL     1      24.989  37.528  14.251  1.00  0.00     0.217 C 
ATOM     78  H   UNL     1      26.513  38.093  15.584  1.00  0.00     0.163 HD
ATOM     79  C   UNL     1      23.846  37.435  15.210  1.00  0.00     0.114 C 
ATOM     80  O   UNL     1      24.624  37.220  13.045  1.00  0.00    -0.275 OA
ENDBRANCH   4  76
TORSDOF 33
BEGIN_RES LYS A 131
REMARK  4 active torsions:
REMARK  status: ('A' for Active; 'I' for Inactive)
REMARK    1  A    between atoms: CA   and  CB  
REMARK    2  A    between atoms: CB   and  CG  
REMARK    3  A    between atoms: CG   and  CD  
REMARK    4  A    between atoms: CD   and  CE  
ROOT
ATOM      1  CA  LYS A 131      29.867  25.555  16.977  1.00 20.52     0.186 C 
ENDROOT
BRANCH   1   2
ATOM      2  CB  LYS A 131      28.345  25.722  17.026  1.00 20.94     0.034 C 
BRANCH   2   3
ATOM      3  CG  LYS A 131      27.602  24.397  16.948  1.00 22.96     0.005 C 
BRANCH   3   4
ATOM      4  CD  LYS A 131      26.242  24.472  17.583  1.00 24.33     0.041 C 
BRANCH   4   5
ATOM      5  CE  LYS A 131      25.548  23.119  17.463  1.00 26.91     0.338 C 
ATOM      6  NZ  LYS A 131      24.148  23.292  17.008  1.00 27.40     0.618 N 
ENDBRANCH   4   5
ENDBRANCH   3   4
ENDBRANCH   2   3
ENDBRANCH   1   2
END_RES LYS A 131
BEGIN_RES LYS A 135
REMARK  4 active torsions:
REMARK  status: ('A' for Active; 'I' for Inactive)
REMARK    5  A    between atoms: CA   and  CB  
REMARK    6  A    between atoms: CB   and  CG  
REMARK    7  A    between atoms: CG   and  CD  
REMARK    8  A    between atoms: CD   and  CE  
ROOT
ATOM      7  CA  LYS A 135      33.193  34.663   9.290  1.00 25.02     0.186 C 
ENDROOT
BRANCH   7   8
ATOM      8  CB  LYS A 135      32.060  35.360  10.034  1.00 26.63     0.034 C 
BRANCH   8   9
ATOM      9  CG  LYS A 135      30.803  35.507   9.216  1.00 29.45     0.005 C 
BRANCH   9  10
ATOM     10  CD  LYS A 135      30.117  34.161   9.040  1.00 32.00     0.041 C 
BRANCH  10  11
ATOM     11  CE  LYS A 135      28.652  34.351   8.694  1.00 34.25     0.338 C 
ATOM     12  NZ  LYS A 135      27.773  33.726   9.721  1.00 35.99     0.618 N 
ENDBRANCH  10  11
ENDBRANCH   9  10
ENDBRANCH   8   9
ENDBRANCH   7   8
END_RES LYS A 135
