REMARK VINA RESULT:    -4.429      6.384     13.027
REMARK INTER + INTRA:         -24.678
REMARK INTER:                 -14.338
REMARK INTRA:                 -10.339
REMARK UNBOUND:               -13.000
REMARK SMILES CC(=O)N[C@@H]1[C@@H](O)C[C@](OC[C@H]2O[C@@H](O[C@H]3[C@H](O)[C@@H](O)[C@H](OCCN=[N+]=[N-])O[C@@H]3CO)[C@H](O)[C@@H](O)[C@H]2O)(C(=O)O)O[C@H]1C(O)[C@H](O)CNC(=O)OCc1cn(C(C)CC(=O)c2ccccc2)nn1
REMARK SMILES IDX 43 1 42 2 9 3 8 4 41 5 6 6 5 7 10 8 11 9 12 10 14 11 13 12
REMARK SMILES IDX 32 13 34 14 36 15 15 16 16 17 29 18 28 19 21 20 17 21 19 22
REMARK SMILES IDX 30 23 31 24 22 26 23 27 24 28 25 29 26 30 27 31 18 32 20 34
REMARK SMILES IDX 33 36 35 38 37 40 38 42 39 43 40 44 7 46 4 48 2 49 1 51 3 52
REMARK SMILES IDX 44 53 45 55 46 56 47 58 48 59 49 60 50 62 51 63 52 64 53 65
REMARK SMILES IDX 54 66 68 67 55 68 67 69 56 70 57 71 58 72 59 73 60 74 61 75
REMARK SMILES IDX 62 76 66 77 63 78 65 79 64 80
REMARK H PARENT 31 25 18 33 20 35 33 37 35 39 37 41 40 45 7 47 4 50 44 54
REMARK H PARENT 46 57 48 61
REMARK Flexibility Score: inf
ROOT
ATOM      1  C   UNL     1      32.096  28.704  21.451  1.00  0.00     0.176 C 
ENDROOT
BRANCH   1   2
ATOM      2  C   UNL     1      31.683  29.118  22.794  1.00  0.00     0.178 C 
ATOM      3  C   UNL     1      31.119  31.383  23.139  1.00  0.00     0.272 C 
ATOM      4  C   UNL     1      31.603  31.389  24.549  1.00  0.00     0.113 C 
ATOM      5  O   UNL     1      30.700  30.020  22.914  1.00  0.00    -0.332 OA
ATOM      6  C   UNL     1      32.340  30.108  24.891  1.00  0.00     0.145 C 
ATOM      7  C   UNL     1      32.902  29.464  23.680  1.00  0.00     0.142 C 
BRANCH   3   8
ATOM      8  O   UNL     1      31.873  31.721  22.136  1.00  0.00    -0.338 OA
BRANCH   8   9
ATOM      9  C   UNL     1      32.707  32.642  21.804  1.00  0.00     0.199 C 
BRANCH   9  10
ATOM     10  C   UNL     1      32.480  33.810  20.899  1.00  0.00     0.179 C 
ATOM     11  C   UNL     1      31.264  34.189  18.904  1.00  0.00     0.282 C 
ATOM     12  O   UNL     1      31.894  33.383  19.776  1.00  0.00    -0.341 OA
ATOM     13  C   UNL     1      30.259  35.055  19.586  1.00  0.00     0.202 C 
ATOM     14  C   UNL     1      30.732  35.616  20.849  1.00  0.00     0.179 C 
ATOM     15  C   UNL     1      31.950  35.051  21.499  1.00  0.00     0.177 C 
BRANCH  11  16
ATOM     16  O   UNL     1      30.627  33.311  17.986  1.00  0.00    -0.341 OA
BRANCH  16  17
ATOM     17  C   UNL     1      31.363  33.252  16.827  1.00  0.00     0.184 C 
ATOM     18  C   UNL     1      31.483  34.602  16.183  1.00  0.00     0.178 C 
ATOM     19  O   UNL     1      30.256  35.077  15.749  1.00  0.00    -0.341 OA
ATOM     20  C   UNL     1      29.536  34.275  14.920  1.00  0.00     0.281 C 
ATOM     21  C   UNL     1      30.657  32.289  15.850  1.00  0.00     0.180 C 
ATOM     22  C   UNL     1      29.378  32.860  15.359  1.00  0.00     0.202 C 
BRANCH  18  23
ATOM     23  C   UNL     1      32.511  34.600  15.069  1.00  0.00     0.191 C 
BRANCH  23  24
ATOM     24  O   UNL     1      32.523  35.789  14.352  1.00  0.00    -0.394 OA
ATOM     25  H   UNL     1      32.841  35.607  13.428  1.00  0.00     0.210 HD
ENDBRANCH  23  24
ENDBRANCH  18  23
BRANCH  20  26
ATOM     26  O   UNL     1      29.889  34.342  13.596  1.00  0.00    -0.350 OA
BRANCH  26  27
ATOM     27  C   UNL     1      28.908  34.777  12.747  1.00  0.00     0.169 C 
BRANCH  27  28
ATOM     28  C   UNL     1      28.438  36.172  13.062  1.00  0.00     0.119 C 
BRANCH  28  29
ATOM     29  N   UNL     1      29.041  37.086  12.108  1.00  0.00    -0.092 NA
ATOM     30  N   UNL     1      30.212  37.426  12.254  1.00  0.00     0.001 N 
ATOM     31  N   UNL     1      31.432  37.596  12.297  1.00  0.00    -0.003 NA
ENDBRANCH  28  29
ENDBRANCH  27  28
ENDBRANCH  26  27
ENDBRANCH  20  26
BRANCH  21  32
ATOM     32  O   UNL     1      31.520  31.902  14.832  1.00  0.00    -0.387 OA
ATOM     33  H   UNL     1      31.064  31.392  14.121  1.00  0.00     0.211 HD
ENDBRANCH  21  32
BRANCH  22  34
ATOM     34  O   UNL     1      28.334  32.679  16.269  1.00  0.00    -0.385 OA
ATOM     35  H   UNL     1      28.501  31.800  16.693  1.00  0.00     0.211 HD
ENDBRANCH  22  34
ENDBRANCH  16  17
ENDBRANCH  11  16
BRANCH  13  36
ATOM     36  O   UNL     1      29.892  36.132  18.727  1.00  0.00    -0.385 OA
ATOM     37  H   UNL     1      29.850  35.726  17.821  1.00  0.00     0.211 HD
ENDBRANCH  13  36
BRANCH  14  38
ATOM     38  O   UNL     1      29.645  35.585  21.770  1.00  0.00    -0.387 OA
ATOM     39  H   UNL     1      29.840  35.000  22.539  1.00  0.00     0.211 HD
ENDBRANCH  14  38
BRANCH  15  40
ATOM     40  O   UNL     1      31.732  35.019  22.862  1.00  0.00    -0.387 OA
ATOM     41  H   UNL     1      32.491  35.068  23.448  1.00  0.00     0.211 HD
ENDBRANCH  15  40
ENDBRANCH   9  10
ENDBRANCH   8   9
ENDBRANCH   3   8
BRANCH   3  42
ATOM     42  C   UNL     1      29.779  32.118  23.125  1.00  0.00     0.364 C 
ATOM     43  O   UNL     1      29.697  33.249  23.619  1.00  0.00    -0.246 OA
BRANCH  42  44
ATOM     44  O   UNL     1      28.663  31.538  22.565  1.00  0.00    -0.477 OA
ATOM     45  H   UNL     1      28.729  30.563  22.300  1.00  0.00     0.296 HD
ENDBRANCH  42  44
ENDBRANCH   3  42
BRANCH   6  46
ATOM     46  O   UNL     1      33.282  30.316  25.892  1.00  0.00    -0.391 OA
ATOM     47  H   UNL     1      33.832  29.468  25.977  1.00  0.00     0.211 HD
ENDBRANCH   6  46
BRANCH   7  48
ATOM     48  N   UNL     1      33.529  28.192  24.024  1.00  0.00    -0.348 N 
ATOM     49  C   UNL     1      34.871  27.871  23.684  1.00  0.00     0.217 C 
ATOM     50  H   UNL     1      32.974  27.487  24.541  1.00  0.00     0.163 HD
ATOM     51  C   UNL     1      35.495  26.593  24.029  1.00  0.00     0.114 C 
ATOM     52  O   UNL     1      35.563  28.737  23.045  1.00  0.00    -0.275 OA
ENDBRANCH   7  48
ENDBRANCH   1   2
BRANCH   1  53
ATOM     53  O   UNL     1      31.555  29.491  20.406  1.00  0.00    -0.388 OA
ATOM     54  H   UNL     1      32.232  29.463  19.662  1.00  0.00     0.211 HD
ENDBRANCH   1  53
BRANCH   1  55
ATOM     55  C   UNL     1      31.851  27.264  21.054  1.00  0.00     0.165 C 
BRANCH  55  56
ATOM     56  O   UNL     1      32.031  26.997  19.736  1.00  0.00    -0.388 OA
ATOM     57  H   UNL     1      32.973  27.146  19.488  1.00  0.00     0.211 HD
ENDBRANCH  55  56
BRANCH  55  58
ATOM     58  C   UNL     1      30.404  26.948  21.460  1.00  0.00     0.154 C 
BRANCH  58  59
ATOM     59  N   UNL     1      29.533  26.996  20.307  1.00  0.00    -0.319 N 
ATOM     60  C   UNL     1      28.592  28.010  20.021  1.00  0.00     0.407 C 
ATOM     61  H   UNL     1      29.578  26.220  19.576  1.00  0.00     0.167 HD
ATOM     62  O   UNL     1      28.478  29.006  20.761  1.00  0.00    -0.225 OA
BRANCH  60  63
ATOM     63  O   UNL     1      27.750  27.930  18.894  1.00  0.00    -0.443 OA
BRANCH  63  64
ATOM     64  C   UNL     1      26.451  28.557  18.966  1.00  0.00     0.294 C 
BRANCH  64  65
ATOM     65  C   UNL     1      26.410  29.424  17.731  1.00  0.00     0.120 A 
ATOM     66  C   UNL     1      25.336  30.287  17.441  1.00  0.00     0.138 A 
ATOM     67  N   UNL     1      27.239  29.539  16.712  1.00  0.00    -0.132 NA
ATOM     68  N   UNL     1      25.565  30.879  16.259  1.00  0.00    -0.249 N 
ATOM     69  N   UNL     1      26.716  30.420  15.833  1.00  0.00    -0.067 NA
BRANCH  68  70
ATOM     70  C   UNL     1      24.638  31.824  15.632  1.00  0.00     0.114 C 
ATOM     71  C   UNL     1      24.232  32.847  16.645  1.00  0.00     0.034 C 
BRANCH  70  72
ATOM     72  C   UNL     1      25.212  32.360  14.362  1.00  0.00     0.108 C 
BRANCH  72  73
ATOM     73  C   UNL     1      24.104  32.483  13.378  1.00  0.00     0.164 C 
ATOM     74  O   UNL     1      23.792  33.572  12.890  1.00  0.00    -0.294 OA
BRANCH  73  75
ATOM     75  C   UNL     1      23.392  31.250  13.005  1.00  0.00     0.018 A 
ATOM     76  C   UNL     1      24.002  30.053  12.918  1.00  0.00     0.012 A 
ATOM     77  C   UNL     1      22.017  31.370  12.743  1.00  0.00     0.012 A 
ATOM     78  C   UNL     1      23.268  28.907  12.566  1.00  0.00     0.001 A 
ATOM     79  C   UNL     1      21.323  30.245  12.402  1.00  0.00     0.001 A 
ATOM     80  C   UNL     1      21.921  29.017  12.310  1.00  0.00     0.000 A 
ENDBRANCH  73  75
ENDBRANCH  72  73
ENDBRANCH  70  72
ENDBRANCH  68  70
ENDBRANCH  64  65
ENDBRANCH  63  64
ENDBRANCH  60  63
ENDBRANCH  58  59
ENDBRANCH  55  58
ENDBRANCH   1  55
TORSDOF 33
BEGIN_RES LYS A 131
REMARK  4 active torsions:
REMARK  status: ('A' for Active; 'I' for Inactive)
REMARK    1  A    between atoms: CA   and  CB  
REMARK    2  A    between atoms: CB   and  CG  
REMARK    3  A    between atoms: CG   and  CD  
REMARK    4  A    between atoms: CD   and  CE  
ROOT
ATOM      1  CA  LYS A 131      29.867  25.555  16.977  1.00 20.52     0.186 C 
ENDROOT
BRANCH   1   2
ATOM      2  CB  LYS A 131      28.345  25.722  17.026  1.00 20.94     0.034 C 
BRANCH   2   3
ATOM      3  CG  LYS A 131      27.601  24.403  16.883  1.00 22.96     0.005 C 
BRANCH   3   4
ATOM      4  CD  LYS A 131      26.176  24.503  17.352  1.00 24.33     0.041 C 
BRANCH   4   5
ATOM      5  CE  LYS A 131      25.858  23.328  18.271  1.00 26.91     0.338 C 
ATOM      6  NZ  LYS A 131      24.812  22.467  17.671  1.00 27.40     0.618 N 
ENDBRANCH   4   5
ENDBRANCH   3   4
ENDBRANCH   2   3
ENDBRANCH   1   2
END_RES LYS A 131
BEGIN_RES LYS A 135
REMARK  4 active torsions:
REMARK  status: ('A' for Active; 'I' for Inactive)
REMARK    5  A    between atoms: CA   and  CB  
REMARK    6  A    between atoms: CB   and  CG  
REMARK    7  A    between atoms: CG   and  CD  
REMARK    8  A    between atoms: CD   and  CE  
ROOT
ATOM      7  CA  LYS A 135      33.193  34.663   9.290  1.00 25.02     0.186 C 
ENDROOT
BRANCH   7   8
ATOM      8  CB  LYS A 135      32.060  35.360  10.034  1.00 26.63     0.034 C 
BRANCH   8   9
ATOM      9  CG  LYS A 135      30.703  34.767   9.757  1.00 29.45     0.005 C 
BRANCH   9  10
ATOM     10  CD  LYS A 135      30.519  34.519   8.268  1.00 32.00     0.041 C 
BRANCH  10  11
ATOM     11  CE  LYS A 135      29.360  35.337   7.731  1.00 34.25     0.338 C 
ATOM     12  NZ  LYS A 135      29.156  36.573   8.537  1.00 35.99     0.618 N 
ENDBRANCH  10  11
ENDBRANCH   9  10
ENDBRANCH   8   9
ENDBRANCH   7   8
END_RES LYS A 135
