REMARK VINA RESULT:    -3.388      2.917      6.427
REMARK INTER + INTRA:         -22.814
REMARK INTER:                  -8.933
REMARK INTRA:                 -13.881
REMARK UNBOUND:               -13.881
REMARK SMILES CCOC(=O)c1cccc(-n2cc(COC(=O)NC[C@@H](O)C(O)[C@@H]3O[C@@](OC[C@H]4O[C@@H](O[C@H]5[C@H](O)[C@@H](O)[C@H](OCCN=[N+]=[N-])O[C@@H]5CO)[C@H](O)[C@@H](O)[C@H]4O)(C(=O)O)C[C@H](O)[C@H]3NC(C)=O)nn2)c1
REMARK SMILES IDX 22 1 24 2 26 3 58 4 25 5 59 6 61 7 27 8 28 9 29 10 31 11
REMARK SMILES IDX 30 12 49 13 51 14 53 15 32 16 33 17 46 18 45 19 38 20 34 21
REMARK SMILES IDX 36 22 47 23 48 24 39 26 40 27 41 28 42 29 43 30 44 31 35 32
REMARK SMILES IDX 37 34 50 36 52 38 54 40 55 42 56 43 57 44 60 46 62 48 63 49
REMARK SMILES IDX 64 51 65 52 23 53 20 55 21 56 19 58 18 59 16 60 17 62 15 63
REMARK SMILES IDX 14 64 13 65 12 66 66 67 11 68 67 69 10 70 68 71 9 72 6 73
REMARK SMILES IDX 8 74 7 75 4 76 5 77 3 78 2 79 1 80
REMARK H PARENT 48 25 35 33 37 35 50 37 52 39 54 41 57 45 60 47 62 50 23 54
REMARK H PARENT 21 57 18 61
REMARK Flexibility Score: inf
ROOT
ATOM      1  C   UNL     1      30.215  32.967  18.811  1.00  0.00     0.176 C 
ENDROOT
BRANCH   1   2
ATOM      2  C   UNL     1      29.513  31.690  18.614  1.00  0.00     0.178 C 
ATOM      3  C   UNL     1      27.685  30.963  17.303  1.00  0.00     0.272 C 
ATOM      4  C   UNL     1      28.091  29.695  17.981  1.00  0.00     0.113 C 
ATOM      5  O   UNL     1      28.218  31.978  18.177  1.00  0.00    -0.332 OA
ATOM      6  C   UNL     1      28.202  29.825  19.492  1.00  0.00     0.145 C 
ATOM      7  C   UNL     1      29.413  30.773  19.782  1.00  0.00     0.142 C 
BRANCH   3   8
ATOM      8  O   UNL     1      26.336  31.123  17.357  1.00  0.00    -0.338 OA
BRANCH   8   9
ATOM      9  C   UNL     1      25.447  30.598  16.550  1.00  0.00     0.199 C 
BRANCH   9  10
ATOM     10  C   UNL     1      24.225  31.222  16.027  1.00  0.00     0.179 C 
ATOM     11  C   UNL     1      22.886  33.138  16.127  1.00  0.00     0.282 C 
ATOM     12  O   UNL     1      23.784  32.256  16.772  1.00  0.00    -0.341 OA
ATOM     13  C   UNL     1      22.309  32.521  14.891  1.00  0.00     0.202 C 
ATOM     14  C   UNL     1      23.344  32.050  13.920  1.00  0.00     0.179 C 
ATOM     15  C   UNL     1      24.628  31.805  14.634  1.00  0.00     0.177 C 
BRANCH  11  16
ATOM     16  O   UNL     1      23.584  34.298  15.959  1.00  0.00    -0.341 OA
BRANCH  16  17
ATOM     17  C   UNL     1      23.377  35.329  16.809  1.00  0.00     0.184 C 
ATOM     18  C   UNL     1      24.455  35.307  17.860  1.00  0.00     0.178 C 
ATOM     19  O   UNL     1      24.329  36.381  18.743  1.00  0.00    -0.341 OA
ATOM     20  C   UNL     1      23.154  36.163  19.515  1.00  0.00     0.281 C 
ATOM     21  C   UNL     1      22.036  35.222  17.555  1.00  0.00     0.180 C 
ATOM     22  C   UNL     1      22.011  36.370  18.560  1.00  0.00     0.202 C 
BRANCH  18  23
ATOM     23  C   UNL     1      25.821  35.367  17.238  1.00  0.00     0.191 C 
BRANCH  23  24
ATOM     24  O   UNL     1      26.353  34.058  17.100  1.00  0.00    -0.394 OA
ATOM     25  H   UNL     1      25.850  33.554  16.411  1.00  0.00     0.210 HD
ENDBRANCH  23  24
ENDBRANCH  18  23
BRANCH  20  26
ATOM     26  O   UNL     1      23.179  37.032  20.568  1.00  0.00    -0.350 OA
BRANCH  26  27
ATOM     27  C   UNL     1      23.794  36.491  21.688  1.00  0.00     0.169 C 
BRANCH  27  28
ATOM     28  C   UNL     1      23.534  35.025  21.868  1.00  0.00     0.119 C 
BRANCH  28  29
ATOM     29  N   UNL     1      24.806  34.343  22.135  1.00  0.00    -0.092 NA
ATOM     30  N   UNL     1      25.361  33.775  21.185  1.00  0.00     0.001 N 
ATOM     31  N   UNL     1      26.147  33.379  20.301  1.00  0.00    -0.003 NA
ENDBRANCH  28  29
ENDBRANCH  27  28
ENDBRANCH  26  27
ENDBRANCH  20  26
BRANCH  21  32
ATOM     32  O   UNL     1      20.968  35.460  16.702  1.00  0.00    -0.387 OA
ATOM     33  H   UNL     1      21.288  35.305  15.781  1.00  0.00     0.211 HD
ENDBRANCH  21  32
BRANCH  22  34
ATOM     34  O   UNL     1      20.784  36.431  19.214  1.00  0.00    -0.385 OA
ATOM     35  H   UNL     1      20.274  37.273  19.015  1.00  0.00     0.211 HD
ENDBRANCH  22  34
ENDBRANCH  16  17
ENDBRANCH  11  16
BRANCH  13  36
ATOM     36  O   UNL     1      21.417  31.497  15.264  1.00  0.00    -0.385 OA
ATOM     37  H   UNL     1      21.459  30.725  14.655  1.00  0.00     0.211 HD
ENDBRANCH  13  36
BRANCH  14  38
ATOM     38  O   UNL     1      23.431  32.822  12.784  1.00  0.00    -0.387 OA
ATOM     39  H   UNL     1      22.661  32.576  12.204  1.00  0.00     0.211 HD
ENDBRANCH  14  38
BRANCH  15  40
ATOM     40  O   UNL     1      25.398  32.919  14.752  1.00  0.00    -0.387 OA
ATOM     41  H   UNL     1      25.948  32.859  15.573  1.00  0.00     0.211 HD
ENDBRANCH  15  40
ENDBRANCH   9  10
ENDBRANCH   8   9
ENDBRANCH   3   8
BRANCH   3  42
ATOM     42  C   UNL     1      28.257  31.199  15.985  1.00  0.00     0.364 C 
ATOM     43  O   UNL     1      28.869  30.323  15.355  1.00  0.00    -0.246 OA
BRANCH  42  44
ATOM     44  O   UNL     1      28.133  32.447  15.373  1.00  0.00    -0.477 OA
ATOM     45  H   UNL     1      27.614  32.606  14.535  1.00  0.00     0.296 HD
ENDBRANCH  42  44
ENDBRANCH   3  42
BRANCH   6  46
ATOM     46  O   UNL     1      27.090  30.481  19.956  1.00  0.00    -0.391 OA
ATOM     47  H   UNL     1      27.177  30.629  20.929  1.00  0.00     0.211 HD
ENDBRANCH   6  46
BRANCH   7  48
ATOM     48  N   UNL     1      30.562  29.910  19.933  1.00  0.00    -0.348 N 
ATOM     49  C   UNL     1      31.499  30.012  21.012  1.00  0.00     0.217 C 
ATOM     50  H   UNL     1      30.777  29.133  19.238  1.00  0.00     0.163 HD
ATOM     51  C   UNL     1      32.671  29.106  21.136  1.00  0.00     0.114 C 
ATOM     52  O   UNL     1      31.341  30.887  21.887  1.00  0.00    -0.275 OA
ENDBRANCH   7  48
ENDBRANCH   1   2
BRANCH   1  53
ATOM     53  O   UNL     1      31.271  32.958  19.683  1.00  0.00    -0.388 OA
ATOM     54  H   UNL     1      31.000  33.135  20.614  1.00  0.00     0.211 HD
ENDBRANCH   1  53
BRANCH   1  55
ATOM     55  C   UNL     1      30.529  33.772  17.576  1.00  0.00     0.165 C 
BRANCH  55  56
ATOM     56  O   UNL     1      29.368  34.358  17.062  1.00  0.00    -0.388 OA
ATOM     57  H   UNL     1      29.314  34.210  16.083  1.00  0.00     0.211 HD
ENDBRANCH  55  56
BRANCH  55  58
ATOM     58  C   UNL     1      31.381  33.066  16.565  1.00  0.00     0.154 C 
BRANCH  58  59
ATOM     59  N   UNL     1      31.038  33.431  15.209  1.00  0.00    -0.319 N 
ATOM     60  C   UNL     1      31.760  34.421  14.507  1.00  0.00     0.407 C 
ATOM     61  H   UNL     1      30.227  32.951  14.710  1.00  0.00     0.167 HD
ATOM     62  O   UNL     1      32.738  35.058  14.959  1.00  0.00    -0.225 OA
BRANCH  60  63
ATOM     63  O   UNL     1      31.390  34.768  13.193  1.00  0.00    -0.443 OA
BRANCH  63  64
ATOM     64  C   UNL     1      30.535  35.815  12.855  1.00  0.00     0.294 C 
BRANCH  64  65
ATOM     65  C   UNL     1      29.112  35.609  13.157  1.00  0.00     0.121 A 
ATOM     66  C   UNL     1      28.039  36.015  12.371  1.00  0.00     0.144 A 
ATOM     67  N   UNL     1      28.586  35.007  14.217  1.00  0.00    -0.131 NA
ATOM     68  N   UNL     1      26.921  35.642  12.992  1.00  0.00    -0.220 N 
ATOM     69  N   UNL     1      27.259  35.033  14.105  1.00  0.00    -0.062 NA
BRANCH  68  70
ATOM     70  C   UNL     1      25.607  35.863  12.525  1.00  0.00     0.067 A 
ATOM     71  C   UNL     1      25.287  35.768  11.173  1.00  0.00     0.044 A 
ATOM     72  C   UNL     1      24.579  36.170  13.376  1.00  0.00     0.028 A 
ATOM     73  C   UNL     1      24.027  35.961  10.675  1.00  0.00     0.062 A 
ATOM     74  C   UNL     1      23.289  36.373  12.911  1.00  0.00     0.003 A 
ATOM     75  C   UNL     1      23.008  36.271  11.568  1.00  0.00     0.016 A 
BRANCH  73  76
ATOM     76  C   UNL     1      23.764  35.850   9.255  1.00  0.00     0.338 C 
ATOM     77  O   UNL     1      24.624  36.234   8.439  1.00  0.00    -0.246 OA
BRANCH  76  78
ATOM     78  O   UNL     1      22.578  35.321   8.814  1.00  0.00    -0.462 OA
BRANCH  78  79
ATOM     79  C   UNL     1      21.630  36.032   8.052  1.00  0.00     0.230 C 
ATOM     80  C   UNL     1      20.302  35.308   8.077  1.00  0.00     0.049 C 
ENDBRANCH  78  79
ENDBRANCH  76  78
ENDBRANCH  73  76
ENDBRANCH  68  70
ENDBRANCH  64  65
ENDBRANCH  63  64
ENDBRANCH  60  63
ENDBRANCH  58  59
ENDBRANCH  55  58
ENDBRANCH   1  55
TORSDOF 33
BEGIN_RES LYS A 131
REMARK  4 active torsions:
REMARK  status: ('A' for Active; 'I' for Inactive)
REMARK    1  A    between atoms: CA   and  CB  
REMARK    2  A    between atoms: CB   and  CG  
REMARK    3  A    between atoms: CG   and  CD  
REMARK    4  A    between atoms: CD   and  CE  
ROOT
ATOM      1  CA  LYS A 131      29.867  25.555  16.977  1.00 20.52     0.186 C 
ENDROOT
BRANCH   1   2
ATOM      2  CB  LYS A 131      28.345  25.722  17.026  1.00 20.94     0.034 C 
BRANCH   2   3
ATOM      3  CG  LYS A 131      27.601  24.401  16.903  1.00 22.96     0.005 C 
BRANCH   3   4
ATOM      4  CD  LYS A 131      26.170  24.513  17.349  1.00 24.33     0.041 C 
BRANCH   4   5
ATOM      5  CE  LYS A 131      26.026  25.691  18.308  1.00 26.91     0.338 C 
ATOM      6  NZ  LYS A 131      24.901  26.563  17.894  1.00 27.40     0.618 N 
ENDBRANCH   4   5
ENDBRANCH   3   4
ENDBRANCH   2   3
ENDBRANCH   1   2
END_RES LYS A 131
BEGIN_RES LYS A 135
REMARK  4 active torsions:
REMARK  status: ('A' for Active; 'I' for Inactive)
REMARK    5  A    between atoms: CA   and  CB  
REMARK    6  A    between atoms: CB   and  CG  
REMARK    7  A    between atoms: CG   and  CD  
REMARK    8  A    between atoms: CD   and  CE  
ROOT
ATOM      7  CA  LYS A 135      33.193  34.663   9.290  1.00 25.02     0.186 C 
ENDROOT
BRANCH   7   8
ATOM      8  CB  LYS A 135      32.060  35.360  10.034  1.00 26.63     0.034 C 
BRANCH   8   9
ATOM      9  CG  LYS A 135      30.830  35.578   9.191  1.00 29.45     0.005 C 
BRANCH   9  10
ATOM     10  CD  LYS A 135      30.196  34.248   8.814  1.00 32.00     0.041 C 
BRANCH  10  11
ATOM     11  CE  LYS A 135      28.700  34.407   8.618  1.00 34.25     0.338 C 
ATOM     12  NZ  LYS A 135      27.940  33.625   9.632  1.00 35.99     0.618 N 
ENDBRANCH  10  11
ENDBRANCH   9  10
ENDBRANCH   8   9
ENDBRANCH   7   8
END_RES LYS A 135
