REMARK VINA RESULT:    -7.477      4.019      9.379
REMARK INTER + INTRA:         -21.358
REMARK INTER:                 -12.770
REMARK INTRA:                  -8.588
REMARK UNBOUND:                -1.206
REMARK SMILES CC(=O)N[C@@H]1[C@@H](O)C[C@](OC[C@H]2O[C@@H](O[C@H]3[C@H](O)[C@@H](O)[C@H](OCCN=[N+]=[N-])O[C@@H]3CO)[C@H](O)[C@@H](O)[C@H]2O)(C(=O)O)O[C@H]1C(O)[C@H](O)CNC(=O)OCc1cn(C2CCc3ccccc3NC2=O)nn1
REMARK SMILES IDX 43 1 42 2 9 3 8 4 41 5 6 6 5 7 10 8 11 9 12 10 14 11 13 12
REMARK SMILES IDX 32 13 34 14 36 15 15 16 16 17 29 18 28 19 21 20 17 21 19 22
REMARK SMILES IDX 30 23 31 24 22 26 23 27 24 28 25 29 26 30 27 31 18 32 20 34
REMARK SMILES IDX 33 36 35 38 37 40 38 42 39 43 40 44 7 46 4 48 2 49 1 51 3 52
REMARK SMILES IDX 44 53 45 55 46 56 47 58 48 59 49 60 50 62 51 63 52 64 53 65
REMARK SMILES IDX 54 66 69 67 55 68 68 69 56 70 57 71 66 73 65 74 67 75 64 77
REMARK SMILES IDX 59 78 63 79 60 80 62 81 61 82 58 83
REMARK H PARENT 31 25 18 33 20 35 33 37 35 39 37 41 40 45 7 47 4 50 44 54
REMARK H PARENT 46 57 48 61 65 76
REMARK Flexibility Score: 90.00
ROOT
ATOM      1  C   UNL     1      27.629  35.201   7.981  1.00  0.00     0.176 C 
ENDROOT
BRANCH   1   2
ATOM      2  C   UNL     1      27.771  36.675   8.414  1.00  0.00     0.178 C 
ATOM      3  C   UNL     1      25.950  38.213   8.372  1.00  0.00     0.272 C 
ATOM      4  C   UNL     1      26.594  38.976   7.286  1.00  0.00     0.113 C 
ATOM      5  O   UNL     1      26.685  37.185   8.963  1.00  0.00    -0.332 OA
ATOM      6  C   UNL     1      27.459  38.127   6.416  1.00  0.00     0.145 C 
ATOM      7  C   UNL     1      28.469  37.433   7.318  1.00  0.00     0.142 C 
BRANCH   3   8
ATOM      8  O   UNL     1      24.751  37.665   8.080  1.00  0.00    -0.338 OA
BRANCH   8   9
ATOM      9  C   UNL     1      23.736  38.297   7.514  1.00  0.00     0.199 C 
BRANCH   9  10
ATOM     10  C   UNL     1      22.404  38.489   8.096  1.00  0.00     0.179 C 
ATOM     11  C   UNL     1      20.945  37.398   9.522  1.00  0.00     0.282 C 
ATOM     12  O   UNL     1      22.273  37.478   9.107  1.00  0.00    -0.341 OA
ATOM     13  C   UNL     1      20.090  38.559   9.202  1.00  0.00     0.202 C 
ATOM     14  C   UNL     1      20.745  39.896   9.133  1.00  0.00     0.179 C 
ATOM     15  C   UNL     1      22.232  39.761   8.925  1.00  0.00     0.177 C 
BRANCH  11  16
ATOM     16  O   UNL     1      20.931  37.026  10.883  1.00  0.00    -0.341 OA
BRANCH  16  17
ATOM     17  C   UNL     1      21.774  35.980  11.150  1.00  0.00     0.184 C 
ATOM     18  C   UNL     1      21.206  34.897  12.029  1.00  0.00     0.178 C 
ATOM     19  O   UNL     1      22.163  33.880  12.049  1.00  0.00    -0.341 OA
ATOM     20  C   UNL     1      23.225  34.193  12.883  1.00  0.00     0.281 C 
ATOM     21  C   UNL     1      23.051  36.460  11.825  1.00  0.00     0.180 C 
ATOM     22  C   UNL     1      23.446  35.670  13.019  1.00  0.00     0.202 C 
BRANCH  18  23
ATOM     23  C   UNL     1      19.946  34.294  11.442  1.00  0.00     0.191 C 
BRANCH  23  24
ATOM     24  O   UNL     1      19.984  34.267  10.050  1.00  0.00    -0.394 OA
ATOM     25  H   UNL     1      20.872  34.050   9.692  1.00  0.00     0.210 HD
ENDBRANCH  23  24
ENDBRANCH  18  23
BRANCH  20  26
ATOM     26  O   UNL     1      24.350  33.530  12.430  1.00  0.00    -0.350 OA
BRANCH  26  27
ATOM     27  C   UNL     1      24.868  32.678  13.389  1.00  0.00     0.169 C 
BRANCH  27  28
ATOM     28  C   UNL     1      24.371  31.270  13.320  1.00  0.00     0.119 C 
BRANCH  28  29
ATOM     29  N   UNL     1      24.021  30.823  14.658  1.00  0.00    -0.092 NA
ATOM     30  N   UNL     1      23.392  31.550  15.449  1.00  0.00     0.001 N 
ATOM     31  N   UNL     1      22.401  32.143  15.899  1.00  0.00    -0.003 NA
ENDBRANCH  28  29
ENDBRANCH  27  28
ENDBRANCH  26  27
ENDBRANCH  20  26
BRANCH  21  32
ATOM     32  O   UNL     1      24.096  36.599  10.899  1.00  0.00    -0.387 OA
ATOM     33  H   UNL     1      24.862  36.049  11.206  1.00  0.00     0.211 HD
ENDBRANCH  21  32
BRANCH  22  34
ATOM     34  O   UNL     1      22.818  36.126  14.202  1.00  0.00    -0.385 OA
ATOM     35  H   UNL     1      23.052  35.581  14.977  1.00  0.00     0.211 HD
ENDBRANCH  22  34
ENDBRANCH  16  17
ENDBRANCH  11  16
BRANCH  13  36
ATOM     36  O   UNL     1      19.310  38.280   8.076  1.00  0.00    -0.385 OA
ATOM     37  H   UNL     1      18.556  37.688   8.332  1.00  0.00     0.211 HD
ENDBRANCH  13  36
BRANCH  14  38
ATOM     38  O   UNL     1      20.430  40.718  10.214  1.00  0.00    -0.387 OA
ATOM     39  H   UNL     1      19.460  40.917  10.134  1.00  0.00     0.211 HD
ENDBRANCH  14  38
BRANCH  15  40
ATOM     40  O   UNL     1      22.876  39.582  10.175  1.00  0.00    -0.387 OA
ATOM     41  H   UNL     1      22.873  40.466  10.601  1.00  0.00     0.211 HD
ENDBRANCH  15  40
ENDBRANCH   9  10
ENDBRANCH   8   9
ENDBRANCH   3   8
BRANCH   3  42
ATOM     42  C   UNL     1      25.842  39.168   9.541  1.00  0.00     0.364 C 
ATOM     43  O   UNL     1      25.765  40.364   9.387  1.00  0.00    -0.246 OA
BRANCH  42  44
ATOM     44  O   UNL     1      25.831  38.662  10.845  1.00  0.00    -0.477 OA
ATOM     45  H   UNL     1      26.654  38.279  11.281  1.00  0.00     0.296 HD
ENDBRANCH  42  44
ENDBRANCH   3  42
BRANCH   6  46
ATOM     46  O   UNL     1      26.629  37.172   5.805  1.00  0.00    -0.391 OA
ATOM     47  H   UNL     1      26.221  37.491   4.983  1.00  0.00     0.211 HD
ENDBRANCH   6  46
BRANCH   7  48
ATOM     48  N   UNL     1      29.413  38.404   7.757  1.00  0.00    -0.348 N 
ATOM     49  C   UNL     1      30.582  38.011   8.468  1.00  0.00     0.217 C 
ATOM     50  H   UNL     1      29.272  39.425   7.573  1.00  0.00     0.163 HD
ATOM     51  C   UNL     1      31.597  38.988   8.949  1.00  0.00     0.114 C 
ATOM     52  O   UNL     1      30.745  36.805   8.684  1.00  0.00    -0.275 OA
ENDBRANCH   7  48
ENDBRANCH   1   2
BRANCH   1  53
ATOM     53  O   UNL     1      28.892  34.603   7.954  1.00  0.00    -0.388 OA
ATOM     54  H   UNL     1      29.167  34.312   7.057  1.00  0.00     0.211 HD
ENDBRANCH   1  53
BRANCH   1  55
ATOM     55  C   UNL     1      26.759  34.407   8.887  1.00  0.00     0.165 C 
BRANCH  55  56
ATOM     56  O   UNL     1      25.474  34.908   9.059  1.00  0.00    -0.388 OA
ATOM     57  H   UNL     1      25.227  35.392   8.226  1.00  0.00     0.211 HD
ENDBRANCH  55  56
BRANCH  55  58
ATOM     58  C   UNL     1      27.311  34.109  10.242  1.00  0.00     0.154 C 
BRANCH  58  59
ATOM     59  N   UNL     1      26.833  34.944  11.302  1.00  0.00    -0.319 N 
ATOM     60  C   UNL     1      27.637  35.861  12.018  1.00  0.00     0.407 C 
ATOM     61  H   UNL     1      25.829  34.874  11.564  1.00  0.00     0.167 HD
ATOM     62  O   UNL     1      28.856  35.997  11.754  1.00  0.00    -0.225 OA
BRANCH  60  63
ATOM     63  O   UNL     1      27.065  36.612  13.018  1.00  0.00    -0.443 OA
BRANCH  63  64
ATOM     64  C   UNL     1      26.779  36.126  14.283  1.00  0.00     0.294 C 
BRANCH  64  65
ATOM     65  C   UNL     1      28.009  35.767  14.992  1.00  0.00     0.120 A 
ATOM     66  C   UNL     1      28.309  34.546  15.543  1.00  0.00     0.139 A 
ATOM     67  N   UNL     1      29.085  36.547  15.256  1.00  0.00    -0.132 NA
ATOM     68  N   UNL     1      29.536  34.602  16.118  1.00  0.00    -0.240 N 
ATOM     69  N   UNL     1      29.974  35.829  15.924  1.00  0.00    -0.066 NA
BRANCH  68  70
ATOM     70  C   UNL     1      30.235  33.509  16.815  1.00  0.00     0.198 C 
BRANCH  70  71
ATOM     71  C   UNL     1      29.370  33.118  17.953  1.00  0.00     0.042 CG0
ATOM     72  G   UNL     1      29.627  31.788  18.572  1.00  0.00     0.000 G0
ENDBRANCH  70  71
BRANCH  70  73
ATOM     73  C   UNL     1      30.482  32.482  15.798  1.00  0.00     0.249 C 
ATOM     74  N   UNL     1      29.764  31.293  15.504  1.00  0.00    -0.324 N 
ATOM     75  O   UNL     1      31.492  32.691  15.073  1.00  0.00    -0.272 OA
ATOM     76  H   UNL     1      29.844  30.883  14.548  1.00  0.00     0.170 HD
BRANCH  74  77
ATOM     77  C   UNL     1      28.918  30.609  16.452  1.00  0.00     0.044 A 
ATOM     78  C   UNL     1      28.821  30.787  17.828  1.00  0.00    -0.024 A 
ATOM     79  C   UNL     1      28.127  29.663  15.837  1.00  0.00     0.026 A 
ATOM     80  C   UNL     1      27.953  30.042  18.592  1.00  0.00     0.006 A 
ATOM     81  C   UNL     1      27.247  28.901  16.581  1.00  0.00     0.002 A 
ATOM     82  C   UNL     1      27.171  29.104  17.964  1.00  0.00     0.000 A 
BRANCH  78  83
ATOM     83  C   UNL     1      29.631  31.783  18.585  1.00  0.00     0.040 CG0
ATOM     84  G   UNL     1      29.373  33.112  17.966  1.00  0.00     0.000 G0
ENDBRANCH  78  83
ENDBRANCH  74  77
ENDBRANCH  70  73
ENDBRANCH  68  70
ENDBRANCH  64  65
ENDBRANCH  63  64
ENDBRANCH  60  63
ENDBRANCH  58  59
ENDBRANCH  55  58
ENDBRANCH   1  55
TORSDOF 30
BEGIN_RES LYS A 131
REMARK  4 active torsions:
REMARK  status: ('A' for Active; 'I' for Inactive)
REMARK    1  A    between atoms: CA   and  CB  
REMARK    2  A    between atoms: CB   and  CG  
REMARK    3  A    between atoms: CG   and  CD  
REMARK    4  A    between atoms: CD   and  CE  
ROOT
ATOM      1  CA  LYS A 131      29.867  25.555  16.977  1.00 20.52     0.186 C 
ENDROOT
BRANCH   1   2
ATOM      2  CB  LYS A 131      28.345  25.722  17.026  1.00 20.94     0.034 C 
BRANCH   2   3
ATOM      3  CG  LYS A 131      27.602  24.398  16.934  1.00 22.96     0.005 C 
BRANCH   3   4
ATOM      4  CD  LYS A 131      26.160  24.529  17.337  1.00 24.33     0.041 C 
BRANCH   4   5
ATOM      5  CE  LYS A 131      26.019  25.643  18.369  1.00 26.91     0.338 C 
ATOM      6  NZ  LYS A 131      25.507  25.102  19.650  1.00 27.40     0.618 N 
ENDBRANCH   4   5
ENDBRANCH   3   4
ENDBRANCH   2   3
ENDBRANCH   1   2
END_RES LYS A 131
BEGIN_RES LYS A 135
REMARK  4 active torsions:
REMARK  status: ('A' for Active; 'I' for Inactive)
REMARK    5  A    between atoms: CA   and  CB  
REMARK    6  A    between atoms: CB   and  CG  
REMARK    7  A    between atoms: CG   and  CD  
REMARK    8  A    between atoms: CD   and  CE  
ROOT
ATOM      7  CA  LYS A 135      33.193  34.663   9.290  1.00 25.02     0.186 C 
ENDROOT
BRANCH   7   8
ATOM      8  CB  LYS A 135      32.060  35.360  10.034  1.00 26.63     0.034 C 
BRANCH   8   9
ATOM      9  CG  LYS A 135      32.515  36.106  11.262  1.00 29.45     0.005 C 
BRANCH   9  10
ATOM     10  CD  LYS A 135      32.283  35.271  12.513  1.00 32.00     0.041 C 
BRANCH  10  11
ATOM     11  CE  LYS A 135      32.624  36.070  13.756  1.00 34.25     0.338 C 
ATOM     12  NZ  LYS A 135      33.411  35.251  14.720  1.00 35.99     0.618 N 
ENDBRANCH  10  11
ENDBRANCH   9  10
ENDBRANCH   8   9
ENDBRANCH   7   8
END_RES LYS A 135
