REMARK VINA RESULT:    -4.325      5.083      9.358
REMARK INTER + INTRA:         -22.658
REMARK INTER:                 -10.452
REMARK INTRA:                 -12.206
REMARK UNBOUND:               -11.507
REMARK SMILES COc1ccc(Cn2cc(COC(=O)NC[C@@H](O)C(O)[C@@H]3O[C@@](OC[C@H]4O[C@@H](O[C@H]5[C@H](O)[C@@H](O)[C@H](OCCN=[N+]=[N-])O[C@@H]5CO)[C@H](O)[C@@H](O)[C@H]4O)(C(=O)O)C[C@H](O)[C@H]3NC(C)=O)nn2)cc1
REMARK SMILES IDX 23 1 55 2 56 3 58 4 21 5 22 6 24 7 25 8 26 9 28 10 27 11
REMARK SMILES IDX 46 12 48 13 50 14 29 15 30 16 43 17 42 18 35 19 31 20 33 21
REMARK SMILES IDX 44 22 45 23 36 25 37 26 38 27 39 28 40 29 41 30 32 31 34 33
REMARK SMILES IDX 47 35 49 37 51 39 52 41 53 42 54 43 57 45 19 47 20 48 17 50
REMARK SMILES IDX 18 51 16 53 15 54 13 55 14 57 12 58 11 59 10 60 9 61 63 62
REMARK SMILES IDX 8 63 64 64 7 65 6 66 5 67 65 68 4 69 66 70 3 71 2 72 1 73
REMARK SMILES IDX 59 74 60 75 61 77 62 78
REMARK H PARENT 45 24 32 32 34 34 47 36 49 38 51 40 54 44 57 46 20 49 18 52
REMARK H PARENT 15 56 59 76
REMARK Flexibility Score: inf
ROOT
ATOM      1  C   UNL     1      27.301  40.551   5.272  1.00  0.00     0.272 C 
ATOM      2  C   UNL     1      27.800  41.813   5.945  1.00  0.00     0.113 C 
ATOM      3  C   UNL     1      26.663  42.804   6.085  1.00  0.00     0.145 C 
ATOM      4  C   UNL     1      25.395  42.197   6.609  1.00  0.00     0.142 C 
ATOM      5  C   UNL     1      25.482  40.692   6.800  1.00  0.00     0.178 C 
ATOM      6  O   UNL     1      26.152  40.077   5.760  1.00  0.00    -0.332 OA
ENDROOT
BRANCH   1   7
ATOM      7  O   UNL     1      28.303  39.677   5.020  1.00  0.00    -0.338 OA
BRANCH   7   8
ATOM      8  C   UNL     1      28.107  38.415   4.624  1.00  0.00     0.199 C 
BRANCH   8   9
ATOM      9  C   UNL     1      28.351  37.400   5.719  1.00  0.00     0.179 C 
ATOM     10  C   UNL     1      29.572  37.221   7.633  1.00  0.00     0.282 C 
ATOM     11  O   UNL     1      28.702  38.077   6.921  1.00  0.00    -0.341 OA
ATOM     12  C   UNL     1      29.121  35.808   7.585  1.00  0.00     0.202 C 
ATOM     13  C   UNL     1      27.723  35.560   7.131  1.00  0.00     0.179 C 
ATOM     14  C   UNL     1      27.216  36.512   6.066  1.00  0.00     0.177 C 
BRANCH  10  15
ATOM     15  O   UNL     1      29.916  37.737   8.850  1.00  0.00    -0.341 OA
BRANCH  15  16
ATOM     16  C   UNL     1      30.153  39.094   8.909  1.00  0.00     0.184 C 
ATOM     17  C   UNL     1      31.593  39.480   9.144  1.00  0.00     0.178 C 
ATOM     18  O   UNL     1      31.676  40.701   9.812  1.00  0.00    -0.341 OA
ATOM     19  C   UNL     1      30.622  41.573   9.489  1.00  0.00     0.281 C 
ATOM     20  C   UNL     1      29.453  39.566  10.197  1.00  0.00     0.180 C 
ATOM     21  C   UNL     1      29.291  41.056  10.066  1.00  0.00     0.202 C 
BRANCH  17  22
ATOM     22  C   UNL     1      32.425  39.601   7.907  1.00  0.00     0.191 C 
BRANCH  22  23
ATOM     23  O   UNL     1      31.621  39.399   6.787  1.00  0.00    -0.394 OA
ATOM     24  H   UNL     1      31.506  38.412   6.682  1.00  0.00     0.210 HD
ENDBRANCH  22  23
ENDBRANCH  17  22
BRANCH  19  25
ATOM     25  O   UNL     1      30.504  41.850   8.165  1.00  0.00    -0.350 OA
BRANCH  25  26
ATOM     26  C   UNL     1      30.907  43.062   7.696  1.00  0.00     0.169 C 
BRANCH  26  27
ATOM     27  C   UNL     1      31.254  43.172   6.259  1.00  0.00     0.119 C 
BRANCH  27  28
ATOM     28  N   UNL     1      30.992  44.443   5.678  1.00  0.00    -0.092 NA
ATOM     29  N   UNL     1      29.955  44.736   5.066  1.00  0.00     0.001 N 
ATOM     30  N   UNL     1      28.846  45.267   4.829  1.00  0.00    -0.003 NA
ENDBRANCH  27  28
ENDBRANCH  26  27
ENDBRANCH  25  26
ENDBRANCH  19  25
BRANCH  20  31
ATOM     31  O   UNL     1      28.295  38.882  10.443  1.00  0.00    -0.387 OA
ATOM     32  H   UNL     1      28.438  37.882  10.446  1.00  0.00     0.211 HD
ENDBRANCH  20  31
BRANCH  21  33
ATOM     33  O   UNL     1      29.002  41.650  11.294  1.00  0.00    -0.385 OA
ATOM     34  H   UNL     1      28.098  41.361  11.587  1.00  0.00     0.211 HD
ENDBRANCH  21  33
ENDBRANCH  15  16
ENDBRANCH  10  15
BRANCH  12  35
ATOM     35  O   UNL     1      30.021  34.989   6.856  1.00  0.00    -0.385 OA
ATOM     36  H   UNL     1      29.686  34.041   6.872  1.00  0.00     0.211 HD
ENDBRANCH  12  35
BRANCH  13  37
ATOM     37  O   UNL     1      26.822  35.497   8.222  1.00  0.00    -0.387 OA
ATOM     38  H   UNL     1      26.499  34.563   8.294  1.00  0.00     0.211 HD
ENDBRANCH  13  37
BRANCH  14  39
ATOM     39  O   UNL     1      26.085  37.203   6.490  1.00  0.00    -0.387 OA
ATOM     40  H   UNL     1      25.604  37.629   5.740  1.00  0.00     0.211 HD
ENDBRANCH  14  39
ENDBRANCH   8   9
ENDBRANCH   7   8
ENDBRANCH   1   7
BRANCH   1  41
ATOM     41  C   UNL     1      27.046  41.058   3.814  1.00  0.00     0.364 C 
ATOM     42  O   UNL     1      27.956  41.658   3.202  1.00  0.00    -0.246 OA
BRANCH  41  43
ATOM     43  O   UNL     1      25.873  40.875   3.166  1.00  0.00    -0.477 OA
ATOM     44  H   UNL     1      25.079  41.464   3.128  1.00  0.00     0.296 HD
ENDBRANCH  41  43
ENDBRANCH   1  41
BRANCH   3  45
ATOM     45  O   UNL     1      27.162  43.756   7.022  1.00  0.00    -0.391 OA
ATOM     46  H   UNL     1      28.040  44.103   6.720  1.00  0.00     0.211 HD
ENDBRANCH   3  45
BRANCH   5  47
ATOM     47  C   UNL     1      25.952  40.441   8.179  1.00  0.00     0.176 C 
BRANCH  47  48
ATOM     48  O   UNL     1      26.200  39.066   8.459  1.00  0.00    -0.388 OA
ATOM     49  H   UNL     1      26.387  38.991   9.419  1.00  0.00     0.211 HD
ENDBRANCH  47  48
BRANCH  47  50
ATOM     50  C   UNL     1      24.858  40.674   9.263  1.00  0.00     0.165 C 
BRANCH  50  51
ATOM     51  O   UNL     1      25.083  40.187  10.488  1.00  0.00    -0.388 OA
ATOM     52  H   UNL     1      25.699  39.413  10.462  1.00  0.00     0.211 HD
ENDBRANCH  50  51
BRANCH  50  53
ATOM     53  C   UNL     1      23.543  40.121   8.672  1.00  0.00     0.154 C 
BRANCH  53  54
ATOM     54  N   UNL     1      23.096  38.936   9.328  1.00  0.00    -0.319 N 
ATOM     55  C   UNL     1      23.098  37.691   8.616  1.00  0.00     0.407 C 
ATOM     56  H   UNL     1      22.769  38.950  10.299  1.00  0.00     0.167 HD
ATOM     57  O   UNL     1      23.500  37.668   7.420  1.00  0.00    -0.225 OA
BRANCH  55  58
ATOM     58  O   UNL     1      22.657  36.559   9.277  1.00  0.00    -0.443 OA
BRANCH  58  59
ATOM     59  C   UNL     1      23.621  35.624   9.798  1.00  0.00     0.294 C 
BRANCH  59  60
ATOM     60  C   UNL     1      24.501  36.349  10.738  1.00  0.00     0.120 A 
ATOM     61  C   UNL     1      24.451  36.311  12.135  1.00  0.00     0.138 A 
ATOM     62  N   UNL     1      25.500  37.187  10.439  1.00  0.00    -0.132 NA
ATOM     63  N   UNL     1      25.414  37.123  12.588  1.00  0.00    -0.248 N 
ATOM     64  N   UNL     1      26.043  37.648  11.548  1.00  0.00    -0.067 NA
BRANCH  63  65
ATOM     65  C   UNL     1      25.717  37.387  13.972  1.00  0.00     0.181 C 
BRANCH  65  66
ATOM     66  C   UNL     1      27.081  36.897  14.270  1.00  0.00    -0.026 A 
ATOM     67  C   UNL     1      28.167  37.756  14.126  1.00  0.00     0.009 A 
ATOM     68  C   UNL     1      27.336  35.623  14.704  1.00  0.00     0.009 A 
ATOM     69  C   UNL     1      29.457  37.357  14.406  1.00  0.00     0.047 A 
ATOM     70  C   UNL     1      28.645  35.220  14.988  1.00  0.00     0.047 A 
ATOM     71  C   UNL     1      29.710  36.066  14.846  1.00  0.00     0.118 A 
BRANCH  71  72
ATOM     72  O   UNL     1      31.020  35.715  15.113  1.00  0.00    -0.497 OA
ATOM     73  C   UNL     1      32.134  36.520  14.855  1.00  0.00     0.278 C 
ENDBRANCH  71  72
ENDBRANCH  65  66
ENDBRANCH  63  65
ENDBRANCH  59  60
ENDBRANCH  58  59
ENDBRANCH  55  58
ENDBRANCH  53  54
ENDBRANCH  50  53
ENDBRANCH  47  50
ENDBRANCH   5  47
BRANCH   4  74
ATOM     74  N   UNL     1      24.191  42.587   5.908  1.00  0.00    -0.348 N 
ATOM     75  C   UNL     1      23.084  43.248   6.509  1.00  0.00     0.217 C 
ATOM     76  H   UNL     1      24.105  42.366   4.905  1.00  0.00     0.163 HD
ATOM     77  C   UNL     1      21.872  43.604   5.677  1.00  0.00     0.114 C 
ATOM     78  O   UNL     1      23.116  43.535   7.729  1.00  0.00    -0.275 OA
ENDBRANCH   4  74
TORSDOF 32
BEGIN_RES LYS A 131
REMARK  4 active torsions:
REMARK  status: ('A' for Active; 'I' for Inactive)
REMARK    1  A    between atoms: CA   and  CB  
REMARK    2  A    between atoms: CB   and  CG  
REMARK    3  A    between atoms: CG   and  CD  
REMARK    4  A    between atoms: CD   and  CE  
ROOT
ATOM      1  CA  LYS A 131      29.867  25.555  16.977  1.00 20.52     0.186 C 
ENDROOT
BRANCH   1   2
ATOM      2  CB  LYS A 131      28.345  25.722  17.026  1.00 20.94     0.034 C 
BRANCH   2   3
ATOM      3  CG  LYS A 131      27.602  24.399  16.921  1.00 22.96     0.005 C 
BRANCH   3   4
ATOM      4  CD  LYS A 131      26.150  24.535  17.286  1.00 24.33     0.041 C 
BRANCH   4   5
ATOM      5  CE  LYS A 131      26.005  24.543  18.804  1.00 26.91     0.338 C 
ATOM      6  NZ  LYS A 131      25.513  23.231  19.286  1.00 27.40     0.618 N 
ENDBRANCH   4   5
ENDBRANCH   3   4
ENDBRANCH   2   3
ENDBRANCH   1   2
END_RES LYS A 131
BEGIN_RES LYS A 135
REMARK  4 active torsions:
REMARK  status: ('A' for Active; 'I' for Inactive)
REMARK    5  A    between atoms: CA   and  CB  
REMARK    6  A    between atoms: CB   and  CG  
REMARK    7  A    between atoms: CG   and  CD  
REMARK    8  A    between atoms: CD   and  CE  
ROOT
ATOM      7  CA  LYS A 135      33.193  34.663   9.290  1.00 25.02     0.186 C 
ENDROOT
BRANCH   7   8
ATOM      8  CB  LYS A 135      32.060  35.360  10.034  1.00 26.63     0.034 C 
BRANCH   8   9
ATOM      9  CG  LYS A 135      30.843  34.493  10.227  1.00 29.45     0.005 C 
BRANCH   9  10
ATOM     10  CD  LYS A 135      30.112  34.871  11.506  1.00 32.00     0.041 C 
BRANCH  10  11
ATOM     11  CE  LYS A 135      28.765  35.490  11.187  1.00 34.25     0.338 C 
ATOM     12  NZ  LYS A 135      27.665  34.501  11.362  1.00 35.99     0.618 N 
ENDBRANCH  10  11
ENDBRANCH   9  10
ENDBRANCH   8   9
ENDBRANCH   7   8
END_RES LYS A 135
