REMARK VINA RESULT:    -4.530      4.627     11.384
REMARK INTER + INTRA:         -23.957
REMARK INTER:                 -12.106
REMARK INTRA:                 -11.852
REMARK UNBOUND:               -11.748
REMARK SMILES CC(=O)N[C@@H]1[C@@H](O)C[C@](OC[C@H]2O[C@@H](O[C@H]3[C@H](O)[C@@H](O)[C@H](OCCN=[N+]=[N-])O[C@@H]3CO)[C@H](O)[C@@H](O)[C@H]2O)(C(=O)O)O[C@H]1C(O)[C@H](O)CNC(=O)OCc1cn([C@@H](C)C(=O)OCc2ccccc2)nn1
REMARK SMILES IDX 43 1 42 2 9 3 8 4 41 5 6 6 5 7 10 8 11 9 12 10 14 11 13 12
REMARK SMILES IDX 32 13 34 14 36 15 15 16 16 17 29 18 28 19 21 20 17 21 19 22
REMARK SMILES IDX 30 23 31 24 22 26 23 27 24 28 25 29 26 30 27 31 18 32 20 34
REMARK SMILES IDX 33 36 35 38 37 40 38 42 39 43 40 44 7 46 4 48 2 49 1 51 3 52
REMARK SMILES IDX 44 53 45 55 46 56 47 58 48 59 49 60 50 62 51 63 52 64 53 65
REMARK SMILES IDX 54 66 69 67 55 68 68 69 56 70 57 71 58 72 59 73 60 74 61 75
REMARK SMILES IDX 62 76 63 77 67 78 64 79 66 80 65 81
REMARK H PARENT 31 25 18 33 20 35 33 37 35 39 37 41 40 45 7 47 4 50 44 54
REMARK H PARENT 46 57 48 61
REMARK Flexibility Score: inf
ROOT
ATOM      1  C   UNL     1      21.394  36.152   9.510  1.00  0.00     0.176 C 
ENDROOT
BRANCH   1   2
ATOM      2  C   UNL     1      19.949  35.907   9.703  1.00  0.00     0.178 C 
ATOM      3  C   UNL     1      19.470  37.135  11.630  1.00  0.00     0.272 C 
ATOM      4  C   UNL     1      19.200  35.864  12.341  1.00  0.00     0.113 C 
ATOM      5  O   UNL     1      19.221  36.944  10.224  1.00  0.00    -0.332 OA
ATOM      6  C   UNL     1      19.991  34.690  11.814  1.00  0.00     0.145 C 
ATOM      7  C   UNL     1      19.713  34.565  10.347  1.00  0.00     0.142 C 
BRANCH   3   8
ATOM      8  O   UNL     1      20.638  37.721  11.695  1.00  0.00    -0.338 OA
BRANCH   8   9
ATOM      9  C   UNL     1      21.150  38.607  12.500  1.00  0.00     0.199 C 
BRANCH   9  10
ATOM     10  C   UNL     1      22.304  38.320  13.419  1.00  0.00     0.179 C 
ATOM     11  C   UNL     1      23.344  36.483  14.398  1.00  0.00     0.282 C 
ATOM     12  O   UNL     1      22.167  37.065  13.935  1.00  0.00    -0.341 OA
ATOM     13  C   UNL     1      24.390  37.485  14.731  1.00  0.00     0.202 C 
ATOM     14  C   UNL     1      24.801  38.263  13.511  1.00  0.00     0.179 C 
ATOM     15  C   UNL     1      23.622  38.457  12.628  1.00  0.00     0.177 C 
BRANCH  11  16
ATOM     16  O   UNL     1      23.683  35.501  13.507  1.00  0.00    -0.341 OA
BRANCH  16  17
ATOM     17  C   UNL     1      24.318  34.417  14.034  1.00  0.00     0.184 C 
ATOM     18  C   UNL     1      24.832  33.547  12.915  1.00  0.00     0.178 C 
ATOM     19  O   UNL     1      25.351  32.356  13.436  1.00  0.00    -0.341 OA
ATOM     20  C   UNL     1      24.220  31.517  13.606  1.00  0.00     0.281 C 
ATOM     21  C   UNL     1      23.404  33.550  14.884  1.00  0.00     0.180 C 
ATOM     22  C   UNL     1      23.102  32.213  14.316  1.00  0.00     0.202 C 
BRANCH  18  23
ATOM     23  C   UNL     1      25.806  34.226  11.999  1.00  0.00     0.191 C 
BRANCH  23  24
ATOM     24  O   UNL     1      25.067  35.124  11.223  1.00  0.00    -0.394 OA
ATOM     25  H   UNL     1      24.132  34.836  11.086  1.00  0.00     0.210 HD
ENDBRANCH  23  24
ENDBRANCH  18  23
BRANCH  20  26
ATOM     26  O   UNL     1      24.643  30.370  14.197  1.00  0.00    -0.350 OA
BRANCH  26  27
ATOM     27  C   UNL     1      25.060  30.404  15.486  1.00  0.00     0.169 C 
BRANCH  27  28
ATOM     28  C   UNL     1      26.523  30.428  15.747  1.00  0.00     0.119 C 
BRANCH  28  29
ATOM     29  N   UNL     1      26.984  29.836  16.950  1.00  0.00    -0.092 NA
ATOM     30  N   UNL     1      26.544  28.772  17.369  1.00  0.00     0.001 N 
ATOM     31  N   UNL     1      26.267  27.622  17.757  1.00  0.00    -0.003 NA
ENDBRANCH  28  29
ENDBRANCH  27  28
ENDBRANCH  26  27
ENDBRANCH  20  26
BRANCH  21  32
ATOM     32  O   UNL     1      23.913  33.387  16.176  1.00  0.00    -0.387 OA
ATOM     33  H   UNL     1      23.376  32.776  16.728  1.00  0.00     0.211 HD
ENDBRANCH  21  32
BRANCH  22  34
ATOM     34  O   UNL     1      21.932  32.286  13.553  1.00  0.00    -0.385 OA
ATOM     35  H   UNL     1      22.140  32.867  12.772  1.00  0.00     0.211 HD
ENDBRANCH  22  34
ENDBRANCH  16  17
ENDBRANCH  11  16
BRANCH  13  36
ATOM     36  O   UNL     1      23.874  38.348  15.728  1.00  0.00    -0.385 OA
ATOM     37  H   UNL     1      23.795  37.765  16.543  1.00  0.00     0.211 HD
ENDBRANCH  13  36
BRANCH  14  38
ATOM     38  O   UNL     1      25.852  37.609  12.901  1.00  0.00    -0.387 OA
ATOM     39  H   UNL     1      25.584  37.176  12.045  1.00  0.00     0.211 HD
ENDBRANCH  14  38
BRANCH  15  40
ATOM     40  O   UNL     1      23.637  37.621  11.519  1.00  0.00    -0.387 OA
ATOM     41  H   UNL     1      23.317  36.707  11.793  1.00  0.00     0.211 HD
ENDBRANCH  15  40
ENDBRANCH   9  10
ENDBRANCH   8   9
ENDBRANCH   3   8
BRANCH   3  42
ATOM     42  C   UNL     1      18.323  38.077  11.938  1.00  0.00     0.364 C 
ATOM     43  O   UNL     1      17.693  38.006  13.002  1.00  0.00    -0.246 OA
BRANCH  42  44
ATOM     44  O   UNL     1      17.944  39.057  11.023  1.00  0.00    -0.477 OA
ATOM     45  H   UNL     1      18.601  39.645  10.520  1.00  0.00     0.296 HD
ENDBRANCH  42  44
ENDBRANCH   3  42
BRANCH   6  46
ATOM     46  O   UNL     1      21.350  34.781  12.099  1.00  0.00    -0.391 OA
ATOM     47  H   UNL     1      21.489  34.328  12.963  1.00  0.00     0.211 HD
ENDBRANCH   6  46
BRANCH   7  48
ATOM     48  N   UNL     1      18.336  34.123  10.170  1.00  0.00    -0.348 N 
ATOM     49  C   UNL     1      17.893  33.790   8.851  1.00  0.00     0.217 C 
ATOM     50  H   UNL     1      17.652  34.037  10.947  1.00  0.00     0.163 HD
ATOM     51  C   UNL     1      16.481  33.337   8.670  1.00  0.00     0.114 C 
ATOM     52  O   UNL     1      18.684  33.879   7.873  1.00  0.00    -0.275 OA
ENDBRANCH   7  48
ENDBRANCH   1   2
BRANCH   1  53
ATOM     53  O   UNL     1      21.985  34.975   8.990  1.00  0.00    -0.388 OA
ATOM     54  H   UNL     1      21.494  34.673   8.177  1.00  0.00     0.211 HD
ENDBRANCH   1  53
BRANCH   1  55
ATOM     55  C   UNL     1      21.701  37.212   8.439  1.00  0.00     0.165 C 
BRANCH  55  56
ATOM     56  O   UNL     1      20.664  37.400   7.580  1.00  0.00    -0.388 OA
ATOM     57  H   UNL     1      19.949  37.939   7.995  1.00  0.00     0.211 HD
ENDBRANCH  55  56
BRANCH  55  58
ATOM     58  C   UNL     1      23.034  36.965   7.811  1.00  0.00     0.154 C 
BRANCH  58  59
ATOM     59  N   UNL     1      24.071  36.947   8.805  1.00  0.00    -0.319 N 
ATOM     60  C   UNL     1      25.389  37.434   8.641  1.00  0.00     0.407 C 
ATOM     61  H   UNL     1      23.878  36.540   9.775  1.00  0.00     0.167 HD
ATOM     62  O   UNL     1      25.764  37.917   7.570  1.00  0.00    -0.225 OA
BRANCH  60  63
ATOM     63  O   UNL     1      26.316  37.383   9.694  1.00  0.00    -0.443 OA
BRANCH  63  64
ATOM     64  C   UNL     1      27.601  37.943   9.586  1.00  0.00     0.294 C 
BRANCH  64  65
ATOM     65  C   UNL     1      28.384  37.500  10.763  1.00  0.00     0.120 A 
ATOM     66  C   UNL     1      29.572  38.011  11.236  1.00  0.00     0.139 A 
ATOM     67  N   UNL     1      28.053  36.491  11.577  1.00  0.00    -0.132 NA
ATOM     68  N   UNL     1      29.940  37.296  12.335  1.00  0.00    -0.238 N 
ATOM     69  N   UNL     1      29.002  36.386  12.518  1.00  0.00    -0.066 NA
BRANCH  68  70
ATOM     70  C   UNL     1      31.152  37.577  13.064  1.00  0.00     0.215 C 
ATOM     71  C   UNL     1      30.854  38.270  14.380  1.00  0.00     0.046 C 
BRANCH  70  72
ATOM     72  C   UNL     1      31.914  36.305  13.327  1.00  0.00     0.331 C 
ATOM     73  O   UNL     1      32.731  35.906  12.481  1.00  0.00    -0.250 OA
BRANCH  72  74
ATOM     74  O   UNL     1      31.724  35.582  14.482  1.00  0.00    -0.459 OA
BRANCH  74  75
ATOM     75  C   UNL     1      32.458  34.441  14.851  1.00  0.00     0.268 C 
BRANCH  75  76
ATOM     76  C   UNL     1      31.738  33.547  15.782  1.00  0.00    -0.011 A 
ATOM     77  C   UNL     1      31.248  32.326  15.397  1.00  0.00     0.007 A 
ATOM     78  C   UNL     1      31.537  33.932  17.085  1.00  0.00     0.007 A 
ATOM     79  C   UNL     1      30.574  31.492  16.261  1.00  0.00     0.000 A 
ATOM     80  C   UNL     1      30.869  33.131  17.983  1.00  0.00     0.000 A 
ATOM     81  C   UNL     1      30.386  31.900  17.556  1.00  0.00     0.000 A 
ENDBRANCH  75  76
ENDBRANCH  74  75
ENDBRANCH  72  74
ENDBRANCH  70  72
ENDBRANCH  68  70
ENDBRANCH  64  65
ENDBRANCH  63  64
ENDBRANCH  60  63
ENDBRANCH  58  59
ENDBRANCH  55  58
ENDBRANCH   1  55
TORSDOF 34
BEGIN_RES LYS A 131
REMARK  4 active torsions:
REMARK  status: ('A' for Active; 'I' for Inactive)
REMARK    1  A    between atoms: CA   and  CB  
REMARK    2  A    between atoms: CB   and  CG  
REMARK    3  A    between atoms: CG   and  CD  
REMARK    4  A    between atoms: CD   and  CE  
ROOT
ATOM      1  CA  LYS A 131      29.867  25.555  16.977  1.00 20.52     0.186 C 
ENDROOT
BRANCH   1   2
ATOM      2  CB  LYS A 131      28.345  25.722  17.026  1.00 20.94     0.034 C 
BRANCH   2   3
ATOM      3  CG  LYS A 131      27.599  24.478  16.570  1.00 22.96     0.005 C 
BRANCH   3   4
ATOM      4  CD  LYS A 131      27.165  23.621  17.727  1.00 24.33     0.041 C 
BRANCH   4   5
ATOM      5  CE  LYS A 131      25.676  23.313  17.601  1.00 26.91     0.338 C 
ATOM      6  NZ  LYS A 131      24.975  24.416  16.904  1.00 27.40     0.618 N 
ENDBRANCH   4   5
ENDBRANCH   3   4
ENDBRANCH   2   3
ENDBRANCH   1   2
END_RES LYS A 131
BEGIN_RES LYS A 135
REMARK  4 active torsions:
REMARK  status: ('A' for Active; 'I' for Inactive)
REMARK    5  A    between atoms: CA   and  CB  
REMARK    6  A    between atoms: CB   and  CG  
REMARK    7  A    between atoms: CG   and  CD  
REMARK    8  A    between atoms: CD   and  CE  
ROOT
ATOM      7  CA  LYS A 135      33.193  34.663   9.290  1.00 25.02     0.186 C 
ENDROOT
BRANCH   7   8
ATOM      8  CB  LYS A 135      32.060  35.360  10.034  1.00 26.63     0.034 C 
BRANCH   8   9
ATOM      9  CG  LYS A 135      30.712  34.726   9.809  1.00 29.45     0.005 C 
BRANCH   9  10
ATOM     10  CD  LYS A 135      30.449  34.536   8.323  1.00 32.00     0.041 C 
BRANCH  10  11
ATOM     11  CE  LYS A 135      29.002  34.848   7.993  1.00 34.25     0.338 C 
ATOM     12  NZ  LYS A 135      28.077  34.161   8.937  1.00 35.99     0.618 N 
ENDBRANCH  10  11
ENDBRANCH   9  10
ENDBRANCH   8   9
ENDBRANCH   7   8
END_RES LYS A 135
