REMARK VINA RESULT:    -5.466      3.750     11.620
REMARK INTER + INTRA:         -23.741
REMARK INTER:                 -12.439
REMARK INTRA:                 -11.302
REMARK UNBOUND:                -9.487
REMARK SMILES CC(=O)N[C@@H]1[C@@H](O)C[C@](OC[C@H]2O[C@@H](O[C@H]3[C@H](O)[C@@H](O)[C@H](OCCN=[N+]=[N-])O[C@@H]3CO)[C@H](O)[C@@H](O)[C@H]2O)(C(=O)O)O[C@H]1C(O)[C@H](O)CNC(=O)OCc1cn(Cc2ccc(C(=O)O)cc2)nn1
REMARK SMILES IDX 43 1 42 2 9 3 8 4 41 5 6 6 5 7 10 8 11 9 12 10 14 11 13 12
REMARK SMILES IDX 32 13 34 14 36 15 15 16 16 17 29 18 28 19 21 20 17 21 19 22
REMARK SMILES IDX 30 23 31 24 22 26 23 27 24 28 25 29 26 30 27 31 18 32 20 34
REMARK SMILES IDX 33 36 35 38 37 40 38 42 39 43 40 44 7 46 4 48 2 49 1 51 3 52
REMARK SMILES IDX 44 53 45 55 46 56 47 58 48 59 49 60 50 62 51 63 52 64 53 65
REMARK SMILES IDX 54 66 67 67 55 68 66 69 56 70 57 71 58 72 65 73 59 74 64 75
REMARK SMILES IDX 60 76 61 77 62 78 63 79
REMARK H PARENT 31 25 18 33 20 35 33 37 35 39 37 41 40 45 7 47 4 50 44 54
REMARK H PARENT 46 57 48 61 63 80
REMARK Flexibility Score: inf
ROOT
ATOM      1  C   UNL     1      30.314  32.897  17.329  1.00  0.00     0.176 C 
ENDROOT
BRANCH   1   2
ATOM      2  C   UNL     1      30.703  32.543  18.782  1.00  0.00     0.178 C 
ATOM      3  C   UNL     1      30.150  30.678  20.129  1.00  0.00     0.272 C 
ATOM      4  C   UNL     1      29.573  31.612  21.117  1.00  0.00     0.113 C 
ATOM      5  O   UNL     1      30.445  31.233  18.911  1.00  0.00    -0.332 OA
ATOM      6  C   UNL     1      28.944  32.837  20.487  1.00  0.00     0.145 C 
ATOM      7  C   UNL     1      30.013  33.498  19.668  1.00  0.00     0.142 C 
BRANCH   3   8
ATOM      8  O   UNL     1      29.299  29.638  19.861  1.00  0.00    -0.338 OA
BRANCH   8   9
ATOM      9  C   UNL     1      28.496  29.152  20.830  1.00  0.00     0.199 C 
BRANCH   9  10
ATOM     10  C   UNL     1      27.057  28.973  20.288  1.00  0.00     0.179 C 
ATOM     11  C   UNL     1      25.640  29.786  18.627  1.00  0.00     0.282 C 
ATOM     12  O   UNL     1      26.822  29.935  19.350  1.00  0.00    -0.341 OA
ATOM     13  C   UNL     1      24.730  28.735  19.155  1.00  0.00     0.202 C 
ATOM     14  C   UNL     1      25.495  27.430  19.212  1.00  0.00     0.179 C 
ATOM     15  C   UNL     1      26.883  27.575  19.753  1.00  0.00     0.177 C 
BRANCH  11  16
ATOM     16  O   UNL     1      25.981  29.533  17.299  1.00  0.00    -0.341 OA
BRANCH  16  17
ATOM     17  C   UNL     1      25.928  30.660  16.532  1.00  0.00     0.184 C 
ATOM     18  C   UNL     1      27.257  31.294  16.344  1.00  0.00     0.178 C 
ATOM     19  O   UNL     1      27.209  32.277  15.345  1.00  0.00    -0.341 OA
ATOM     20  C   UNL     1      26.051  33.049  15.459  1.00  0.00     0.281 C 
ATOM     21  C   UNL     1      24.996  31.642  17.268  1.00  0.00     0.180 C 
ATOM     22  C   UNL     1      25.433  33.023  16.825  1.00  0.00     0.202 C 
BRANCH  18  23
ATOM     23  C   UNL     1      28.282  30.274  15.935  1.00  0.00     0.191 C 
BRANCH  23  24
ATOM     24  O   UNL     1      28.716  29.665  17.135  1.00  0.00    -0.394 OA
ATOM     25  H   UNL     1      28.866  28.710  16.995  1.00  0.00     0.210 HD
ENDBRANCH  23  24
ENDBRANCH  18  23
BRANCH  20  26
ATOM     26  O   UNL     1      25.164  32.678  14.476  1.00  0.00    -0.350 OA
BRANCH  26  27
ATOM     27  C   UNL     1      24.049  33.477  14.360  1.00  0.00     0.169 C 
BRANCH  27  28
ATOM     28  C   UNL     1      23.134  33.144  13.230  1.00  0.00     0.119 C 
BRANCH  28  29
ATOM     29  N   UNL     1      23.247  31.693  13.012  1.00  0.00    -0.092 NA
ATOM     30  N   UNL     1      22.304  31.007  12.634  1.00  0.00     0.001 N 
ATOM     31  N   UNL     1      21.204  30.526  12.384  1.00  0.00    -0.003 NA
ENDBRANCH  28  29
ENDBRANCH  27  28
ENDBRANCH  26  27
ENDBRANCH  20  26
BRANCH  21  32
ATOM     32  O   UNL     1      23.682  31.391  16.942  1.00  0.00    -0.387 OA
ATOM     33  H   UNL     1      23.255  32.186  16.485  1.00  0.00     0.211 HD
ENDBRANCH  21  32
BRANCH  22  34
ATOM     34  O   UNL     1      26.254  33.577  17.779  1.00  0.00    -0.385 OA
ATOM     35  H   UNL     1      26.261  33.074  18.612  1.00  0.00     0.211 HD
ENDBRANCH  22  34
ENDBRANCH  16  17
ENDBRANCH  11  16
BRANCH  13  36
ATOM     36  O   UNL     1      24.236  29.061  20.427  1.00  0.00    -0.385 OA
ATOM     37  H   UNL     1      23.675  28.288  20.708  1.00  0.00     0.211 HD
ENDBRANCH  13  36
BRANCH  14  38
ATOM     38  O   UNL     1      25.549  26.818  17.959  1.00  0.00    -0.387 OA
ATOM     39  H   UNL     1      26.194  26.059  18.016  1.00  0.00     0.211 HD
ENDBRANCH  14  38
BRANCH  15  40
ATOM     40  O   UNL     1      27.860  27.264  18.797  1.00  0.00    -0.387 OA
ATOM     41  H   UNL     1      27.443  27.393  17.905  1.00  0.00     0.211 HD
ENDBRANCH  15  40
ENDBRANCH   9  10
ENDBRANCH   8   9
ENDBRANCH   3   8
BRANCH   3  42
ATOM     42  C   UNL     1      31.464  30.168  20.671  1.00  0.00     0.364 C 
ATOM     43  O   UNL     1      31.916  29.053  20.312  1.00  0.00    -0.246 OA
BRANCH  42  44
ATOM     44  O   UNL     1      32.212  30.905  21.574  1.00  0.00    -0.477 OA
ATOM     45  H   UNL     1      32.415  31.886  21.325  1.00  0.00     0.296 HD
ENDBRANCH  42  44
ENDBRANCH   3  42
BRANCH   6  46
ATOM     46  O   UNL     1      27.851  32.418  19.761  1.00  0.00    -0.391 OA
ATOM     47  H   UNL     1      27.328  31.761  20.289  1.00  0.00     0.211 HD
ENDBRANCH   6  46
BRANCH   7  48
ATOM     48  N   UNL     1      30.979  34.101  20.577  1.00  0.00    -0.348 N 
ATOM     49  C   UNL     1      31.607  35.359  20.273  1.00  0.00     0.217 C 
ATOM     50  H   UNL     1      31.276  33.678  21.483  1.00  0.00     0.163 HD
ATOM     51  C   UNL     1      32.593  35.945  21.233  1.00  0.00     0.114 C 
ATOM     52  O   UNL     1      31.310  35.929  19.211  1.00  0.00    -0.275 OA
ENDBRANCH   7  48
ENDBRANCH   1   2
BRANCH   1  53
ATOM     53  O   UNL     1      29.283  33.773  17.232  1.00  0.00    -0.388 OA
ATOM     54  H   UNL     1      28.731  33.718  16.422  1.00  0.00     0.211 HD
ENDBRANCH   1  53
BRANCH   1  55
ATOM     55  C   UNL     1      31.526  33.293  16.521  1.00  0.00     0.165 C 
BRANCH  55  56
ATOM     56  O   UNL     1      31.691  34.641  16.582  1.00  0.00    -0.388 OA
ATOM     57  H   UNL     1      31.039  35.134  17.117  1.00  0.00     0.211 HD
ENDBRANCH  55  56
BRANCH  55  58
ATOM     58  C   UNL     1      31.489  32.644  15.192  1.00  0.00     0.154 C 
BRANCH  58  59
ATOM     59  N   UNL     1      30.333  33.024  14.429  1.00  0.00    -0.319 N 
ATOM     60  C   UNL     1      30.271  34.158  13.588  1.00  0.00     0.407 C 
ATOM     61  H   UNL     1      29.456  32.435  14.481  1.00  0.00     0.167 HD
ATOM     62  O   UNL     1      31.235  34.925  13.444  1.00  0.00    -0.225 OA
BRANCH  60  63
ATOM     63  O   UNL     1      29.118  34.499  12.853  1.00  0.00    -0.443 OA
BRANCH  63  64
ATOM     64  C   UNL     1      28.268  35.531  13.317  1.00  0.00     0.294 C 
BRANCH  64  65
ATOM     65  C   UNL     1      27.139  35.792  12.408  1.00  0.00     0.120 A 
ATOM     66  C   UNL     1      26.846  36.908  11.674  1.00  0.00     0.138 A 
ATOM     67  N   UNL     1      26.151  34.909  12.167  1.00  0.00    -0.132 NA
ATOM     68  N   UNL     1      25.692  36.674  11.012  1.00  0.00    -0.248 N 
ATOM     69  N   UNL     1      25.291  35.456  11.328  1.00  0.00    -0.067 NA
BRANCH  68  70
ATOM     70  C   UNL     1      25.042  37.611  10.132  1.00  0.00     0.181 C 
BRANCH  70  71
ATOM     71  C   UNL     1      25.803  37.761   8.876  1.00  0.00    -0.026 A 
ATOM     72  C   UNL     1      26.315  38.991   8.524  1.00  0.00     0.006 A 
ATOM     73  C   UNL     1      25.990  36.669   8.033  1.00  0.00     0.006 A 
ATOM     74  C   UNL     1      27.002  39.066   7.325  1.00  0.00     0.016 A 
ATOM     75  C   UNL     1      26.673  36.750   6.840  1.00  0.00     0.016 A 
ATOM     76  C   UNL     1      27.184  37.979   6.492  1.00  0.00     0.059 A 
BRANCH  76  77
ATOM     77  C   UNL     1      27.911  38.126   5.242  1.00  0.00     0.335 C 
ATOM     78  O   UNL     1      29.017  37.588   5.096  1.00  0.00    -0.246 OA
BRANCH  77  79
ATOM     79  O   UNL     1      27.366  38.868   4.218  1.00  0.00    -0.478 OA
ATOM     80  H   UNL     1      26.434  38.685   3.850  1.00  0.00     0.297 HD
ENDBRANCH  77  79
ENDBRANCH  76  77
ENDBRANCH  70  71
ENDBRANCH  68  70
ENDBRANCH  64  65
ENDBRANCH  63  64
ENDBRANCH  60  63
ENDBRANCH  58  59
ENDBRANCH  55  58
ENDBRANCH   1  55
TORSDOF 33
BEGIN_RES LYS A 131
REMARK  4 active torsions:
REMARK  status: ('A' for Active; 'I' for Inactive)
REMARK    1  A    between atoms: CA   and  CB  
REMARK    2  A    between atoms: CB   and  CG  
REMARK    3  A    between atoms: CG   and  CD  
REMARK    4  A    between atoms: CD   and  CE  
ROOT
ATOM      1  CA  LYS A 131      29.867  25.555  16.977  1.00 20.52     0.186 C 
ENDROOT
BRANCH   1   2
ATOM      2  CB  LYS A 131      28.345  25.722  17.026  1.00 20.94     0.034 C 
BRANCH   2   3
ATOM      3  CG  LYS A 131      27.599  24.434  16.714  1.00 22.96     0.005 C 
BRANCH   3   4
ATOM      4  CD  LYS A 131      27.019  23.802  17.949  1.00 24.33     0.041 C 
BRANCH   4   5
ATOM      5  CE  LYS A 131      25.816  22.946  17.566  1.00 26.91     0.338 C 
ATOM      6  NZ  LYS A 131      24.744  23.789  16.985  1.00 27.40     0.618 N 
ENDBRANCH   4   5
ENDBRANCH   3   4
ENDBRANCH   2   3
ENDBRANCH   1   2
END_RES LYS A 131
BEGIN_RES LYS A 135
REMARK  4 active torsions:
REMARK  status: ('A' for Active; 'I' for Inactive)
REMARK    5  A    between atoms: CA   and  CB  
REMARK    6  A    between atoms: CB   and  CG  
REMARK    7  A    between atoms: CG   and  CD  
REMARK    8  A    between atoms: CD   and  CE  
ROOT
ATOM      7  CA  LYS A 135      33.193  34.663   9.290  1.00 25.02     0.186 C 
ENDROOT
BRANCH   7   8
ATOM      8  CB  LYS A 135      32.060  35.360  10.034  1.00 26.63     0.034 C 
BRANCH   8   9
ATOM      9  CG  LYS A 135      30.815  35.539   9.204  1.00 29.45     0.005 C 
BRANCH   9  10
ATOM     10  CD  LYS A 135      30.187  34.192   8.880  1.00 32.00     0.041 C 
BRANCH  10  11
ATOM     11  CE  LYS A 135      28.736  34.365   8.476  1.00 34.25     0.338 C 
ATOM     12  NZ  LYS A 135      27.826  33.692   9.444  1.00 35.99     0.618 N 
ENDBRANCH  10  11
ENDBRANCH   9  10
ENDBRANCH   8   9
ENDBRANCH   7   8
END_RES LYS A 135
