REMARK VINA RESULT:    -5.351      1.895      3.360
REMARK INTER + INTRA:         -25.127
REMARK INTER:                 -14.480
REMARK INTRA:                 -10.646
REMARK UNBOUND:               -11.174
REMARK SMILES CC(=O)N[C@@H]1[C@@H](O)C[C@](OC[C@H]2O[C@@H](O[C@H]3[C@H](O)[C@@H](O)[C@H](OCCN=[N+]=[N-])O[C@@H]3CO)[C@H](O)[C@@H](O)[C@H]2O)(C(=O)O)O[C@H]1C(O)[C@H](O)CNC(=O)OCc1cn(-c2cc(C(=O)O)nc(-c3ccccc3)c2)nn1
REMARK SMILES IDX 9 1 8 2 6 3 5 4 42 5 41 6 10 7 11 8 12 9 14 10 13 11 32 12
REMARK SMILES IDX 34 13 36 14 15 15 16 16 29 17 28 18 21 19 17 20 19 21 30 22
REMARK SMILES IDX 31 23 22 25 23 26 24 27 25 28 26 29 27 30 18 31 20 33 33 35
REMARK SMILES IDX 35 37 37 39 38 41 39 42 40 43 7 45 43 47 44 48 45 50 46 51
REMARK SMILES IDX 47 53 48 54 49 55 50 57 51 58 52 59 53 60 54 61 72 62 55 63
REMARK SMILES IDX 71 64 56 65 57 66 70 67 58 68 63 69 62 70 59 71 60 72 61 73
REMARK SMILES IDX 64 75 65 76 69 77 66 78 68 79 67 80 4 81 2 82 1 84 3 85
REMARK H PARENT 31 24 18 32 20 34 33 36 35 38 37 40 40 44 7 46 44 49 46 52
REMARK H PARENT 48 56 61 74 4 83
REMARK Flexibility Score: inf
ROOT
ATOM      1  C   UNL     1      31.445  34.331  14.762  1.00  0.00     0.272 C 
ATOM      2  C   UNL     1      31.879  32.977  15.360  1.00  0.00     0.113 C 
ATOM      3  C   UNL     1      31.122  32.579  16.573  1.00  0.00     0.145 C 
ATOM      4  C   UNL     1      30.857  33.738  17.527  1.00  0.00     0.142 C 
ATOM      5  C   UNL     1      31.657  34.903  16.935  1.00  0.00     0.178 C 
ATOM      6  O   UNL     1      31.026  35.218  15.752  1.00  0.00    -0.332 OA
ENDROOT
BRANCH   1   7
ATOM      7  O   UNL     1      30.401  34.041  13.943  1.00  0.00    -0.338 OA
BRANCH   7   8
ATOM      8  C   UNL     1      29.499  35.007  13.634  1.00  0.00     0.199 C 
BRANCH   8   9
ATOM      9  C   UNL     1      28.057  34.513  13.912  1.00  0.00     0.179 C 
ATOM     10  C   UNL     1      26.954  32.972  15.282  1.00  0.00     0.282 C 
ATOM     11  O   UNL     1      28.130  33.519  14.834  1.00  0.00    -0.341 OA
ATOM     12  C   UNL     1      25.804  33.856  14.840  1.00  0.00     0.202 C 
ATOM     13  C   UNL     1      26.045  35.322  15.105  1.00  0.00     0.179 C 
ATOM     14  C   UNL     1      27.356  35.715  14.524  1.00  0.00     0.177 C 
BRANCH  10  15
ATOM     15  O   UNL     1      27.026  32.885  16.660  1.00  0.00    -0.341 OA
BRANCH  15  16
ATOM     16  C   UNL     1      26.755  31.631  17.182  1.00  0.00     0.184 C 
ATOM     17  C   UNL     1      26.551  30.586  16.148  1.00  0.00     0.178 C 
ATOM     18  O   UNL     1      25.280  30.041  16.204  1.00  0.00    -0.341 OA
ATOM     19  C   UNL     1      24.284  31.015  16.186  1.00  0.00     0.281 C 
ATOM     20  C   UNL     1      25.614  31.784  18.146  1.00  0.00     0.180 C 
ATOM     21  C   UNL     1      24.251  31.620  17.572  1.00  0.00     0.202 C 
BRANCH  17  22
ATOM     22  C   UNL     1      27.526  29.450  16.380  1.00  0.00     0.191 C 
BRANCH  22  23
ATOM     23  O   UNL     1      28.477  29.762  17.334  1.00  0.00    -0.394 OA
ATOM     24  H   UNL     1      29.060  28.973  17.489  1.00  0.00     0.210 HD
ENDBRANCH  22  23
ENDBRANCH  17  22
BRANCH  19  25
ATOM     25  O   UNL     1      23.084  30.361  15.947  1.00  0.00    -0.350 OA
BRANCH  25  26
ATOM     26  C   UNL     1      22.343  30.983  14.941  1.00  0.00     0.169 C 
BRANCH  26  27
ATOM     27  C   UNL     1      23.164  31.112  13.683  1.00  0.00     0.119 C 
BRANCH  27  28
ATOM     28  N   UNL     1      22.310  30.910  12.533  1.00  0.00    -0.092 NA
ATOM     29  N   UNL     1      21.815  29.805  12.359  1.00  0.00     0.001 N 
ATOM     30  N   UNL     1      20.995  28.918  12.071  1.00  0.00    -0.003 NA
ENDBRANCH  27  28
ENDBRANCH  26  27
ENDBRANCH  25  26
ENDBRANCH  19  25
BRANCH  20  31
ATOM     31  O   UNL     1      25.768  30.775  19.125  1.00  0.00    -0.387 OA
ATOM     32  H   UNL     1      25.719  29.878  18.709  1.00  0.00     0.211 HD
ENDBRANCH  20  31
BRANCH  21  33
ATOM     33  O   UNL     1      23.618  32.880  17.567  1.00  0.00    -0.385 OA
ATOM     34  H   UNL     1      22.628  32.790  17.628  1.00  0.00     0.211 HD
ENDBRANCH  21  33
ENDBRANCH  15  16
ENDBRANCH  10  15
BRANCH  12  35
ATOM     35  O   UNL     1      25.478  33.706  13.498  1.00  0.00    -0.385 OA
ATOM     36  H   UNL     1      24.799  34.414  13.314  1.00  0.00     0.211 HD
ENDBRANCH  12  35
BRANCH  13  37
ATOM     37  O   UNL     1      25.988  35.494  16.489  1.00  0.00    -0.387 OA
ATOM     38  H   UNL     1      25.630  34.651  16.869  1.00  0.00     0.211 HD
ENDBRANCH  13  37
BRANCH  14  39
ATOM     39  O   UNL     1      28.151  36.184  15.590  1.00  0.00    -0.387 OA
ATOM     40  H   UNL     1      28.739  35.499  15.948  1.00  0.00     0.211 HD
ENDBRANCH  14  39
ENDBRANCH   8   9
ENDBRANCH   7   8
ENDBRANCH   1   7
BRANCH   1  41
ATOM     41  C   UNL     1      32.623  34.947  14.102  1.00  0.00     0.364 C 
ATOM     42  O   UNL     1      33.510  35.567  14.748  1.00  0.00    -0.246 OA
BRANCH  41  43
ATOM     43  O   UNL     1      32.786  34.855  12.738  1.00  0.00    -0.477 OA
ATOM     44  H   UNL     1      32.033  34.591  12.090  1.00  0.00     0.296 HD
ENDBRANCH  41  43
ENDBRANCH   1  41
BRANCH   3  45
ATOM     45  O   UNL     1      29.989  31.842  16.304  1.00  0.00    -0.391 OA
ATOM     46  H   UNL     1      29.324  32.419  15.877  1.00  0.00     0.211 HD
ENDBRANCH   3  45
BRANCH   5  47
ATOM     47  C   UNL     1      31.882  36.019  17.883  1.00  0.00     0.176 C 
BRANCH  47  48
ATOM     48  O   UNL     1      30.662  36.709  18.066  1.00  0.00    -0.388 OA
ATOM     49  H   UNL     1      30.578  36.996  19.030  1.00  0.00     0.211 HD
ENDBRANCH  47  48
BRANCH  47  50
ATOM     50  C   UNL     1      32.971  36.989  17.515  1.00  0.00     0.165 C 
BRANCH  50  51
ATOM     51  O   UNL     1      33.736  37.274  18.628  1.00  0.00    -0.388 OA
ATOM     52  H   UNL     1      33.867  38.250  18.760  1.00  0.00     0.211 HD
ENDBRANCH  50  51
BRANCH  50  53
ATOM     53  C   UNL     1      32.291  38.217  16.962  1.00  0.00     0.154 C 
BRANCH  53  54
ATOM     54  N   UNL     1      31.990  38.199  15.577  1.00  0.00    -0.319 N 
ATOM     55  C   UNL     1      30.677  38.431  15.092  1.00  0.00     0.407 C 
ATOM     56  H   UNL     1      32.738  38.012  14.865  1.00  0.00     0.167 HD
ATOM     57  O   UNL     1      29.755  38.637  15.902  1.00  0.00    -0.225 OA
BRANCH  55  58
ATOM     58  O   UNL     1      30.406  38.432  13.710  1.00  0.00    -0.443 OA
BRANCH  58  59
ATOM     59  C   UNL     1      31.433  38.068  12.822  1.00  0.00     0.294 C 
BRANCH  59  60
ATOM     60  C   UNL     1      30.961  38.079  11.418  1.00  0.00     0.121 A 
ATOM     61  C   UNL     1      29.682  38.037  10.913  1.00  0.00     0.144 A 
ATOM     62  N   UNL     1      31.746  38.103  10.302  1.00  0.00    -0.131 NA
ATOM     63  N   UNL     1      29.700  38.035   9.562  1.00  0.00    -0.220 N 
ATOM     64  N   UNL     1      30.989  38.077   9.225  1.00  0.00    -0.062 NA
BRANCH  63  65
ATOM     65  C   UNL     1      28.580  37.969   8.697  1.00  0.00     0.071 A 
ATOM     66  C   UNL     1      28.733  38.472   7.415  1.00  0.00     0.064 A 
ATOM     67  C   UNL     1      27.352  37.429   9.022  1.00  0.00     0.057 A 
ATOM     68  C   UNL     1      27.668  38.412   6.534  1.00  0.00     0.151 A 
ATOM     69  C   UNL     1      26.311  37.373   8.151  1.00  0.00     0.073 A 
ATOM     70  N   UNL     1      26.491  37.871   6.912  1.00  0.00    -0.241 NA
BRANCH  68  71
ATOM     71  C   UNL     1      27.799  38.929   5.179  1.00  0.00     0.354 C 
ATOM     72  O   UNL     1      28.063  40.149   5.036  1.00  0.00    -0.245 OA
BRANCH  71  73
ATOM     73  O   UNL     1      27.651  38.163   4.048  1.00  0.00    -0.477 OA
ATOM     74  H   UNL     1      27.812  38.528   3.101  1.00  0.00     0.297 HD
ENDBRANCH  71  73
ENDBRANCH  68  71
BRANCH  69  75
ATOM     75  C   UNL     1      25.024  36.792   8.513  1.00  0.00     0.000 A 
ATOM     76  C   UNL     1      23.876  37.347   7.950  1.00  0.00     0.010 A 
ATOM     77  C   UNL     1      24.877  35.739   9.369  1.00  0.00     0.010 A 
ATOM     78  C   UNL     1      22.625  36.864   8.232  1.00  0.00     0.001 A 
ATOM     79  C   UNL     1      23.608  35.261   9.648  1.00  0.00     0.001 A 
ATOM     80  C   UNL     1      22.479  35.797   9.100  1.00  0.00     0.000 A 
ENDBRANCH  69  75
ENDBRANCH  63  65
ENDBRANCH  59  60
ENDBRANCH  58  59
ENDBRANCH  55  58
ENDBRANCH  53  54
ENDBRANCH  50  53
ENDBRANCH  47  50
ENDBRANCH   5  47
BRANCH   4  81
ATOM     81  N   UNL     1      31.220  33.426  18.870  1.00  0.00    -0.348 N 
ATOM     82  C   UNL     1      30.381  32.600  19.661  1.00  0.00     0.217 C 
ATOM     83  H   UNL     1      32.110  33.816  19.258  1.00  0.00     0.163 HD
ATOM     84  C   UNL     1      30.707  32.240  21.065  1.00  0.00     0.114 C 
ATOM     85  O   UNL     1      29.295  32.127  19.181  1.00  0.00    -0.275 OA
ENDBRANCH   4  81
TORSDOF 33
BEGIN_RES LYS A 131
REMARK  4 active torsions:
REMARK  status: ('A' for Active; 'I' for Inactive)
REMARK    1  A    between atoms: CA   and  CB  
REMARK    2  A    between atoms: CB   and  CG  
REMARK    3  A    between atoms: CG   and  CD  
REMARK    4  A    between atoms: CD   and  CE  
ROOT
ATOM      1  CA  LYS A 131      29.867  25.555  16.977  1.00 20.52     0.186 C 
ENDROOT
BRANCH   1   2
ATOM      2  CB  LYS A 131      28.345  25.722  17.026  1.00 20.94     0.034 C 
BRANCH   2   3
ATOM      3  CG  LYS A 131      27.602  24.400  16.911  1.00 22.96     0.005 C 
BRANCH   3   4
ATOM      4  CD  LYS A 131      26.528  24.261  17.954  1.00 24.33     0.041 C 
BRANCH   4   5
ATOM      5  CE  LYS A 131      25.158  24.314  17.286  1.00 26.91     0.338 C 
ATOM      6  NZ  LYS A 131      24.538  22.968  17.267  1.00 27.40     0.618 N 
ENDBRANCH   4   5
ENDBRANCH   3   4
ENDBRANCH   2   3
ENDBRANCH   1   2
END_RES LYS A 131
BEGIN_RES LYS A 135
REMARK  4 active torsions:
REMARK  status: ('A' for Active; 'I' for Inactive)
REMARK    5  A    between atoms: CA   and  CB  
REMARK    6  A    between atoms: CB   and  CG  
REMARK    7  A    between atoms: CG   and  CD  
REMARK    8  A    between atoms: CD   and  CE  
ROOT
ATOM      7  CA  LYS A 135      33.193  34.663   9.290  1.00 25.02     0.186 C 
ENDROOT
BRANCH   7   8
ATOM      8  CB  LYS A 135      32.060  35.360  10.034  1.00 26.63     0.034 C 
BRANCH   8   9
ATOM      9  CG  LYS A 135      30.767  34.586  10.025  1.00 29.45     0.005 C 
BRANCH   9  10
ATOM     10  CD  LYS A 135      30.177  34.543   8.623  1.00 32.00     0.041 C 
BRANCH  10  11
ATOM     11  CE  LYS A 135      28.702  34.195   8.677  1.00 34.25     0.338 C 
ATOM     12  NZ  LYS A 135      28.221  34.113  10.084  1.00 35.99     0.618 N 
ENDBRANCH  10  11
ENDBRANCH   9  10
ENDBRANCH   8   9
ENDBRANCH   7   8
END_RES LYS A 135
