REMARK VINA RESULT:    -3.920      2.512      4.720
REMARK INTER + INTRA:         -22.351
REMARK INTER:                 -10.969
REMARK INTRA:                 -11.382
REMARK UNBOUND:               -12.359
REMARK SMILES CC(=O)N[C@@H]1[C@@H](O)C[C@](OC[C@H]2O[C@@H](O[C@H]3[C@H](O)[C@@H](O)[C@H](OCCN=[N+]=[N-])O[C@@H]3CO)[C@H](O)[C@@H](O)[C@H]2O)(C(=O)O)O[C@H]1C(O)[C@H](O)CNC(=O)OCc1cn(CC(=O)O)nn1
REMARK SMILES IDX 9 1 8 2 6 3 5 4 42 5 41 6 10 7 11 8 12 9 14 10 13 11 32 12
REMARK SMILES IDX 34 13 36 14 15 15 16 16 29 17 28 18 21 19 17 20 19 21 30 22
REMARK SMILES IDX 31 23 22 25 23 26 24 27 25 28 26 29 27 30 18 31 20 33 33 35
REMARK SMILES IDX 35 37 37 39 38 41 39 42 40 43 7 45 43 47 44 48 45 50 46 51
REMARK SMILES IDX 47 53 48 54 49 55 50 57 51 58 52 59 53 60 54 61 61 62 55 63
REMARK SMILES IDX 60 64 56 65 57 66 58 67 59 68 4 70 2 71 1 73 3 74
REMARK H PARENT 31 24 18 32 20 34 33 36 35 38 37 40 40 44 7 46 44 49 46 52
REMARK H PARENT 48 56 59 69 4 72
REMARK Flexibility Score: inf
ROOT
ATOM      1  C   UNL     1      31.091  34.480  14.939  1.00  0.00     0.272 C 
ATOM      2  C   UNL     1      31.796  33.256  15.451  1.00  0.00     0.113 C 
ATOM      3  C   UNL     1      31.049  32.407  16.392  1.00  0.00     0.145 C 
ATOM      4  C   UNL     1      29.832  33.044  17.051  1.00  0.00     0.142 C 
ATOM      5  C   UNL     1      30.049  34.525  16.993  1.00  0.00     0.178 C 
ATOM      6  O   UNL     1      29.947  34.799  15.603  1.00  0.00    -0.332 OA
ENDROOT
BRANCH   1   7
ATOM      7  O   UNL     1      30.794  34.372  13.563  1.00  0.00    -0.338 OA
BRANCH   7   8
ATOM      8  C   UNL     1      29.480  34.160  13.277  1.00  0.00     0.199 C 
BRANCH   8   9
ATOM      9  C   UNL     1      29.042  35.112  12.152  1.00  0.00     0.179 C 
ATOM     10  C   UNL     1      27.210  35.070  10.750  1.00  0.00     0.282 C 
ATOM     11  O   UNL     1      28.453  34.454  11.103  1.00  0.00    -0.341 OA
ATOM     12  C   UNL     1      26.332  34.841  11.925  1.00  0.00     0.202 C 
ATOM     13  C   UNL     1      26.783  35.852  12.993  1.00  0.00     0.179 C 
ATOM     14  C   UNL     1      28.212  36.242  12.727  1.00  0.00     0.177 C 
BRANCH  10  15
ATOM     15  O   UNL     1      26.817  34.547   9.554  1.00  0.00    -0.341 OA
BRANCH  15  16
ATOM     16  C   UNL     1      26.754  35.483   8.521  1.00  0.00     0.184 C 
ATOM     17  C   UNL     1      28.063  36.213   8.465  1.00  0.00     0.178 C 
ATOM     18  O   UNL     1      27.901  37.490   7.999  1.00  0.00    -0.341 OA
ATOM     19  C   UNL     1      26.967  37.680   7.013  1.00  0.00     0.281 C 
ATOM     20  C   UNL     1      25.654  36.495   8.762  1.00  0.00     0.180 C 
ATOM     21  C   UNL     1      25.565  37.352   7.497  1.00  0.00     0.202 C 
BRANCH  17  22
ATOM     22  C   UNL     1      29.018  35.459   7.559  1.00  0.00     0.191 C 
BRANCH  22  23
ATOM     23  O   UNL     1      29.502  34.388   8.315  1.00  0.00    -0.394 OA
ATOM     24  H   UNL     1      29.241  34.477   9.258  1.00  0.00     0.210 HD
ENDBRANCH  22  23
ENDBRANCH  17  22
BRANCH  19  25
ATOM     25  O   UNL     1      27.304  36.998   5.876  1.00  0.00    -0.350 OA
BRANCH  25  26
ATOM     26  C   UNL     1      27.988  37.740   4.947  1.00  0.00     0.169 C 
BRANCH  26  27
ATOM     27  C   UNL     1      27.660  39.210   4.950  1.00  0.00     0.119 C 
BRANCH  27  28
ATOM     28  N   UNL     1      28.867  40.020   5.131  1.00  0.00    -0.092 NA
ATOM     29  N   UNL     1      29.750  39.513   5.852  1.00  0.00     0.001 N 
ATOM     30  N   UNL     1      30.617  39.496   6.746  1.00  0.00    -0.003 NA
ENDBRANCH  27  28
ENDBRANCH  26  27
ENDBRANCH  25  26
ENDBRANCH  19  25
BRANCH  20  31
ATOM     31  O   UNL     1      24.418  35.928   8.955  1.00  0.00    -0.387 OA
ATOM     32  H   UNL     1      24.380  34.962   8.871  1.00  0.00     0.211 HD
ENDBRANCH  20  31
BRANCH  21  33
ATOM     33  O   UNL     1      24.871  38.523   7.734  1.00  0.00    -0.385 OA
ATOM     34  H   UNL     1      24.772  38.703   8.704  1.00  0.00     0.211 HD
ENDBRANCH  21  33
ENDBRANCH  15  16
ENDBRANCH  10  15
BRANCH  12  35
ATOM     35  O   UNL     1      24.984  34.866  11.715  1.00  0.00    -0.385 OA
ATOM     36  H   UNL     1      24.563  34.082  12.101  1.00  0.00     0.211 HD
ENDBRANCH  12  35
BRANCH  13  37
ATOM     37  O   UNL     1      26.662  35.220  14.221  1.00  0.00    -0.387 OA
ATOM     38  H   UNL     1      26.050  35.702  14.844  1.00  0.00     0.211 HD
ENDBRANCH  13  37
BRANCH  14  39
ATOM     39  O   UNL     1      28.760  36.590  13.961  1.00  0.00    -0.387 OA
ATOM     40  H   UNL     1      29.744  36.638  13.937  1.00  0.00     0.211 HD
ENDBRANCH  14  39
ENDBRANCH   8   9
ENDBRANCH   7   8
ENDBRANCH   1   7
BRANCH   1  41
ATOM     41  C   UNL     1      32.027  35.623  15.037  1.00  0.00     0.364 C 
ATOM     42  O   UNL     1      33.233  35.460  15.306  1.00  0.00    -0.246 OA
BRANCH  41  43
ATOM     43  O   UNL     1      31.609  36.927  14.833  1.00  0.00    -0.477 OA
ATOM     44  H   UNL     1      31.628  37.640  15.573  1.00  0.00     0.296 HD
ENDBRANCH  41  43
ENDBRANCH   1  41
BRANCH   3  45
ATOM     45  O   UNL     1      30.764  31.125  15.911  1.00  0.00    -0.391 OA
ATOM     46  H   UNL     1      31.044  30.976  14.992  1.00  0.00     0.211 HD
ENDBRANCH   3  45
BRANCH   5  47
ATOM     47  C   UNL     1      29.081  35.391  17.723  1.00  0.00     0.176 C 
BRANCH  47  48
ATOM     48  O   UNL     1      27.930  35.436  16.868  1.00  0.00    -0.388 OA
ATOM     49  H   UNL     1      28.200  35.798  15.976  1.00  0.00     0.211 HD
ENDBRANCH  47  48
BRANCH  47  50
ATOM     50  C   UNL     1      29.553  36.813  17.934  1.00  0.00     0.165 C 
BRANCH  50  51
ATOM     51  O   UNL     1      29.399  37.529  16.719  1.00  0.00    -0.388 OA
ATOM     52  H   UNL     1      29.665  36.924  15.993  1.00  0.00     0.211 HD
ENDBRANCH  50  51
BRANCH  50  53
ATOM     53  C   UNL     1      30.959  36.909  18.382  1.00  0.00     0.154 C 
BRANCH  53  54
ATOM     54  N   UNL     1      31.710  37.885  17.647  1.00  0.00    -0.319 N 
ATOM     55  C   UNL     1      32.002  39.211  18.035  1.00  0.00     0.407 C 
ATOM     56  H   UNL     1      32.127  37.633  16.679  1.00  0.00     0.167 HD
ATOM     57  O   UNL     1      31.599  39.676  19.104  1.00  0.00    -0.225 OA
BRANCH  55  58
ATOM     58  O   UNL     1      32.758  40.072  17.231  1.00  0.00    -0.443 OA
BRANCH  58  59
ATOM     59  C   UNL     1      32.141  41.114  16.496  1.00  0.00     0.294 C 
BRANCH  59  60
ATOM     60  C   UNL     1      30.899  40.620  15.824  1.00  0.00     0.120 A 
ATOM     61  C   UNL     1      29.615  41.122  15.984  1.00  0.00     0.139 A 
ATOM     62  N   UNL     1      30.783  39.610  14.949  1.00  0.00    -0.132 NA
ATOM     63  N   UNL     1      28.785  40.402  15.207  1.00  0.00    -0.241 N 
ATOM     64  N   UNL     1      29.517  39.489  14.589  1.00  0.00    -0.066 NA
BRANCH  63  65
ATOM     65  C   UNL     1      27.337  40.569  15.048  1.00  0.00     0.268 C 
BRANCH  65  66
ATOM     66  C   UNL     1      26.758  39.251  14.731  1.00  0.00     0.325 C 
ATOM     67  O   UNL     1      26.042  39.106  13.729  1.00  0.00    -0.250 OA
BRANCH  66  68
ATOM     68  O   UNL     1      27.016  38.176  15.556  1.00  0.00    -0.480 OA
ATOM     69  H   UNL     1      27.924  37.776  15.665  1.00  0.00     0.296 HD
ENDBRANCH  66  68
ENDBRANCH  65  66
ENDBRANCH  63  65
ENDBRANCH  59  60
ENDBRANCH  58  59
ENDBRANCH  55  58
ENDBRANCH  53  54
ENDBRANCH  50  53
ENDBRANCH  47  50
ENDBRANCH   5  47
BRANCH   4  70
ATOM     70  N   UNL     1      29.566  32.462  18.321  1.00  0.00    -0.348 N 
ATOM     71  C   UNL     1      28.419  31.628  18.561  1.00  0.00     0.217 C 
ATOM     72  H   UNL     1      30.209  32.609  19.124  1.00  0.00     0.163 HD
ATOM     73  C   UNL     1      28.222  31.062  19.916  1.00  0.00     0.114 C 
ATOM     74  O   UNL     1      27.599  31.380  17.648  1.00  0.00    -0.275 OA
ENDBRANCH   4  70
TORSDOF 32
BEGIN_RES LYS A 131
REMARK  4 active torsions:
REMARK  status: ('A' for Active; 'I' for Inactive)
REMARK    1  A    between atoms: CA   and  CB  
REMARK    2  A    between atoms: CB   and  CG  
REMARK    3  A    between atoms: CG   and  CD  
REMARK    4  A    between atoms: CD   and  CE  
ROOT
ATOM      1  CA  LYS A 131      29.867  25.555  16.977  1.00 20.52     0.186 C 
ENDROOT
BRANCH   1   2
ATOM      2  CB  LYS A 131      28.345  25.722  17.026  1.00 20.94     0.034 C 
BRANCH   2   3
ATOM      3  CG  LYS A 131      27.601  24.403  16.887  1.00 22.96     0.005 C 
BRANCH   3   4
ATOM      4  CD  LYS A 131      26.662  24.158  18.036  1.00 24.33     0.041 C 
BRANCH   4   5
ATOM      5  CE  LYS A 131      26.188  25.494  18.599  1.00 26.91     0.338 C 
ATOM      6  NZ  LYS A 131      25.611  25.312  19.951  1.00 27.40     0.618 N 
ENDBRANCH   4   5
ENDBRANCH   3   4
ENDBRANCH   2   3
ENDBRANCH   1   2
END_RES LYS A 131
BEGIN_RES LYS A 135
REMARK  4 active torsions:
REMARK  status: ('A' for Active; 'I' for Inactive)
REMARK    5  A    between atoms: CA   and  CB  
REMARK    6  A    between atoms: CB   and  CG  
REMARK    7  A    between atoms: CG   and  CD  
REMARK    8  A    between atoms: CD   and  CE  
ROOT
ATOM      7  CA  LYS A 135      33.193  34.663   9.290  1.00 25.02     0.186 C 
ENDROOT
BRANCH   7   8
ATOM      8  CB  LYS A 135      32.060  35.360  10.034  1.00 26.63     0.034 C 
BRANCH   8   9
ATOM      9  CG  LYS A 135      32.511  36.088  11.274  1.00 29.45     0.005 C 
BRANCH   9  10
ATOM     10  CD  LYS A 135      31.874  37.467  11.348  1.00 32.00     0.041 C 
BRANCH  10  11
ATOM     11  CE  LYS A 135      31.014  37.723  10.125  1.00 34.25     0.338 C 
ATOM     12  NZ  LYS A 135      30.154  38.924  10.316  1.00 35.99     0.618 N 
ENDBRANCH  10  11
ENDBRANCH   9  10
ENDBRANCH   8   9
ENDBRANCH   7   8
END_RES LYS A 135
