REMARK VINA RESULT:    -4.585      2.834      6.745
REMARK INTER + INTRA:         -21.615
REMARK INTER:                 -12.348
REMARK INTRA:                  -9.267
REMARK UNBOUND:                -9.660
REMARK SMILES CC(=O)N[C@@H]1[C@@H](O)C[C@](OC[C@H]2O[C@@H](O[C@H]3[C@H](O)[C@@H](O)[C@H](OCCN=[N+]=[N-])O[C@@H]3CO)[C@H](O)[C@@H](O)[C@H]2O)(C(=O)O)O[C@H]1C(O)[C@H](O)CNC(=O)OCc1cn(CCC(=O)O)nn1
REMARK SMILES IDX 43 1 42 2 9 3 8 4 41 5 6 6 5 7 10 8 11 9 12 10 14 11 13 12
REMARK SMILES IDX 32 13 34 14 36 15 15 16 16 17 29 18 28 19 21 20 17 21 19 22
REMARK SMILES IDX 30 23 31 24 22 26 23 27 24 28 25 29 26 30 27 31 18 32 20 34
REMARK SMILES IDX 33 36 35 38 37 40 38 42 39 43 40 44 7 46 4 48 2 49 1 51 3 52
REMARK SMILES IDX 44 53 45 55 46 56 47 58 48 59 49 60 50 62 51 63 52 64 53 65
REMARK SMILES IDX 54 66 62 67 55 68 61 69 56 70 57 71 58 72 59 73 60 74
REMARK H PARENT 31 25 18 33 20 35 33 37 35 39 37 41 40 45 7 47 4 50 44 54
REMARK H PARENT 46 57 48 61 60 75
REMARK Flexibility Score: inf
ROOT
ATOM      1  C   UNL     1      28.413  35.653  14.236  1.00  0.00     0.176 C 
ENDROOT
BRANCH   1   2
ATOM      2  C   UNL     1      29.856  36.046  14.024  1.00  0.00     0.178 C 
ATOM      3  C   UNL     1      31.194  37.465  12.720  1.00  0.00     0.272 C 
ATOM      4  C   UNL     1      32.149  36.889  13.751  1.00  0.00     0.113 C 
ATOM      5  O   UNL     1      30.104  36.516  12.760  1.00  0.00    -0.332 OA
ATOM      6  C   UNL     1      32.146  35.347  13.713  1.00  0.00     0.145 C 
ATOM      7  C   UNL     1      30.797  34.867  14.233  1.00  0.00     0.142 C 
BRANCH   3   8
ATOM      8  O   UNL     1      31.745  37.443  11.492  1.00  0.00    -0.338 OA
BRANCH   8   9
ATOM      9  C   UNL     1      32.136  38.435  10.742  1.00  0.00     0.199 C 
BRANCH   9  10
ATOM     10  C   UNL     1      31.674  38.767   9.390  1.00  0.00     0.179 C 
ATOM     11  C   UNL     1      30.174  38.495   7.671  1.00  0.00     0.282 C 
ATOM     12  O   UNL     1      30.630  38.046   8.877  1.00  0.00    -0.341 OA
ATOM     13  C   UNL     1      30.904  39.672   7.088  1.00  0.00     0.202 C 
ATOM     14  C   UNL     1      31.130  40.766   8.113  1.00  0.00     0.179 C 
ATOM     15  C   UNL     1      31.076  40.216   9.521  1.00  0.00     0.177 C 
BRANCH  11  16
ATOM     16  O   UNL     1      28.821  38.833   7.677  1.00  0.00    -0.341 OA
BRANCH  16  17
ATOM     17  C   UNL     1      28.188  38.603   6.458  1.00  0.00     0.184 C 
ATOM     18  C   UNL     1      27.503  39.855   6.033  1.00  0.00     0.178 C 
ATOM     19  O   UNL     1      26.101  39.760   6.019  1.00  0.00    -0.341 OA
ATOM     20  C   UNL     1      25.761  39.277   7.300  1.00  0.00     0.281 C 
ATOM     21  C   UNL     1      27.275  37.427   6.642  1.00  0.00     0.180 C 
ATOM     22  C   UNL     1      25.944  37.778   7.229  1.00  0.00     0.202 C 
BRANCH  18  23
ATOM     23  C   UNL     1      27.954  40.290   4.647  1.00  0.00     0.191 C 
BRANCH  23  24
ATOM     24  O   UNL     1      26.921  40.953   3.989  1.00  0.00    -0.394 OA
ATOM     25  H   UNL     1      26.108  40.890   4.544  1.00  0.00     0.210 HD
ENDBRANCH  23  24
ENDBRANCH  18  23
BRANCH  20  26
ATOM     26  O   UNL     1      24.484  39.633   7.660  1.00  0.00    -0.350 OA
BRANCH  26  27
ATOM     27  C   UNL     1      24.140  40.822   7.022  1.00  0.00     0.169 C 
BRANCH  27  28
ATOM     28  C   UNL     1      22.668  41.119   7.277  1.00  0.00     0.119 C 
BRANCH  28  29
ATOM     29  N   UNL     1      22.281  40.318   8.419  1.00  0.00    -0.092 NA
ATOM     30  N   UNL     1      21.116  39.930   8.496  1.00  0.00     0.001 N 
ATOM     31  N   UNL     1      20.051  39.337   8.770  1.00  0.00    -0.003 NA
ENDBRANCH  28  29
ENDBRANCH  27  28
ENDBRANCH  26  27
ENDBRANCH  20  26
BRANCH  21  32
ATOM     32  O   UNL     1      27.070  36.860   5.389  1.00  0.00    -0.387 OA
ATOM     33  H   UNL     1      27.856  36.328   5.158  1.00  0.00     0.211 HD
ENDBRANCH  21  32
BRANCH  22  34
ATOM     34  O   UNL     1      25.780  37.193   8.486  1.00  0.00    -0.385 OA
ATOM     35  H   UNL     1      24.867  36.802   8.568  1.00  0.00     0.211 HD
ENDBRANCH  22  34
ENDBRANCH  16  17
ENDBRANCH  11  16
BRANCH  13  36
ATOM     36  O   UNL     1      32.093  39.317   6.433  1.00  0.00    -0.385 OA
ATOM     37  H   UNL     1      31.957  39.342   5.472  1.00  0.00     0.211 HD
ENDBRANCH  13  36
BRANCH  14  38
ATOM     38  O   UNL     1      30.257  41.810   7.906  1.00  0.00    -0.387 OA
ATOM     39  H   UNL     1      30.166  42.011   6.953  1.00  0.00     0.211 HD
ENDBRANCH  14  38
BRANCH  15  40
ATOM     40  O   UNL     1      29.791  40.040   9.975  1.00  0.00    -0.387 OA
ATOM     41  H   UNL     1      29.524  40.634  10.714  1.00  0.00     0.211 HD
ENDBRANCH  15  40
ENDBRANCH   9  10
ENDBRANCH   8   9
ENDBRANCH   3   8
BRANCH   3  42
ATOM     42  C   UNL     1      30.609  38.753  13.103  1.00  0.00     0.364 C 
ATOM     43  O   UNL     1      29.445  39.049  12.738  1.00  0.00    -0.246 OA
BRANCH  42  44
ATOM     44  O   UNL     1      31.305  39.660  13.860  1.00  0.00    -0.477 OA
ATOM     45  H   UNL     1      31.515  39.572  14.834  1.00  0.00     0.296 HD
ENDBRANCH  42  44
ENDBRANCH   3  42
BRANCH   6  46
ATOM     46  O   UNL     1      32.260  34.975  12.391  1.00  0.00    -0.391 OA
ATOM     47  H   UNL     1      31.919  35.730  11.827  1.00  0.00     0.211 HD
ENDBRANCH   6  46
BRANCH   7  48
ATOM     48  N   UNL     1      30.891  34.484  15.604  1.00  0.00    -0.348 N 
ATOM     49  C   UNL     1      30.629  33.139  15.974  1.00  0.00     0.217 C 
ATOM     50  H   UNL     1      31.146  35.154  16.362  1.00  0.00     0.163 HD
ATOM     51  C   UNL     1      30.701  32.657  17.375  1.00  0.00     0.114 C 
ATOM     52  O   UNL     1      30.314  32.276  15.103  1.00  0.00    -0.275 OA
ENDBRANCH   7  48
ENDBRANCH   1   2
BRANCH   1  53
ATOM     53  O   UNL     1      27.616  36.760  13.944  1.00  0.00    -0.388 OA
ATOM     54  H   UNL     1      26.735  36.688  14.363  1.00  0.00     0.211 HD
ENDBRANCH   1  53
BRANCH   1  55
ATOM     55  C   UNL     1      27.950  34.498  13.406  1.00  0.00     0.165 C 
BRANCH  55  56
ATOM     56  O   UNL     1      28.146  34.812  12.057  1.00  0.00    -0.388 OA
ATOM     57  H   UNL     1      28.037  33.987  11.525  1.00  0.00     0.211 HD
ENDBRANCH  55  56
BRANCH  55  58
ATOM     58  C   UNL     1      26.438  34.377  13.627  1.00  0.00     0.154 C 
BRANCH  58  59
ATOM     59  N   UNL     1      25.725  34.558  12.393  1.00  0.00    -0.319 N 
ATOM     60  C   UNL     1      24.949  35.704  12.070  1.00  0.00     0.407 C 
ATOM     61  H   UNL     1      25.756  33.807  11.638  1.00  0.00     0.167 HD
ATOM     62  O   UNL     1      24.882  36.623  12.926  1.00  0.00    -0.225 OA
BRANCH  60  63
ATOM     63  O   UNL     1      24.279  35.833  10.867  1.00  0.00    -0.443 OA
BRANCH  63  64
ATOM     64  C   UNL     1      23.143  36.659  10.799  1.00  0.00     0.294 C 
BRANCH  64  65
ATOM     65  C   UNL     1      22.409  36.440   9.538  1.00  0.00     0.120 A 
ATOM     66  C   UNL     1      21.179  35.799   9.480  1.00  0.00     0.138 A 
ATOM     67  N   UNL     1      22.755  36.809   8.281  1.00  0.00    -0.132 NA
ATOM     68  N   UNL     1      20.825  35.807   8.172  1.00  0.00    -0.252 N 
ATOM     69  N   UNL     1      21.782  36.413   7.486  1.00  0.00    -0.067 NA
BRANCH  68  70
ATOM     70  C   UNL     1      19.609  35.258   7.611  1.00  0.00     0.158 C 
BRANCH  70  71
ATOM     71  C   UNL     1      18.375  35.595   8.417  1.00  0.00     0.146 C 
BRANCH  71  72
ATOM     72  C   UNL     1      17.837  36.869   7.922  1.00  0.00     0.305 C 
ATOM     73  O   UNL     1      16.839  37.378   8.478  1.00  0.00    -0.252 OA
BRANCH  72  74
ATOM     74  O   UNL     1      18.408  37.537   6.840  1.00  0.00    -0.481 OA
ATOM     75  H   UNL     1      17.984  38.345   6.397  1.00  0.00     0.296 HD
ENDBRANCH  72  74
ENDBRANCH  71  72
ENDBRANCH  70  71
ENDBRANCH  68  70
ENDBRANCH  64  65
ENDBRANCH  63  64
ENDBRANCH  60  63
ENDBRANCH  58  59
ENDBRANCH  55  58
ENDBRANCH   1  55
TORSDOF 33
BEGIN_RES LYS A 131
REMARK  4 active torsions:
REMARK  status: ('A' for Active; 'I' for Inactive)
REMARK    1  A    between atoms: CA   and  CB  
REMARK    2  A    between atoms: CB   and  CG  
REMARK    3  A    between atoms: CG   and  CD  
REMARK    4  A    between atoms: CD   and  CE  
ROOT
ATOM      1  CA  LYS A 131      29.867  25.555  16.977  1.00 20.52     0.186 C 
ENDROOT
BRANCH   1   2
ATOM      2  CB  LYS A 131      28.345  25.722  17.026  1.00 20.94     0.034 C 
BRANCH   2   3
ATOM      3  CG  LYS A 131      27.603  24.396  16.965  1.00 22.96     0.005 C 
BRANCH   3   4
ATOM      4  CD  LYS A 131      26.544  24.290  18.027  1.00 24.33     0.041 C 
BRANCH   4   5
ATOM      5  CE  LYS A 131      25.228  23.853  17.392  1.00 26.91     0.338 C 
ATOM      6  NZ  LYS A 131      25.046  22.388  17.531  1.00 27.40     0.618 N 
ENDBRANCH   4   5
ENDBRANCH   3   4
ENDBRANCH   2   3
ENDBRANCH   1   2
END_RES LYS A 131
BEGIN_RES LYS A 135
REMARK  4 active torsions:
REMARK  status: ('A' for Active; 'I' for Inactive)
REMARK    5  A    between atoms: CA   and  CB  
REMARK    6  A    between atoms: CB   and  CG  
REMARK    7  A    between atoms: CG   and  CD  
REMARK    8  A    between atoms: CD   and  CE  
ROOT
ATOM      7  CA  LYS A 135      33.193  34.663   9.290  1.00 25.02     0.186 C 
ENDROOT
BRANCH   7   8
ATOM      8  CB  LYS A 135      32.060  35.360  10.034  1.00 26.63     0.034 C 
BRANCH   8   9
ATOM      9  CG  LYS A 135      30.694  34.830   9.684  1.00 29.45     0.005 C 
BRANCH   9  10
ATOM     10  CD  LYS A 135      30.611  34.495   8.203  1.00 32.00     0.041 C 
BRANCH  10  11
ATOM     11  CE  LYS A 135      29.247  34.860   7.650  1.00 34.25     0.338 C 
ATOM     12  NZ  LYS A 135      28.162  34.456   8.587  1.00 35.99     0.618 N 
ENDBRANCH  10  11
ENDBRANCH   9  10
ENDBRANCH   8   9
ENDBRANCH   7   8
END_RES LYS A 135
