REMARK VINA RESULT:    -5.154      2.408      6.709
REMARK INTER + INTRA:         -22.840
REMARK INTER:                 -12.345
REMARK INTRA:                 -10.496
REMARK UNBOUND:                -9.852
REMARK SMILES CC(=O)N[C@@H]1[C@@H](O)C[C@](OC[C@H]2O[C@@H](O[C@H]3[C@H](O)[C@@H](O)[C@H](OCCN=[N+]=[N-])O[C@@H]3CO)[C@H](O)[C@@H](O)[C@H]2O)(C(=O)O)O[C@H]1C(O)[C@H](O)CNC(=O)OCc1cn(Cc2ccc3c(c2)OCO3)nn1
REMARK SMILES IDX 9 1 8 2 6 3 5 4 42 5 41 6 10 7 11 8 12 9 14 10 13 11 32 12
REMARK SMILES IDX 34 13 36 14 15 15 16 16 29 17 28 18 21 19 17 20 19 21 30 22
REMARK SMILES IDX 31 23 22 25 23 26 24 27 25 28 26 29 27 30 18 31 20 33 33 35
REMARK SMILES IDX 35 37 37 39 38 41 39 42 40 43 7 45 43 47 44 48 45 50 46 51
REMARK SMILES IDX 47 53 48 54 49 55 50 57 51 58 52 59 53 60 54 61 67 62 55 63
REMARK SMILES IDX 66 64 56 65 57 66 58 67 62 68 59 69 61 70 60 71 63 72 65 73
REMARK SMILES IDX 64 74 4 75 2 76 1 78 3 79
REMARK H PARENT 31 24 18 32 20 34 33 36 35 38 37 40 40 44 7 46 44 49 46 52
REMARK H PARENT 48 56 4 77
REMARK Flexibility Score: inf
ROOT
ATOM      1  C   UNL     1      30.779  36.279  13.738  1.00  0.00     0.272 C 
ATOM      2  C   UNL     1      31.703  37.274  13.064  1.00  0.00     0.113 C 
ATOM      3  C   UNL     1      31.093  38.642  13.127  1.00  0.00     0.145 C 
ATOM      4  C   UNL     1      29.772  38.563  12.318  1.00  0.00     0.142 C 
ATOM      5  C   UNL     1      28.971  37.449  12.889  1.00  0.00     0.178 C 
ATOM      6  O   UNL     1      29.549  36.833  13.997  1.00  0.00    -0.332 OA
ENDROOT
BRANCH   1   7
ATOM      7  O   UNL     1      31.371  35.770  14.906  1.00  0.00    -0.338 OA
BRANCH   7   8
ATOM      8  C   UNL     1      30.738  36.027  16.075  1.00  0.00     0.199 C 
BRANCH   8   9
ATOM      9  C   UNL     1      30.243  34.696  16.665  1.00  0.00     0.179 C 
ATOM     10  C   UNL     1      28.903  32.882  16.215  1.00  0.00     0.282 C 
ATOM     11  O   UNL     1      29.248  34.189  15.874  1.00  0.00    -0.341 OA
ATOM     12  C   UNL     1      30.097  31.975  15.901  1.00  0.00     0.202 C 
ATOM     13  C   UNL     1      31.414  32.651  16.018  1.00  0.00     0.179 C 
ATOM     14  C   UNL     1      31.363  33.777  16.994  1.00  0.00     0.177 C 
BRANCH  10  15
ATOM     15  O   UNL     1      27.888  32.474  15.444  1.00  0.00    -0.341 OA
BRANCH  15  16
ATOM     16  C   UNL     1      26.736  31.990  15.985  1.00  0.00     0.184 C 
ATOM     17  C   UNL     1      26.576  30.499  15.873  1.00  0.00     0.178 C 
ATOM     18  O   UNL     1      25.543  30.130  15.077  1.00  0.00    -0.341 OA
ATOM     19  C   UNL     1      24.263  30.558  15.486  1.00  0.00     0.281 C 
ATOM     20  C   UNL     1      25.563  32.693  15.354  1.00  0.00     0.180 C 
ATOM     21  C   UNL     1      24.295  32.025  15.849  1.00  0.00     0.202 C 
BRANCH  17  22
ATOM     22  C   UNL     1      26.398  29.919  17.254  1.00  0.00     0.191 C 
BRANCH  22  23
ATOM     23  O   UNL     1      26.460  28.502  17.206  1.00  0.00    -0.394 OA
ATOM     24  H   UNL     1      25.682  28.080  17.638  1.00  0.00     0.210 HD
ENDBRANCH  22  23
ENDBRANCH  17  22
BRANCH  19  25
ATOM     25  O   UNL     1      23.745  29.744  16.441  1.00  0.00    -0.350 OA
BRANCH  25  26
ATOM     26  C   UNL     1      22.760  28.876  16.219  1.00  0.00     0.169 C 
BRANCH  26  27
ATOM     27  C   UNL     1      21.621  29.351  15.373  1.00  0.00     0.119 C 
BRANCH  27  28
ATOM     28  N   UNL     1      21.477  28.730  14.104  1.00  0.00    -0.092 NA
ATOM     29  N   UNL     1      22.390  28.580  13.297  1.00  0.00     0.001 N 
ATOM     30  N   UNL     1      23.278  28.875  12.478  1.00  0.00    -0.003 NA
ENDBRANCH  27  28
ENDBRANCH  26  27
ENDBRANCH  25  26
ENDBRANCH  19  25
BRANCH  20  31
ATOM     31  O   UNL     1      25.570  34.016  15.787  1.00  0.00    -0.387 OA
ATOM     32  H   UNL     1      25.767  34.081  16.758  1.00  0.00     0.211 HD
ENDBRANCH  20  31
BRANCH  21  33
ATOM     33  O   UNL     1      23.240  32.701  15.241  1.00  0.00    -0.385 OA
ATOM     34  H   UNL     1      22.652  32.058  14.763  1.00  0.00     0.211 HD
ENDBRANCH  21  33
ENDBRANCH  15  16
ENDBRANCH  10  15
BRANCH  12  35
ATOM     35  O   UNL     1      30.052  30.829  16.694  1.00  0.00    -0.385 OA
ATOM     36  H   UNL     1      29.358  30.223  16.385  1.00  0.00     0.211 HD
ENDBRANCH  12  35
BRANCH  13  37
ATOM     37  O   UNL     1      31.950  33.041  14.801  1.00  0.00    -0.387 OA
ATOM     38  H   UNL     1      32.569  33.800  14.954  1.00  0.00     0.211 HD
ENDBRANCH  13  37
BRANCH  14  39
ATOM     39  O   UNL     1      32.600  34.437  16.949  1.00  0.00    -0.387 OA
ATOM     40  H   UNL     1      33.189  33.942  16.348  1.00  0.00     0.211 HD
ENDBRANCH  14  39
ENDBRANCH   8   9
ENDBRANCH   7   8
ENDBRANCH   1   7
BRANCH   1  41
ATOM     41  C   UNL     1      30.617  35.103  12.864  1.00  0.00     0.364 C 
ATOM     42  O   UNL     1      29.525  34.566  12.642  1.00  0.00    -0.246 OA
BRANCH  41  43
ATOM     43  O   UNL     1      31.717  34.522  12.225  1.00  0.00    -0.477 OA
ATOM     44  H   UNL     1      32.190  35.020  11.452  1.00  0.00     0.296 HD
ENDBRANCH  41  43
ENDBRANCH   1  41
BRANCH   3  45
ATOM     45  O   UNL     1      30.741  39.100  14.363  1.00  0.00    -0.391 OA
ATOM     46  H   UNL     1      30.093  38.525  14.841  1.00  0.00     0.211 HD
ENDBRANCH   3  45
BRANCH   5  47
ATOM     47  C   UNL     1      27.632  37.987  13.450  1.00  0.00     0.176 C 
BRANCH  47  48
ATOM     48  O   UNL     1      26.919  38.693  12.529  1.00  0.00    -0.388 OA
ATOM     49  H   UNL     1      26.237  38.116  12.113  1.00  0.00     0.211 HD
ENDBRANCH  47  48
BRANCH  47  50
ATOM     50  C   UNL     1      26.842  37.033  14.232  1.00  0.00     0.165 C 
BRANCH  50  51
ATOM     51  O   UNL     1      27.211  35.688  14.089  1.00  0.00    -0.388 OA
ATOM     52  H   UNL     1      28.198  35.599  14.042  1.00  0.00     0.211 HD
ENDBRANCH  50  51
BRANCH  50  53
ATOM     53  C   UNL     1      25.347  37.104  14.081  1.00  0.00     0.154 C 
BRANCH  53  54
ATOM     54  N   UNL     1      25.001  36.409  12.830  1.00  0.00    -0.319 N 
ATOM     55  C   UNL     1      24.017  35.380  12.791  1.00  0.00     0.407 C 
ATOM     56  H   UNL     1      25.492  36.689  11.974  1.00  0.00     0.167 HD
ATOM     57  O   UNL     1      23.451  35.086  13.877  1.00  0.00    -0.225 OA
BRANCH  55  58
ATOM     58  O   UNL     1      23.673  34.714  11.639  1.00  0.00    -0.443 OA
BRANCH  58  59
ATOM     59  C   UNL     1      22.733  35.254  10.740  1.00  0.00     0.294 C 
BRANCH  59  60
ATOM     60  C   UNL     1      23.465  35.901   9.626  1.00  0.00     0.120 A 
ATOM     61  C   UNL     1      24.815  35.797   9.309  1.00  0.00     0.138 A 
ATOM     62  N   UNL     1      22.961  36.735   8.693  1.00  0.00    -0.132 NA
ATOM     63  N   UNL     1      25.069  36.552   8.223  1.00  0.00    -0.248 N 
ATOM     64  N   UNL     1      23.936  37.106   7.874  1.00  0.00    -0.067 NA
BRANCH  63  65
ATOM     65  C   UNL     1      26.345  36.700   7.589  1.00  0.00     0.181 C 
BRANCH  65  66
ATOM     66  C   UNL     1      26.624  38.067   7.093  1.00  0.00    -0.023 A 
ATOM     67  C   UNL     1      26.308  39.148   7.855  1.00  0.00     0.010 A 
ATOM     68  C   UNL     1      27.212  38.252   5.836  1.00  0.00     0.056 A 
ATOM     69  C   UNL     1      26.573  40.406   7.375  1.00  0.00     0.051 A 
ATOM     70  C   UNL     1      27.480  39.501   5.346  1.00  0.00     0.166 A 
ATOM     71  C   UNL     1      27.147  40.579   6.145  1.00  0.00     0.165 A 
ATOM     72  O   UNL     1      28.032  40.024   4.192  1.00  0.00    -0.454 OA
ATOM     73  O   UNL     1      27.494  41.762   5.479  1.00  0.00    -0.454 OA
ATOM     74  C   UNL     1      28.372  41.386   4.440  1.00  0.00     0.468 C 
ENDBRANCH  65  66
ENDBRANCH  63  65
ENDBRANCH  59  60
ENDBRANCH  58  59
ENDBRANCH  55  58
ENDBRANCH  53  54
ENDBRANCH  50  53
ENDBRANCH  47  50
ENDBRANCH   5  47
BRANCH   4  75
ATOM     75  N   UNL     1      30.199  38.396  10.957  1.00  0.00    -0.348 N 
ATOM     76  C   UNL     1      29.546  39.173   9.942  1.00  0.00     0.217 C 
ATOM     77  H   UNL     1      30.943  37.767  10.606  1.00  0.00     0.163 HD
ATOM     78  C   UNL     1      29.970  39.014   8.509  1.00  0.00     0.114 C 
ATOM     79  O   UNL     1      28.633  39.975  10.247  1.00  0.00    -0.275 OA
ENDBRANCH   4  75
TORSDOF 31
BEGIN_RES LYS A 131
REMARK  4 active torsions:
REMARK  status: ('A' for Active; 'I' for Inactive)
REMARK    1  A    between atoms: CA   and  CB  
REMARK    2  A    between atoms: CB   and  CG  
REMARK    3  A    between atoms: CG   and  CD  
REMARK    4  A    between atoms: CD   and  CE  
ROOT
ATOM      1  CA  LYS A 131      29.867  25.555  16.977  1.00 20.52     0.186 C 
ENDROOT
BRANCH   1   2
ATOM      2  CB  LYS A 131      28.345  25.722  17.026  1.00 20.94     0.034 C 
BRANCH   2   3
ATOM      3  CG  LYS A 131      27.601  24.401  16.905  1.00 22.96     0.005 C 
BRANCH   3   4
ATOM      4  CD  LYS A 131      26.155  24.527  17.294  1.00 24.33     0.041 C 
BRANCH   4   5
ATOM      5  CE  LYS A 131      25.797  23.427  18.287  1.00 26.91     0.338 C 
ATOM      6  NZ  LYS A 131      25.057  22.336  17.609  1.00 27.40     0.618 N 
ENDBRANCH   4   5
ENDBRANCH   3   4
ENDBRANCH   2   3
ENDBRANCH   1   2
END_RES LYS A 131
BEGIN_RES LYS A 135
REMARK  4 active torsions:
REMARK  status: ('A' for Active; 'I' for Inactive)
REMARK    5  A    between atoms: CA   and  CB  
REMARK    6  A    between atoms: CB   and  CG  
REMARK    7  A    between atoms: CG   and  CD  
REMARK    8  A    between atoms: CD   and  CE  
ROOT
ATOM      7  CA  LYS A 135      33.193  34.663   9.290  1.00 25.02     0.186 C 
ENDROOT
BRANCH   7   8
ATOM      8  CB  LYS A 135      32.060  35.360  10.034  1.00 26.63     0.034 C 
BRANCH   8   9
ATOM      9  CG  LYS A 135      30.790  35.471   9.230  1.00 29.45     0.005 C 
BRANCH   9  10
ATOM     10  CD  LYS A 135      30.150  34.104   9.046  1.00 32.00     0.041 C 
BRANCH  10  11
ATOM     11  CE  LYS A 135      28.687  34.247   8.673  1.00 34.25     0.338 C 
ATOM     12  NZ  LYS A 135      27.806  33.679   9.731  1.00 35.99     0.618 N 
ENDBRANCH  10  11
ENDBRANCH   9  10
ENDBRANCH   8   9
ENDBRANCH   7   8
END_RES LYS A 135
