REMARK VINA RESULT:    -4.806      4.544     10.215
REMARK INTER + INTRA:         -23.689
REMARK INTER:                 -10.264
REMARK INTRA:                 -13.425
REMARK UNBOUND:               -10.737
REMARK SMILES CC(=O)N[C@@H]1[C@@H](O)C[C@](OC[C@H]2O[C@@H](O[C@H]3[C@H](O)[C@@H](O)[C@H](OCCN=[N+]=[N-])O[C@@H]3CO)[C@H](O)[C@@H](O)[C@H]2O)(C(=O)O)O[C@H]1C(O)[C@H](O)CNC(=O)OCc1cn(CCNC(=O)NCc2ccco2)nn1
REMARK SMILES IDX 43 1 42 2 9 3 8 4 41 5 6 6 5 7 10 8 11 9 12 10 14 11 13 12
REMARK SMILES IDX 32 13 34 14 36 15 15 16 16 17 29 18 28 19 21 20 17 21 19 22
REMARK SMILES IDX 30 23 31 24 22 26 23 27 24 28 25 29 26 30 27 31 18 32 20 34
REMARK SMILES IDX 33 36 35 38 37 40 38 42 39 43 40 44 7 46 4 48 2 49 1 51 3 52
REMARK SMILES IDX 44 53 45 55 46 56 47 58 48 59 49 60 50 62 51 63 52 64 53 65
REMARK SMILES IDX 54 66 69 67 55 68 68 69 56 70 57 71 58 72 59 73 60 75 61 76
REMARK SMILES IDX 62 78 63 79 64 80 67 81 65 82 66 83
REMARK H PARENT 31 25 18 33 20 35 33 37 35 39 37 41 40 45 7 47 4 50 44 54
REMARK H PARENT 46 57 48 61 58 74 61 77
REMARK Flexibility Score: inf
ROOT
ATOM      1  C   UNL     1      24.532  35.067  12.990  1.00  0.00     0.176 C 
ENDROOT
BRANCH   1   2
ATOM      2  C   UNL     1      23.720  33.901  12.522  1.00  0.00     0.178 C 
ATOM      3  C   UNL     1      21.434  34.549  12.597  1.00  0.00     0.272 C 
ATOM      4  C   UNL     1      21.625  34.230  14.115  1.00  0.00     0.113 C 
ATOM      5  O   UNL     1      22.554  34.245  11.911  1.00  0.00    -0.332 OA
ATOM      6  C   UNL     1      22.372  32.977  14.346  1.00  0.00     0.145 C 
ATOM      7  C   UNL     1      23.590  32.772  13.479  1.00  0.00     0.142 C 
BRANCH   3   8
ATOM      8  O   UNL     1      21.269  35.917  12.579  1.00  0.00    -0.338 OA
BRANCH   8   9
ATOM      9  C   UNL     1      20.368  36.492  11.788  1.00  0.00     0.199 C 
BRANCH   9  10
ATOM     10  C   UNL     1      20.612  37.231  10.565  1.00  0.00     0.179 C 
ATOM     11  C   UNL     1      21.850  38.752   9.375  1.00  0.00     0.282 C 
ATOM     12  O   UNL     1      21.832  37.878  10.462  1.00  0.00    -0.341 OA
ATOM     13  C   UNL     1      20.856  38.459   8.312  1.00  0.00     0.202 C 
ATOM     14  C   UNL     1      20.494  37.013   8.130  1.00  0.00     0.179 C 
ATOM     15  C   UNL     1      20.612  36.222   9.400  1.00  0.00     0.177 C 
BRANCH  11  16
ATOM     16  O   UNL     1      23.110  38.860   8.810  1.00  0.00    -0.341 OA
BRANCH  16  17
ATOM     17  C   UNL     1      24.105  38.219   9.576  1.00  0.00     0.184 C 
ATOM     18  C   UNL     1      25.154  39.244   9.893  1.00  0.00     0.178 C 
ATOM     19  O   UNL     1      26.432  38.694   9.946  1.00  0.00    -0.341 OA
ATOM     20  C   UNL     1      26.743  38.293   8.652  1.00  0.00     0.281 C 
ATOM     21  C   UNL     1      24.578  37.034   8.803  1.00  0.00     0.180 C 
ATOM     22  C   UNL     1      25.978  37.057   8.318  1.00  0.00     0.202 C 
BRANCH  18  23
ATOM     23  C   UNL     1      24.872  39.792  11.292  1.00  0.00     0.191 C 
BRANCH  23  24
ATOM     24  O   UNL     1      23.933  38.924  11.892  1.00  0.00    -0.394 OA
ATOM     25  H   UNL     1      24.331  38.709  12.785  1.00  0.00     0.210 HD
ENDBRANCH  23  24
ENDBRANCH  18  23
BRANCH  20  26
ATOM     26  O   UNL     1      28.100  37.959   8.663  1.00  0.00    -0.350 OA
BRANCH  26  27
ATOM     27  C   UNL     1      28.907  39.090   8.536  1.00  0.00     0.169 C 
BRANCH  27  28
ATOM     28  C   UNL     1      30.010  38.725   7.539  1.00  0.00     0.119 C 
BRANCH  28  29
ATOM     29  N   UNL     1      29.576  39.222   6.245  1.00  0.00    -0.092 NA
ATOM     30  N   UNL     1      28.881  38.522   5.495  1.00  0.00     0.001 N 
ATOM     31  N   UNL     1      27.950  37.939   4.914  1.00  0.00    -0.003 NA
ENDBRANCH  28  29
ENDBRANCH  27  28
ENDBRANCH  26  27
ENDBRANCH  20  26
BRANCH  21  32
ATOM     32  O   UNL     1      24.366  35.899   9.612  1.00  0.00    -0.387 OA
ATOM     33  H   UNL     1      25.201  35.469   9.871  1.00  0.00     0.211 HD
ENDBRANCH  21  32
BRANCH  22  34
ATOM     34  O   UNL     1      25.955  36.983   6.903  1.00  0.00    -0.385 OA
ATOM     35  H   UNL     1      25.515  37.836   6.605  1.00  0.00     0.211 HD
ENDBRANCH  22  34
ENDBRANCH  16  17
ENDBRANCH  11  16
BRANCH  13  36
ATOM     36  O   UNL     1      19.723  39.280   8.383  1.00  0.00    -0.385 OA
ATOM     37  H   UNL     1      19.318  39.272   9.279  1.00  0.00     0.211 HD
ENDBRANCH  13  36
BRANCH  14  38
ATOM     38  O   UNL     1      21.236  36.414   7.104  1.00  0.00    -0.387 OA
ATOM     39  H   UNL     1      22.165  36.347   7.461  1.00  0.00     0.211 HD
ENDBRANCH  14  38
BRANCH  15  40
ATOM     40  O   UNL     1      21.714  35.404   9.450  1.00  0.00    -0.387 OA
ATOM     41  H   UNL     1      22.435  35.888   9.892  1.00  0.00     0.211 HD
ENDBRANCH  15  40
ENDBRANCH   9  10
ENDBRANCH   8   9
ENDBRANCH   3   8
BRANCH   3  42
ATOM     42  C   UNL     1      20.198  33.847  12.259  1.00  0.00     0.364 C 
ATOM     43  O   UNL     1      19.298  33.679  13.094  1.00  0.00    -0.246 OA
BRANCH  42  44
ATOM     44  O   UNL     1      19.936  33.319  10.990  1.00  0.00    -0.477 OA
ATOM     45  H   UNL     1      19.064  32.810  10.837  1.00  0.00     0.296 HD
ENDBRANCH  42  44
ENDBRANCH   3  42
BRANCH   6  46
ATOM     46  O   UNL     1      22.776  32.969  15.695  1.00  0.00    -0.391 OA
ATOM     47  H   UNL     1      23.765  32.929  15.735  1.00  0.00     0.211 HD
ENDBRANCH   6  46
BRANCH   7  48
ATOM     48  N   UNL     1      23.455  31.491  12.785  1.00  0.00    -0.348 N 
ATOM     49  C   UNL     1      23.778  30.282  13.416  1.00  0.00     0.217 C 
ATOM     50  H   UNL     1      23.109  31.502  11.802  1.00  0.00     0.163 HD
ATOM     51  C   UNL     1      23.659  28.950  12.750  1.00  0.00     0.114 C 
ATOM     52  O   UNL     1      24.194  30.343  14.617  1.00  0.00    -0.275 OA
ENDBRANCH   7  48
ENDBRANCH   1   2
BRANCH   1  53
ATOM     53  O   UNL     1      24.010  36.247  12.348  1.00  0.00    -0.388 OA
ATOM     54  H   UNL     1      24.182  36.972  12.968  1.00  0.00     0.211 HD
ENDBRANCH   1  53
BRANCH   1  55
ATOM     55  C   UNL     1      25.975  35.084  12.578  1.00  0.00     0.165 C 
BRANCH  55  56
ATOM     56  O   UNL     1      26.879  34.542  13.460  1.00  0.00    -0.388 OA
ATOM     57  H   UNL     1      27.820  34.769  13.252  1.00  0.00     0.211 HD
ENDBRANCH  55  56
BRANCH  55  58
ATOM     58  C   UNL     1      26.413  36.489  12.152  1.00  0.00     0.154 C 
BRANCH  58  59
ATOM     59  N   UNL     1      27.782  36.486  11.695  1.00  0.00    -0.319 N 
ATOM     60  C   UNL     1      28.766  37.375  12.187  1.00  0.00     0.407 C 
ATOM     61  H   UNL     1      28.058  35.796  10.971  1.00  0.00     0.167 HD
ATOM     62  O   UNL     1      28.451  38.216  13.069  1.00  0.00    -0.225 OA
BRANCH  60  63
ATOM     63  O   UNL     1      30.078  37.351  11.726  1.00  0.00    -0.443 OA
BRANCH  63  64
ATOM     64  C   UNL     1      31.121  37.035  12.642  1.00  0.00     0.294 C 
BRANCH  64  65
ATOM     65  C   UNL     1      30.668  35.792  13.339  1.00  0.00     0.120 A 
ATOM     66  C   UNL     1      30.849  35.521  14.668  1.00  0.00     0.138 A 
ATOM     67  N   UNL     1      30.009  34.744  12.787  1.00  0.00    -0.132 NA
ATOM     68  N   UNL     1      30.306  34.331  14.883  1.00  0.00    -0.250 N 
ATOM     69  N   UNL     1      29.800  33.866  13.741  1.00  0.00    -0.067 NA
BRANCH  68  70
ATOM     70  C   UNL     1      30.285  33.645  16.174  1.00  0.00     0.167 C 
BRANCH  70  71
ATOM     71  C   UNL     1      29.519  34.545  17.144  1.00  0.00     0.141 C 
BRANCH  71  72
ATOM     72  N   UNL     1      28.279  34.888  16.510  1.00  0.00    -0.336 N 
ATOM     73  C   UNL     1      27.775  36.201  16.426  1.00  0.00     0.315 C 
ATOM     74  H   UNL     1      27.732  34.090  16.090  1.00  0.00     0.165 HD
ATOM     75  O   UNL     1      28.389  37.165  16.933  1.00  0.00    -0.249 OA
ATOM     76  N   UNL     1      26.532  36.420  15.741  1.00  0.00    -0.331 N 
ATOM     77  H   UNL     1      26.051  35.580  15.330  1.00  0.00     0.165 HD
BRANCH  76  78
ATOM     78  C   UNL     1      25.987  37.744  15.632  1.00  0.00     0.193 C 
BRANCH  78  79
ATOM     79  C   UNL     1      24.501  37.692  15.605  1.00  0.00     0.122 A 
ATOM     80  C   UNL     1      23.722  37.049  16.560  1.00  0.00     0.047 A 
ATOM     81  O   UNL     1      23.719  38.215  14.722  1.00  0.00    -0.467 OA
ATOM     82  C   UNL     1      22.426  37.234  16.174  1.00  0.00     0.042 A 
ATOM     83  C   UNL     1      22.462  37.968  15.019  1.00  0.00     0.195 A 
ENDBRANCH  78  79
ENDBRANCH  76  78
ENDBRANCH  71  72
ENDBRANCH  70  71
ENDBRANCH  68  70
ENDBRANCH  64  65
ENDBRANCH  63  64
ENDBRANCH  60  63
ENDBRANCH  58  59
ENDBRANCH  55  58
ENDBRANCH   1  55
TORSDOF 34
BEGIN_RES LYS A 131
REMARK  4 active torsions:
REMARK  status: ('A' for Active; 'I' for Inactive)
REMARK    1  A    between atoms: CA   and  CB  
REMARK    2  A    between atoms: CB   and  CG  
REMARK    3  A    between atoms: CG   and  CD  
REMARK    4  A    between atoms: CD   and  CE  
ROOT
ATOM      1  CA  LYS A 131      29.867  25.555  16.977  1.00 20.52     0.186 C 
ENDROOT
BRANCH   1   2
ATOM      2  CB  LYS A 131      28.345  25.722  17.026  1.00 20.94     0.034 C 
BRANCH   2   3
ATOM      3  CG  LYS A 131      27.601  24.401  16.904  1.00 22.96     0.005 C 
BRANCH   3   4
ATOM      4  CD  LYS A 131      26.154  24.528  17.290  1.00 24.33     0.041 C 
BRANCH   4   5
ATOM      5  CE  LYS A 131      26.042  25.295  18.603  1.00 26.91     0.338 C 
ATOM      6  NZ  LYS A 131      25.494  24.422  19.668  1.00 27.40     0.618 N 
ENDBRANCH   4   5
ENDBRANCH   3   4
ENDBRANCH   2   3
ENDBRANCH   1   2
END_RES LYS A 131
BEGIN_RES LYS A 135
REMARK  4 active torsions:
REMARK  status: ('A' for Active; 'I' for Inactive)
REMARK    5  A    between atoms: CA   and  CB  
REMARK    6  A    between atoms: CB   and  CG  
REMARK    7  A    between atoms: CG   and  CD  
REMARK    8  A    between atoms: CD   and  CE  
ROOT
ATOM      7  CA  LYS A 135      33.193  34.663   9.290  1.00 25.02     0.186 C 
ENDROOT
BRANCH   7   8
ATOM      8  CB  LYS A 135      32.060  35.360  10.034  1.00 26.63     0.034 C 
BRANCH   8   9
ATOM      9  CG  LYS A 135      30.803  35.508   9.216  1.00 29.45     0.005 C 
BRANCH   9  10
ATOM     10  CD  LYS A 135      30.288  34.147   8.773  1.00 32.00     0.041 C 
BRANCH  10  11
ATOM     11  CE  LYS A 135      28.967  33.832   9.448  1.00 34.25     0.338 C 
ATOM     12  NZ  LYS A 135      27.823  34.386   8.674  1.00 35.99     0.618 N 
ENDBRANCH  10  11
ENDBRANCH   9  10
ENDBRANCH   8   9
ENDBRANCH   7   8
END_RES LYS A 135
