REMARK VINA RESULT:    -5.128      2.662      7.987
REMARK INTER + INTRA:         -23.038
REMARK INTER:                 -13.987
REMARK INTRA:                  -9.051
REMARK UNBOUND:               -10.416
REMARK SMILES CC(=O)N[C@@H]1[C@@H](O)C[C@](OC[C@H]2O[C@@H](O[C@H]3[C@H](O)[C@@H](O)[C@H](OCCN=[N+]=[N-])O[C@@H]3CO)[C@H](O)[C@@H](O)[C@H]2O)(C(=O)O)O[C@H]1C(O)[C@H](O)CNC(=O)OCc1cn(-c2ccc3c(c2)OCO3)nn1
REMARK SMILES IDX 9 1 8 2 6 3 5 4 42 5 41 6 10 7 11 8 12 9 14 10 13 11 32 12
REMARK SMILES IDX 34 13 36 14 15 15 16 16 29 17 28 18 21 19 17 20 19 21 30 22
REMARK SMILES IDX 31 23 22 25 23 26 24 27 25 28 26 29 27 30 18 31 20 33 33 35
REMARK SMILES IDX 35 37 37 39 38 41 39 42 40 43 7 45 43 47 44 48 45 50 46 51
REMARK SMILES IDX 47 53 48 54 49 55 50 57 51 58 52 59 53 60 54 61 66 62 55 63
REMARK SMILES IDX 65 64 56 65 57 66 61 67 58 68 60 69 59 70 62 71 64 72 63 73
REMARK SMILES IDX 4 74 2 75 1 77 3 78
REMARK H PARENT 31 24 18 32 20 34 33 36 35 38 37 40 40 44 7 46 44 49 46 52
REMARK H PARENT 48 56 4 76
REMARK Flexibility Score: inf
ROOT
ATOM      1  C   UNL     1      28.154  36.837  12.679  1.00  0.00     0.272 C 
ATOM      2  C   UNL     1      27.720  37.355  14.022  1.00  0.00     0.113 C 
ATOM      3  C   UNL     1      28.825  38.182  14.705  1.00  0.00     0.145 C 
ATOM      4  C   UNL     1      29.920  37.187  15.030  1.00  0.00     0.142 C 
ATOM      5  C   UNL     1      30.239  36.490  13.724  1.00  0.00     0.178 C 
ATOM      6  O   UNL     1      29.573  36.952  12.641  1.00  0.00    -0.332 OA
ENDROOT
BRANCH   1   7
ATOM      7  O   UNL     1      27.722  37.548  11.650  1.00  0.00    -0.338 OA
BRANCH   7   8
ATOM      8  C   UNL     1      28.261  37.940  10.536  1.00  0.00     0.199 C 
BRANCH   8   9
ATOM      9  C   UNL     1      27.791  37.438   9.197  1.00  0.00     0.179 C 
ATOM     10  C   UNL     1      25.908  36.422   8.279  1.00  0.00     0.282 C 
ATOM     11  O   UNL     1      26.664  36.682   9.391  1.00  0.00    -0.341 OA
ATOM     12  C   UNL     1      26.571  36.779   6.991  1.00  0.00     0.202 C 
ATOM     13  C   UNL     1      27.019  38.230   6.970  1.00  0.00     0.179 C 
ATOM     14  C   UNL     1      27.437  38.677   8.334  1.00  0.00     0.177 C 
BRANCH  10  15
ATOM     15  O   UNL     1      24.753  37.224   8.373  1.00  0.00    -0.341 OA
BRANCH  15  16
ATOM     16  C   UNL     1      24.075  37.058   9.553  1.00  0.00     0.184 C 
ATOM     17  C   UNL     1      23.414  35.704   9.567  1.00  0.00     0.178 C 
ATOM     18  O   UNL     1      22.177  35.680   8.968  1.00  0.00    -0.341 OA
ATOM     19  C   UNL     1      22.041  36.638   7.962  1.00  0.00     0.281 C 
ATOM     20  C   UNL     1      23.072  38.183   9.656  1.00  0.00     0.180 C 
ATOM     21  C   UNL     1      22.093  38.041   8.512  1.00  0.00     0.202 C 
BRANCH  17  22
ATOM     22  C   UNL     1      23.241  35.182  10.986  1.00  0.00     0.191 C 
BRANCH  22  23
ATOM     23  O   UNL     1      22.172  34.299  11.072  1.00  0.00    -0.394 OA
ATOM     24  H   UNL     1      22.190  33.603  10.346  1.00  0.00     0.210 HD
ENDBRANCH  22  23
ENDBRANCH  17  22
BRANCH  19  25
ATOM     25  O   UNL     1      20.779  36.436   7.419  1.00  0.00    -0.350 OA
BRANCH  25  26
ATOM     26  C   UNL     1      20.316  35.185   7.813  1.00  0.00     0.169 C 
BRANCH  26  27
ATOM     27  C   UNL     1      18.794  35.163   7.894  1.00  0.00     0.119 C 
BRANCH  27  28
ATOM     28  N   UNL     1      18.438  34.021   8.748  1.00  0.00    -0.092 NA
ATOM     29  N   UNL     1      18.787  34.036   9.948  1.00  0.00     0.001 N 
ATOM     30  N   UNL     1      19.265  34.218  11.082  1.00  0.00    -0.003 NA
ENDBRANCH  27  28
ENDBRANCH  26  27
ENDBRANCH  25  26
ENDBRANCH  19  25
BRANCH  20  31
ATOM     31  O   UNL     1      22.446  38.250  10.884  1.00  0.00    -0.387 OA
ATOM     32  H   UNL     1      21.577  37.752  10.923  1.00  0.00     0.211 HD
ENDBRANCH  20  31
BRANCH  21  33
ATOM     33  O   UNL     1      22.526  38.880   7.483  1.00  0.00    -0.385 OA
ATOM     34  H   UNL     1      21.800  39.445   7.115  1.00  0.00     0.211 HD
ENDBRANCH  21  33
ENDBRANCH  15  16
ENDBRANCH  10  15
BRANCH  12  35
ATOM     35  O   UNL     1      27.657  35.974   6.659  1.00  0.00    -0.385 OA
ATOM     36  H   UNL     1      27.302  35.157   6.187  1.00  0.00     0.211 HD
ENDBRANCH  12  35
BRANCH  13  37
ATOM     37  O   UNL     1      25.952  39.001   6.502  1.00  0.00    -0.387 OA
ATOM     38  H   UNL     1      25.665  38.773   5.599  1.00  0.00     0.211 HD
ENDBRANCH  13  37
BRANCH  14  39
ATOM     39  O   UNL     1      26.378  39.367   8.918  1.00  0.00    -0.387 OA
ATOM     40  H   UNL     1      26.648  40.148   9.428  1.00  0.00     0.211 HD
ENDBRANCH  14  39
ENDBRANCH   8   9
ENDBRANCH   7   8
ENDBRANCH   1   7
BRANCH   1  41
ATOM     41  C   UNL     1      27.874  35.370  12.556  1.00  0.00     0.364 C 
ATOM     42  O   UNL     1      26.690  35.061  12.177  1.00  0.00    -0.246 OA
BRANCH  41  43
ATOM     43  O   UNL     1      28.747  34.361  12.809  1.00  0.00    -0.477 OA
ATOM     44  H   UNL     1      29.509  34.106  12.200  1.00  0.00     0.296 HD
ENDBRANCH  41  43
ENDBRANCH   1  41
BRANCH   3  45
ATOM     45  O   UNL     1      29.249  39.102  13.736  1.00  0.00    -0.391 OA
ATOM     46  H   UNL     1      29.826  39.786  14.142  1.00  0.00     0.211 HD
ENDBRANCH   3  45
BRANCH   5  47
ATOM     47  C   UNL     1      31.723  36.821  13.463  1.00  0.00     0.176 C 
BRANCH  47  48
ATOM     48  O   UNL     1      32.391  37.212  14.588  1.00  0.00    -0.388 OA
ATOM     49  H   UNL     1      32.980  37.997  14.465  1.00  0.00     0.211 HD
ENDBRANCH  47  48
BRANCH  47  50
ATOM     50  C   UNL     1      32.440  35.644  12.815  1.00  0.00     0.165 C 
BRANCH  50  51
ATOM     51  O   UNL     1      31.591  34.755  12.248  1.00  0.00    -0.388 OA
ATOM     52  H   UNL     1      31.982  34.077  11.659  1.00  0.00     0.211 HD
ENDBRANCH  50  51
BRANCH  50  53
ATOM     53  C   UNL     1      33.273  35.020  13.891  1.00  0.00     0.154 C 
BRANCH  53  54
ATOM     54  N   UNL     1      32.571  34.001  14.607  1.00  0.00    -0.319 N 
ATOM     55  C   UNL     1      32.183  34.062  15.970  1.00  0.00     0.407 C 
ATOM     56  H   UNL     1      32.285  33.081  14.117  1.00  0.00     0.167 HD
ATOM     57  O   UNL     1      32.430  35.071  16.662  1.00  0.00    -0.225 OA
BRANCH  55  58
ATOM     58  O   UNL     1      31.511  33.001  16.584  1.00  0.00    -0.443 OA
BRANCH  58  59
ATOM     59  C   UNL     1      30.915  31.947  15.878  1.00  0.00     0.294 C 
BRANCH  59  60
ATOM     60  C   UNL     1      29.442  32.222  15.765  1.00  0.00     0.121 A 
ATOM     61  C   UNL     1      28.426  31.271  15.876  1.00  0.00     0.144 A 
ATOM     62  N   UNL     1      28.819  33.387  15.552  1.00  0.00    -0.131 NA
ATOM     63  N   UNL     1      27.237  31.894  15.725  1.00  0.00    -0.220 N 
ATOM     64  N   UNL     1      27.528  33.171  15.532  1.00  0.00    -0.062 NA
BRANCH  63  65
ATOM     65  C   UNL     1      25.948  31.332  15.768  1.00  0.00     0.070 A 
ATOM     66  C   UNL     1      25.112  31.586  16.819  1.00  0.00     0.032 A 
ATOM     67  C   UNL     1      25.510  30.520  14.750  1.00  0.00     0.079 A 
ATOM     68  C   UNL     1      23.829  31.020  16.846  1.00  0.00     0.053 A 
ATOM     69  C   UNL     1      24.252  29.956  14.760  1.00  0.00     0.167 A 
ATOM     70  C   UNL     1      23.416  30.213  15.815  1.00  0.00     0.165 A 
ATOM     71  O   UNL     1      23.614  29.127  13.864  1.00  0.00    -0.454 OA
ATOM     72  O   UNL     1      22.223  29.537  15.589  1.00  0.00    -0.454 OA
ATOM     73  C   UNL     1      22.448  28.637  14.538  1.00  0.00     0.468 C 
ENDBRANCH  63  65
ENDBRANCH  59  60
ENDBRANCH  58  59
ENDBRANCH  55  58
ENDBRANCH  53  54
ENDBRANCH  50  53
ENDBRANCH  47  50
ENDBRANCH   5  47
BRANCH   4  74
ATOM     74  N   UNL     1      29.471  36.313  16.072  1.00  0.00    -0.348 N 
ATOM     75  C   UNL     1      29.710  36.611  17.464  1.00  0.00     0.217 C 
ATOM     76  H   UNL     1      28.957  35.420  15.920  1.00  0.00     0.163 HD
ATOM     77  C   UNL     1      29.239  35.695  18.536  1.00  0.00     0.114 C 
ATOM     78  O   UNL     1      30.316  37.646  17.763  1.00  0.00    -0.275 OA
ENDBRANCH   4  74
TORSDOF 30
BEGIN_RES LYS A 131
REMARK  4 active torsions:
REMARK  status: ('A' for Active; 'I' for Inactive)
REMARK    1  A    between atoms: CA   and  CB  
REMARK    2  A    between atoms: CB   and  CG  
REMARK    3  A    between atoms: CG   and  CD  
REMARK    4  A    between atoms: CD   and  CE  
ROOT
ATOM      1  CA  LYS A 131      29.867  25.555  16.977  1.00 20.52     0.186 C 
ENDROOT
BRANCH   1   2
ATOM      2  CB  LYS A 131      28.345  25.722  17.026  1.00 20.94     0.034 C 
BRANCH   2   3
ATOM      3  CG  LYS A 131      27.601  24.404  16.872  1.00 22.96     0.005 C 
BRANCH   3   4
ATOM      4  CD  LYS A 131      26.499  24.255  17.884  1.00 24.33     0.041 C 
BRANCH   4   5
ATOM      5  CE  LYS A 131      25.149  24.425  17.195  1.00 26.91     0.338 C 
ATOM      6  NZ  LYS A 131      24.426  23.132  17.142  1.00 27.40     0.618 N 
ENDBRANCH   4   5
ENDBRANCH   3   4
ENDBRANCH   2   3
ENDBRANCH   1   2
END_RES LYS A 131
BEGIN_RES LYS A 135
REMARK  4 active torsions:
REMARK  status: ('A' for Active; 'I' for Inactive)
REMARK    5  A    between atoms: CA   and  CB  
REMARK    6  A    between atoms: CB   and  CG  
REMARK    7  A    between atoms: CG   and  CD  
REMARK    8  A    between atoms: CD   and  CE  
ROOT
ATOM      7  CA  LYS A 135      33.193  34.663   9.290  1.00 25.02     0.186 C 
ENDROOT
BRANCH   7   8
ATOM      8  CB  LYS A 135      32.060  35.360  10.034  1.00 26.63     0.034 C 
BRANCH   8   9
ATOM      9  CG  LYS A 135      30.936  35.809   9.136  1.00 29.45     0.005 C 
BRANCH   9  10
ATOM     10  CD  LYS A 135      30.267  34.614   8.476  1.00 32.00     0.041 C 
BRANCH  10  11
ATOM     11  CE  LYS A 135      29.566  33.756   9.512  1.00 34.25     0.338 C 
ATOM     12  NZ  LYS A 135      28.092  33.762   9.305  1.00 35.99     0.618 N 
ENDBRANCH  10  11
ENDBRANCH   9  10
ENDBRANCH   8   9
ENDBRANCH   7   8
END_RES LYS A 135
