REMARK VINA RESULT:    -5.397      5.345     11.118
REMARK INTER + INTRA:         -22.875
REMARK INTER:                 -11.663
REMARK INTRA:                 -11.212
REMARK UNBOUND:                -8.960
REMARK SMILES CC(=O)N[C@@H]1[C@@H](O)C[C@](OC[C@H]2O[C@@H](O[C@H]3[C@H](O)[C@@H](O)[C@H](OCCN=[N+]=[N-])O[C@@H]3CO)[C@H](O)[C@@H](O)[C@H]2O)(C(=O)O)O[C@H]1C(O)[C@H](O)CNC(=O)OCc1cn(Cc2cccc(C#N)c2)nn1
REMARK SMILES IDX 9 1 8 2 6 3 5 4 42 5 41 6 10 7 11 8 12 9 14 10 13 11 32 12
REMARK SMILES IDX 34 13 36 14 15 15 16 16 29 17 28 18 21 19 17 20 19 21 30 22
REMARK SMILES IDX 31 23 22 25 23 26 24 27 25 28 26 29 27 30 18 31 20 33 33 35
REMARK SMILES IDX 35 37 37 39 38 41 39 42 40 43 7 45 43 47 44 48 45 50 46 51
REMARK SMILES IDX 47 53 48 54 49 55 50 57 51 58 52 59 53 60 54 61 66 62 55 63
REMARK SMILES IDX 65 64 56 65 57 66 58 67 64 68 59 69 61 70 60 71 62 72 63 73
REMARK SMILES IDX 4 74 2 75 1 77 3 78
REMARK H PARENT 31 24 18 32 20 34 33 36 35 38 37 40 40 44 7 46 44 49 46 52
REMARK H PARENT 48 56 4 76
REMARK Flexibility Score: inf
ROOT
ATOM      1  C   UNL     1      24.712  35.376  11.621  1.00  0.00     0.272 C 
ATOM      2  C   UNL     1      25.454  34.146  12.088  1.00  0.00     0.113 C 
ATOM      3  C   UNL     1      26.211  34.247  13.344  1.00  0.00     0.145 C 
ATOM      4  C   UNL     1      26.760  35.659  13.572  1.00  0.00     0.142 C 
ATOM      5  C   UNL     1      25.771  36.707  13.323  1.00  0.00     0.178 C 
ATOM      6  O   UNL     1      24.796  36.478  12.408  1.00  0.00    -0.332 OA
ENDROOT
BRANCH   1   7
ATOM      7  O   UNL     1      23.438  35.068  11.467  1.00  0.00    -0.338 OA
BRANCH   7   8
ATOM      8  C   UNL     1      22.237  35.381  11.580  1.00  0.00     0.199 C 
BRANCH   8   9
ATOM      9  C   UNL     1      21.379  36.138  10.605  1.00  0.00     0.179 C 
ATOM     10  C   UNL     1      21.359  38.001   9.338  1.00  0.00     0.282 C 
ATOM     11  O   UNL     1      22.237  37.063   9.897  1.00  0.00    -0.341 OA
ATOM     12  C   UNL     1      20.552  37.411   8.232  1.00  0.00     0.202 C 
ATOM     13  C   UNL     1      20.044  36.019   8.561  1.00  0.00     0.179 C 
ATOM     14  C   UNL     1      20.961  35.230   9.432  1.00  0.00     0.177 C 
BRANCH  10  15
ATOM     15  O   UNL     1      22.096  39.083   8.863  1.00  0.00    -0.341 OA
BRANCH  15  16
ATOM     16  C   UNL     1      23.448  38.910   9.007  1.00  0.00     0.184 C 
ATOM     17  C   UNL     1      24.105  40.043   9.706  1.00  0.00     0.178 C 
ATOM     18  O   UNL     1      25.474  39.928   9.788  1.00  0.00    -0.341 OA
ATOM     19  C   UNL     1      26.129  39.661   8.606  1.00  0.00     0.281 C 
ATOM     20  C   UNL     1      24.018  38.974   7.553  1.00  0.00     0.180 C 
ATOM     21  C   UNL     1      25.484  38.635   7.730  1.00  0.00     0.202 C 
BRANCH  17  22
ATOM     22  C   UNL     1      23.593  40.164  11.123  1.00  0.00     0.191 C 
BRANCH  22  23
ATOM     23  O   UNL     1      23.548  38.901  11.720  1.00  0.00    -0.394 OA
ATOM     24  H   UNL     1      23.919  38.887  12.618  1.00  0.00     0.210 HD
ENDBRANCH  22  23
ENDBRANCH  17  22
BRANCH  19  25
ATOM     25  O   UNL     1      27.390  39.135   8.960  1.00  0.00    -0.350 OA
BRANCH  25  26
ATOM     26  C   UNL     1      28.363  40.078   8.756  1.00  0.00     0.169 C 
BRANCH  26  27
ATOM     27  C   UNL     1      29.511  39.560   7.937  1.00  0.00     0.119 C 
BRANCH  27  28
ATOM     28  N   UNL     1      29.229  39.523   6.521  1.00  0.00    -0.092 NA
ATOM     29  N   UNL     1      28.999  38.427   5.991  1.00  0.00     0.001 N 
ATOM     30  N   UNL     1      28.840  37.381   5.322  1.00  0.00    -0.003 NA
ENDBRANCH  27  28
ENDBRANCH  26  27
ENDBRANCH  25  26
ENDBRANCH  19  25
BRANCH  20  31
ATOM     31  O   UNL     1      23.323  38.068   6.796  1.00  0.00    -0.387 OA
ATOM     32  H   UNL     1      23.875  37.703   6.047  1.00  0.00     0.211 HD
ENDBRANCH  20  31
BRANCH  21  33
ATOM     33  O   UNL     1      26.078  38.685   6.471  1.00  0.00    -0.385 OA
ATOM     34  H   UNL     1      26.473  39.601   6.378  1.00  0.00     0.211 HD
ENDBRANCH  21  33
ENDBRANCH  15  16
ENDBRANCH  10  15
BRANCH  12  35
ATOM     35  O   UNL     1      19.384  38.193   8.084  1.00  0.00    -0.385 OA
ATOM     36  H   UNL     1      19.691  39.080   7.773  1.00  0.00     0.211 HD
ENDBRANCH  12  35
BRANCH  13  37
ATOM     37  O   UNL     1      19.953  35.346   7.334  1.00  0.00    -0.387 OA
ATOM     38  H   UNL     1      19.377  34.558   7.368  1.00  0.00     0.211 HD
ENDBRANCH  13  37
BRANCH  14  39
ATOM     39  O   UNL     1      22.115  34.966   8.679  1.00  0.00    -0.387 OA
ATOM     40  H   UNL     1      22.246  34.010   8.524  1.00  0.00     0.211 HD
ENDBRANCH  14  39
ENDBRANCH   8   9
ENDBRANCH   7   8
ENDBRANCH   1   7
BRANCH   1  41
ATOM     41  C   UNL     1      25.361  35.775  10.322  1.00  0.00     0.364 C 
ATOM     42  O   UNL     1      26.478  36.395  10.314  1.00  0.00    -0.246 OA
BRANCH  41  43
ATOM     43  O   UNL     1      24.788  35.492   9.111  1.00  0.00    -0.477 OA
ATOM     44  H   UNL     1      24.272  34.601   9.034  1.00  0.00     0.296 HD
ENDBRANCH  41  43
ENDBRANCH   1  41
BRANCH   3  45
ATOM     45  O   UNL     1      25.405  33.902  14.419  1.00  0.00    -0.391 OA
ATOM     46  H   UNL     1      25.509  32.963  14.701  1.00  0.00     0.211 HD
ENDBRANCH   3  45
BRANCH   5  47
ATOM     47  C   UNL     1      24.992  37.162  14.541  1.00  0.00     0.176 C 
BRANCH  47  48
ATOM     48  O   UNL     1      24.865  38.579  14.357  1.00  0.00    -0.388 OA
ATOM     49  H   UNL     1      23.982  38.832  14.710  1.00  0.00     0.211 HD
ENDBRANCH  47  48
BRANCH  47  50
ATOM     50  C   UNL     1      23.616  36.676  14.727  1.00  0.00     0.165 C 
BRANCH  50  51
ATOM     51  O   UNL     1      22.824  37.857  14.386  1.00  0.00    -0.388 OA
ATOM     52  H   UNL     1      22.266  37.609  13.589  1.00  0.00     0.211 HD
ENDBRANCH  50  51
BRANCH  50  53
ATOM     53  C   UNL     1      23.155  36.349  16.100  1.00  0.00     0.154 C 
BRANCH  53  54
ATOM     54  N   UNL     1      24.100  35.736  16.976  1.00  0.00    -0.319 N 
ATOM     55  C   UNL     1      24.062  34.317  17.184  1.00  0.00     0.407 C 
ATOM     56  H   UNL     1      24.829  36.257  17.478  1.00  0.00     0.167 HD
ATOM     57  O   UNL     1      23.181  33.674  16.569  1.00  0.00    -0.225 OA
BRANCH  55  58
ATOM     58  O   UNL     1      24.931  33.656  18.003  1.00  0.00    -0.443 OA
BRANCH  58  59
ATOM     59  C   UNL     1      25.040  32.218  17.993  1.00  0.00     0.294 C 
BRANCH  59  60
ATOM     60  C   UNL     1      26.307  31.835  17.308  1.00  0.00     0.120 A 
ATOM     61  C   UNL     1      27.530  31.604  17.897  1.00  0.00     0.138 A 
ATOM     62  N   UNL     1      26.493  31.649  15.997  1.00  0.00    -0.132 NA
ATOM     63  N   UNL     1      28.439  31.282  16.933  1.00  0.00    -0.248 N 
ATOM     64  N   UNL     1      27.775  31.318  15.788  1.00  0.00    -0.067 NA
BRANCH  63  65
ATOM     65  C   UNL     1      29.826  30.982  17.142  1.00  0.00     0.181 C 
BRANCH  65  66
ATOM     66  C   UNL     1      30.641  32.174  16.813  1.00  0.00    -0.025 A 
ATOM     67  C   UNL     1      31.214  32.378  15.586  1.00  0.00     0.006 A 
ATOM     68  C   UNL     1      30.847  33.143  17.789  1.00  0.00     0.025 A 
ATOM     69  C   UNL     1      31.970  33.481  15.292  1.00  0.00     0.002 A 
ATOM     70  C   UNL     1      31.605  34.249  17.495  1.00  0.00     0.052 A 
ATOM     71  C   UNL     1      32.192  34.463  16.248  1.00  0.00     0.019 A 
BRANCH  70  72
ATOM     72  C   UNL     1      31.810  35.250  18.509  1.00  0.00     0.099 C 
ATOM     73  N   UNL     1      31.972  36.074  19.323  1.00  0.00    -0.192 NA
ENDBRANCH  70  72
ENDBRANCH  65  66
ENDBRANCH  63  65
ENDBRANCH  59  60
ENDBRANCH  58  59
ENDBRANCH  55  58
ENDBRANCH  53  54
ENDBRANCH  50  53
ENDBRANCH  47  50
ENDBRANCH   5  47
BRANCH   4  74
ATOM     74  N   UNL     1      28.028  35.783  12.854  1.00  0.00    -0.348 N 
ATOM     75  C   UNL     1      29.236  35.775  13.581  1.00  0.00     0.217 C 
ATOM     76  H   UNL     1      28.112  35.877  11.823  1.00  0.00     0.163 HD
ATOM     77  C   UNL     1      30.573  35.896  12.934  1.00  0.00     0.114 C 
ATOM     78  O   UNL     1      29.188  35.662  14.817  1.00  0.00    -0.275 OA
ENDBRANCH   4  74
TORSDOF 32
BEGIN_RES LYS A 131
REMARK  4 active torsions:
REMARK  status: ('A' for Active; 'I' for Inactive)
REMARK    1  A    between atoms: CA   and  CB  
REMARK    2  A    between atoms: CB   and  CG  
REMARK    3  A    between atoms: CG   and  CD  
REMARK    4  A    between atoms: CD   and  CE  
ROOT
ATOM      1  CA  LYS A 131      29.867  25.555  16.977  1.00 20.52     0.186 C 
ENDROOT
BRANCH   1   2
ATOM      2  CB  LYS A 131      28.345  25.722  17.026  1.00 20.94     0.034 C 
BRANCH   2   3
ATOM      3  CG  LYS A 131      27.599  24.476  16.574  1.00 22.96     0.005 C 
BRANCH   3   4
ATOM      4  CD  LYS A 131      27.143  23.637  17.736  1.00 24.33     0.041 C 
BRANCH   4   5
ATOM      5  CE  LYS A 131      25.677  23.262  17.548  1.00 26.91     0.338 C 
ATOM      6  NZ  LYS A 131      24.928  24.386  16.937  1.00 27.40     0.618 N 
ENDBRANCH   4   5
ENDBRANCH   3   4
ENDBRANCH   2   3
ENDBRANCH   1   2
END_RES LYS A 131
BEGIN_RES LYS A 135
REMARK  4 active torsions:
REMARK  status: ('A' for Active; 'I' for Inactive)
REMARK    5  A    between atoms: CA   and  CB  
REMARK    6  A    between atoms: CB   and  CG  
REMARK    7  A    between atoms: CG   and  CD  
REMARK    8  A    between atoms: CD   and  CE  
ROOT
ATOM      7  CA  LYS A 135      33.193  34.663   9.290  1.00 25.02     0.186 C 
ENDROOT
BRANCH   7   8
ATOM      8  CB  LYS A 135      32.060  35.360  10.034  1.00 26.63     0.034 C 
BRANCH   8   9
ATOM      9  CG  LYS A 135      30.776  35.429   9.248  1.00 29.45     0.005 C 
BRANCH   9  10
ATOM     10  CD  LYS A 135      30.190  34.039   9.055  1.00 32.00     0.041 C 
BRANCH  10  11
ATOM     11  CE  LYS A 135      28.677  34.106   8.964  1.00 34.25     0.338 C 
ATOM     12  NZ  LYS A 135      28.246  34.931   7.802  1.00 35.99     0.618 N 
ENDBRANCH  10  11
ENDBRANCH   9  10
ENDBRANCH   8   9
ENDBRANCH   7   8
END_RES LYS A 135
