REMARK VINA RESULT:    -4.826      7.408     15.456
REMARK INTER + INTRA:         -23.952
REMARK INTER:                 -12.295
REMARK INTRA:                 -11.658
REMARK UNBOUND:               -10.521
REMARK SMILES CC(=O)N[C@@H]1[C@@H](O)C[C@](OC[C@H]2O[C@@H](O[C@H]3[C@H](O)[C@@H](O)[C@H](OCCN=[N+]=[N-])O[C@@H]3CO)[C@H](O)[C@@H](O)[C@H]2O)(C(=O)O)O[C@H]1C(O)[C@H](O)CNC(=O)OCc1cn(CCCCCC(=O)O)nn1
REMARK SMILES IDX 47 1 45 2 43 3 42 4 9 5 8 6 41 7 6 8 5 9 10 10 11 11 12 12
REMARK SMILES IDX 14 13 13 14 32 15 34 16 36 17 15 18 16 19 29 20 28 21 21 22
REMARK SMILES IDX 17 23 19 24 30 25 31 26 22 28 23 29 24 30 25 31 26 32 27 33
REMARK SMILES IDX 18 34 20 36 33 38 35 40 37 42 38 44 39 45 40 46 7 48 4 50
REMARK SMILES IDX 2 51 1 53 3 54 44 55 46 57 48 59 49 60 50 62 51 63 52 64
REMARK SMILES IDX 53 65 54 66 65 67 55 68 64 69 56 70 57 71 58 72 59 73 60 74
REMARK SMILES IDX 61 75 62 76 63 77
REMARK H PARENT 31 27 18 35 20 37 33 39 35 41 37 43 40 47 7 49 4 52 44 56
REMARK H PARENT 46 58 48 61 63 78
REMARK Flexibility Score: inf
ROOT
ATOM      1  C   UNL     1      20.783  38.534   9.290  1.00  0.00     0.154 C 
ENDROOT
BRANCH   1   2
ATOM      2  C   UNL     1      20.501  37.148   8.763  1.00  0.00     0.165 C 
BRANCH   2   3
ATOM      3  C   UNL     1      21.079  36.185   9.748  1.00  0.00     0.176 C 
BRANCH   3   4
ATOM      4  C   UNL     1      22.553  36.255   9.946  1.00  0.00     0.178 C 
ATOM      5  C   UNL     1      24.545  36.625   8.961  1.00  0.00     0.272 C 
ATOM      6  C   UNL     1      24.989  36.851  10.370  1.00  0.00     0.113 C 
ATOM      7  O   UNL     1      23.311  36.008   8.814  1.00  0.00    -0.332 OA
ATOM      8  C   UNL     1      24.426  35.972  11.421  1.00  0.00     0.145 C 
ATOM      9  C   UNL     1      23.100  35.322  11.005  1.00  0.00     0.142 C 
BRANCH   5  10
ATOM     10  O   UNL     1      25.524  36.013   8.180  1.00  0.00    -0.338 OA
BRANCH  10  11
ATOM     11  C   UNL     1      26.148  34.926   8.700  1.00  0.00     0.199 C 
BRANCH  11  12
ATOM     12  C   UNL     1      27.638  35.148   8.513  1.00  0.00     0.179 C 
ATOM     13  C   UNL     1      29.348  36.584   8.394  1.00  0.00     0.282 C 
ATOM     14  O   UNL     1      28.101  36.342   9.043  1.00  0.00    -0.341 OA
ATOM     15  C   UNL     1      30.140  35.388   8.119  1.00  0.00     0.202 C 
ATOM     16  C   UNL     1      29.801  34.142   8.889  1.00  0.00     0.179 C 
ATOM     17  C   UNL     1      28.354  34.061   9.294  1.00  0.00     0.177 C 
BRANCH  13  18
ATOM     18  O   UNL     1      29.973  37.679   8.985  1.00  0.00    -0.341 OA
BRANCH  18  19
ATOM     19  C   UNL     1      29.461  38.884   8.677  1.00  0.00     0.184 C 
ATOM     20  C   UNL     1      30.503  39.892   8.300  1.00  0.00     0.178 C 
ATOM     21  O   UNL     1      29.802  40.922   7.639  1.00  0.00    -0.341 OA
ATOM     22  C   UNL     1      29.017  41.609   8.501  1.00  0.00     0.281 C 
ATOM     23  C   UNL     1      28.809  39.535   9.945  1.00  0.00     0.180 C 
ATOM     24  C   UNL     1      28.965  41.033   9.865  1.00  0.00     0.202 C 
BRANCH  20  25
ATOM     25  C   UNL     1      31.534  39.373   7.332  1.00  0.00     0.191 C 
BRANCH  25  26
ATOM     26  O   UNL     1      31.005  39.252   6.065  1.00  0.00    -0.394 OA
ATOM     27  H   UNL     1      30.959  38.283   5.850  1.00  0.00     0.210 HD
ENDBRANCH  25  26
ENDBRANCH  20  25
BRANCH  22  28
ATOM     28  O   UNL     1      27.725  41.846   8.014  1.00  0.00    -0.350 OA
BRANCH  28  29
ATOM     29  C   UNL     1      27.068  42.831   8.707  1.00  0.00     0.169 C 
BRANCH  29  30
ATOM     30  C   UNL     1      25.695  42.330   9.129  1.00  0.00     0.119 C 
BRANCH  30  31
ATOM     31  N   UNL     1      25.717  41.860  10.505  1.00  0.00    -0.092 NA
ATOM     32  N   UNL     1      26.141  42.612  11.403  1.00  0.00     0.001 N 
ATOM     33  N   UNL     1      26.929  43.076  12.229  1.00  0.00    -0.003 NA
ENDBRANCH  30  31
ENDBRANCH  29  30
ENDBRANCH  28  29
ENDBRANCH  22  28
BRANCH  23  34
ATOM     34  O   UNL     1      27.444  39.253   9.930  1.00  0.00    -0.387 OA
ATOM     35  H   UNL     1      26.940  40.091  10.145  1.00  0.00     0.211 HD
ENDBRANCH  23  34
BRANCH  24  36
ATOM     36  O   UNL     1      29.951  41.522  10.731  1.00  0.00    -0.385 OA
ATOM     37  H   UNL     1      30.724  40.909  10.808  1.00  0.00     0.211 HD
ENDBRANCH  24  36
ENDBRANCH  18  19
ENDBRANCH  13  18
BRANCH  15  38
ATOM     38  O   UNL     1      30.062  35.007   6.748  1.00  0.00    -0.385 OA
ATOM     39  H   UNL     1      30.927  34.687   6.435  1.00  0.00     0.211 HD
ENDBRANCH  15  38
BRANCH  16  40
ATOM     40  O   UNL     1      30.562  34.011  10.064  1.00  0.00    -0.387 OA
ATOM     41  H   UNL     1      30.031  33.729  10.831  1.00  0.00     0.211 HD
ENDBRANCH  16  40
BRANCH  17  42
ATOM     42  O   UNL     1      28.236  34.425  10.660  1.00  0.00    -0.387 OA
ATOM     43  H   UNL     1      28.170  35.432  10.652  1.00  0.00     0.211 HD
ENDBRANCH  17  42
ENDBRANCH  11  12
ENDBRANCH  10  11
ENDBRANCH   5  10
BRANCH   5  44
ATOM     44  C   UNL     1      24.370  37.974   8.355  1.00  0.00     0.364 C 
ATOM     45  O   UNL     1      24.403  39.004   9.065  1.00  0.00    -0.246 OA
BRANCH  44  46
ATOM     46  O   UNL     1      24.169  38.103   7.003  1.00  0.00    -0.477 OA
ATOM     47  H   UNL     1      23.306  37.787   6.527  1.00  0.00     0.296 HD
ENDBRANCH  44  46
ENDBRANCH   5  44
BRANCH   8  48
ATOM     48  O   UNL     1      25.312  35.047  11.966  1.00  0.00    -0.391 OA
ATOM     49  H   UNL     1      25.815  34.641  11.225  1.00  0.00     0.211 HD
ENDBRANCH   8  48
BRANCH   9  50
ATOM     50  N   UNL     1      22.244  35.109  12.119  1.00  0.00    -0.348 N 
ATOM     51  C   UNL     1      22.313  33.889  12.834  1.00  0.00     0.217 C 
ATOM     52  H   UNL     1      21.574  35.829  12.422  1.00  0.00     0.163 HD
ATOM     53  C   UNL     1      21.433  33.643  14.006  1.00  0.00     0.114 C 
ATOM     54  O   UNL     1      23.117  32.965  12.513  1.00  0.00    -0.275 OA
ENDBRANCH   9  50
ENDBRANCH   3   4
BRANCH   3  55
ATOM     55  O   UNL     1      20.728  34.854   9.426  1.00  0.00    -0.388 OA
ATOM     56  H   UNL     1      21.398  34.234   9.793  1.00  0.00     0.211 HD
ENDBRANCH   3  55
ENDBRANCH   2   3
BRANCH   2  57
ATOM     57  O   UNL     1      21.125  37.023   7.528  1.00  0.00    -0.388 OA
ATOM     58  H   UNL     1      20.466  37.300   6.842  1.00  0.00     0.211 HD
ENDBRANCH   2  57
ENDBRANCH   1   2
BRANCH   1  59
ATOM     59  N   UNL     1      21.100  39.494   8.281  1.00  0.00    -0.319 N 
ATOM     60  C   UNL     1      20.305  40.682   8.203  1.00  0.00     0.407 C 
ATOM     61  H   UNL     1      21.872  39.371   7.609  1.00  0.00     0.167 HD
ATOM     62  O   UNL     1      19.356  40.868   9.005  1.00  0.00    -0.225 OA
BRANCH  60  63
ATOM     63  O   UNL     1      20.540  41.655   7.259  1.00  0.00    -0.443 OA
BRANCH  63  64
ATOM     64  C   UNL     1      21.547  42.602   7.333  1.00  0.00     0.294 C 
BRANCH  64  65
ATOM     65  C   UNL     1      22.827  42.259   6.701  1.00  0.00     0.120 A 
ATOM     66  C   UNL     1      23.691  43.102   6.051  1.00  0.00     0.138 A 
ATOM     67  N   UNL     1      23.368  41.021   6.645  1.00  0.00    -0.132 NA
ATOM     68  N   UNL     1      24.721  42.371   5.620  1.00  0.00    -0.252 N 
ATOM     69  N   UNL     1      24.494  41.128   5.994  1.00  0.00    -0.067 NA
BRANCH  68  70
ATOM     70  C   UNL     1      25.874  42.872   4.885  1.00  0.00     0.146 C 
BRANCH  70  71
ATOM     71  C   UNL     1      26.186  41.883   3.763  1.00  0.00     0.024 C 
BRANCH  71  72
ATOM     72  C   UNL     1      27.543  41.269   3.936  1.00  0.00     0.002 C 
BRANCH  72  73
ATOM     73  C   UNL     1      27.418  39.776   4.046  1.00  0.00     0.012 C 
BRANCH  73  74
ATOM     74  C   UNL     1      27.530  39.273   5.447  1.00  0.00     0.122 C 
BRANCH  74  75
ATOM     75  C   UNL     1      27.788  37.806   5.429  1.00  0.00     0.303 C 
ATOM     76  O   UNL     1      28.936  37.377   5.180  1.00  0.00    -0.252 OA
BRANCH  75  77
ATOM     77  O   UNL     1      26.769  36.895   5.687  1.00  0.00    -0.481 OA
ATOM     78  H   UNL     1      25.846  37.041   5.274  1.00  0.00     0.296 HD
ENDBRANCH  75  77
ENDBRANCH  74  75
ENDBRANCH  73  74
ENDBRANCH  72  73
ENDBRANCH  71  72
ENDBRANCH  70  71
ENDBRANCH  68  70
ENDBRANCH  64  65
ENDBRANCH  63  64
ENDBRANCH  60  63
ENDBRANCH   1  59
TORSDOF 36
BEGIN_RES LYS A 131
REMARK  4 active torsions:
REMARK  status: ('A' for Active; 'I' for Inactive)
REMARK    1  A    between atoms: CA   and  CB  
REMARK    2  A    between atoms: CB   and  CG  
REMARK    3  A    between atoms: CG   and  CD  
REMARK    4  A    between atoms: CD   and  CE  
ROOT
ATOM      1  CA  LYS A 131      29.867  25.555  16.977  1.00 20.52     0.186 C 
ENDROOT
BRANCH   1   2
ATOM      2  CB  LYS A 131      28.345  25.722  17.026  1.00 20.94     0.034 C 
BRANCH   2   3
ATOM      3  CG  LYS A 131      27.599  24.439  16.695  1.00 22.96     0.005 C 
BRANCH   3   4
ATOM      4  CD  LYS A 131      27.000  23.800  17.918  1.00 24.33     0.041 C 
BRANCH   4   5
ATOM      5  CE  LYS A 131      25.588  23.319  17.601  1.00 26.91     0.338 C 
ATOM      6  NZ  LYS A 131      24.825  24.377  16.897  1.00 27.40     0.618 N 
ENDBRANCH   4   5
ENDBRANCH   3   4
ENDBRANCH   2   3
ENDBRANCH   1   2
END_RES LYS A 131
BEGIN_RES LYS A 135
REMARK  4 active torsions:
REMARK  status: ('A' for Active; 'I' for Inactive)
REMARK    5  A    between atoms: CA   and  CB  
REMARK    6  A    between atoms: CB   and  CG  
REMARK    7  A    between atoms: CG   and  CD  
REMARK    8  A    between atoms: CD   and  CE  
ROOT
ATOM      7  CA  LYS A 135      33.193  34.663   9.290  1.00 25.02     0.186 C 
ENDROOT
BRANCH   7   8
ATOM      8  CB  LYS A 135      32.060  35.360  10.034  1.00 26.63     0.034 C 
BRANCH   8   9
ATOM      9  CG  LYS A 135      32.533  36.415  11.000  1.00 29.45     0.005 C 
BRANCH   9  10
ATOM     10  CD  LYS A 135      32.524  35.882  12.424  1.00 32.00     0.041 C 
BRANCH  10  11
ATOM     11  CE  LYS A 135      31.123  35.933  13.003  1.00 34.25     0.338 C 
ATOM     12  NZ  LYS A 135      30.637  34.569  13.353  1.00 35.99     0.618 N 
ENDBRANCH  10  11
ENDBRANCH   9  10
ENDBRANCH   8   9
ENDBRANCH   7   8
END_RES LYS A 135
