REMARK VINA RESULT:    -4.239      2.879      6.936
REMARK INTER + INTRA:         -22.247
REMARK INTER:                 -10.890
REMARK INTRA:                 -11.358
REMARK UNBOUND:               -11.069
REMARK SMILES COCC(C(N)=O)n1cc(COC(=O)NC[C@@H](O)C(O)[C@@H]2O[C@@](OC[C@H]3O[C@@H](O[C@H]4[C@H](O)[C@@H](O)[C@H](OCCN=[N+]=[N-])O[C@@H]4CO)[C@H](O)[C@@H](O)[C@H]3O)(C(=O)O)C[C@H](O)[C@H]2NC(C)=O)nn1
REMARK SMILES IDX 23 1 55 2 56 3 58 4 21 5 22 6 24 7 25 8 26 9 28 10 27 11
REMARK SMILES IDX 46 12 48 13 50 14 29 15 30 16 43 17 42 18 35 19 31 20 33 21
REMARK SMILES IDX 44 22 45 23 36 25 37 26 38 27 39 28 40 29 41 30 32 31 34 33
REMARK SMILES IDX 47 35 49 37 51 39 52 41 53 42 54 43 57 45 19 47 20 48 17 50
REMARK SMILES IDX 18 51 16 53 15 54 13 55 14 57 12 58 11 59 10 60 9 61 63 62
REMARK SMILES IDX 8 63 64 64 4 65 3 66 2 67 1 68 5 69 7 70 6 71 59 74 60 75
REMARK SMILES IDX 61 77 62 78
REMARK H PARENT 45 24 32 32 34 34 47 36 49 38 51 40 54 44 57 46 20 49 18 52
REMARK H PARENT 15 56 6 72 6 73 59 76
REMARK Flexibility Score: inf
ROOT
ATOM      1  C   UNL     1      30.348  36.371  13.205  1.00  0.00     0.272 C 
ATOM      2  C   UNL     1      30.997  37.321  12.275  1.00  0.00     0.113 C 
ATOM      3  C   UNL     1      30.612  38.750  12.387  1.00  0.00     0.145 C 
ATOM      4  C   UNL     1      29.141  38.870  12.683  1.00  0.00     0.142 C 
ATOM      5  C   UNL     1      28.509  37.528  12.348  1.00  0.00     0.178 C 
ATOM      6  O   UNL     1      28.969  36.578  13.222  1.00  0.00    -0.332 OA
ENDROOT
BRANCH   1   7
ATOM      7  O   UNL     1      30.775  36.370  14.504  1.00  0.00    -0.338 OA
BRANCH   7   8
ATOM      8  C   UNL     1      29.912  36.791  15.462  1.00  0.00     0.199 C 
BRANCH   8   9
ATOM      9  C   UNL     1      30.593  36.968  16.826  1.00  0.00     0.179 C 
ATOM     10  C   UNL     1      30.970  34.849  17.698  1.00  0.00     0.282 C 
ATOM     11  O   UNL     1      30.205  36.006  17.716  1.00  0.00    -0.341 OA
ATOM     12  C   UNL     1      32.430  35.105  17.849  1.00  0.00     0.202 C 
ATOM     13  C   UNL     1      32.950  36.049  16.816  1.00  0.00     0.179 C 
ATOM     14  C   UNL     1      32.052  37.230  16.721  1.00  0.00     0.177 C 
BRANCH  10  15
ATOM     15  O   UNL     1      30.703  34.051  16.600  1.00  0.00    -0.341 OA
BRANCH  15  16
ATOM     16  C   UNL     1      29.623  33.206  16.851  1.00  0.00     0.184 C 
ATOM     17  C   UNL     1      29.941  31.981  17.620  1.00  0.00     0.178 C 
ATOM     18  O   UNL     1      28.808  31.295  17.983  1.00  0.00    -0.341 OA
ATOM     19  C   UNL     1      27.750  31.401  17.077  1.00  0.00     0.281 C 
ATOM     20  C   UNL     1      29.130  32.747  15.468  1.00  0.00     0.180 C 
ATOM     21  C   UNL     1      28.267  31.546  15.655  1.00  0.00     0.202 C 
BRANCH  17  22
ATOM     22  C   UNL     1      30.732  32.217  18.893  1.00  0.00     0.191 C 
BRANCH  22  23
ATOM     23  O   UNL     1      30.745  31.058  19.665  1.00  0.00    -0.394 OA
ATOM     24  H   UNL     1      29.892  30.566  19.611  1.00  0.00     0.210 HD
ENDBRANCH  22  23
ENDBRANCH  17  22
BRANCH  19  25
ATOM     25  O   UNL     1      26.924  32.399  17.455  1.00  0.00    -0.350 OA
BRANCH  25  26
ATOM     26  C   UNL     1      25.589  32.202  17.537  1.00  0.00     0.169 C 
BRANCH  26  27
ATOM     27  C   UNL     1      24.800  32.201  16.275  1.00  0.00     0.119 C 
BRANCH  27  28
ATOM     28  N   UNL     1      25.224  33.195  15.341  1.00  0.00    -0.092 NA
ATOM     29  N   UNL     1      25.238  32.947  14.139  1.00  0.00     0.001 N 
ATOM     30  N   UNL     1      24.840  32.951  12.962  1.00  0.00    -0.003 NA
ENDBRANCH  27  28
ENDBRANCH  26  27
ENDBRANCH  25  26
ENDBRANCH  19  25
BRANCH  20  31
ATOM     31  O   UNL     1      28.437  33.787  14.851  1.00  0.00    -0.387 OA
ATOM     32  H   UNL     1      28.840  33.896  13.959  1.00  0.00     0.211 HD
ENDBRANCH  20  31
BRANCH  21  33
ATOM     33  O   UNL     1      28.984  30.363  15.373  1.00  0.00    -0.385 OA
ATOM     34  H   UNL     1      29.835  30.603  14.906  1.00  0.00     0.211 HD
ENDBRANCH  21  33
ENDBRANCH  15  16
ENDBRANCH  10  15
BRANCH  12  35
ATOM     35  O   UNL     1      32.607  35.733  19.096  1.00  0.00    -0.385 OA
ATOM     36  H   UNL     1      31.994  36.492  19.195  1.00  0.00     0.211 HD
ENDBRANCH  12  35
BRANCH  13  37
ATOM     37  O   UNL     1      33.208  35.425  15.596  1.00  0.00    -0.387 OA
ATOM     38  H   UNL     1      33.660  36.102  15.024  1.00  0.00     0.211 HD
ENDBRANCH  13  37
BRANCH  14  39
ATOM     39  O   UNL     1      32.293  37.948  15.548  1.00  0.00    -0.387 OA
ATOM     40  H   UNL     1      31.567  38.605  15.383  1.00  0.00     0.211 HD
ENDBRANCH  14  39
ENDBRANCH   8   9
ENDBRANCH   7   8
ENDBRANCH   1   7
BRANCH   1  41
ATOM     41  C   UNL     1      30.505  34.996  12.609  1.00  0.00     0.364 C 
ATOM     42  O   UNL     1      29.517  34.298  12.311  1.00  0.00    -0.246 OA
BRANCH  41  43
ATOM     43  O   UNL     1      31.772  34.517  12.397  1.00  0.00    -0.477 OA
ATOM     44  H   UNL     1      31.984  33.809  11.712  1.00  0.00     0.296 HD
ENDBRANCH  41  43
ENDBRANCH   1  41
BRANCH   3  45
ATOM     45  O   UNL     1      31.391  39.481  13.280  1.00  0.00    -0.391 OA
ATOM     46  H   UNL     1      32.328  39.165  13.248  1.00  0.00     0.211 HD
ENDBRANCH   3  45
BRANCH   5  47
ATOM     47  C   UNL     1      27.001  37.634  12.464  1.00  0.00     0.176 C 
BRANCH  47  48
ATOM     48  O   UNL     1      26.392  37.982  11.296  1.00  0.00    -0.388 OA
ATOM     49  H   UNL     1      26.900  38.482  10.643  1.00  0.00     0.211 HD
ENDBRANCH  47  48
BRANCH  47  50
ATOM     50  C   UNL     1      26.429  36.346  12.991  1.00  0.00     0.165 C 
BRANCH  50  51
ATOM     51  O   UNL     1      26.549  35.401  11.942  1.00  0.00    -0.388 OA
ATOM     52  H   UNL     1      26.048  35.733  11.148  1.00  0.00     0.211 HD
ENDBRANCH  50  51
BRANCH  50  53
ATOM     53  C   UNL     1      24.979  36.403  13.336  1.00  0.00     0.154 C 
BRANCH  53  54
ATOM     54  N   UNL     1      24.077  35.959  12.325  1.00  0.00    -0.319 N 
ATOM     55  C   UNL     1      23.261  36.847  11.573  1.00  0.00     0.407 C 
ATOM     56  H   UNL     1      23.984  34.932  12.098  1.00  0.00     0.167 HD
ATOM     57  O   UNL     1      23.323  38.064  11.798  1.00  0.00    -0.225 OA
BRANCH  55  58
ATOM     58  O   UNL     1      22.385  36.386  10.584  1.00  0.00    -0.443 OA
BRANCH  58  59
ATOM     59  C   UNL     1      22.826  35.934   9.339  1.00  0.00     0.294 C 
BRANCH  59  60
ATOM     60  C   UNL     1      24.166  36.391   8.951  1.00  0.00     0.120 A 
ATOM     61  C   UNL     1      24.410  37.466   8.134  1.00  0.00     0.139 A 
ATOM     62  N   UNL     1      25.329  35.847   9.327  1.00  0.00    -0.132 NA
ATOM     63  N   UNL     1      25.739  37.551   8.028  1.00  0.00    -0.237 N 
ATOM     64  N   UNL     1      26.278  36.569   8.754  1.00  0.00    -0.066 NA
BRANCH  63  65
ATOM     65  C   UNL     1      26.456  38.547   7.255  1.00  0.00     0.223 C 
BRANCH  65  66
ATOM     66  C   UNL     1      27.065  39.533   8.198  1.00  0.00     0.197 C 
BRANCH  66  67
ATOM     67  O   UNL     1      26.919  40.825   7.758  1.00  0.00    -0.382 OA
ATOM     68  C   UNL     1      25.872  41.454   8.377  1.00  0.00     0.195 C 
ENDBRANCH  66  67
ENDBRANCH  65  66
BRANCH  65  69
ATOM     69  C   UNL     1      27.522  37.809   6.498  1.00  0.00     0.244 C 
ATOM     70  O   UNL     1      28.717  38.059   6.751  1.00  0.00    -0.273 OA
ATOM     71  N   UNL     1      27.136  36.855   5.523  1.00  0.00    -0.368 N 
ATOM     72  H   UNL     1      27.212  37.002   4.503  1.00  0.00     0.159 HD
ATOM     73  H   UNL     1      26.749  35.948   5.863  1.00  0.00     0.159 HD
ENDBRANCH  65  69
ENDBRANCH  63  65
ENDBRANCH  59  60
ENDBRANCH  58  59
ENDBRANCH  55  58
ENDBRANCH  53  54
ENDBRANCH  50  53
ENDBRANCH  47  50
ENDBRANCH   5  47
BRANCH   4  74
ATOM     74  N   UNL     1      28.536  39.959  11.920  1.00  0.00    -0.348 N 
ATOM     75  C   UNL     1      28.495  41.305  12.374  1.00  0.00     0.217 C 
ATOM     76  H   UNL     1      28.101  39.773  10.982  1.00  0.00     0.163 HD
ATOM     77  C   UNL     1      27.893  42.419  11.623  1.00  0.00     0.114 C 
ATOM     78  O   UNL     1      29.024  41.549  13.512  1.00  0.00    -0.275 OA
ENDBRANCH   4  74
TORSDOF 33
BEGIN_RES LYS A 131
REMARK  4 active torsions:
REMARK  status: ('A' for Active; 'I' for Inactive)
REMARK    1  A    between atoms: CA   and  CB  
REMARK    2  A    between atoms: CB   and  CG  
REMARK    3  A    between atoms: CG   and  CD  
REMARK    4  A    between atoms: CD   and  CE  
ROOT
ATOM      1  CA  LYS A 131      29.867  25.555  16.977  1.00 20.52     0.186 C 
ENDROOT
BRANCH   1   2
ATOM      2  CB  LYS A 131      28.345  25.722  17.026  1.00 20.94     0.034 C 
BRANCH   2   3
ATOM      3  CG  LYS A 131      27.601  24.404  16.877  1.00 22.96     0.005 C 
BRANCH   3   4
ATOM      4  CD  LYS A 131      26.656  24.154  18.019  1.00 24.33     0.041 C 
BRANCH   4   5
ATOM      5  CE  LYS A 131      25.359  23.555  17.485  1.00 26.91     0.338 C 
ATOM      6  NZ  LYS A 131      24.492  24.615  16.918  1.00 27.40     0.618 N 
ENDBRANCH   4   5
ENDBRANCH   3   4
ENDBRANCH   2   3
ENDBRANCH   1   2
END_RES LYS A 131
BEGIN_RES LYS A 135
REMARK  4 active torsions:
REMARK  status: ('A' for Active; 'I' for Inactive)
REMARK    5  A    between atoms: CA   and  CB  
REMARK    6  A    between atoms: CB   and  CG  
REMARK    7  A    between atoms: CG   and  CD  
REMARK    8  A    between atoms: CD   and  CE  
ROOT
ATOM      7  CA  LYS A 135      33.193  34.663   9.290  1.00 25.02     0.186 C 
ENDROOT
BRANCH   7   8
ATOM      8  CB  LYS A 135      32.060  35.360  10.034  1.00 26.63     0.034 C 
BRANCH   8   9
ATOM      9  CG  LYS A 135      30.856  35.641   9.172  1.00 29.45     0.005 C 
BRANCH   9  10
ATOM     10  CD  LYS A 135      30.337  34.359   8.540  1.00 32.00     0.041 C 
BRANCH  10  11
ATOM     11  CE  LYS A 135      28.833  34.427   8.357  1.00 34.25     0.338 C 
ATOM     12  NZ  LYS A 135      28.128  33.656   9.418  1.00 35.99     0.618 N 
ENDBRANCH  10  11
ENDBRANCH   9  10
ENDBRANCH   8   9
ENDBRANCH   7   8
END_RES LYS A 135
