REMARK VINA RESULT:    -4.130      2.732      8.381
REMARK INTER + INTRA:         -21.956
REMARK INTER:                 -10.648
REMARK INTRA:                 -11.308
REMARK UNBOUND:               -11.308
REMARK SMILES CC(=O)N[C@@H]1[C@@H](O)C[C@](OC[C@H]2O[C@@H](O[C@H]3[C@H](O)[C@@H](O)[C@H](OCCN=[N+]=[N-])O[C@@H]3CO)[C@H](O)[C@@H](O)[C@H]2O)(C(=O)O)O[C@H]1C(O)[C@H](O)CNC(=O)OCc1cn(CCN2CCCC2)nn1
REMARK SMILES IDX 9 1 8 2 6 3 5 4 42 5 41 6 10 7 11 8 12 9 14 10 13 11 32 12
REMARK SMILES IDX 34 13 36 14 15 15 16 16 29 17 28 18 21 19 17 20 19 21 30 22
REMARK SMILES IDX 31 23 22 25 23 26 24 27 25 28 26 29 27 30 18 31 20 33 33 35
REMARK SMILES IDX 35 37 37 39 38 41 39 42 40 43 7 45 43 47 44 48 45 50 46 51
REMARK SMILES IDX 47 53 48 54 49 55 50 57 51 58 52 59 53 60 54 61 64 62 55 63
REMARK SMILES IDX 63 64 56 65 57 66 58 67 59 68 62 69 60 70 61 71 4 72 2 73
REMARK SMILES IDX 1 75 3 76
REMARK H PARENT 31 24 18 32 20 34 33 36 35 38 37 40 40 44 7 46 44 49 46 52
REMARK H PARENT 48 56 4 74
REMARK Flexibility Score: inf
ROOT
ATOM      1  C   UNL     1      27.364  35.726  12.559  1.00  0.00     0.272 C 
ATOM      2  C   UNL     1      27.399  37.178  12.916  1.00  0.00     0.113 C 
ATOM      3  C   UNL     1      26.786  37.411  14.303  1.00  0.00     0.145 C 
ATOM      4  C   UNL     1      25.288  37.019  14.160  1.00  0.00     0.142 C 
ATOM      5  C   UNL     1      25.260  35.631  13.634  1.00  0.00     0.178 C 
ATOM      6  O   UNL     1      26.549  35.102  13.512  1.00  0.00    -0.332 OA
ENDROOT
BRANCH   1   7
ATOM      7  O   UNL     1      28.601  35.109  12.759  1.00  0.00    -0.338 OA
BRANCH   7   8
ATOM      8  C   UNL     1      29.713  35.841  12.550  1.00  0.00     0.199 C 
BRANCH   8   9
ATOM      9  C   UNL     1      30.681  35.807  13.729  1.00  0.00     0.179 C 
ATOM     10  C   UNL     1      30.941  35.051  15.879  1.00  0.00     0.282 C 
ATOM     11  O   UNL     1      30.393  34.812  14.647  1.00  0.00    -0.341 OA
ATOM     12  C   UNL     1      32.307  35.634  15.743  1.00  0.00     0.202 C 
ATOM     13  C   UNL     1      32.907  35.189  14.422  1.00  0.00     0.179 C 
ATOM     14  C   UNL     1      32.116  35.725  13.246  1.00  0.00     0.177 C 
BRANCH  10  15
ATOM     15  O   UNL     1      30.833  34.034  16.779  1.00  0.00    -0.341 OA
BRANCH  15  16
ATOM     16  C   UNL     1      29.877  33.113  16.712  1.00  0.00     0.184 C 
ATOM     17  C   UNL     1      29.053  32.863  17.959  1.00  0.00     0.178 C 
ATOM     18  O   UNL     1      27.835  32.321  17.537  1.00  0.00    -0.341 OA
ATOM     19  C   UNL     1      28.117  30.963  17.213  1.00  0.00     0.281 C 
ATOM     20  C   UNL     1      30.303  31.734  16.239  1.00  0.00     0.180 C 
ATOM     21  C   UNL     1      29.002  30.999  15.983  1.00  0.00     0.202 C 
BRANCH  17  22
ATOM     22  C   UNL     1      28.844  34.065  18.816  1.00  0.00     0.191 C 
BRANCH  22  23
ATOM     23  O   UNL     1      28.294  35.069  18.024  1.00  0.00    -0.394 OA
ATOM     24  H   UNL     1      28.881  35.874  18.038  1.00  0.00     0.210 HD
ENDBRANCH  22  23
ENDBRANCH  17  22
BRANCH  19  25
ATOM     25  O   UNL     1      26.926  30.419  16.853  1.00  0.00    -0.350 OA
BRANCH  25  26
ATOM     26  C   UNL     1      26.214  30.956  15.837  1.00  0.00     0.169 C 
BRANCH  26  27
ATOM     27  C   UNL     1      25.144  30.127  15.217  1.00  0.00     0.119 C 
BRANCH  27  28
ATOM     28  N   UNL     1      24.667  30.615  13.946  1.00  0.00    -0.092 NA
ATOM     29  N   UNL     1      24.082  29.851  13.190  1.00  0.00     0.001 N 
ATOM     30  N   UNL     1      23.436  29.007  12.561  1.00  0.00    -0.003 NA
ENDBRANCH  27  28
ENDBRANCH  26  27
ENDBRANCH  25  26
ENDBRANCH  19  25
BRANCH  20  31
ATOM     31  O   UNL     1      30.964  31.799  15.022  1.00  0.00    -0.387 OA
ATOM     32  H   UNL     1      31.536  31.031  14.830  1.00  0.00     0.211 HD
ENDBRANCH  20  31
BRANCH  21  33
ATOM     33  O   UNL     1      29.182  29.759  15.417  1.00  0.00    -0.385 OA
ATOM     34  H   UNL     1      28.388  29.317  15.072  1.00  0.00     0.211 HD
ENDBRANCH  21  33
ENDBRANCH  15  16
ENDBRANCH  10  15
BRANCH  12  35
ATOM     35  O   UNL     1      32.315  37.035  15.738  1.00  0.00    -0.385 OA
ATOM     36  H   UNL     1      31.874  37.381  14.908  1.00  0.00     0.211 HD
ENDBRANCH  12  35
BRANCH  13  37
ATOM     37  O   UNL     1      32.871  33.794  14.333  1.00  0.00    -0.387 OA
ATOM     38  H   UNL     1      31.976  33.497  13.974  1.00  0.00     0.211 HD
ENDBRANCH  13  37
BRANCH  14  39
ATOM     39  O   UNL     1      32.262  34.800  12.214  1.00  0.00    -0.387 OA
ATOM     40  H   UNL     1      32.383  33.917  12.671  1.00  0.00     0.211 HD
ENDBRANCH  14  39
ENDBRANCH   8   9
ENDBRANCH   7   8
ENDBRANCH   1   7
BRANCH   1  41
ATOM     41  C   UNL     1      26.846  35.448  11.194  1.00  0.00     0.364 C 
ATOM     42  O   UNL     1      26.753  34.234  10.834  1.00  0.00    -0.246 OA
BRANCH  41  43
ATOM     43  O   UNL     1      26.458  36.384  10.273  1.00  0.00    -0.477 OA
ATOM     44  H   UNL     1      25.570  36.488   9.838  1.00  0.00     0.296 HD
ENDBRANCH  41  43
ENDBRANCH   1  41
BRANCH   3  45
ATOM     45  O   UNL     1      27.322  36.562  15.239  1.00  0.00    -0.391 OA
ATOM     46  H   UNL     1      27.152  36.855  16.175  1.00  0.00     0.211 HD
ENDBRANCH   3  45
BRANCH   5  47
ATOM     47  C   UNL     1      24.585  34.701  14.615  1.00  0.00     0.176 C 
BRANCH  47  48
ATOM     48  O   UNL     1      24.438  33.402  14.167  1.00  0.00    -0.388 OA
ATOM     49  H   UNL     1      24.250  33.302  13.208  1.00  0.00     0.211 HD
ENDBRANCH  47  48
BRANCH  47  50
ATOM     50  C   UNL     1      24.996  34.742  16.035  1.00  0.00     0.165 C 
BRANCH  50  51
ATOM     51  O   UNL     1      26.266  34.305  16.327  1.00  0.00    -0.388 OA
ATOM     52  H   UNL     1      26.337  33.641  17.049  1.00  0.00     0.211 HD
ENDBRANCH  50  51
BRANCH  50  53
ATOM     53  C   UNL     1      23.932  34.497  17.054  1.00  0.00     0.154 C 
BRANCH  53  54
ATOM     54  N   UNL     1      22.915  33.611  16.624  1.00  0.00    -0.319 N 
ATOM     55  C   UNL     1      21.522  33.969  16.625  1.00  0.00     0.407 C 
ATOM     56  H   UNL     1      23.159  32.650  16.281  1.00  0.00     0.167 HD
ATOM     57  O   UNL     1      21.106  35.080  17.002  1.00  0.00    -0.225 OA
BRANCH  55  58
ATOM     58  O   UNL     1      20.563  33.056  16.185  1.00  0.00    -0.443 OA
BRANCH  58  59
ATOM     59  C   UNL     1      19.835  33.307  14.979  1.00  0.00     0.294 C 
BRANCH  59  60
ATOM     60  C   UNL     1      20.757  33.510  13.843  1.00  0.00     0.120 A 
ATOM     61  C   UNL     1      21.017  34.584  13.041  1.00  0.00     0.138 A 
ATOM     62  N   UNL     1      21.583  32.529  13.376  1.00  0.00    -0.132 NA
ATOM     63  N   UNL     1      21.950  34.259  12.147  1.00  0.00    -0.251 N 
ATOM     64  N   UNL     1      22.285  32.972  12.377  1.00  0.00    -0.067 NA
BRANCH  63  65
ATOM     65  C   UNL     1      22.546  35.037  11.107  1.00  0.00     0.161 C 
BRANCH  65  66
ATOM     66  C   UNL     1      21.683  36.119  10.572  1.00  0.00     0.108 C 
BRANCH  66  67
ATOM     67  N   UNL     1      21.935  36.642   9.296  1.00  0.00    -0.301 NA
ATOM     68  C   UNL     1      21.428  37.900   8.918  1.00  0.00     0.084 C 
ATOM     69  C   UNL     1      23.257  36.446   8.783  1.00  0.00     0.084 C 
ATOM     70  C   UNL     1      22.564  38.687   8.280  1.00  0.00     0.017 C 
ATOM     71  C   UNL     1      23.619  37.660   7.986  1.00  0.00     0.017 C 
ENDBRANCH  66  67
ENDBRANCH  65  66
ENDBRANCH  63  65
ENDBRANCH  59  60
ENDBRANCH  58  59
ENDBRANCH  55  58
ENDBRANCH  53  54
ENDBRANCH  50  53
ENDBRANCH  47  50
ENDBRANCH   5  47
BRANCH   4  72
ATOM     72  N   UNL     1      24.699  38.016  13.286  1.00  0.00    -0.348 N 
ATOM     73  C   UNL     1      23.300  38.265  13.198  1.00  0.00     0.217 C 
ATOM     74  H   UNL     1      25.299  38.602  12.677  1.00  0.00     0.163 HD
ATOM     75  C   UNL     1      22.798  39.319  12.248  1.00  0.00     0.114 C 
ATOM     76  O   UNL     1      22.523  37.614  13.899  1.00  0.00    -0.275 OA
ENDBRANCH   4  72
TORSDOF 32
BEGIN_RES LYS A 131
REMARK  4 active torsions:
REMARK  status: ('A' for Active; 'I' for Inactive)
REMARK    1  A    between atoms: CA   and  CB  
REMARK    2  A    between atoms: CB   and  CG  
REMARK    3  A    between atoms: CG   and  CD  
REMARK    4  A    between atoms: CD   and  CE  
ROOT
ATOM      1  CA  LYS A 131      29.867  25.555  16.977  1.00 20.52     0.186 C 
ENDROOT
BRANCH   1   2
ATOM      2  CB  LYS A 131      28.345  25.722  17.026  1.00 20.94     0.034 C 
BRANCH   2   3
ATOM      3  CG  LYS A 131      27.601  24.404  16.873  1.00 22.96     0.005 C 
BRANCH   3   4
ATOM      4  CD  LYS A 131      26.531  24.233  17.916  1.00 24.33     0.041 C 
BRANCH   4   5
ATOM      5  CE  LYS A 131      25.184  24.022  17.234  1.00 26.91     0.338 C 
ATOM      6  NZ  LYS A 131      24.159  23.613  18.223  1.00 27.40     0.618 N 
ENDBRANCH   4   5
ENDBRANCH   3   4
ENDBRANCH   2   3
ENDBRANCH   1   2
END_RES LYS A 131
BEGIN_RES LYS A 135
REMARK  4 active torsions:
REMARK  status: ('A' for Active; 'I' for Inactive)
REMARK    5  A    between atoms: CA   and  CB  
REMARK    6  A    between atoms: CB   and  CG  
REMARK    7  A    between atoms: CG   and  CD  
REMARK    8  A    between atoms: CD   and  CE  
ROOT
ATOM      7  CA  LYS A 135      33.193  34.663   9.290  1.00 25.02     0.186 C 
ENDROOT
BRANCH   7   8
ATOM      8  CB  LYS A 135      32.060  35.360  10.034  1.00 26.63     0.034 C 
BRANCH   8   9
ATOM      9  CG  LYS A 135      30.922  35.781   9.141  1.00 29.45     0.005 C 
BRANCH   9  10
ATOM     10  CD  LYS A 135      30.401  34.597   8.341  1.00 32.00     0.041 C 
BRANCH  10  11
ATOM     11  CE  LYS A 135      29.456  35.065   7.251  1.00 34.25     0.338 C 
ATOM     12  NZ  LYS A 135      28.039  34.992   7.702  1.00 35.99     0.618 N 
ENDBRANCH  10  11
ENDBRANCH   9  10
ENDBRANCH   8   9
ENDBRANCH   7   8
END_RES LYS A 135
