REMARK VINA RESULT:    -5.142      3.078      7.529
REMARK INTER + INTRA:         -25.572
REMARK INTER:                 -13.134
REMARK INTRA:                 -12.438
REMARK UNBOUND:                -9.760
REMARK SMILES CC(=O)N[C@@H]1[C@@H](O)C[C@](OC[C@H]2O[C@@H](O[C@H]3[C@H](O)[C@@H](O)[C@H](OCCN=[N+]=[N-])O[C@@H]3CO)[C@H](O)[C@@H](O)[C@H]2O)(C(=O)O)O[C@H]1C(O)[C@H](O)CNC(=O)OCc1cn(CCCCCCCCCCC(=O)O)nn1
REMARK SMILES IDX 51 1 49 2 48 3 50 5 47 6 45 7 43 8 42 9 9 10 8 11 41 12 6 13
REMARK SMILES IDX 5 14 10 15 11 16 12 17 14 18 13 19 32 20 34 21 36 22 15 23
REMARK SMILES IDX 16 24 29 25 28 26 21 27 17 28 19 29 30 30 31 31 22 33 23 34
REMARK SMILES IDX 24 35 25 36 26 37 27 38 18 39 20 41 33 43 35 45 37 47 38 49
REMARK SMILES IDX 39 50 40 51 7 53 4 55 2 56 1 58 3 59 44 60 46 62 52 64 53 65
REMARK SMILES IDX 54 66 70 67 55 68 69 69 56 70 57 71 58 72 59 73 60 74 61 75
REMARK SMILES IDX 62 76 63 77 64 78 65 79 66 80 67 81 68 82
REMARK H PARENT 48 4 31 32 18 40 20 42 33 44 35 46 37 48 40 52 7 54 4 57 44 61
REMARK H PARENT 46 63 68 83
REMARK Flexibility Score: inf
ROOT
ATOM      1  O   UNL     1      26.026  36.940  14.227  1.00  0.00    -0.443 OA
ENDROOT
BRANCH   1   2
ATOM      2  C   UNL     1      24.642  36.863  13.957  1.00  0.00     0.407 C 
ATOM      3  N   UNL     1      24.050  37.675  12.958  1.00  0.00    -0.319 N 
ATOM      4  H   UNL     1      24.667  38.345  12.426  1.00  0.00     0.167 HD
ATOM      5  O   UNL     1      23.905  36.074  14.591  1.00  0.00    -0.225 OA
BRANCH   3   6
ATOM      6  C   UNL     1      22.654  37.623  12.646  1.00  0.00     0.154 C 
BRANCH   6   7
ATOM      7  C   UNL     1      22.015  38.984  12.390  1.00  0.00     0.165 C 
BRANCH   7   8
ATOM      8  C   UNL     1      22.557  39.454  11.086  1.00  0.00     0.176 C 
BRANCH   8   9
ATOM      9  C   UNL     1      22.659  38.414   9.995  1.00  0.00     0.178 C 
ATOM     10  C   UNL     1      24.240  37.016   9.018  1.00  0.00     0.272 C 
ATOM     11  C   UNL     1      23.522  37.265   7.709  1.00  0.00     0.113 C 
ATOM     12  O   UNL     1      23.979  38.093   9.844  1.00  0.00    -0.332 OA
ATOM     13  C   UNL     1      22.916  38.628   7.603  1.00  0.00     0.145 C 
ATOM     14  C   UNL     1      21.938  38.812   8.745  1.00  0.00     0.142 C 
BRANCH  10  15
ATOM     15  O   UNL     1      25.623  36.885   8.808  1.00  0.00    -0.338 OA
BRANCH  15  16
ATOM     16  C   UNL     1      26.044  36.863   7.523  1.00  0.00     0.199 C 
BRANCH  16  17
ATOM     17  C   UNL     1      26.642  38.257   7.238  1.00  0.00     0.179 C 
ATOM     18  C   UNL     1      28.565  38.505   8.595  1.00  0.00     0.282 C 
ATOM     19  O   UNL     1      27.277  38.791   8.289  1.00  0.00    -0.341 OA
ATOM     20  C   UNL     1      29.318  37.849   7.501  1.00  0.00     0.202 C 
ATOM     21  C   UNL     1      28.889  38.459   6.172  1.00  0.00     0.179 C 
ATOM     22  C   UNL     1      27.410  38.232   5.935  1.00  0.00     0.177 C 
BRANCH  18  23
ATOM     23  O   UNL     1      28.536  37.754   9.798  1.00  0.00    -0.341 OA
BRANCH  23  24
ATOM     24  C   UNL     1      28.759  38.641  10.843  1.00  0.00     0.184 C 
ATOM     25  C   UNL     1      29.952  38.340  11.689  1.00  0.00     0.178 C 
ATOM     26  O   UNL     1      29.989  39.155  12.782  1.00  0.00    -0.341 OA
ATOM     27  C   UNL     1      29.143  40.193  12.903  1.00  0.00     0.281 C 
ATOM     28  C   UNL     1      27.550  38.631  11.793  1.00  0.00     0.180 C 
ATOM     29  C   UNL     1      27.689  39.865  12.654  1.00  0.00     0.202 C 
BRANCH  25  30
ATOM     30  C   UNL     1      31.268  38.429  10.937  1.00  0.00     0.191 C 
BRANCH  30  31
ATOM     31  O   UNL     1      31.424  39.592  10.229  1.00  0.00    -0.394 OA
ATOM     32  H   UNL     1      32.243  39.514   9.674  1.00  0.00     0.210 HD
ENDBRANCH  30  31
ENDBRANCH  25  30
BRANCH  27  33
ATOM     33  O   UNL     1      29.508  41.216  12.038  1.00  0.00    -0.350 OA
BRANCH  33  34
ATOM     34  C   UNL     1      28.641  42.306  12.116  1.00  0.00     0.169 C 
BRANCH  34  35
ATOM     35  C   UNL     1      28.572  43.067  10.822  1.00  0.00     0.119 C 
BRANCH  35  36
ATOM     36  N   UNL     1      28.193  42.139   9.754  1.00  0.00    -0.092 NA
ATOM     37  N   UNL     1      27.016  41.727   9.657  1.00  0.00     0.001 N 
ATOM     38  N   UNL     1      25.802  41.472   9.809  1.00  0.00    -0.003 NA
ENDBRANCH  35  36
ENDBRANCH  34  35
ENDBRANCH  33  34
ENDBRANCH  27  33
BRANCH  28  39
ATOM     39  O   UNL     1      26.347  38.663  11.120  1.00  0.00    -0.387 OA
ATOM     40  H   UNL     1      26.133  39.549  10.733  1.00  0.00     0.211 HD
ENDBRANCH  28  39
BRANCH  29  41
ATOM     41  O   UNL     1      27.106  39.581  13.885  1.00  0.00    -0.385 OA
ATOM     42  H   UNL     1      27.446  40.266  14.541  1.00  0.00     0.211 HD
ENDBRANCH  29  41
ENDBRANCH  23  24
ENDBRANCH  18  23
BRANCH  20  43
ATOM     43  O   UNL     1      30.697  38.089   7.574  1.00  0.00    -0.385 OA
ATOM     44  H   UNL     1      30.789  39.072   7.747  1.00  0.00     0.211 HD
ENDBRANCH  20  43
BRANCH  21  45
ATOM     45  O   UNL     1      29.619  37.910   5.120  1.00  0.00    -0.387 OA
ATOM     46  H   UNL     1      29.114  37.113   4.816  1.00  0.00     0.211 HD
ENDBRANCH  21  45
BRANCH  22  47
ATOM     47  O   UNL     1      27.264  37.014   5.317  1.00  0.00    -0.387 OA
ATOM     48  H   UNL     1      26.406  36.613   5.610  1.00  0.00     0.211 HD
ENDBRANCH  22  47
ENDBRANCH  16  17
ENDBRANCH  15  16
ENDBRANCH  10  15
BRANCH  10  49
ATOM     49  C   UNL     1      23.834  35.751   9.638  1.00  0.00     0.364 C 
ATOM     50  O   UNL     1      24.372  35.298  10.661  1.00  0.00    -0.246 OA
BRANCH  49  51
ATOM     51  O   UNL     1      22.809  34.998   9.091  1.00  0.00    -0.477 OA
ATOM     52  H   UNL     1      21.941  35.420   8.750  1.00  0.00     0.296 HD
ENDBRANCH  49  51
ENDBRANCH  10  49
BRANCH  13  53
ATOM     53  O   UNL     1      23.809  39.672   7.496  1.00  0.00    -0.391 OA
ATOM     54  H   UNL     1      24.406  39.612   6.697  1.00  0.00     0.211 HD
ENDBRANCH  13  53
BRANCH  14  55
ATOM     55  N   UNL     1      20.777  38.043   8.441  1.00  0.00    -0.348 N 
ATOM     56  C   UNL     1      19.450  38.416   8.795  1.00  0.00     0.217 C 
ATOM     57  H   UNL     1      20.862  37.134   7.924  1.00  0.00     0.163 HD
ATOM     58  C   UNL     1      18.298  37.566   8.445  1.00  0.00     0.114 C 
ATOM     59  O   UNL     1      19.295  39.487   9.410  1.00  0.00    -0.275 OA
ENDBRANCH  14  55
ENDBRANCH   8   9
BRANCH   8  60
ATOM     60  O   UNL     1      23.710  40.158  11.309  1.00  0.00    -0.388 OA
ATOM     61  H   UNL     1      24.531  39.702  11.066  1.00  0.00     0.211 HD
ENDBRANCH   8  60
ENDBRANCH   7   8
BRANCH   7  62
ATOM     62  O   UNL     1      22.332  39.790  13.478  1.00  0.00    -0.388 OA
ATOM     63  H   UNL     1      23.304  39.816  13.652  1.00  0.00     0.211 HD
ENDBRANCH   7  62
ENDBRANCH   6   7
ENDBRANCH   3   6
ENDBRANCH   1   2
BRANCH   1  64
ATOM     64  C   UNL     1      26.585  35.871  15.003  1.00  0.00     0.294 C 
BRANCH  64  65
ATOM     65  C   UNL     1      27.902  35.549  14.413  1.00  0.00     0.120 A 
ATOM     66  C   UNL     1      29.073  36.240  14.666  1.00  0.00     0.138 A 
ATOM     67  N   UNL     1      28.208  34.561  13.562  1.00  0.00    -0.132 NA
ATOM     68  N   UNL     1      30.036  35.630  13.949  1.00  0.00    -0.252 N 
ATOM     69  N   UNL     1      29.480  34.602  13.279  1.00  0.00    -0.067 NA
BRANCH  68  70
ATOM     70  C   UNL     1      31.427  35.948  13.860  1.00  0.00     0.146 C 
BRANCH  70  71
ATOM     71  C   UNL     1      32.369  34.864  14.252  1.00  0.00     0.024 C 
BRANCH  71  72
ATOM     72  C   UNL     1      32.563  34.655  15.713  1.00  0.00     0.002 C 
BRANCH  72  73
ATOM     73  C   UNL     1      31.686  33.630  16.344  1.00  0.00     0.000 C 
BRANCH  73  74
ATOM     74  C   UNL     1      31.344  32.458  15.490  1.00  0.00     0.000 C 
BRANCH  74  75
ATOM     75  C   UNL     1      30.588  31.435  16.290  1.00  0.00     0.000 C 
BRANCH  75  76
ATOM     76  C   UNL     1      30.255  31.902  17.691  1.00  0.00     0.000 C 
BRANCH  76  77
ATOM     77  C   UNL     1      29.580  30.860  18.520  1.00  0.00     0.001 C 
BRANCH  77  78
ATOM     78  C   UNL     1      29.983  30.846  19.962  1.00  0.00     0.012 C 
BRANCH  78  79
ATOM     79  C   UNL     1      31.127  29.859  20.127  1.00  0.00     0.122 C 
BRANCH  79  80
ATOM     80  C   UNL     1      30.675  28.740  20.971  1.00  0.00     0.303 C 
ATOM     81  O   UNL     1      29.744  27.996  20.598  1.00  0.00    -0.252 OA
BRANCH  80  82
ATOM     82  O   UNL     1      31.262  28.479  22.201  1.00  0.00    -0.481 OA
ATOM     83  H   UNL     1      32.222  28.201  22.288  1.00  0.00     0.296 HD
ENDBRANCH  80  82
ENDBRANCH  79  80
ENDBRANCH  78  79
ENDBRANCH  77  78
ENDBRANCH  76  77
ENDBRANCH  75  76
ENDBRANCH  74  75
ENDBRANCH  73  74
ENDBRANCH  72  73
ENDBRANCH  71  72
ENDBRANCH  70  71
ENDBRANCH  68  70
ENDBRANCH  64  65
ENDBRANCH   1  64
TORSDOF 41
BEGIN_RES LYS A 131
REMARK  4 active torsions:
REMARK  status: ('A' for Active; 'I' for Inactive)
REMARK    1  A    between atoms: CA   and  CB  
REMARK    2  A    between atoms: CB   and  CG  
REMARK    3  A    between atoms: CG   and  CD  
REMARK    4  A    between atoms: CD   and  CE  
ROOT
ATOM      1  CA  LYS A 131      29.867  25.555  16.977  1.00 20.52     0.186 C 
ENDROOT
BRANCH   1   2
ATOM      2  CB  LYS A 131      28.345  25.722  17.026  1.00 20.94     0.034 C 
BRANCH   2   3
ATOM      3  CG  LYS A 131      27.601  24.402  16.890  1.00 22.96     0.005 C 
BRANCH   3   4
ATOM      4  CD  LYS A 131      26.160  24.519  17.302  1.00 24.33     0.041 C 
BRANCH   4   5
ATOM      5  CE  LYS A 131      25.886  23.578  18.470  1.00 26.91     0.338 C 
ATOM      6  NZ  LYS A 131      25.500  24.347  19.677  1.00 27.40     0.618 N 
ENDBRANCH   4   5
ENDBRANCH   3   4
ENDBRANCH   2   3
ENDBRANCH   1   2
END_RES LYS A 131
BEGIN_RES LYS A 135
REMARK  4 active torsions:
REMARK  status: ('A' for Active; 'I' for Inactive)
REMARK    5  A    between atoms: CA   and  CB  
REMARK    6  A    between atoms: CB   and  CG  
REMARK    7  A    between atoms: CG   and  CD  
REMARK    8  A    between atoms: CD   and  CE  
ROOT
ATOM      7  CA  LYS A 135      33.193  34.663   9.290  1.00 25.02     0.186 C 
ENDROOT
BRANCH   7   8
ATOM      8  CB  LYS A 135      32.060  35.360  10.034  1.00 26.63     0.034 C 
BRANCH   8   9
ATOM      9  CG  LYS A 135      30.748  34.621   9.963  1.00 29.45     0.005 C 
BRANCH   9  10
ATOM     10  CD  LYS A 135      30.321  34.425   8.517  1.00 32.00     0.041 C 
BRANCH  10  11
ATOM     11  CE  LYS A 135      28.809  34.458   8.399  1.00 34.25     0.338 C 
ATOM     12  NZ  LYS A 135      28.165  33.846   9.595  1.00 35.99     0.618 N 
ENDBRANCH  10  11
ENDBRANCH   9  10
ENDBRANCH   8   9
ENDBRANCH   7   8
END_RES LYS A 135
