REMARK VINA RESULT:    -5.672      3.862      8.768
REMARK INTER + INTRA:         -23.371
REMARK INTER:                 -10.267
REMARK INTRA:                 -13.103
REMARK UNBOUND:                -9.408
REMARK SMILES CC(=O)N[C@@H]1[C@@H](O)C[C@](OC[C@H]2O[C@@H](O[C@H]3[C@H](O)[C@@H](O)[C@H](OCCN=[N+]=[N-])O[C@@H]3CO)[C@H](O)[C@@H](O)[C@H]2O)(C(=O)O)O[C@H]1C(O)[C@H](O)CNC(=O)OCc1cn(-c2cccc(Cl)c2)nn1
REMARK SMILES IDX 9 1 8 2 6 3 5 4 42 5 41 6 10 7 11 8 12 9 14 10 13 11 32 12
REMARK SMILES IDX 34 13 36 14 15 15 16 16 29 17 28 18 21 19 17 20 19 21 30 22
REMARK SMILES IDX 31 23 22 25 23 26 24 27 25 28 26 29 27 30 18 31 20 33 33 35
REMARK SMILES IDX 35 37 37 39 38 41 39 42 40 43 7 45 43 47 44 48 45 50 46 51
REMARK SMILES IDX 47 53 48 54 49 55 50 57 51 58 52 59 53 60 54 61 64 62 55 63
REMARK SMILES IDX 63 64 56 65 57 66 62 67 58 68 60 69 59 70 61 71 4 72 2 73
REMARK SMILES IDX 1 75 3 76
REMARK H PARENT 31 24 18 32 20 34 33 36 35 38 37 40 40 44 7 46 44 49 46 52
REMARK H PARENT 48 56 4 74
REMARK Flexibility Score: inf
ROOT
ATOM      1  C   UNL     1      24.450  34.830  12.698  1.00  0.00     0.272 C 
ATOM      2  C   UNL     1      24.739  33.532  13.308  1.00  0.00     0.113 C 
ATOM      3  C   UNL     1      25.094  33.479  14.756  1.00  0.00     0.145 C 
ATOM      4  C   UNL     1      25.164  34.838  15.406  1.00  0.00     0.142 C 
ATOM      5  C   UNL     1      25.726  35.767  14.318  1.00  0.00     0.178 C 
ATOM      6  O   UNL     1      24.679  35.971  13.469  1.00  0.00    -0.332 OA
ENDROOT
BRANCH   1   7
ATOM      7  O   UNL     1      23.261  35.043  12.070  1.00  0.00    -0.338 OA
BRANCH   7   8
ATOM      8  C   UNL     1      22.606  36.203  12.070  1.00  0.00     0.199 C 
BRANCH   8   9
ATOM      9  C   UNL     1      21.773  36.600  10.896  1.00  0.00     0.179 C 
ATOM     10  C   UNL     1      21.797  37.918   9.000  1.00  0.00     0.282 C 
ATOM     11  O   UNL     1      22.576  37.385  10.042  1.00  0.00    -0.341 OA
ATOM     12  C   UNL     1      21.226  36.795   8.190  1.00  0.00     0.202 C 
ATOM     13  C   UNL     1      20.555  35.689   8.942  1.00  0.00     0.179 C 
ATOM     14  C   UNL     1      21.434  35.309  10.114  1.00  0.00     0.177 C 
BRANCH  10  15
ATOM     15  O   UNL     1      22.692  38.580   8.202  1.00  0.00    -0.341 OA
BRANCH  15  16
ATOM     16  C   UNL     1      24.027  38.602   8.603  1.00  0.00     0.184 C 
ATOM     17  C   UNL     1      24.565  39.927   8.884  1.00  0.00     0.178 C 
ATOM     18  O   UNL     1      25.796  40.173   8.323  1.00  0.00    -0.341 OA
ATOM     19  C   UNL     1      26.004  39.585   7.079  1.00  0.00     0.281 C 
ATOM     20  C   UNL     1      24.737  37.659   7.695  1.00  0.00     0.180 C 
ATOM     21  C   UNL     1      26.137  38.100   7.400  1.00  0.00     0.202 C 
BRANCH  17  22
ATOM     22  C   UNL     1      24.783  40.118  10.395  1.00  0.00     0.191 C 
BRANCH  22  23
ATOM     23  O   UNL     1      24.823  38.822  10.969  1.00  0.00    -0.394 OA
ATOM     24  H   UNL     1      24.607  38.890  11.917  1.00  0.00     0.210 HD
ENDBRANCH  22  23
ENDBRANCH  17  22
BRANCH  19  25
ATOM     25  O   UNL     1      27.176  40.061   6.564  1.00  0.00    -0.350 OA
BRANCH  25  26
ATOM     26  C   UNL     1      28.039  40.652   7.450  1.00  0.00     0.169 C 
BRANCH  26  27
ATOM     27  C   UNL     1      29.432  40.081   7.467  1.00  0.00     0.119 C 
BRANCH  27  28
ATOM     28  N   UNL     1      29.396  38.888   8.327  1.00  0.00    -0.092 NA
ATOM     29  N   UNL     1      29.033  39.073   9.508  1.00  0.00     0.001 N 
ATOM     30  N   UNL     1      28.314  39.088  10.524  1.00  0.00    -0.003 NA
ENDBRANCH  27  28
ENDBRANCH  26  27
ENDBRANCH  25  26
ENDBRANCH  19  25
BRANCH  20  31
ATOM     31  O   UNL     1      24.715  36.356   8.229  1.00  0.00    -0.387 OA
ATOM     32  H   UNL     1      24.261  35.798   7.549  1.00  0.00     0.211 HD
ENDBRANCH  20  31
BRANCH  21  33
ATOM     33  O   UNL     1      26.576  37.415   6.262  1.00  0.00    -0.385 OA
ATOM     34  H   UNL     1      27.543  37.345   6.225  1.00  0.00     0.211 HD
ENDBRANCH  21  33
ENDBRANCH  15  16
ENDBRANCH  10  15
BRANCH  12  35
ATOM     35  O   UNL     1      20.268  37.260   7.276  1.00  0.00    -0.385 OA
ATOM     36  H   UNL     1      19.390  37.389   7.700  1.00  0.00     0.211 HD
ENDBRANCH  12  35
BRANCH  13  37
ATOM     37  O   UNL     1      20.475  34.574   8.106  1.00  0.00    -0.387 OA
ATOM     38  H   UNL     1      20.023  34.738   7.261  1.00  0.00     0.211 HD
ENDBRANCH  13  37
BRANCH  14  39
ATOM     39  O   UNL     1      22.677  34.936   9.550  1.00  0.00    -0.387 OA
ATOM     40  H   UNL     1      22.811  35.292   8.659  1.00  0.00     0.211 HD
ENDBRANCH  14  39
ENDBRANCH   8   9
ENDBRANCH   7   8
ENDBRANCH   1   7
BRANCH   1  41
ATOM     41  C   UNL     1      25.474  34.997  11.565  1.00  0.00     0.364 C 
ATOM     42  O   UNL     1      26.317  34.128  11.284  1.00  0.00    -0.246 OA
BRANCH  41  43
ATOM     43  O   UNL     1      25.461  36.178  10.813  1.00  0.00    -0.477 OA
ATOM     44  H   UNL     1      24.670  36.820  10.942  1.00  0.00     0.296 HD
ENDBRANCH  41  43
ENDBRANCH   1  41
BRANCH   3  45
ATOM     45  O   UNL     1      24.258  32.672  15.508  1.00  0.00    -0.391 OA
ATOM     46  H   UNL     1      24.665  32.406  16.365  1.00  0.00     0.211 HD
ENDBRANCH   3  45
BRANCH   5  47
ATOM     47  C   UNL     1      26.328  37.024  14.920  1.00  0.00     0.176 C 
BRANCH  47  48
ATOM     48  O   UNL     1      27.687  36.673  15.132  1.00  0.00    -0.388 OA
ATOM     49  H   UNL     1      28.054  36.386  14.243  1.00  0.00     0.211 HD
ENDBRANCH  47  48
BRANCH  47  50
ATOM     50  C   UNL     1      26.347  38.109  13.865  1.00  0.00     0.165 C 
BRANCH  50  51
ATOM     51  O   UNL     1      26.875  37.607  12.687  1.00  0.00    -0.388 OA
ATOM     52  H   UNL     1      26.399  37.910  11.882  1.00  0.00     0.211 HD
ENDBRANCH  50  51
BRANCH  50  53
ATOM     53  C   UNL     1      27.274  39.237  14.331  1.00  0.00     0.154 C 
BRANCH  53  54
ATOM     54  N   UNL     1      28.536  39.215  13.646  1.00  0.00    -0.319 N 
ATOM     55  C   UNL     1      29.796  39.054  14.242  1.00  0.00     0.407 C 
ATOM     56  H   UNL     1      28.520  39.331  12.583  1.00  0.00     0.167 HD
ATOM     57  O   UNL     1      29.887  38.889  15.482  1.00  0.00    -0.225 OA
BRANCH  55  58
ATOM     58  O   UNL     1      30.995  39.072  13.475  1.00  0.00    -0.443 OA
BRANCH  58  59
ATOM     59  C   UNL     1      31.313  37.976  12.659  1.00  0.00     0.294 C 
BRANCH  59  60
ATOM     60  C   UNL     1      30.533  36.748  12.962  1.00  0.00     0.121 A 
ATOM     61  C   UNL     1      30.864  35.735  13.868  1.00  0.00     0.144 A 
ATOM     62  N   UNL     1      29.368  36.334  12.438  1.00  0.00    -0.131 NA
ATOM     63  N   UNL     1      29.915  34.782  13.850  1.00  0.00    -0.220 N 
ATOM     64  N   UNL     1      29.013  35.157  12.981  1.00  0.00    -0.062 NA
BRANCH  63  65
ATOM     65  C   UNL     1      29.974  33.614  14.657  1.00  0.00     0.068 A 
ATOM     66  C   UNL     1      31.149  33.028  15.069  1.00  0.00     0.028 A 
ATOM     67  C   UNL     1      28.790  32.987  15.083  1.00  0.00     0.049 A 
ATOM     68  C   UNL     1      31.154  31.883  15.860  1.00  0.00     0.004 A 
ATOM     69  C   UNL     1      28.798  31.856  15.863  1.00  0.00     0.043 A 
ATOM     70  C   UNL     1      29.982  31.282  16.266  1.00  0.00     0.020 A 
ATOM     71  Cl  UNL     1      27.307  31.086  16.386  1.00  0.00    -0.084 Cl
ENDBRANCH  63  65
ENDBRANCH  59  60
ENDBRANCH  58  59
ENDBRANCH  55  58
ENDBRANCH  53  54
ENDBRANCH  50  53
ENDBRANCH  47  50
ENDBRANCH   5  47
BRANCH   4  72
ATOM     72  N   UNL     1      25.926  34.848  16.610  1.00  0.00    -0.348 N 
ATOM     73  C   UNL     1      25.303  35.050  17.892  1.00  0.00     0.217 C 
ATOM     74  H   UNL     1      26.964  34.710  16.665  1.00  0.00     0.163 HD
ATOM     75  C   UNL     1      26.066  35.064  19.148  1.00  0.00     0.114 C 
ATOM     76  O   UNL     1      24.065  35.220  17.924  1.00  0.00    -0.275 OA
ENDBRANCH   4  72
TORSDOF 30
BEGIN_RES LYS A 131
REMARK  4 active torsions:
REMARK  status: ('A' for Active; 'I' for Inactive)
REMARK    1  A    between atoms: CA   and  CB  
REMARK    2  A    between atoms: CB   and  CG  
REMARK    3  A    between atoms: CG   and  CD  
REMARK    4  A    between atoms: CD   and  CE  
ROOT
ATOM      1  CA  LYS A 131      29.867  25.555  16.977  1.00 20.52     0.186 C 
ENDROOT
BRANCH   1   2
ATOM      2  CB  LYS A 131      28.345  25.722  17.026  1.00 20.94     0.034 C 
BRANCH   2   3
ATOM      3  CG  LYS A 131      27.601  24.403  16.888  1.00 22.96     0.005 C 
BRANCH   3   4
ATOM      4  CD  LYS A 131      26.156  24.522  17.287  1.00 24.33     0.041 C 
BRANCH   4   5
ATOM      5  CE  LYS A 131      26.065  25.069  18.708  1.00 26.91     0.338 C 
ATOM      6  NZ  LYS A 131      25.471  24.059  19.615  1.00 27.40     0.618 N 
ENDBRANCH   4   5
ENDBRANCH   3   4
ENDBRANCH   2   3
ENDBRANCH   1   2
END_RES LYS A 131
BEGIN_RES LYS A 135
REMARK  4 active torsions:
REMARK  status: ('A' for Active; 'I' for Inactive)
REMARK    5  A    between atoms: CA   and  CB  
REMARK    6  A    between atoms: CB   and  CG  
REMARK    7  A    between atoms: CG   and  CD  
REMARK    8  A    between atoms: CD   and  CE  
ROOT
ATOM      7  CA  LYS A 135      33.193  34.663   9.290  1.00 25.02     0.186 C 
ENDROOT
BRANCH   7   8
ATOM      8  CB  LYS A 135      32.060  35.360  10.034  1.00 26.63     0.034 C 
BRANCH   8   9
ATOM      9  CG  LYS A 135      30.699  34.786   9.734  1.00 29.45     0.005 C 
BRANCH   9  10
ATOM     10  CD  LYS A 135      30.555  34.496   8.248  1.00 32.00     0.041 C 
BRANCH  10  11
ATOM     11  CE  LYS A 135      29.333  35.196   7.685  1.00 34.25     0.338 C 
ATOM     12  NZ  LYS A 135      28.091  34.742   8.371  1.00 35.99     0.618 N 
ENDBRANCH  10  11
ENDBRANCH   9  10
ENDBRANCH   8   9
ENDBRANCH   7   8
END_RES LYS A 135
