REMARK VINA RESULT:    -5.530      5.800     11.489
REMARK INTER + INTRA:         -21.840
REMARK INTER:                 -11.833
REMARK INTRA:                 -10.006
REMARK UNBOUND:                -8.226
REMARK SMILES CC(=O)N[C@@H]1[C@@H](O)C[C@](OC[C@H]2O[C@@H](O[C@H]3[C@H](O)[C@@H](O)[C@H](OCCN=[N+]=[N-])O[C@@H]3CO)[C@H](O)[C@@H](O)[C@H]2O)(C(=O)O)O[C@H]1C(O)[C@H](O)CNC(=O)OCc1cn(-c2ccccc2Br)nn1
REMARK SMILES IDX 9 1 8 2 6 3 5 4 42 5 41 6 10 7 11 8 12 9 14 10 13 11 32 12
REMARK SMILES IDX 34 13 36 14 15 15 16 16 29 17 28 18 21 19 17 20 19 21 30 22
REMARK SMILES IDX 31 23 22 25 23 26 24 27 25 28 26 29 27 30 18 31 20 33 33 35
REMARK SMILES IDX 35 37 37 39 38 41 39 42 40 43 7 45 43 47 44 48 45 50 46 51
REMARK SMILES IDX 47 53 48 54 49 55 50 57 51 58 52 59 53 60 54 61 64 62 55 63
REMARK SMILES IDX 63 64 56 65 57 66 61 67 58 68 60 69 62 70 59 71 4 72 2 73
REMARK SMILES IDX 1 75 3 76
REMARK H PARENT 31 24 18 32 20 34 33 36 35 38 37 40 40 44 7 46 44 49 46 52
REMARK H PARENT 48 56 4 74
REMARK Flexibility Score: inf
ROOT
ATOM      1  C   UNL     1      30.590  28.967  21.423  1.00  0.00     0.272 C 
ATOM      2  C   UNL     1      30.933  29.023  22.864  1.00  0.00     0.113 C 
ATOM      3  C   UNL     1      32.286  29.613  23.095  1.00  0.00     0.145 C 
ATOM      4  C   UNL     1      32.602  30.835  22.309  1.00  0.00     0.142 C 
ATOM      5  C   UNL     1      31.629  31.065  21.207  1.00  0.00     0.178 C 
ATOM      6  O   UNL     1      31.075  29.977  20.621  1.00  0.00    -0.332 OA
ENDROOT
BRANCH   1   7
ATOM      7  O   UNL     1      29.238  28.926  21.134  1.00  0.00    -0.338 OA
BRANCH   7   8
ATOM      8  C   UNL     1      28.372  29.188  22.141  1.00  0.00     0.199 C 
BRANCH   8   9
ATOM      9  C   UNL     1      27.018  28.545  21.752  1.00  0.00     0.179 C 
ATOM     10  C   UNL     1      25.551  28.603  19.968  1.00  0.00     0.282 C 
ATOM     11  O   UNL     1      26.346  29.281  20.853  1.00  0.00    -0.341 OA
ATOM     12  C   UNL     1      24.829  27.435  20.601  1.00  0.00     0.202 C 
ATOM     13  C   UNL     1      25.810  26.485  21.256  1.00  0.00     0.179 C 
ATOM     14  C   UNL     1      27.179  27.123  21.390  1.00  0.00     0.177 C 
BRANCH  10  15
ATOM     15  O   UNL     1      26.215  28.248  18.803  1.00  0.00    -0.341 OA
BRANCH  15  16
ATOM     16  C   UNL     1      26.419  29.284  17.922  1.00  0.00     0.184 C 
ATOM     17  C   UNL     1      25.727  29.113  16.592  1.00  0.00     0.178 C 
ATOM     18  O   UNL     1      25.679  30.371  16.010  1.00  0.00    -0.341 OA
ATOM     19  C   UNL     1      26.882  30.971  15.822  1.00  0.00     0.281 C 
ATOM     20  C   UNL     1      27.895  29.422  17.567  1.00  0.00     0.180 C 
ATOM     21  C   UNL     1      28.068  30.391  16.472  1.00  0.00     0.202 C 
BRANCH  17  22
ATOM     22  C   UNL     1      24.347  28.550  16.674  1.00  0.00     0.191 C 
BRANCH  22  23
ATOM     23  O   UNL     1      23.616  28.977  15.569  1.00  0.00    -0.394 OA
ATOM     24  H   UNL     1      22.674  28.769  15.696  1.00  0.00     0.210 HD
ENDBRANCH  22  23
ENDBRANCH  17  22
BRANCH  19  25
ATOM     25  O   UNL     1      26.735  32.304  16.273  1.00  0.00    -0.350 OA
BRANCH  25  26
ATOM     26  C   UNL     1      25.497  32.829  16.029  1.00  0.00     0.169 C 
BRANCH  26  27
ATOM     27  C   UNL     1      25.457  33.954  15.042  1.00  0.00     0.119 C 
BRANCH  27  28
ATOM     28  N   UNL     1      25.390  33.359  13.716  1.00  0.00    -0.092 NA
ATOM     29  N   UNL     1      24.525  32.535  13.457  1.00  0.00     0.001 N 
ATOM     30  N   UNL     1      23.625  31.762  13.154  1.00  0.00    -0.003 NA
ENDBRANCH  27  28
ENDBRANCH  26  27
ENDBRANCH  25  26
ENDBRANCH  19  25
BRANCH  20  31
ATOM     31  O   UNL     1      28.649  29.802  18.664  1.00  0.00    -0.387 OA
ATOM     32  H   UNL     1      28.108  30.160  19.406  1.00  0.00     0.211 HD
ENDBRANCH  20  31
BRANCH  21  33
ATOM     33  O   UNL     1      28.910  29.751  15.515  1.00  0.00    -0.385 OA
ATOM     34  H   UNL     1      29.725  29.398  15.944  1.00  0.00     0.211 HD
ENDBRANCH  21  33
ENDBRANCH  15  16
ENDBRANCH  10  15
BRANCH  12  35
ATOM     35  O   UNL     1      23.836  27.862  21.484  1.00  0.00    -0.385 OA
ATOM     36  H   UNL     1      23.872  27.367  22.338  1.00  0.00     0.211 HD
ENDBRANCH  12  35
BRANCH  13  37
ATOM     37  O   UNL     1      25.835  25.268  20.604  1.00  0.00    -0.387 OA
ATOM     38  H   UNL     1      25.663  24.534  21.227  1.00  0.00     0.211 HD
ENDBRANCH  13  37
BRANCH  14  39
ATOM     39  O   UNL     1      27.864  26.909  20.206  1.00  0.00    -0.387 OA
ATOM     40  H   UNL     1      28.322  27.718  19.873  1.00  0.00     0.211 HD
ENDBRANCH  14  39
ENDBRANCH   8   9
ENDBRANCH   7   8
ENDBRANCH   1   7
BRANCH   1  41
ATOM     41  C   UNL     1      31.272  27.723  20.885  1.00  0.00     0.364 C 
ATOM     42  O   UNL     1      30.891  26.630  21.356  1.00  0.00    -0.246 OA
BRANCH  41  43
ATOM     43  O   UNL     1      32.254  27.747  19.940  1.00  0.00    -0.477 OA
ATOM     44  H   UNL     1      32.613  28.647  19.586  1.00  0.00     0.296 HD
ENDBRANCH  41  43
ENDBRANCH   1  41
BRANCH   3  45
ATOM     45  O   UNL     1      32.428  29.853  24.481  1.00  0.00    -0.391 OA
ATOM     46  H   UNL     1      33.351  30.198  24.627  1.00  0.00     0.211 HD
ENDBRANCH   3  45
BRANCH   5  47
ATOM     47  C   UNL     1      30.642  32.179  21.555  1.00  0.00     0.176 C 
BRANCH  47  48
ATOM     48  O   UNL     1      29.463  32.103  20.857  1.00  0.00    -0.388 OA
ATOM     49  H   UNL     1      29.573  31.594  20.001  1.00  0.00     0.211 HD
ENDBRANCH  47  48
BRANCH  47  50
ATOM     50  C   UNL     1      31.255  33.564  21.289  1.00  0.00     0.165 C 
BRANCH  50  51
ATOM     51  O   UNL     1      30.240  34.485  21.335  1.00  0.00    -0.388 OA
ATOM     52  H   UNL     1      30.458  35.397  21.075  1.00  0.00     0.211 HD
ENDBRANCH  50  51
BRANCH  50  53
ATOM     53  C   UNL     1      31.951  33.579  19.967  1.00  0.00     0.154 C 
BRANCH  53  54
ATOM     54  N   UNL     1      31.079  33.932  18.899  1.00  0.00    -0.319 N 
ATOM     55  C   UNL     1      30.491  33.077  17.944  1.00  0.00     0.407 C 
ATOM     56  H   UNL     1      30.825  34.965  18.790  1.00  0.00     0.167 HD
ATOM     57  O   UNL     1      30.697  31.859  17.974  1.00  0.00    -0.225 OA
BRANCH  55  58
ATOM     58  O   UNL     1      29.665  33.589  16.945  1.00  0.00    -0.443 OA
BRANCH  58  59
ATOM     59  C   UNL     1      29.941  33.522  15.566  1.00  0.00     0.294 C 
BRANCH  59  60
ATOM     60  C   UNL     1      30.040  34.894  14.971  1.00  0.00     0.121 A 
ATOM     61  C   UNL     1      30.241  35.154  13.615  1.00  0.00     0.144 A 
ATOM     62  N   UNL     1      29.978  36.075  15.564  1.00  0.00    -0.131 NA
ATOM     63  N   UNL     1      30.288  36.486  13.469  1.00  0.00    -0.219 N 
ATOM     64  N   UNL     1      30.128  37.038  14.647  1.00  0.00    -0.062 NA
BRANCH  63  65
ATOM     65  C   UNL     1      30.480  37.195  12.257  1.00  0.00     0.081 A 
ATOM     66  C   UNL     1      31.733  37.575  11.832  1.00  0.00     0.029 A 
ATOM     67  C   UNL     1      29.406  37.517  11.472  1.00  0.00     0.043 A 
ATOM     68  C   UNL     1      31.882  38.270  10.634  1.00  0.00     0.002 A 
ATOM     69  C   UNL     1      29.546  38.203  10.289  1.00  0.00     0.018 A 
ATOM     70  Br  UNL     1      27.654  37.013  12.026  1.00  0.00    -0.048 Br
ATOM     71  C   UNL     1      30.792  38.588   9.854  1.00  0.00     0.001 A 
ENDBRANCH  63  65
ENDBRANCH  59  60
ENDBRANCH  58  59
ENDBRANCH  55  58
ENDBRANCH  53  54
ENDBRANCH  50  53
ENDBRANCH  47  50
ENDBRANCH   5  47
BRANCH   4  72
ATOM     72  N   UNL     1      33.953  30.848  21.795  1.00  0.00    -0.348 N 
ATOM     73  C   UNL     1      34.819  31.943  22.029  1.00  0.00     0.217 C 
ATOM     74  H   UNL     1      34.310  30.045  21.241  1.00  0.00     0.163 HD
ATOM     75  C   UNL     1      36.199  31.874  21.461  1.00  0.00     0.114 C 
ATOM     76  O   UNL     1      34.465  32.942  22.684  1.00  0.00    -0.275 OA
ENDBRANCH   4  72
TORSDOF 30
BEGIN_RES LYS A 131
REMARK  4 active torsions:
REMARK  status: ('A' for Active; 'I' for Inactive)
REMARK    1  A    between atoms: CA   and  CB  
REMARK    2  A    between atoms: CB   and  CG  
REMARK    3  A    between atoms: CG   and  CD  
REMARK    4  A    between atoms: CD   and  CE  
ROOT
ATOM      1  CA  LYS A 131      29.867  25.555  16.977  1.00 20.52     0.186 C 
ENDROOT
BRANCH   1   2
ATOM      2  CB  LYS A 131      28.345  25.722  17.026  1.00 20.94     0.034 C 
BRANCH   2   3
ATOM      3  CG  LYS A 131      27.599  24.479  16.566  1.00 22.96     0.005 C 
BRANCH   3   4
ATOM      4  CD  LYS A 131      26.990  23.726  17.715  1.00 24.33     0.041 C 
BRANCH   4   5
ATOM      5  CE  LYS A 131      25.493  23.558  17.478  1.00 26.91     0.338 C 
ATOM      6  NZ  LYS A 131      24.943  22.500  18.358  1.00 27.40     0.618 N 
ENDBRANCH   4   5
ENDBRANCH   3   4
ENDBRANCH   2   3
ENDBRANCH   1   2
END_RES LYS A 131
BEGIN_RES LYS A 135
REMARK  4 active torsions:
REMARK  status: ('A' for Active; 'I' for Inactive)
REMARK    5  A    between atoms: CA   and  CB  
REMARK    6  A    between atoms: CB   and  CG  
REMARK    7  A    between atoms: CG   and  CD  
REMARK    8  A    between atoms: CD   and  CE  
ROOT
ATOM      7  CA  LYS A 135      33.193  34.663   9.290  1.00 25.02     0.186 C 
ENDROOT
BRANCH   7   8
ATOM      8  CB  LYS A 135      32.060  35.360  10.034  1.00 26.63     0.034 C 
BRANCH   8   9
ATOM      9  CG  LYS A 135      30.732  34.659   9.904  1.00 29.45     0.005 C 
BRANCH   9  10
ATOM     10  CD  LYS A 135      30.319  34.560   8.443  1.00 32.00     0.041 C 
BRANCH  10  11
ATOM     11  CE  LYS A 135      28.808  34.557   8.317  1.00 34.25     0.338 C 
ATOM     12  NZ  LYS A 135      28.177  33.807   9.438  1.00 35.99     0.618 N 
ENDBRANCH  10  11
ENDBRANCH   9  10
ENDBRANCH   8   9
ENDBRANCH   7   8
END_RES LYS A 135
