REMARK VINA RESULT:    -4.497      4.092      9.498
REMARK INTER + INTRA:         -23.101
REMARK INTER:                 -15.639
REMARK INTRA:                  -7.463
REMARK UNBOUND:               -11.507
REMARK SMILES COc1ccc(Cn2cc(COC(=O)NC[C@@H](O)C(O)[C@@H]3O[C@@](OC[C@H]4O[C@@H](O[C@H]5[C@H](O)[C@@H](O)[C@H](OCCN=[N+]=[N-])O[C@@H]5CO)[C@H](O)[C@@H](O)[C@H]4O)(C(=O)O)C[C@H](O)[C@H]3NC(C)=O)nn2)cc1
REMARK SMILES IDX 23 1 55 2 56 3 58 4 21 5 22 6 24 7 25 8 26 9 28 10 27 11
REMARK SMILES IDX 46 12 48 13 50 14 29 15 30 16 43 17 42 18 35 19 31 20 33 21
REMARK SMILES IDX 44 22 45 23 36 25 37 26 38 27 39 28 40 29 41 30 32 31 34 33
REMARK SMILES IDX 47 35 49 37 51 39 52 41 53 42 54 43 57 45 19 47 20 48 17 50
REMARK SMILES IDX 18 51 16 53 15 54 13 55 14 57 12 58 11 59 10 60 9 61 63 62
REMARK SMILES IDX 8 63 64 64 7 65 6 66 5 67 65 68 4 69 66 70 3 71 2 72 1 73
REMARK SMILES IDX 59 74 60 75 61 77 62 78
REMARK H PARENT 45 24 32 32 34 34 47 36 49 38 51 40 54 44 57 46 20 49 18 52
REMARK H PARENT 15 56 59 76
REMARK Flexibility Score: inf
ROOT
ATOM      1  C   UNL     1      23.483  37.032   8.988  1.00  0.00     0.272 C 
ATOM      2  C   UNL     1      22.715  37.932   9.934  1.00  0.00     0.113 C 
ATOM      3  C   UNL     1      21.257  37.520   9.964  1.00  0.00     0.145 C 
ATOM      4  C   UNL     1      21.051  36.040  10.097  1.00  0.00     0.142 C 
ATOM      5  C   UNL     1      22.347  35.247  10.077  1.00  0.00     0.178 C 
ATOM      6  O   UNL     1      23.233  35.728   9.133  1.00  0.00    -0.332 OA
ENDROOT
BRANCH   1   7
ATOM      7  O   UNL     1      24.768  37.428   8.838  1.00  0.00    -0.338 OA
BRANCH   7   8
ATOM      8  C   UNL     1      25.814  36.597   8.894  1.00  0.00     0.199 C 
BRANCH   8   9
ATOM      9  C   UNL     1      26.781  36.776   7.744  1.00  0.00     0.179 C 
ATOM     10  C   UNL     1      28.295  38.313   7.016  1.00  0.00     0.282 C 
ATOM     11  O   UNL     1      27.861  37.605   8.159  1.00  0.00    -0.341 OA
ATOM     12  C   UNL     1      28.338  37.447   5.812  1.00  0.00     0.202 C 
ATOM     13  C   UNL     1      28.268  35.975   6.035  1.00  0.00     0.179 C 
ATOM     14  C   UNL     1      27.399  35.544   7.199  1.00  0.00     0.177 C 
BRANCH  10  15
ATOM     15  O   UNL     1      29.388  39.089   7.278  1.00  0.00    -0.341 OA
BRANCH  15  16
ATOM     16  C   UNL     1      29.722  39.269   8.604  1.00  0.00     0.184 C 
ATOM     17  C   UNL     1      30.165  40.666   8.967  1.00  0.00     0.178 C 
ATOM     18  O   UNL     1      31.054  40.641  10.040  1.00  0.00    -0.341 OA
ATOM     19  C   UNL     1      30.799  39.589  10.937  1.00  0.00     0.281 C 
ATOM     20  C   UNL     1      31.002  38.436   8.809  1.00  0.00     0.180 C 
ATOM     21  C   UNL     1      31.137  38.231  10.293  1.00  0.00     0.202 C 
BRANCH  17  22
ATOM     22  C   UNL     1      29.059  41.603   9.337  1.00  0.00     0.191 C 
BRANCH  22  23
ATOM     23  O   UNL     1      27.855  40.903   9.379  1.00  0.00    -0.394 OA
ATOM     24  H   UNL     1      27.480  40.908   8.452  1.00  0.00     0.210 HD
ENDBRANCH  22  23
ENDBRANCH  17  22
BRANCH  19  25
ATOM     25  O   UNL     1      29.546  39.582  11.458  1.00  0.00    -0.350 OA
BRANCH  25  26
ATOM     26  C   UNL     1      29.380  39.671  12.806  1.00  0.00     0.169 C 
BRANCH  26  27
ATOM     27  C   UNL     1      29.242  38.411  13.575  1.00  0.00     0.119 C 
BRANCH  27  28
ATOM     28  N   UNL     1      27.903  37.971  13.760  1.00  0.00    -0.092 NA
ATOM     29  N   UNL     1      27.233  37.374  12.904  1.00  0.00     0.001 N 
ATOM     30  N   UNL     1      26.639  36.434  12.329  1.00  0.00    -0.003 NA
ENDBRANCH  27  28
ENDBRANCH  26  27
ENDBRANCH  25  26
ENDBRANCH  19  25
BRANCH  20  31
ATOM     31  O   UNL     1      31.002  37.288   8.068  1.00  0.00    -0.387 OA
ATOM     32  H   UNL     1      31.856  37.175   7.541  1.00  0.00     0.211 HD
ENDBRANCH  20  31
BRANCH  21  33
ATOM     33  O   UNL     1      32.421  37.808  10.637  1.00  0.00    -0.385 OA
ATOM     34  H   UNL     1      32.371  36.882  10.992  1.00  0.00     0.211 HD
ENDBRANCH  21  33
ENDBRANCH  15  16
ENDBRANCH  10  15
BRANCH  12  35
ATOM     35  O   UNL     1      27.377  37.838   4.844  1.00  0.00    -0.385 OA
ATOM     36  H   UNL     1      27.155  38.809   4.977  1.00  0.00     0.211 HD
ENDBRANCH  12  35
BRANCH  13  37
ATOM     37  O   UNL     1      29.558  35.398   6.127  1.00  0.00    -0.387 OA
ATOM     38  H   UNL     1      29.834  35.127   5.214  1.00  0.00     0.211 HD
ENDBRANCH  13  37
BRANCH  14  39
ATOM     39  O   UNL     1      28.124  34.825   8.144  1.00  0.00    -0.387 OA
ATOM     40  H   UNL     1      28.614  35.415   8.768  1.00  0.00     0.211 HD
ENDBRANCH  14  39
ENDBRANCH   8   9
ENDBRANCH   7   8
ENDBRANCH   1   7
BRANCH   1  41
ATOM     41  C   UNL     1      22.922  37.491   7.601  1.00  0.00     0.364 C 
ATOM     42  O   UNL     1      22.129  36.750   6.981  1.00  0.00    -0.246 OA
BRANCH  41  43
ATOM     43  O   UNL     1      23.254  38.669   7.026  1.00  0.00    -0.477 OA
ATOM     44  H   UNL     1      24.141  38.997   6.735  1.00  0.00     0.296 HD
ENDBRANCH  41  43
ENDBRANCH   1  41
BRANCH   3  45
ATOM     45  O   UNL     1      20.746  38.183  11.119  1.00  0.00    -0.391 OA
ATOM     46  H   UNL     1      21.431  38.195  11.835  1.00  0.00     0.211 HD
ENDBRANCH   3  45
BRANCH   5  47
ATOM     47  C   UNL     1      22.816  35.119  11.474  1.00  0.00     0.176 C 
BRANCH  47  48
ATOM     48  O   UNL     1      24.233  35.178  11.610  1.00  0.00    -0.388 OA
ATOM     49  H   UNL     1      24.451  36.031  12.042  1.00  0.00     0.211 HD
ENDBRANCH  47  48
BRANCH  47  50
ATOM     50  C   UNL     1      22.614  33.696  12.073  1.00  0.00     0.165 C 
BRANCH  50  51
ATOM     51  O   UNL     1      21.374  33.197  12.085  1.00  0.00    -0.388 OA
ATOM     52  H   UNL     1      20.752  33.786  12.582  1.00  0.00     0.211 HD
ENDBRANCH  50  51
BRANCH  50  53
ATOM     53  C   UNL     1      23.217  33.739  13.495  1.00  0.00     0.154 C 
BRANCH  53  54
ATOM     54  N   UNL     1      24.238  32.764  13.693  1.00  0.00    -0.319 N 
ATOM     55  C   UNL     1      23.874  31.404  13.960  1.00  0.00     0.407 C 
ATOM     56  H   UNL     1      25.232  33.011  13.652  1.00  0.00     0.167 HD
ATOM     57  O   UNL     1      22.652  31.094  14.012  1.00  0.00    -0.225 OA
BRANCH  55  58
ATOM     58  O   UNL     1      24.886  30.480  14.150  1.00  0.00    -0.443 OA
BRANCH  58  59
ATOM     59  C   UNL     1      25.293  30.143  15.491  1.00  0.00     0.294 C 
BRANCH  59  60
ATOM     60  C   UNL     1      26.596  30.789  15.750  1.00  0.00     0.120 A 
ATOM     61  C   UNL     1      27.788  30.159  16.125  1.00  0.00     0.138 A 
ATOM     62  N   UNL     1      26.887  32.094  15.688  1.00  0.00    -0.132 NA
ATOM     63  N   UNL     1      28.713  31.115  16.267  1.00  0.00    -0.248 N 
ATOM     64  N   UNL     1      28.153  32.285  15.998  1.00  0.00    -0.067 NA
BRANCH  63  65
ATOM     65  C   UNL     1      30.088  30.912  16.649  1.00  0.00     0.181 C 
BRANCH  65  66
ATOM     66  C   UNL     1      30.807  32.202  16.573  1.00  0.00    -0.026 A 
ATOM     67  C   UNL     1      31.525  32.524  15.425  1.00  0.00     0.009 A 
ATOM     68  C   UNL     1      30.790  33.124  17.587  1.00  0.00     0.009 A 
ATOM     69  C   UNL     1      32.199  33.719  15.294  1.00  0.00     0.047 A 
ATOM     70  C   UNL     1      31.475  34.337  17.453  1.00  0.00     0.047 A 
ATOM     71  C   UNL     1      32.180  34.650  16.323  1.00  0.00     0.118 A 
BRANCH  71  72
ATOM     72  O   UNL     1      32.871  35.834  16.143  1.00  0.00    -0.497 OA
ATOM     73  C   UNL     1      32.325  37.007  15.615  1.00  0.00     0.278 C 
ENDBRANCH  71  72
ENDBRANCH  65  66
ENDBRANCH  63  65
ENDBRANCH  59  60
ENDBRANCH  58  59
ENDBRANCH  55  58
ENDBRANCH  53  54
ENDBRANCH  50  53
ENDBRANCH  47  50
ENDBRANCH   5  47
BRANCH   4  74
ATOM     74  N   UNL     1      20.055  35.475   9.213  1.00  0.00    -0.348 N 
ATOM     75  C   UNL     1      19.084  34.511   9.599  1.00  0.00     0.217 C 
ATOM     76  H   UNL     1      20.042  35.771   8.225  1.00  0.00     0.163 HD
ATOM     77  C   UNL     1      18.093  33.986   8.584  1.00  0.00     0.114 C 
ATOM     78  O   UNL     1      19.052  34.098  10.782  1.00  0.00    -0.275 OA
ENDBRANCH   4  74
TORSDOF 32
BEGIN_RES LYS A 131
REMARK  4 active torsions:
REMARK  status: ('A' for Active; 'I' for Inactive)
REMARK    1  A    between atoms: CA   and  CB  
REMARK    2  A    between atoms: CB   and  CG  
REMARK    3  A    between atoms: CG   and  CD  
REMARK    4  A    between atoms: CD   and  CE  
ROOT
ATOM      1  CA  LYS A 131      29.867  25.555  16.977  1.00 20.52     0.186 C 
ENDROOT
BRANCH   1   2
ATOM      2  CB  LYS A 131      28.345  25.722  17.026  1.00 20.94     0.034 C 
BRANCH   2   3
ATOM      3  CG  LYS A 131      27.601  24.401  16.904  1.00 22.96     0.005 C 
BRANCH   3   4
ATOM      4  CD  LYS A 131      26.521  24.262  17.940  1.00 24.33     0.041 C 
BRANCH   4   5
ATOM      5  CE  LYS A 131      25.199  23.927  17.256  1.00 26.91     0.338 C 
ATOM      6  NZ  LYS A 131      24.340  25.131  17.169  1.00 27.40     0.618 N 
ENDBRANCH   4   5
ENDBRANCH   3   4
ENDBRANCH   2   3
ENDBRANCH   1   2
END_RES LYS A 131
BEGIN_RES LYS A 135
REMARK  4 active torsions:
REMARK  status: ('A' for Active; 'I' for Inactive)
REMARK    5  A    between atoms: CA   and  CB  
REMARK    6  A    between atoms: CB   and  CG  
REMARK    7  A    between atoms: CG   and  CD  
REMARK    8  A    between atoms: CD   and  CE  
ROOT
ATOM      7  CA  LYS A 135      33.193  34.663   9.290  1.00 25.02     0.186 C 
ENDROOT
BRANCH   7   8
ATOM      8  CB  LYS A 135      32.060  35.360  10.034  1.00 26.63     0.034 C 
BRANCH   8   9
ATOM      9  CG  LYS A 135      30.794  34.546  10.102  1.00 29.45     0.005 C 
BRANCH   9  10
ATOM     10  CD  LYS A 135      29.823  35.147  11.107  1.00 32.00     0.041 C 
BRANCH  10  11
ATOM     11  CE  LYS A 135      30.337  34.962  12.521  1.00 34.25     0.338 C 
ATOM     12  NZ  LYS A 135      29.261  34.467  13.423  1.00 35.99     0.618 N 
ENDBRANCH  10  11
ENDBRANCH   9  10
ENDBRANCH   8   9
ENDBRANCH   7   8
END_RES LYS A 135
