REMARK VINA RESULT:    -3.902      3.564      7.663
REMARK INTER + INTRA:         -22.219
REMARK INTER:                 -10.569
REMARK INTRA:                 -11.650
REMARK UNBOUND:               -11.702
REMARK SMILES CC(=O)N[C@@H]1[C@@H](O)C[C@](OC[C@H]2O[C@@H](O[C@H]3[C@H](O)[C@@H](O)[C@H](OCCN=[N+]=[N-])O[C@@H]3CO)[C@H](O)[C@@H](O)[C@H]2O)(C(=O)O)O[C@H]1C(O)[C@H](O)CNC(=O)OCc1cn([C@@H](CC(=O)O)C(=O)O)nn1
REMARK SMILES IDX 43 1 42 2 9 3 8 4 41 5 6 6 5 7 10 8 11 9 12 10 14 11 13 12
REMARK SMILES IDX 32 13 34 14 36 15 15 16 16 17 29 18 28 19 21 20 17 21 19 22
REMARK SMILES IDX 30 23 31 24 22 26 23 27 24 28 25 29 26 30 27 31 18 32 20 34
REMARK SMILES IDX 33 36 35 38 37 40 38 42 39 43 40 44 7 46 4 48 2 49 1 51 3 52
REMARK SMILES IDX 44 53 45 55 46 56 47 58 48 59 49 60 50 62 51 63 52 64 53 65
REMARK SMILES IDX 54 66 65 67 55 68 64 69 56 70 57 71 58 72 59 73 60 74 61 76
REMARK SMILES IDX 62 77 63 78
REMARK H PARENT 31 25 18 33 20 35 33 37 35 39 37 41 40 45 7 47 4 50 44 54
REMARK H PARENT 46 57 48 61 60 75 63 79
REMARK Flexibility Score: inf
ROOT
ATOM      1  C   UNL     1      27.945  35.836  16.610  1.00  0.00     0.176 C 
ENDROOT
BRANCH   1   2
ATOM      2  C   UNL     1      29.029  35.543  15.588  1.00  0.00     0.178 C 
ATOM      3  C   UNL     1      30.134  36.544  13.769  1.00  0.00     0.272 C 
ATOM      4  C   UNL     1      30.440  35.050  13.596  1.00  0.00     0.113 C 
ATOM      5  O   UNL     1      29.112  36.607  14.744  1.00  0.00    -0.332 OA
ATOM      6  C   UNL     1      29.083  34.370  13.485  1.00  0.00     0.145 C 
ATOM      7  C   UNL     1      28.647  34.219  14.952  1.00  0.00     0.142 C 
BRANCH   3   8
ATOM      8  O   UNL     1      29.789  37.072  12.688  1.00  0.00    -0.338 OA
BRANCH   8   9
ATOM      9  C   UNL     1      29.452  37.607  11.616  1.00  0.00     0.199 C 
BRANCH   9  10
ATOM     10  C   UNL     1      29.003  39.067  11.661  1.00  0.00     0.179 C 
ATOM     11  C   UNL     1      27.741  39.265   9.747  1.00  0.00     0.282 C 
ATOM     12  O   UNL     1      28.833  39.666  10.459  1.00  0.00    -0.341 OA
ATOM     13  C   UNL     1      26.476  39.408  10.501  1.00  0.00     0.202 C 
ATOM     14  C   UNL     1      26.829  40.178  11.784  1.00  0.00     0.179 C 
ATOM     15  C   UNL     1      27.784  39.267  12.531  1.00  0.00     0.177 C 
BRANCH  11  16
ATOM     16  O   UNL     1      27.892  38.105   9.004  1.00  0.00    -0.341 OA
BRANCH  16  17
ATOM     17  C   UNL     1      27.809  38.302   7.646  1.00  0.00     0.184 C 
ATOM     18  C   UNL     1      27.019  37.239   6.970  1.00  0.00     0.178 C 
ATOM     19  O   UNL     1      26.898  37.485   5.608  1.00  0.00    -0.341 OA
ATOM     20  C   UNL     1      28.046  38.031   5.025  1.00  0.00     0.281 C 
ATOM     21  C   UNL     1      29.246  38.275   7.130  1.00  0.00     0.180 C 
ATOM     22  C   UNL     1      29.281  37.587   5.802  1.00  0.00     0.202 C 
BRANCH  18  23
ATOM     23  C   UNL     1      25.598  37.302   7.527  1.00  0.00     0.191 C 
BRANCH  23  24
ATOM     24  O   UNL     1      25.527  36.477   8.668  1.00  0.00    -0.394 OA
ATOM     25  H   UNL     1      25.762  35.562   8.331  1.00  0.00     0.210 HD
ENDBRANCH  23  24
ENDBRANCH  18  23
BRANCH  20  26
ATOM     26  O   UNL     1      27.955  39.406   5.138  1.00  0.00    -0.350 OA
BRANCH  26  27
ATOM     27  C   UNL     1      27.110  40.039   4.281  1.00  0.00     0.169 C 
BRANCH  27  28
ATOM     28  C   UNL     1      26.438  41.200   4.948  1.00  0.00     0.119 C 
BRANCH  28  29
ATOM     29  N   UNL     1      25.852  40.726   6.203  1.00  0.00    -0.092 NA
ATOM     30  N   UNL     1      24.610  40.759   6.310  1.00  0.00     0.001 N 
ATOM     31  N   UNL     1      23.523  41.027   6.856  1.00  0.00    -0.003 NA
ENDBRANCH  28  29
ENDBRANCH  27  28
ENDBRANCH  26  27
ENDBRANCH  20  26
BRANCH  21  32
ATOM     32  O   UNL     1      29.723  39.573   6.999  1.00  0.00    -0.387 OA
ATOM     33  H   UNL     1      30.661  39.633   7.345  1.00  0.00     0.211 HD
ENDBRANCH  21  32
BRANCH  22  34
ATOM     34  O   UNL     1      29.337  36.195   5.886  1.00  0.00    -0.385 OA
ATOM     35  H   UNL     1      28.472  35.935   6.336  1.00  0.00     0.211 HD
ENDBRANCH  22  34
ENDBRANCH  16  17
ENDBRANCH  11  16
BRANCH  13  36
ATOM     36  O   UNL     1      25.518  40.190   9.852  1.00  0.00    -0.385 OA
ATOM     37  H   UNL     1      24.924  40.579  10.558  1.00  0.00     0.211 HD
ENDBRANCH  13  36
BRANCH  14  38
ATOM     38  O   UNL     1      25.727  40.495  12.537  1.00  0.00    -0.387 OA
ATOM     39  H   UNL     1      24.973  40.834  11.978  1.00  0.00     0.211 HD
ENDBRANCH  14  38
BRANCH  15  40
ATOM     40  O   UNL     1      27.147  38.082  12.823  1.00  0.00    -0.387 OA
ATOM     41  H   UNL     1      26.289  37.965  12.381  1.00  0.00     0.211 HD
ENDBRANCH  15  40
ENDBRANCH   9  10
ENDBRANCH   8   9
ENDBRANCH   3   8
BRANCH   3  42
ATOM     42  C   UNL     1      31.401  37.096  14.415  1.00  0.00     0.364 C 
ATOM     43  O   UNL     1      31.334  38.085  15.160  1.00  0.00    -0.246 OA
BRANCH  42  44
ATOM     44  O   UNL     1      32.633  36.513  14.185  1.00  0.00    -0.477 OA
ATOM     45  H   UNL     1      32.737  35.634  13.661  1.00  0.00     0.296 HD
ENDBRANCH  42  44
ENDBRANCH   3  42
BRANCH   6  46
ATOM     46  O   UNL     1      28.135  35.277  12.962  1.00  0.00    -0.391 OA
ATOM     47  H   UNL     1      28.512  36.155  12.788  1.00  0.00     0.211 HD
ENDBRANCH   6  46
BRANCH   7  48
ATOM     48  N   UNL     1      29.388  33.095  15.475  1.00  0.00    -0.348 N 
ATOM     49  C   UNL     1      28.701  31.915  15.893  1.00  0.00     0.217 C 
ATOM     50  H   UNL     1      30.429  33.095  15.569  1.00  0.00     0.163 HD
ATOM     51  C   UNL     1      29.528  30.782  16.430  1.00  0.00     0.114 C 
ATOM     52  O   UNL     1      27.447  31.813  15.820  1.00  0.00    -0.275 OA
ENDBRANCH   7  48
ENDBRANCH   1   2
BRANCH   1  53
ATOM     53  O   UNL     1      27.117  34.738  16.809  1.00  0.00    -0.388 OA
ATOM     54  H   UNL     1      26.151  34.980  16.723  1.00  0.00     0.211 HD
ENDBRANCH   1  53
BRANCH   1  55
ATOM     55  C   UNL     1      27.146  37.062  16.370  1.00  0.00     0.165 C 
BRANCH  55  56
ATOM     56  O   UNL     1      27.181  38.015  17.363  1.00  0.00    -0.388 OA
ATOM     57  H   UNL     1      26.287  38.281  17.709  1.00  0.00     0.211 HD
ENDBRANCH  55  56
BRANCH  55  58
ATOM     58  C   UNL     1      25.777  36.736  15.881  1.00  0.00     0.154 C 
BRANCH  58  59
ATOM     59  N   UNL     1      25.656  36.423  14.492  1.00  0.00    -0.319 N 
ATOM     60  C   UNL     1      25.147  35.161  14.103  1.00  0.00     0.407 C 
ATOM     61  H   UNL     1      25.929  37.097  13.763  1.00  0.00     0.167 HD
ATOM     62  O   UNL     1      24.798  34.347  15.027  1.00  0.00    -0.225 OA
BRANCH  60  63
ATOM     63  O   UNL     1      24.992  34.709  12.804  1.00  0.00    -0.443 OA
BRANCH  63  64
ATOM     64  C   UNL     1      23.899  33.834  12.484  1.00  0.00     0.294 C 
BRANCH  64  65
ATOM     65  C   UNL     1      22.805  34.641  11.894  1.00  0.00     0.120 A 
ATOM     66  C   UNL     1      22.501  34.893  10.575  1.00  0.00     0.139 A 
ATOM     67  N   UNL     1      21.857  35.337  12.606  1.00  0.00    -0.132 NA
ATOM     68  N   UNL     1      21.411  35.712  10.521  1.00  0.00    -0.237 N 
ATOM     69  N   UNL     1      21.072  35.942  11.757  1.00  0.00    -0.066 NA
BRANCH  68  70
ATOM     70  C   UNL     1      20.782  36.225   9.326  1.00  0.00     0.229 C 
BRANCH  70  71
ATOM     71  C   UNL     1      21.875  36.686   8.378  1.00  0.00     0.161 C 
BRANCH  71  72
ATOM     72  C   UNL     1      22.226  38.101   8.601  1.00  0.00     0.306 C 
ATOM     73  O   UNL     1      23.122  38.426   9.421  1.00  0.00    -0.252 OA
BRANCH  72  74
ATOM     74  O   UNL     1      21.574  39.099   7.911  1.00  0.00    -0.481 OA
ATOM     75  H   UNL     1      22.059  39.992   7.763  1.00  0.00     0.296 HD
ENDBRANCH  72  74
ENDBRANCH  71  72
ENDBRANCH  70  71
BRANCH  70  76
ATOM     76  C   UNL     1      20.003  35.147   8.692  1.00  0.00     0.329 C 
ATOM     77  O   UNL     1      18.953  34.750   9.247  1.00  0.00    -0.250 OA
BRANCH  76  78
ATOM     78  O   UNL     1      20.376  34.543   7.499  1.00  0.00    -0.480 OA
ATOM     79  H   UNL     1      19.751  34.625   6.701  1.00  0.00     0.296 HD
ENDBRANCH  76  78
ENDBRANCH  70  76
ENDBRANCH  68  70
ENDBRANCH  64  65
ENDBRANCH  63  64
ENDBRANCH  60  63
ENDBRANCH  58  59
ENDBRANCH  55  58
ENDBRANCH   1  55
TORSDOF 35
BEGIN_RES LYS A 131
REMARK  4 active torsions:
REMARK  status: ('A' for Active; 'I' for Inactive)
REMARK    1  A    between atoms: CA   and  CB  
REMARK    2  A    between atoms: CB   and  CG  
REMARK    3  A    between atoms: CG   and  CD  
REMARK    4  A    between atoms: CD   and  CE  
ROOT
ATOM      1  CA  LYS A 131      29.867  25.555  16.977  1.00 20.52     0.186 C 
ENDROOT
BRANCH   1   2
ATOM      2  CB  LYS A 131      28.345  25.722  17.026  1.00 20.94     0.034 C 
BRANCH   2   3
ATOM      3  CG  LYS A 131      27.600  24.408  16.845  1.00 22.96     0.005 C 
BRANCH   3   4
ATOM      4  CD  LYS A 131      26.773  24.056  18.050  1.00 24.33     0.041 C 
BRANCH   4   5
ATOM      5  CE  LYS A 131      25.585  23.201  17.620  1.00 26.91     0.338 C 
ATOM      6  NZ  LYS A 131      24.578  24.029  16.915  1.00 27.40     0.618 N 
ENDBRANCH   4   5
ENDBRANCH   3   4
ENDBRANCH   2   3
ENDBRANCH   1   2
END_RES LYS A 131
BEGIN_RES LYS A 135
REMARK  4 active torsions:
REMARK  status: ('A' for Active; 'I' for Inactive)
REMARK    5  A    between atoms: CA   and  CB  
REMARK    6  A    between atoms: CB   and  CG  
REMARK    7  A    between atoms: CG   and  CD  
REMARK    8  A    between atoms: CD   and  CE  
ROOT
ATOM      7  CA  LYS A 135      33.193  34.663   9.290  1.00 25.02     0.186 C 
ENDROOT
BRANCH   7   8
ATOM      8  CB  LYS A 135      32.060  35.360  10.034  1.00 26.63     0.034 C 
BRANCH   8   9
ATOM      9  CG  LYS A 135      30.783  34.561  10.072  1.00 29.45     0.005 C 
BRANCH   9  10
ATOM     10  CD  LYS A 135      30.248  34.336   8.666  1.00 32.00     0.041 C 
BRANCH  10  11
ATOM     11  CE  LYS A 135      28.741  34.503   8.637  1.00 34.25     0.338 C 
ATOM     12  NZ  LYS A 135      28.097  33.761   9.756  1.00 35.99     0.618 N 
ENDBRANCH  10  11
ENDBRANCH   9  10
ENDBRANCH   8   9
ENDBRANCH   7   8
END_RES LYS A 135
