REMARK VINA RESULT:    -4.196      4.246      8.872
REMARK INTER + INTRA:         -22.425
REMARK INTER:                 -10.282
REMARK INTRA:                 -12.143
REMARK UNBOUND:               -11.851
REMARK SMILES CC(=O)N[C@@H]1[C@@H](O)C[C@](OC[C@H]2O[C@@H](O[C@H]3[C@H](O)[C@@H](O)[C@H](OCCN=[N+]=[N-])O[C@@H]3CO)[C@H](O)[C@@H](O)[C@H]2O)(C(=O)O)O[C@H]1C(O)[C@H](O)CNC(=O)OCc1cn(Cc2ccccc2)nn1
REMARK SMILES IDX 9 1 8 2 6 3 5 4 42 5 41 6 10 7 11 8 12 9 14 10 13 11 32 12
REMARK SMILES IDX 34 13 36 14 15 15 16 16 29 17 28 18 21 19 17 20 19 21 30 22
REMARK SMILES IDX 31 23 22 25 23 26 24 27 25 28 26 29 27 30 18 31 20 33 33 35
REMARK SMILES IDX 35 37 37 39 38 41 39 42 40 43 7 45 43 47 44 48 45 50 46 51
REMARK SMILES IDX 47 53 48 54 49 55 50 57 51 58 52 59 53 60 54 61 64 62 55 63
REMARK SMILES IDX 63 64 56 65 57 66 58 67 62 68 59 69 61 70 60 71 4 72 2 73
REMARK SMILES IDX 1 75 3 76
REMARK H PARENT 31 24 18 32 20 34 33 36 35 38 37 40 40 44 7 46 44 49 46 52
REMARK H PARENT 48 56 4 74
REMARK Flexibility Score: inf
ROOT
ATOM      1  C   UNL     1      29.545  39.940   7.165  1.00  0.00     0.272 C 
ATOM      2  C   UNL     1      29.248  41.014   6.185  1.00  0.00     0.113 C 
ATOM      3  C   UNL     1      27.804  41.338   6.231  1.00  0.00     0.145 C 
ATOM      4  C   UNL     1      26.985  40.429   7.160  1.00  0.00     0.142 C 
ATOM      5  C   UNL     1      27.397  39.024   7.031  1.00  0.00     0.178 C 
ATOM      6  O   UNL     1      28.770  38.826   6.795  1.00  0.00    -0.332 OA
ENDROOT
BRANCH   1   7
ATOM      7  O   UNL     1      29.367  40.260   8.495  1.00  0.00    -0.338 OA
BRANCH   7   8
ATOM      8  C   UNL     1      30.101  41.390   8.816  1.00  0.00     0.199 C 
BRANCH   8   9
ATOM      9  C   UNL     1      30.252  41.572  10.309  1.00  0.00     0.179 C 
ATOM     10  C   UNL     1      28.954  41.495  12.247  1.00  0.00     0.282 C 
ATOM     11  O   UNL     1      29.073  41.926  10.923  1.00  0.00    -0.341 OA
ATOM     12  C   UNL     1      30.224  41.593  13.007  1.00  0.00     0.202 C 
ATOM     13  C   UNL     1      31.268  40.711  12.400  1.00  0.00     0.179 C 
ATOM     14  C   UNL     1      30.924  40.394  10.963  1.00  0.00     0.177 C 
BRANCH  10  15
ATOM     15  O   UNL     1      28.437  40.212  12.311  1.00  0.00    -0.341 OA
BRANCH  15  16
ATOM     16  C   UNL     1      27.137  40.157  12.800  1.00  0.00     0.184 C 
ATOM     17  C   UNL     1      26.985  39.026  13.748  1.00  0.00     0.178 C 
ATOM     18  O   UNL     1      25.635  39.005  14.161  1.00  0.00    -0.341 OA
ATOM     19  C   UNL     1      24.934  38.422  13.087  1.00  0.00     0.281 C 
ATOM     20  C   UNL     1      26.268  39.861  11.566  1.00  0.00     0.180 C 
ATOM     21  C   UNL     1      24.894  39.403  11.925  1.00  0.00     0.202 C 
BRANCH  17  22
ATOM     22  C   UNL     1      27.883  39.167  14.972  1.00  0.00     0.191 C 
BRANCH  22  23
ATOM     23  O   UNL     1      27.803  40.518  15.379  1.00  0.00    -0.394 OA
ATOM     24  H   UNL     1      27.361  40.553  16.260  1.00  0.00     0.210 HD
ENDBRANCH  22  23
ENDBRANCH  17  22
BRANCH  19  25
ATOM     25  O   UNL     1      23.658  38.119  13.493  1.00  0.00    -0.350 OA
BRANCH  25  26
ATOM     26  C   UNL     1      23.493  36.748  13.546  1.00  0.00     0.169 C 
BRANCH  26  27
ATOM     27  C   UNL     1      22.584  36.179  12.499  1.00  0.00     0.119 C 
BRANCH  27  28
ATOM     28  N   UNL     1      23.441  35.820  11.359  1.00  0.00    -0.092 NA
ATOM     29  N   UNL     1      22.879  35.639  10.280  1.00  0.00     0.001 N 
ATOM     30  N   UNL     1      22.659  35.556   9.063  1.00  0.00    -0.003 NA
ENDBRANCH  27  28
ENDBRANCH  26  27
ENDBRANCH  25  26
ENDBRANCH  19  25
BRANCH  20  31
ATOM     31  O   UNL     1      26.169  41.099  10.899  1.00  0.00    -0.387 OA
ATOM     32  H   UNL     1      26.467  41.037   9.952  1.00  0.00     0.211 HD
ENDBRANCH  20  31
BRANCH  21  33
ATOM     33  O   UNL     1      24.330  38.738  10.836  1.00  0.00    -0.385 OA
ATOM     34  H   UNL     1      24.444  37.751  10.890  1.00  0.00     0.211 HD
ENDBRANCH  21  33
ENDBRANCH  15  16
ENDBRANCH  10  15
BRANCH  12  35
ATOM     35  O   UNL     1      30.673  42.919  13.129  1.00  0.00    -0.385 OA
ATOM     36  H   UNL     1      31.038  43.166  12.242  1.00  0.00     0.211 HD
ENDBRANCH  12  35
BRANCH  13  37
ATOM     37  O   UNL     1      31.359  39.542  13.147  1.00  0.00    -0.387 OA
ATOM     38  H   UNL     1      30.757  38.827  12.806  1.00  0.00     0.211 HD
ENDBRANCH  13  37
BRANCH  14  39
ATOM     39  O   UNL     1      30.293  39.193  10.792  1.00  0.00    -0.387 OA
ATOM     40  H   UNL     1      29.736  39.089   9.994  1.00  0.00     0.211 HD
ENDBRANCH  14  39
ENDBRANCH   8   9
ENDBRANCH   7   8
ENDBRANCH   1   7
BRANCH   1  41
ATOM     41  C   UNL     1      30.947  39.414   7.021  1.00  0.00     0.364 C 
ATOM     42  O   UNL     1      31.644  39.793   6.080  1.00  0.00    -0.246 OA
BRANCH  41  43
ATOM     43  O   UNL     1      31.440  38.516   7.941  1.00  0.00    -0.477 OA
ATOM     44  H   UNL     1      32.100  38.786   8.673  1.00  0.00     0.296 HD
ENDBRANCH  41  43
ENDBRANCH   1  41
BRANCH   3  45
ATOM     45  O   UNL     1      27.521  42.652   6.650  1.00  0.00    -0.391 OA
ATOM     46  H   UNL     1      26.696  43.003   6.284  1.00  0.00     0.211 HD
ENDBRANCH   3  45
BRANCH   5  47
ATOM     47  C   UNL     1      27.033  38.051   8.072  1.00  0.00     0.176 C 
BRANCH  47  48
ATOM     48  O   UNL     1      26.980  38.545   9.357  1.00  0.00    -0.388 OA
ATOM     49  H   UNL     1      26.346  38.089   9.953  1.00  0.00     0.211 HD
ENDBRANCH  47  48
BRANCH  47  50
ATOM     50  C   UNL     1      25.846  37.163   7.832  1.00  0.00     0.165 C 
BRANCH  50  51
ATOM     51  O   UNL     1      24.646  37.753   8.084  1.00  0.00    -0.388 OA
ATOM     52  H   UNL     1      24.154  37.375   8.840  1.00  0.00     0.211 HD
ENDBRANCH  50  51
BRANCH  50  53
ATOM     53  C   UNL     1      26.056  35.766   8.339  1.00  0.00     0.154 C 
BRANCH  53  54
ATOM     54  N   UNL     1      26.321  35.676   9.751  1.00  0.00    -0.319 N 
ATOM     55  C   UNL     1      26.984  34.577  10.389  1.00  0.00     0.407 C 
ATOM     56  H   UNL     1      26.034  36.444  10.429  1.00  0.00     0.167 HD
ATOM     57  O   UNL     1      27.368  33.606   9.699  1.00  0.00    -0.225 OA
BRANCH  55  58
ATOM     58  O   UNL     1      27.208  34.561  11.753  1.00  0.00    -0.443 OA
BRANCH  58  59
ATOM     59  C   UNL     1      27.437  35.773  12.431  1.00  0.00     0.294 C 
BRANCH  59  60
ATOM     60  C   UNL     1      28.876  35.968  12.711  1.00  0.00     0.120 A 
ATOM     61  C   UNL     1      29.702  34.986  13.275  1.00  0.00     0.138 A 
ATOM     62  N   UNL     1      29.676  37.021  12.515  1.00  0.00    -0.132 NA
ATOM     63  N   UNL     1      30.941  35.489  13.389  1.00  0.00    -0.248 N 
ATOM     64  N   UNL     1      30.911  36.706  12.931  1.00  0.00    -0.067 NA
BRANCH  63  65
ATOM     65  C   UNL     1      32.083  34.780  13.922  1.00  0.00     0.181 C 
BRANCH  65  66
ATOM     66  C   UNL     1      31.710  34.142  15.208  1.00  0.00    -0.026 A 
ATOM     67  C   UNL     1      31.711  34.842  16.401  1.00  0.00     0.005 A 
ATOM     68  C   UNL     1      31.350  32.803  15.207  1.00  0.00     0.005 A 
ATOM     69  C   UNL     1      31.355  34.202  17.576  1.00  0.00     0.000 A 
ATOM     70  C   UNL     1      30.996  32.174  16.386  1.00  0.00     0.000 A 
ATOM     71  C   UNL     1      31.001  32.876  17.563  1.00  0.00     0.000 A 
ENDBRANCH  65  66
ENDBRANCH  63  65
ENDBRANCH  59  60
ENDBRANCH  58  59
ENDBRANCH  55  58
ENDBRANCH  53  54
ENDBRANCH  50  53
ENDBRANCH  47  50
ENDBRANCH   5  47
BRANCH   4  72
ATOM     72  N   UNL     1      25.629  40.614   6.605  1.00  0.00    -0.348 N 
ATOM     73  C   UNL     1      24.475  40.743   7.410  1.00  0.00     0.217 C 
ATOM     74  H   UNL     1      25.509  40.650   5.569  1.00  0.00     0.163 HD
ATOM     75  C   UNL     1      23.115  40.924   6.819  1.00  0.00     0.114 C 
ATOM     76  O   UNL     1      24.608  40.704   8.657  1.00  0.00    -0.275 OA
ENDBRANCH   4  72
TORSDOF 31
BEGIN_RES LYS A 131
REMARK  4 active torsions:
REMARK  status: ('A' for Active; 'I' for Inactive)
REMARK    1  A    between atoms: CA   and  CB  
REMARK    2  A    between atoms: CB   and  CG  
REMARK    3  A    between atoms: CG   and  CD  
REMARK    4  A    between atoms: CD   and  CE  
ROOT
ATOM      1  CA  LYS A 131      29.867  25.555  16.977  1.00 20.52     0.186 C 
ENDROOT
BRANCH   1   2
ATOM      2  CB  LYS A 131      28.345  25.722  17.026  1.00 20.94     0.034 C 
BRANCH   2   3
ATOM      3  CG  LYS A 131      27.601  24.402  16.894  1.00 22.96     0.005 C 
BRANCH   3   4
ATOM      4  CD  LYS A 131      26.377  24.352  17.766  1.00 24.33     0.041 C 
BRANCH   4   5
ATOM      5  CE  LYS A 131      25.676  23.010  17.582  1.00 26.91     0.338 C 
ATOM      6  NZ  LYS A 131      24.750  22.749  18.709  1.00 27.40     0.618 N 
ENDBRANCH   4   5
ENDBRANCH   3   4
ENDBRANCH   2   3
ENDBRANCH   1   2
END_RES LYS A 131
BEGIN_RES LYS A 135
REMARK  4 active torsions:
REMARK  status: ('A' for Active; 'I' for Inactive)
REMARK    5  A    between atoms: CA   and  CB  
REMARK    6  A    between atoms: CB   and  CG  
REMARK    7  A    between atoms: CG   and  CD  
REMARK    8  A    between atoms: CD   and  CE  
ROOT
ATOM      7  CA  LYS A 135      33.193  34.663   9.290  1.00 25.02     0.186 C 
ENDROOT
BRANCH   7   8
ATOM      8  CB  LYS A 135      32.060  35.360  10.034  1.00 26.63     0.034 C 
BRANCH   8   9
ATOM      9  CG  LYS A 135      30.713  34.721   9.815  1.00 29.45     0.005 C 
BRANCH   9  10
ATOM     10  CD  LYS A 135      30.435  34.550   8.329  1.00 32.00     0.041 C 
BRANCH  10  11
ATOM     11  CE  LYS A 135      29.589  35.697   7.810  1.00 34.25     0.338 C 
ATOM     12  NZ  LYS A 135      29.032  35.386   6.464  1.00 35.99     0.618 N 
ENDBRANCH  10  11
ENDBRANCH   9  10
ENDBRANCH   8   9
ENDBRANCH   7   8
END_RES LYS A 135
