REMARK VINA RESULT:    -5.350      5.895      9.988
REMARK INTER + INTRA:         -23.334
REMARK INTER:                 -10.621
REMARK INTRA:                 -12.713
REMARK UNBOUND:                -9.852
REMARK SMILES CC(=O)N[C@@H]1[C@@H](O)C[C@](OC[C@H]2O[C@@H](O[C@H]3[C@H](O)[C@@H](O)[C@H](OCCN=[N+]=[N-])O[C@@H]3CO)[C@H](O)[C@@H](O)[C@H]2O)(C(=O)O)O[C@H]1C(O)[C@H](O)CNC(=O)OCc1cn(Cc2ccc3c(c2)OCO3)nn1
REMARK SMILES IDX 9 1 8 2 6 3 5 4 42 5 41 6 10 7 11 8 12 9 14 10 13 11 32 12
REMARK SMILES IDX 34 13 36 14 15 15 16 16 29 17 28 18 21 19 17 20 19 21 30 22
REMARK SMILES IDX 31 23 22 25 23 26 24 27 25 28 26 29 27 30 18 31 20 33 33 35
REMARK SMILES IDX 35 37 37 39 38 41 39 42 40 43 7 45 43 47 44 48 45 50 46 51
REMARK SMILES IDX 47 53 48 54 49 55 50 57 51 58 52 59 53 60 54 61 67 62 55 63
REMARK SMILES IDX 66 64 56 65 57 66 58 67 62 68 59 69 61 70 60 71 63 72 65 73
REMARK SMILES IDX 64 74 4 75 2 76 1 78 3 79
REMARK H PARENT 31 24 18 32 20 34 33 36 35 38 37 40 40 44 7 46 44 49 46 52
REMARK H PARENT 48 56 4 77
REMARK Flexibility Score: inf
ROOT
ATOM      1  C   UNL     1      24.025  36.978   9.342  1.00  0.00     0.272 C 
ATOM      2  C   UNL     1      23.029  35.901   8.960  1.00  0.00     0.113 C 
ATOM      3  C   UNL     1      22.068  36.447   7.948  1.00  0.00     0.145 C 
ATOM      4  C   UNL     1      21.306  37.600   8.654  1.00  0.00     0.142 C 
ATOM      5  C   UNL     1      22.326  38.543   9.183  1.00  0.00     0.178 C 
ATOM      6  O   UNL     1      23.640  38.207   8.865  1.00  0.00    -0.332 OA
ENDROOT
BRANCH   1   7
ATOM      7  O   UNL     1      25.314  36.635   8.904  1.00  0.00    -0.338 OA
BRANCH   7   8
ATOM      8  C   UNL     1      25.565  35.318   8.712  1.00  0.00     0.199 C 
BRANCH   8   9
ATOM      9  C   UNL     1      27.042  35.155   8.318  1.00  0.00     0.179 C 
ATOM     10  C   UNL     1      28.713  36.100   7.051  1.00  0.00     0.282 C 
ATOM     11  O   UNL     1      27.344  36.029   7.309  1.00  0.00    -0.341 OA
ATOM     12  C   UNL     1      29.398  36.722   8.271  1.00  0.00     0.202 C 
ATOM     13  C   UNL     1      28.707  36.447   9.557  1.00  0.00     0.179 C 
ATOM     14  C   UNL     1      27.943  35.168   9.500  1.00  0.00     0.177 C 
BRANCH  10  15
ATOM     15  O   UNL     1      28.928  36.923   6.018  1.00  0.00    -0.341 OA
BRANCH  15  16
ATOM     16  C   UNL     1      28.658  38.255   6.104  1.00  0.00     0.184 C 
ATOM     17  C   UNL     1      27.422  38.688   5.367  1.00  0.00     0.178 C 
ATOM     18  O   UNL     1      27.681  39.512   4.323  1.00  0.00    -0.341 OA
ATOM     19  C   UNL     1      28.306  40.735   4.641  1.00  0.00     0.281 C 
ATOM     20  C   UNL     1      29.856  39.032   5.622  1.00  0.00     0.180 C 
ATOM     21  C   UNL     1      29.474  40.498   5.572  1.00  0.00     0.202 C 
BRANCH  17  22
ATOM     22  C   UNL     1      26.481  39.360   6.336  1.00  0.00     0.191 C 
BRANCH  22  23
ATOM     23  O   UNL     1      26.459  38.657   7.569  1.00  0.00    -0.394 OA
ATOM     24  H   UNL     1      25.561  38.644   7.975  1.00  0.00     0.210 HD
ENDBRANCH  22  23
ENDBRANCH  17  22
BRANCH  19  25
ATOM     25  O   UNL     1      27.409  41.658   5.074  1.00  0.00    -0.350 OA
BRANCH  25  26
ATOM     26  C   UNL     1      27.699  42.944   5.256  1.00  0.00     0.169 C 
BRANCH  26  27
ATOM     27  C   UNL     1      27.645  43.456   6.661  1.00  0.00     0.119 C 
BRANCH  27  28
ATOM     28  N   UNL     1      26.374  43.886   7.125  1.00  0.00    -0.092 NA
ATOM     29  N   UNL     1      25.467  43.131   7.464  1.00  0.00     0.001 N 
ATOM     30  N   UNL     1      24.570  42.275   7.370  1.00  0.00    -0.003 NA
ENDBRANCH  27  28
ENDBRANCH  26  27
ENDBRANCH  25  26
ENDBRANCH  19  25
BRANCH  20  31
ATOM     31  O   UNL     1      30.878  38.868   6.553  1.00  0.00    -0.387 OA
ATOM     32  H   UNL     1      31.027  39.694   7.082  1.00  0.00     0.211 HD
ENDBRANCH  20  31
BRANCH  21  33
ATOM     33  O   UNL     1      30.603  41.175   5.121  1.00  0.00    -0.385 OA
ATOM     34  H   UNL     1      30.336  41.939   4.542  1.00  0.00     0.211 HD
ENDBRANCH  21  33
ENDBRANCH  15  16
ENDBRANCH  10  15
BRANCH  12  35
ATOM     35  O   UNL     1      30.733  36.325   8.327  1.00  0.00    -0.385 OA
ATOM     36  H   UNL     1      31.056  36.330   9.243  1.00  0.00     0.211 HD
ENDBRANCH  12  35
BRANCH  13  37
ATOM     37  O   UNL     1      27.926  37.501  10.005  1.00  0.00    -0.387 OA
ATOM     38  H   UNL     1      27.746  38.109   9.244  1.00  0.00     0.211 HD
ENDBRANCH  13  37
BRANCH  14  39
ATOM     39  O   UNL     1      27.221  35.048  10.697  1.00  0.00    -0.387 OA
ATOM     40  H   UNL     1      26.635  34.271  10.624  1.00  0.00     0.211 HD
ENDBRANCH  14  39
ENDBRANCH   8   9
ENDBRANCH   7   8
ENDBRANCH   1   7
BRANCH   1  41
ATOM     41  C   UNL     1      24.136  37.031  10.811  1.00  0.00     0.364 C 
ATOM     42  O   UNL     1      23.238  36.655  11.575  1.00  0.00    -0.246 OA
BRANCH  41  43
ATOM     43  O   UNL     1      25.292  37.518  11.430  1.00  0.00    -0.477 OA
ATOM     44  H   UNL     1      26.178  37.575  10.901  1.00  0.00     0.296 HD
ENDBRANCH  41  43
ENDBRANCH   1  41
BRANCH   3  45
ATOM     45  O   UNL     1      22.609  36.998   6.823  1.00  0.00    -0.391 OA
ATOM     46  H   UNL     1      22.812  37.964   6.900  1.00  0.00     0.211 HD
ENDBRANCH   3  45
BRANCH   5  47
ATOM     47  C   UNL     1      22.156  39.935   8.528  1.00  0.00     0.176 C 
BRANCH  47  48
ATOM     48  O   UNL     1      22.588  39.968   7.237  1.00  0.00    -0.388 OA
ATOM     49  H   UNL     1      21.832  40.148   6.630  1.00  0.00     0.211 HD
ENDBRANCH  47  48
BRANCH  47  50
ATOM     50  C   UNL     1      20.865  40.590   8.756  1.00  0.00     0.165 C 
BRANCH  50  51
ATOM     51  O   UNL     1      19.956  40.511   7.692  1.00  0.00    -0.388 OA
ATOM     52  H   UNL     1      20.017  39.628   7.245  1.00  0.00     0.211 HD
ENDBRANCH  50  51
BRANCH  50  53
ATOM     53  C   UNL     1      20.902  42.026   9.205  1.00  0.00     0.154 C 
BRANCH  53  54
ATOM     54  N   UNL     1      22.316  42.382   9.414  1.00  0.00    -0.319 N 
ATOM     55  C   UNL     1      22.728  43.218  10.491  1.00  0.00     0.407 C 
ATOM     56  H   UNL     1      23.008  42.007   8.756  1.00  0.00     0.167 HD
ATOM     57  O   UNL     1      21.829  43.644  11.263  1.00  0.00    -0.225 OA
BRANCH  55  58
ATOM     58  O   UNL     1      24.039  43.568  10.711  1.00  0.00    -0.443 OA
BRANCH  58  59
ATOM     59  C   UNL     1      24.822  42.887  11.663  1.00  0.00     0.294 C 
BRANCH  59  60
ATOM     60  C   UNL     1      25.686  41.915  10.953  1.00  0.00     0.120 A 
ATOM     61  C   UNL     1      26.948  42.124  10.408  1.00  0.00     0.138 A 
ATOM     62  N   UNL     1      25.412  40.622  10.685  1.00  0.00    -0.132 NA
ATOM     63  N   UNL     1      27.378  40.978   9.846  1.00  0.00    -0.248 N 
ATOM     64  N   UNL     1      26.433  40.091  10.027  1.00  0.00    -0.067 NA
BRANCH  63  65
ATOM     65  C   UNL     1      28.636  40.792   9.187  1.00  0.00     0.181 C 
BRANCH  65  66
ATOM     66  C   UNL     1      29.813  41.178  10.001  1.00  0.00    -0.023 A 
ATOM     67  C   UNL     1      30.129  40.475  11.121  1.00  0.00     0.010 A 
ATOM     68  C   UNL     1      30.602  42.269   9.621  1.00  0.00     0.056 A 
ATOM     69  C   UNL     1      31.221  40.851  11.861  1.00  0.00     0.051 A 
ATOM     70  C   UNL     1      31.693  42.655  10.350  1.00  0.00     0.166 A 
ATOM     71  C   UNL     1      31.988  41.920  11.484  1.00  0.00     0.165 A 
ATOM     72  O   UNL     1      32.653  43.646  10.264  1.00  0.00    -0.454 OA
ATOM     73  O   UNL     1      33.128  42.461  12.092  1.00  0.00    -0.454 OA
ATOM     74  C   UNL     1      33.734  43.292  11.124  1.00  0.00     0.468 C 
ENDBRANCH  65  66
ENDBRANCH  63  65
ENDBRANCH  59  60
ENDBRANCH  58  59
ENDBRANCH  55  58
ENDBRANCH  53  54
ENDBRANCH  50  53
ENDBRANCH  47  50
ENDBRANCH   5  47
BRANCH   4  75
ATOM     75  N   UNL     1      20.495  36.939   9.636  1.00  0.00    -0.348 N 
ATOM     76  C   UNL     1      19.079  37.177   9.618  1.00  0.00     0.217 C 
ATOM     77  H   UNL     1      20.811  36.290  10.379  1.00  0.00     0.163 HD
ATOM     78  C   UNL     1      18.206  36.501  10.637  1.00  0.00     0.114 C 
ATOM     79  O   UNL     1      18.577  37.940   8.759  1.00  0.00    -0.275 OA
ENDBRANCH   4  75
TORSDOF 31
BEGIN_RES LYS A 131
REMARK  4 active torsions:
REMARK  status: ('A' for Active; 'I' for Inactive)
REMARK    1  A    between atoms: CA   and  CB  
REMARK    2  A    between atoms: CB   and  CG  
REMARK    3  A    between atoms: CG   and  CD  
REMARK    4  A    between atoms: CD   and  CE  
ROOT
ATOM      1  CA  LYS A 131      29.867  25.555  16.977  1.00 20.52     0.186 C 
ENDROOT
BRANCH   1   2
ATOM      2  CB  LYS A 131      28.345  25.722  17.026  1.00 20.94     0.034 C 
BRANCH   2   3
ATOM      3  CG  LYS A 131      27.599  24.431  16.726  1.00 22.96     0.005 C 
BRANCH   3   4
ATOM      4  CD  LYS A 131      26.947  23.855  17.952  1.00 24.33     0.041 C 
BRANCH   4   5
ATOM      5  CE  LYS A 131      25.601  23.245  17.574  1.00 26.91     0.338 C 
ATOM      6  NZ  LYS A 131      24.746  24.252  16.901  1.00 27.40     0.618 N 
ENDBRANCH   4   5
ENDBRANCH   3   4
ENDBRANCH   2   3
ENDBRANCH   1   2
END_RES LYS A 131
BEGIN_RES LYS A 135
REMARK  4 active torsions:
REMARK  status: ('A' for Active; 'I' for Inactive)
REMARK    5  A    between atoms: CA   and  CB  
REMARK    6  A    between atoms: CB   and  CG  
REMARK    7  A    between atoms: CG   and  CD  
REMARK    8  A    between atoms: CD   and  CE  
ROOT
ATOM      7  CA  LYS A 135      33.193  34.663   9.290  1.00 25.02     0.186 C 
ENDROOT
BRANCH   7   8
ATOM      8  CB  LYS A 135      32.060  35.360  10.034  1.00 26.63     0.034 C 
BRANCH   8   9
ATOM      9  CG  LYS A 135      32.465  35.897  11.383  1.00 29.45     0.005 C 
BRANCH   9  10
ATOM     10  CD  LYS A 135      31.777  37.224  11.661  1.00 32.00     0.041 C 
BRANCH  10  11
ATOM     11  CE  LYS A 135      30.664  37.044  12.675  1.00 34.25     0.338 C 
ATOM     12  NZ  LYS A 135      30.999  35.976  13.657  1.00 35.99     0.618 N 
ENDBRANCH  10  11
ENDBRANCH   9  10
ENDBRANCH   8   9
ENDBRANCH   7   8
END_RES LYS A 135
