REMARK VINA RESULT:    -4.502      4.351      9.669
REMARK INTER + INTRA:         -22.791
REMARK INTER:                 -11.638
REMARK INTRA:                 -11.153
REMARK UNBOUND:               -11.447
REMARK SMILES CC(=O)N[C@@H]1[C@@H](O)C[C@](OC[C@H]2O[C@@H](O[C@H]3[C@H](O)[C@@H](O)[C@H](OCCN=[N+]=[N-])O[C@@H]3CO)[C@H](O)[C@@H](O)[C@H]2O)(C(=O)O)O[C@H]1C(O)[C@H](O)CNC(=O)OCc1cn(-c2ccccc2C(C)C)nn1
REMARK SMILES IDX 9 1 8 2 6 3 5 4 42 5 41 6 10 7 11 8 12 9 14 10 13 11 32 12
REMARK SMILES IDX 34 13 36 14 15 15 16 16 29 17 28 18 21 19 17 20 19 21 30 22
REMARK SMILES IDX 31 23 22 25 23 26 24 27 25 28 26 29 27 30 18 31 20 33 33 35
REMARK SMILES IDX 35 37 37 39 38 41 39 42 40 43 7 45 43 47 44 48 45 50 46 51
REMARK SMILES IDX 47 53 48 54 49 55 50 57 51 58 52 59 53 60 54 61 66 62 55 63
REMARK SMILES IDX 65 64 56 65 61 66 57 67 60 68 58 69 59 70 62 71 63 72 64 73
REMARK SMILES IDX 4 74 2 75 1 77 3 78
REMARK H PARENT 31 24 18 32 20 34 33 36 35 38 37 40 40 44 7 46 44 49 46 52
REMARK H PARENT 48 56 4 76
REMARK Flexibility Score: inf
ROOT
ATOM      1  C   UNL     1      29.935  32.177  17.587  1.00  0.00     0.272 C 
ATOM      2  C   UNL     1      30.063  30.849  16.877  1.00  0.00     0.113 C 
ATOM      3  C   UNL     1      28.854  30.698  15.966  1.00  0.00     0.145 C 
ATOM      4  C   UNL     1      27.630  30.518  16.882  1.00  0.00     0.142 C 
ATOM      5  C   UNL     1      27.663  31.609  17.885  1.00  0.00     0.178 C 
ATOM      6  O   UNL     1      28.570  32.581  17.489  1.00  0.00    -0.332 OA
ENDROOT
BRANCH   1   7
ATOM      7  O   UNL     1      30.598  33.164  16.957  1.00  0.00    -0.338 OA
BRANCH   7   8
ATOM      8  C   UNL     1      31.622  33.152  16.175  1.00  0.00     0.199 C 
BRANCH   8   9
ATOM      9  C   UNL     1      31.771  33.997  14.951  1.00  0.00     0.179 C 
ATOM     10  C   UNL     1      30.723  34.760  13.084  1.00  0.00     0.282 C 
ATOM     11  O   UNL     1      30.773  33.810  14.027  1.00  0.00    -0.341 OA
ATOM     12  C   UNL     1      31.957  35.639  12.938  1.00  0.00     0.202 C 
ATOM     13  C   UNL     1      32.349  36.270  14.247  1.00  0.00     0.179 C 
ATOM     14  C   UNL     1      31.726  35.487  15.366  1.00  0.00     0.177 C 
BRANCH  10  15
ATOM     15  O   UNL     1      29.630  35.570  13.043  1.00  0.00    -0.341 OA
BRANCH  15  16
ATOM     16  C   UNL     1      28.384  35.018  12.881  1.00  0.00     0.184 C 
ATOM     17  C   UNL     1      27.724  35.394  11.597  1.00  0.00     0.178 C 
ATOM     18  O   UNL     1      26.532  36.010  11.753  1.00  0.00    -0.341 OA
ATOM     19  C   UNL     1      25.549  35.426  12.491  1.00  0.00     0.281 C 
ATOM     20  C   UNL     1      27.469  35.164  14.028  1.00  0.00     0.180 C 
ATOM     21  C   UNL     1      26.122  34.584  13.632  1.00  0.00     0.202 C 
BRANCH  17  22
ATOM     22  C   UNL     1      27.522  34.204  10.644  1.00  0.00     0.191 C 
BRANCH  22  23
ATOM     23  O   UNL     1      26.850  34.697   9.502  1.00  0.00    -0.394 OA
ATOM     24  H   UNL     1      27.433  35.438   9.143  1.00  0.00     0.210 HD
ENDBRANCH  22  23
ENDBRANCH  17  22
BRANCH  19  25
ATOM     25  O   UNL     1      24.782  34.602  11.712  1.00  0.00    -0.350 OA
BRANCH  25  26
ATOM     26  C   UNL     1      23.483  34.942  11.497  1.00  0.00     0.169 C 
BRANCH  26  27
ATOM     27  C   UNL     1      23.071  35.316  10.122  1.00  0.00     0.119 C 
BRANCH  27  28
ATOM     28  N   UNL     1      23.508  36.624   9.767  1.00  0.00    -0.092 NA
ATOM     29  N   UNL     1      24.488  36.921   9.113  1.00  0.00     0.001 N 
ATOM     30  N   UNL     1      25.414  37.042   8.321  1.00  0.00    -0.003 NA
ENDBRANCH  27  28
ENDBRANCH  26  27
ENDBRANCH  25  26
ENDBRANCH  19  25
BRANCH  20  31
ATOM     31  O   UNL     1      27.864  34.477  15.174  1.00  0.00    -0.387 OA
ATOM     32  H   UNL     1      27.126  34.516  15.823  1.00  0.00     0.211 HD
ENDBRANCH  20  31
BRANCH  21  33
ATOM     33  O   UNL     1      25.226  34.646  14.700  1.00  0.00    -0.385 OA
ATOM     34  H   UNL     1      24.316  34.563  14.316  1.00  0.00     0.211 HD
ENDBRANCH  21  33
ENDBRANCH  15  16
ENDBRANCH  10  15
BRANCH  12  35
ATOM     35  O   UNL     1      32.982  34.855  12.438  1.00  0.00    -0.385 OA
ATOM     36  H   UNL     1      32.778  33.881  12.604  1.00  0.00     0.211 HD
ENDBRANCH  12  35
BRANCH  13  37
ATOM     37  O   UNL     1      31.923  37.605  14.259  1.00  0.00    -0.387 OA
ATOM     38  H   UNL     1      32.063  37.950  13.342  1.00  0.00     0.211 HD
ENDBRANCH  13  37
BRANCH  14  39
ATOM     39  O   UNL     1      30.397  35.832  15.496  1.00  0.00    -0.387 OA
ATOM     40  H   UNL     1      30.116  35.616  16.421  1.00  0.00     0.211 HD
ENDBRANCH  14  39
ENDBRANCH   8   9
ENDBRANCH   7   8
ENDBRANCH   1   7
BRANCH   1  41
ATOM     41  C   UNL     1      30.269  32.069  19.012  1.00  0.00     0.364 C 
ATOM     42  O   UNL     1      30.357  33.172  19.660  1.00  0.00    -0.246 OA
BRANCH  41  43
ATOM     43  O   UNL     1      30.507  30.943  19.756  1.00  0.00    -0.477 OA
ATOM     44  H   UNL     1      30.936  30.093  19.440  1.00  0.00     0.296 HD
ENDBRANCH  41  43
ENDBRANCH   1  41
BRANCH   3  45
ATOM     45  O   UNL     1      28.621  31.900  15.290  1.00  0.00    -0.391 OA
ATOM     46  H   UNL     1      28.337  32.564  15.966  1.00  0.00     0.211 HD
ENDBRANCH   3  45
BRANCH   5  47
ATOM     47  C   UNL     1      26.384  32.346  18.144  1.00  0.00     0.176 C 
BRANCH  47  48
ATOM     48  O   UNL     1      26.374  33.357  17.120  1.00  0.00    -0.388 OA
ATOM     49  H   UNL     1      25.996  32.843  16.338  1.00  0.00     0.211 HD
ENDBRANCH  47  48
BRANCH  47  50
ATOM     50  C   UNL     1      26.285  33.093  19.436  1.00  0.00     0.165 C 
BRANCH  50  51
ATOM     51  O   UNL     1      25.268  32.674  20.250  1.00  0.00    -0.388 OA
ATOM     52  H   UNL     1      25.127  31.711  20.059  1.00  0.00     0.211 HD
ENDBRANCH  50  51
BRANCH  50  53
ATOM     53  C   UNL     1      26.519  34.551  19.307  1.00  0.00     0.154 C 
BRANCH  53  54
ATOM     54  N   UNL     1      27.904  34.970  19.394  1.00  0.00    -0.319 N 
ATOM     55  C   UNL     1      28.503  35.768  18.388  1.00  0.00     0.407 C 
ATOM     56  H   UNL     1      28.517  34.706  20.195  1.00  0.00     0.167 HD
ATOM     57  O   UNL     1      27.902  36.162  17.364  1.00  0.00    -0.225 OA
BRANCH  55  58
ATOM     58  O   UNL     1      29.851  36.195  18.454  1.00  0.00    -0.443 OA
BRANCH  58  59
ATOM     59  C   UNL     1      30.216  37.215  19.333  1.00  0.00     0.294 C 
BRANCH  59  60
ATOM     60  C   UNL     1      31.694  37.174  19.519  1.00  0.00     0.121 A 
ATOM     61  C   UNL     1      32.573  36.114  19.475  1.00  0.00     0.144 A 
ATOM     62  N   UNL     1      32.496  38.255  19.781  1.00  0.00    -0.131 NA
ATOM     63  N   UNL     1      33.833  36.521  19.697  1.00  0.00    -0.220 N 
ATOM     64  N   UNL     1      33.743  37.846  19.881  1.00  0.00    -0.062 NA
BRANCH  63  65
ATOM     65  C   UNL     1      35.039  35.765  19.732  1.00  0.00     0.070 A 
ATOM     66  C   UNL     1      35.914  35.840  18.671  1.00  0.00    -0.020 A 
ATOM     67  C   UNL     1      35.384  34.938  20.777  1.00  0.00     0.029 A 
ATOM     68  C   UNL     1      37.087  35.111  18.661  1.00  0.00     0.006 A 
ATOM     69  C   UNL     1      36.555  34.203  20.784  1.00  0.00     0.002 A 
ATOM     70  C   UNL     1      37.419  34.289  19.711  1.00  0.00     0.000 A 
BRANCH  66  71
ATOM     71  C   UNL     1      35.587  36.723  17.533  1.00  0.00     0.015 C 
ATOM     72  C   UNL     1      35.641  35.892  16.260  1.00  0.00     0.012 C 
ATOM     73  C   UNL     1      36.656  37.822  17.418  1.00  0.00     0.012 C 
ENDBRANCH  66  71
ENDBRANCH  63  65
ENDBRANCH  59  60
ENDBRANCH  58  59
ENDBRANCH  55  58
ENDBRANCH  53  54
ENDBRANCH  50  53
ENDBRANCH  47  50
ENDBRANCH   5  47
BRANCH   4  74
ATOM     74  N   UNL     1      27.736  29.203  17.471  1.00  0.00    -0.348 N 
ATOM     75  C   UNL     1      27.740  28.932  18.848  1.00  0.00     0.217 C 
ATOM     76  H   UNL     1      27.824  28.374  16.810  1.00  0.00     0.163 HD
ATOM     77  C   UNL     1      27.862  27.505  19.302  1.00  0.00     0.114 C 
ATOM     78  O   UNL     1      27.645  29.846  19.678  1.00  0.00    -0.275 OA
ENDBRANCH   4  74
TORSDOF 31
BEGIN_RES LYS A 131
REMARK  4 active torsions:
REMARK  status: ('A' for Active; 'I' for Inactive)
REMARK    1  A    between atoms: CA   and  CB  
REMARK    2  A    between atoms: CB   and  CG  
REMARK    3  A    between atoms: CG   and  CD  
REMARK    4  A    between atoms: CD   and  CE  
ROOT
ATOM      1  CA  LYS A 131      29.867  25.555  16.977  1.00 20.52     0.186 C 
ENDROOT
BRANCH   1   2
ATOM      2  CB  LYS A 131      28.345  25.722  17.026  1.00 20.94     0.034 C 
BRANCH   2   3
ATOM      3  CG  LYS A 131      27.601  24.402  16.890  1.00 22.96     0.005 C 
BRANCH   3   4
ATOM      4  CD  LYS A 131      26.520  24.252  17.924  1.00 24.33     0.041 C 
BRANCH   4   5
ATOM      5  CE  LYS A 131      25.186  23.995  17.232  1.00 26.91     0.338 C 
ATOM      6  NZ  LYS A 131      24.242  25.107  17.495  1.00 27.40     0.618 N 
ENDBRANCH   4   5
ENDBRANCH   3   4
ENDBRANCH   2   3
ENDBRANCH   1   2
END_RES LYS A 131
BEGIN_RES LYS A 135
REMARK  4 active torsions:
REMARK  status: ('A' for Active; 'I' for Inactive)
REMARK    5  A    between atoms: CA   and  CB  
REMARK    6  A    between atoms: CB   and  CG  
REMARK    7  A    between atoms: CG   and  CD  
REMARK    8  A    between atoms: CD   and  CE  
ROOT
ATOM      7  CA  LYS A 135      33.193  34.663   9.290  1.00 25.02     0.186 C 
ENDROOT
BRANCH   7   8
ATOM      8  CB  LYS A 135      32.060  35.360  10.034  1.00 26.63     0.034 C 
BRANCH   8   9
ATOM      9  CG  LYS A 135      30.726  35.246   9.343  1.00 29.45     0.005 C 
BRANCH   9  10
ATOM     10  CD  LYS A 135      30.113  36.622   9.129  1.00 32.00     0.041 C 
BRANCH  10  11
ATOM     11  CE  LYS A 135      29.266  36.638   7.871  1.00 34.25     0.338 C 
ATOM     12  NZ  LYS A 135      29.244  35.297   7.222  1.00 35.99     0.618 N 
ENDBRANCH  10  11
ENDBRANCH   9  10
ENDBRANCH   8   9
ENDBRANCH   7   8
END_RES LYS A 135
