REMARK VINA RESULT:    -5.983      0.000      0.000
REMARK INTER + INTRA:         -24.842
REMARK INTER:                 -14.024
REMARK INTRA:                 -10.818
REMARK UNBOUND:                -9.416
REMARK SMILES CC(=O)N[C@@H]1[C@@H](O)C[C@](OC[C@H]2O[C@@H](O[C@H]3[C@H](O)[C@@H](O)[C@H](OCCN=[N+]=[N-])O[C@@H]3CO)[C@H](O)[C@@H](O)[C@H]2O)(C(=O)O)O[C@H]1C(O)[C@H](O)CNC(=O)OCc1cn(C(C)(C)C(=O)c2c[nH]c3ccccc23)nn1
REMARK SMILES IDX 9 1 8 2 6 3 5 4 42 5 41 6 10 7 11 8 12 9 14 10 13 11 32 12
REMARK SMILES IDX 34 13 36 14 15 15 16 16 29 17 28 18 21 19 17 20 19 21 30 22
REMARK SMILES IDX 31 23 22 25 23 26 24 27 25 28 26 29 27 30 18 31 20 33 33 35
REMARK SMILES IDX 35 37 37 39 38 41 39 42 40 43 7 45 43 47 44 48 45 50 46 51
REMARK SMILES IDX 47 53 48 54 49 55 50 57 51 58 52 59 53 60 54 61 71 62 55 63
REMARK SMILES IDX 70 64 56 65 57 66 58 67 59 68 60 69 61 70 62 71 69 72 63 73
REMARK SMILES IDX 64 74 68 75 65 77 67 78 66 79 4 80 2 81 1 83 3 84
REMARK H PARENT 31 24 18 32 20 34 33 36 35 38 37 40 40 44 7 46 44 49 46 52
REMARK H PARENT 48 56 63 76 4 82
REMARK Flexibility Score: inf
ROOT
ATOM      1  C   UNL     1      23.530  35.969   9.432  1.00  0.00     0.272 C 
ATOM      2  C   UNL     1      22.258  35.647   8.666  1.00  0.00     0.113 C 
ATOM      3  C   UNL     1      21.945  36.701   7.634  1.00  0.00     0.145 C 
ATOM      4  C   UNL     1      21.560  38.024   8.383  1.00  0.00     0.142 C 
ATOM      5  C   UNL     1      22.446  38.057   9.585  1.00  0.00     0.178 C 
ATOM      6  O   UNL     1      23.615  37.362   9.358  1.00  0.00    -0.332 OA
ENDROOT
BRANCH   1   7
ATOM      7  O   UNL     1      24.655  35.369   9.034  1.00  0.00    -0.338 OA
BRANCH   7   8
ATOM      8  C   UNL     1      25.918  35.614   9.138  1.00  0.00     0.199 C 
BRANCH   8   9
ATOM      9  C   UNL     1      26.816  34.790   8.211  1.00  0.00     0.179 C 
ATOM     10  C   UNL     1      28.475  36.398   7.675  1.00  0.00     0.282 C 
ATOM     11  O   UNL     1      27.461  35.581   7.322  1.00  0.00    -0.341 OA
ATOM     12  C   UNL     1      29.476  35.772   8.606  1.00  0.00     0.202 C 
ATOM     13  C   UNL     1      29.196  34.279   8.737  1.00  0.00     0.179 C 
ATOM     14  C   UNL     1      27.777  33.997   9.053  1.00  0.00     0.177 C 
BRANCH  10  15
ATOM     15  O   UNL     1      27.989  37.556   8.257  1.00  0.00    -0.341 OA
BRANCH  15  16
ATOM     16  C   UNL     1      27.859  38.598   7.384  1.00  0.00     0.184 C 
ATOM     17  C   UNL     1      28.591  39.853   7.692  1.00  0.00     0.178 C 
ATOM     18  O   UNL     1      28.672  40.575   6.484  1.00  0.00    -0.341 OA
ATOM     19  C   UNL     1      27.459  40.943   5.979  1.00  0.00     0.281 C 
ATOM     20  C   UNL     1      26.415  38.974   7.117  1.00  0.00     0.180 C 
ATOM     21  C   UNL     1      26.445  39.826   5.866  1.00  0.00     0.202 C 
BRANCH  17  22
ATOM     22  C   UNL     1      30.025  39.652   8.136  1.00  0.00     0.191 C 
BRANCH  22  23
ATOM     23  O   UNL     1      30.658  38.879   7.156  1.00  0.00    -0.394 OA
ATOM     24  H   UNL     1      30.107  38.121   6.854  1.00  0.00     0.210 HD
ENDBRANCH  22  23
ENDBRANCH  17  22
BRANCH  19  25
ATOM     25  O   UNL     1      27.664  41.404   4.675  1.00  0.00    -0.350 OA
BRANCH  25  26
ATOM     26  C   UNL     1      27.987  42.747   4.731  1.00  0.00     0.169 C 
BRANCH  26  27
ATOM     27  C   UNL     1      27.147  43.583   3.803  1.00  0.00     0.119 C 
BRANCH  27  28
ATOM     28  N   UNL     1      26.009  42.874   3.261  1.00  0.00    -0.092 NA
ATOM     29  N   UNL     1      24.855  43.100   3.676  1.00  0.00     0.001 N 
ATOM     30  N   UNL     1      23.771  43.684   3.756  1.00  0.00    -0.003 NA
ENDBRANCH  27  28
ENDBRANCH  26  27
ENDBRANCH  25  26
ENDBRANCH  19  25
BRANCH  20  31
ATOM     31  O   UNL     1      25.601  37.883   6.918  1.00  0.00    -0.387 OA
ATOM     32  H   UNL     1      25.338  37.863   5.973  1.00  0.00     0.211 HD
ENDBRANCH  20  31
BRANCH  21  33
ATOM     33  O   UNL     1      25.192  40.420   5.727  1.00  0.00    -0.385 OA
ATOM     34  H   UNL     1      24.477  39.749   5.559  1.00  0.00     0.211 HD
ENDBRANCH  21  33
ENDBRANCH  15  16
ENDBRANCH  10  15
BRANCH  12  35
ATOM     35  O   UNL     1      30.803  35.987   8.235  1.00  0.00    -0.385 OA
ATOM     36  H   UNL     1      30.887  36.876   7.830  1.00  0.00     0.211 HD
ENDBRANCH  12  35
BRANCH  13  37
ATOM     37  O   UNL     1      30.051  33.840   9.776  1.00  0.00    -0.387 OA
ATOM     38  H   UNL     1      30.903  33.499   9.409  1.00  0.00     0.211 HD
ENDBRANCH  13  37
BRANCH  14  39
ATOM     39  O   UNL     1      27.498  34.315  10.406  1.00  0.00    -0.387 OA
ATOM     40  H   UNL     1      27.964  33.667  10.996  1.00  0.00     0.211 HD
ENDBRANCH  14  39
ENDBRANCH   8   9
ENDBRANCH   7   8
ENDBRANCH   1   7
BRANCH   1  41
ATOM     41  C   UNL     1      23.314  35.572  10.841  1.00  0.00     0.364 C 
ATOM     42  O   UNL     1      22.380  34.772  11.107  1.00  0.00    -0.246 OA
BRANCH  41  43
ATOM     43  O   UNL     1      24.064  36.024  11.880  1.00  0.00    -0.477 OA
ATOM     44  H   UNL     1      24.597  35.462  12.540  1.00  0.00     0.296 HD
ENDBRANCH  41  43
ENDBRANCH   1  41
BRANCH   3  45
ATOM     45  O   UNL     1      22.996  37.083   6.834  1.00  0.00    -0.391 OA
ATOM     46  H   UNL     1      23.045  36.577   5.973  1.00  0.00     0.211 HD
ENDBRANCH   3  45
BRANCH   5  47
ATOM     47  C   UNL     1      22.838  39.388  10.113  1.00  0.00     0.176 C 
BRANCH  47  48
ATOM     48  O   UNL     1      22.252  40.441   9.447  1.00  0.00    -0.388 OA
ATOM     49  H   UNL     1      21.280  40.325   9.252  1.00  0.00     0.211 HD
ENDBRANCH  47  48
BRANCH  47  50
ATOM     50  C   UNL     1      22.866  39.545  11.617  1.00  0.00     0.165 C 
BRANCH  50  51
ATOM     51  O   UNL     1      23.789  38.760  12.228  1.00  0.00    -0.388 OA
ATOM     52  H   UNL     1      24.632  38.723  11.754  1.00  0.00     0.211 HD
ENDBRANCH  50  51
BRANCH  50  53
ATOM     53  C   UNL     1      21.463  39.473  12.124  1.00  0.00     0.154 C 
BRANCH  53  54
ATOM     54  N   UNL     1      21.162  38.479  13.085  1.00  0.00    -0.319 N 
ATOM     55  C   UNL     1      20.448  37.267  12.787  1.00  0.00     0.407 C 
ATOM     56  H   UNL     1      21.467  38.601  14.098  1.00  0.00     0.167 HD
ATOM     57  O   UNL     1      20.023  37.025  11.639  1.00  0.00    -0.225 OA
BRANCH  55  58
ATOM     58  O   UNL     1      20.208  36.327  13.771  1.00  0.00    -0.443 OA
BRANCH  58  59
ATOM     59  C   UNL     1      20.808  36.399  15.033  1.00  0.00     0.294 C 
BRANCH  59  60
ATOM     60  C   UNL     1      22.221  35.923  14.903  1.00  0.00     0.120 A 
ATOM     61  C   UNL     1      22.624  34.575  14.909  1.00  0.00     0.139 A 
ATOM     62  N   UNL     1      23.367  36.605  14.784  1.00  0.00    -0.132 NA
ATOM     63  N   UNL     1      23.957  34.504  14.800  1.00  0.00    -0.239 N 
ATOM     64  N   UNL     1      24.394  35.738  14.725  1.00  0.00    -0.066 NA
BRANCH  63  65
ATOM     65  C   UNL     1      24.725  33.277  14.771  1.00  0.00     0.122 C 
ATOM     66  C   UNL     1      24.085  32.338  15.853  1.00  0.00     0.046 C 
ATOM     67  C   UNL     1      26.147  33.442  15.253  1.00  0.00     0.046 C 
BRANCH  65  68
ATOM     68  C   UNL     1      24.610  32.582  13.504  1.00  0.00     0.192 C 
ATOM     69  O   UNL     1      25.181  33.198  12.502  1.00  0.00    -0.291 OA
BRANCH  68  70
ATOM     70  C   UNL     1      23.980  31.343  13.165  1.00  0.00     0.045 A 
ATOM     71  C   UNL     1      24.662  30.121  13.095  1.00  0.00     0.095 A 
ATOM     72  C   UNL     1      22.668  31.077  12.830  1.00  0.00     0.010 A 
ATOM     73  N   UNL     1      23.795  29.194  12.737  1.00  0.00    -0.360 N 
ATOM     74  C   UNL     1      22.578  29.708  12.562  1.00  0.00     0.046 A 
ATOM     75  C   UNL     1      21.529  31.825  12.714  1.00  0.00     0.011 A 
ATOM     76  H   UNL     1      24.063  28.176  12.612  1.00  0.00     0.166 HD
ATOM     77  C   UNL     1      21.378  29.126  12.192  1.00  0.00     0.027 A 
ATOM     78  C   UNL     1      20.323  31.235  12.341  1.00  0.00     0.001 A 
ATOM     79  C   UNL     1      20.257  29.897  12.084  1.00  0.00     0.002 A 
ENDBRANCH  68  70
ENDBRANCH  65  68
ENDBRANCH  63  65
ENDBRANCH  59  60
ENDBRANCH  58  59
ENDBRANCH  55  58
ENDBRANCH  53  54
ENDBRANCH  50  53
ENDBRANCH  47  50
ENDBRANCH   5  47
BRANCH   4  80
ATOM     80  N   UNL     1      20.173  37.777   8.766  1.00  0.00    -0.348 N 
ATOM     81  C   UNL     1      19.154  38.761   8.735  1.00  0.00     0.217 C 
ATOM     82  H   UNL     1      19.902  36.809   9.091  1.00  0.00     0.163 HD
ATOM     83  C   UNL     1      17.744  38.505   9.130  1.00  0.00     0.114 C 
ATOM     84  O   UNL     1      19.505  39.925   8.339  1.00  0.00    -0.275 OA
ENDBRANCH   4  80
TORSDOF 32
BEGIN_RES LYS A 131
REMARK  4 active torsions:
REMARK  status: ('A' for Active; 'I' for Inactive)
REMARK    1  A    between atoms: CA   and  CB  
REMARK    2  A    between atoms: CB   and  CG  
REMARK    3  A    between atoms: CG   and  CD  
REMARK    4  A    between atoms: CD   and  CE  
ROOT
ATOM      1  CA  LYS A 131      29.867  25.555  16.977  1.00 20.52     0.186 C 
ENDROOT
BRANCH   1   2
ATOM      2  CB  LYS A 131      28.345  25.722  17.026  1.00 20.94     0.034 C 
BRANCH   2   3
ATOM      3  CG  LYS A 131      27.601  24.407  16.857  1.00 22.96     0.005 C 
BRANCH   3   4
ATOM      4  CD  LYS A 131      26.579  24.191  17.938  1.00 24.33     0.041 C 
BRANCH   4   5
ATOM      5  CE  LYS A 131      25.220  23.908  17.306  1.00 26.91     0.338 C 
ATOM      6  NZ  LYS A 131      24.828  22.496  17.527  1.00 27.40     0.618 N 
ENDBRANCH   4   5
ENDBRANCH   3   4
ENDBRANCH   2   3
ENDBRANCH   1   2
END_RES LYS A 131
BEGIN_RES LYS A 135
REMARK  4 active torsions:
REMARK  status: ('A' for Active; 'I' for Inactive)
REMARK    5  A    between atoms: CA   and  CB  
REMARK    6  A    between atoms: CB   and  CG  
REMARK    7  A    between atoms: CG   and  CD  
REMARK    8  A    between atoms: CD   and  CE  
ROOT
ATOM      7  CA  LYS A 135      33.193  34.663   9.290  1.00 25.02     0.186 C 
ENDROOT
BRANCH   7   8
ATOM      8  CB  LYS A 135      32.060  35.360  10.034  1.00 26.63     0.034 C 
BRANCH   8   9
ATOM      9  CG  LYS A 135      32.514  36.103  11.264  1.00 29.45     0.005 C 
BRANCH   9  10
ATOM     10  CD  LYS A 135      31.437  37.068  11.736  1.00 32.00     0.041 C 
BRANCH  10  11
ATOM     11  CE  LYS A 135      30.167  36.317  12.089  1.00 34.25     0.338 C 
ATOM     12  NZ  LYS A 135      28.974  37.202  11.979  1.00 35.99     0.618 N 
ENDBRANCH  10  11
ENDBRANCH   9  10
ENDBRANCH   8   9
ENDBRANCH   7   8
END_RES LYS A 135
