REMARK VINA RESULT:    -5.316      5.746     10.976
REMARK INTER + INTRA:         -24.478
REMARK INTER:                 -11.582
REMARK INTRA:                 -12.895
REMARK UNBOUND:               -10.617
REMARK SMILES CC(=O)N[C@@H]1[C@@H](O)C[C@](OC[C@H]2O[C@@H](O[C@H]3[C@H](O)[C@@H](O)[C@H](OCCN=[N+]=[N-])O[C@@H]3CO)[C@H](O)[C@@H](O)[C@H]2O)(C(=O)O)O[C@H]1C(O)[C@H](O)CNC(=O)OCc1cn(-c2ccc(S(=O)(=O)c3ccc(N)cc3)cc2)nn1
REMARK SMILES IDX 43 1 42 2 9 3 8 4 41 5 6 6 5 7 10 8 11 9 12 10 14 11 13 12
REMARK SMILES IDX 32 13 34 14 36 15 15 16 16 17 29 18 28 19 21 20 17 21 19 22
REMARK SMILES IDX 30 23 31 24 22 26 23 27 24 28 25 29 26 30 27 31 18 32 20 34
REMARK SMILES IDX 33 36 35 38 37 40 38 42 39 43 40 44 7 46 4 48 2 49 1 51 3 52
REMARK SMILES IDX 44 53 45 55 46 56 47 58 48 59 49 60 50 62 51 63 52 64 53 65
REMARK SMILES IDX 54 66 73 67 55 68 72 69 56 70 57 71 71 72 58 73 70 74 59 75
REMARK SMILES IDX 60 76 61 77 62 78 63 79 64 80 69 81 65 82 68 83 66 84 67 85
REMARK H PARENT 31 25 18 33 20 35 33 37 35 39 37 41 40 45 7 47 4 50 44 54
REMARK H PARENT 46 57 48 61 67 86 67 87
REMARK Flexibility Score: inf
ROOT
ATOM      1  C   UNL     1      32.241  34.973  16.881  1.00  0.00     0.176 C 
ENDROOT
BRANCH   1   2
ATOM      2  C   UNL     1      30.867  34.514  16.392  1.00  0.00     0.178 C 
ATOM      3  C   UNL     1      29.371  32.750  16.415  1.00  0.00     0.272 C 
ATOM      4  C   UNL     1      29.117  32.924  14.953  1.00  0.00     0.113 C 
ATOM      5  O   UNL     1      30.652  33.220  16.758  1.00  0.00    -0.332 OA
ATOM      6  C   UNL     1      30.407  33.380  14.290  1.00  0.00     0.145 C 
ATOM      7  C   UNL     1      30.796  34.699  14.867  1.00  0.00     0.142 C 
BRANCH   3   8
ATOM      8  O   UNL     1      29.365  31.426  16.862  1.00  0.00    -0.338 OA
BRANCH   8   9
ATOM      9  C   UNL     1      28.366  30.631  16.388  1.00  0.00     0.199 C 
BRANCH   9  10
ATOM     10  C   UNL     1      28.078  29.534  17.388  1.00  0.00     0.179 C 
ATOM     11  C   UNL     1      27.732  29.104  19.604  1.00  0.00     0.282 C 
ATOM     12  O   UNL     1      27.848  30.133  18.632  1.00  0.00    -0.341 OA
ATOM     13  C   UNL     1      26.400  28.461  19.342  1.00  0.00     0.202 C 
ATOM     14  C   UNL     1      26.454  27.747  18.010  1.00  0.00     0.179 C 
ATOM     15  C   UNL     1      26.912  28.723  16.939  1.00  0.00     0.177 C 
BRANCH  11  16
ATOM     16  O   UNL     1      27.879  29.678  20.839  1.00  0.00    -0.341 OA
BRANCH  16  17
ATOM     17  C   UNL     1      28.829  30.726  20.796  1.00  0.00     0.184 C 
ATOM     18  C   UNL     1      30.136  30.180  21.276  1.00  0.00     0.178 C 
ATOM     19  O   UNL     1      30.729  30.881  22.291  1.00  0.00    -0.341 OA
ATOM     20  C   UNL     1      29.967  31.184  23.381  1.00  0.00     0.281 C 
ATOM     21  C   UNL     1      28.274  31.780  21.746  1.00  0.00     0.180 C 
ATOM     22  C   UNL     1      28.475  31.208  23.135  1.00  0.00     0.202 C 
BRANCH  18  23
ATOM     23  C   UNL     1      31.098  30.289  20.078  1.00  0.00     0.191 C 
BRANCH  23  24
ATOM     24  O   UNL     1      30.732  31.270  19.190  1.00  0.00    -0.394 OA
ATOM     25  H   UNL     1      30.002  31.019  18.572  1.00  0.00     0.210 HD
ENDBRANCH  23  24
ENDBRANCH  18  23
BRANCH  20  26
ATOM     26  O   UNL     1      30.321  32.460  23.803  1.00  0.00    -0.350 OA
BRANCH  26  27
ATOM     27  C   UNL     1      31.665  32.704  23.870  1.00  0.00     0.169 C 
BRANCH  27  28
ATOM     28  C   UNL     1      31.957  34.161  23.729  1.00  0.00     0.119 C 
BRANCH  28  29
ATOM     29  N   UNL     1      31.338  34.668  22.493  1.00  0.00    -0.092 NA
ATOM     30  N   UNL     1      31.786  34.365  21.389  1.00  0.00     0.001 N 
ATOM     31  N   UNL     1      31.923  33.747  20.319  1.00  0.00    -0.003 NA
ENDBRANCH  28  29
ENDBRANCH  27  28
ENDBRANCH  26  27
ENDBRANCH  20  26
BRANCH  21  32
ATOM     32  O   UNL     1      28.989  32.949  21.633  1.00  0.00    -0.387 OA
ATOM     33  H   UNL     1      28.829  33.535  22.421  1.00  0.00     0.211 HD
ENDBRANCH  21  32
BRANCH  22  34
ATOM     34  O   UNL     1      27.870  29.984  23.300  1.00  0.00    -0.385 OA
ATOM     35  H   UNL     1      28.428  29.341  23.812  1.00  0.00     0.211 HD
ENDBRANCH  22  34
ENDBRANCH  16  17
ENDBRANCH  11  16
BRANCH  13  36
ATOM     36  O   UNL     1      26.008  27.604  20.368  1.00  0.00    -0.385 OA
ATOM     37  H   UNL     1      25.975  26.678  19.966  1.00  0.00     0.211 HD
ENDBRANCH  13  36
BRANCH  14  38
ATOM     38  O   UNL     1      25.149  27.381  17.653  1.00  0.00    -0.387 OA
ATOM     39  H   UNL     1      24.810  26.698  18.261  1.00  0.00     0.211 HD
ENDBRANCH  14  38
BRANCH  15  40
ATOM     40  O   UNL     1      25.858  29.517  16.511  1.00  0.00    -0.387 OA
ATOM     41  H   UNL     1      26.085  29.955  15.658  1.00  0.00     0.211 HD
ENDBRANCH  15  40
ENDBRANCH   9  10
ENDBRANCH   8   9
ENDBRANCH   3   8
BRANCH   3  42
ATOM     42  C   UNL     1      28.401  33.479  17.277  1.00  0.00     0.364 C 
ATOM     43  O   UNL     1      27.509  34.259  16.867  1.00  0.00    -0.246 OA
BRANCH  42  44
ATOM     44  O   UNL     1      28.463  33.304  18.649  1.00  0.00    -0.477 OA
ATOM     45  H   UNL     1      27.653  33.506  19.257  1.00  0.00     0.296 HD
ENDBRANCH  42  44
ENDBRANCH   3  42
BRANCH   6  46
ATOM     46  O   UNL     1      31.381  32.449  14.667  1.00  0.00    -0.391 OA
ATOM     47  H   UNL     1      31.679  31.893  13.897  1.00  0.00     0.211 HD
ENDBRANCH   6  46
BRANCH   7  48
ATOM     48  N   UNL     1      29.933  35.791  14.548  1.00  0.00    -0.348 N 
ATOM     49  C   UNL     1      30.157  36.708  13.482  1.00  0.00     0.217 C 
ATOM     50  H   UNL     1      29.069  35.941  15.125  1.00  0.00     0.163 HD
ATOM     51  C   UNL     1      29.185  37.804  13.249  1.00  0.00     0.114 C 
ATOM     52  O   UNL     1      31.167  36.550  12.783  1.00  0.00    -0.275 OA
ENDBRANCH   7  48
ENDBRANCH   1   2
BRANCH   1  53
ATOM     53  O   UNL     1      33.178  34.911  15.863  1.00  0.00    -0.388 OA
ATOM     54  H   UNL     1      32.851  35.416  15.060  1.00  0.00     0.211 HD
ENDBRANCH   1  53
BRANCH   1  55
ATOM     55  C   UNL     1      32.191  36.273  17.588  1.00  0.00     0.165 C 
BRANCH  55  56
ATOM     56  O   UNL     1      31.214  37.107  17.039  1.00  0.00    -0.388 OA
ATOM     57  H   UNL     1      31.045  36.955  16.095  1.00  0.00     0.211 HD
ENDBRANCH  55  56
BRANCH  55  58
ATOM     58  C   UNL     1      33.498  37.024  17.450  1.00  0.00     0.154 C 
BRANCH  58  59
ATOM     59  N   UNL     1      34.508  36.598  18.377  1.00  0.00    -0.319 N 
ATOM     60  C   UNL     1      35.717  36.063  17.868  1.00  0.00     0.407 C 
ATOM     61  H   UNL     1      34.374  36.672  19.397  1.00  0.00     0.167 HD
ATOM     62  O   UNL     1      35.867  35.991  16.614  1.00  0.00    -0.225 OA
BRANCH  60  63
ATOM     63  O   UNL     1      36.758  35.607  18.645  1.00  0.00    -0.443 OA
BRANCH  63  64
ATOM     64  C   UNL     1      36.779  35.652  20.055  1.00  0.00     0.294 C 
BRANCH  64  65
ATOM     65  C   UNL     1      36.888  34.264  20.569  1.00  0.00     0.121 A 
ATOM     66  C   UNL     1      35.940  33.453  21.159  1.00  0.00     0.144 A 
ATOM     67  N   UNL     1      38.020  33.492  20.525  1.00  0.00    -0.131 NA
ATOM     68  N   UNL     1      36.508  32.241  21.448  1.00  0.00    -0.220 N 
ATOM     69  N   UNL     1      37.753  32.316  21.049  1.00  0.00    -0.062 NA
BRANCH  68  70
ATOM     70  C   UNL     1      35.898  31.114  22.039  1.00  0.00     0.066 A 
ATOM     71  C   UNL     1      36.671  30.153  22.698  1.00  0.00     0.030 A 
ATOM     72  C   UNL     1      34.546  30.887  22.007  1.00  0.00     0.030 A 
ATOM     73  C   UNL     1      36.127  29.040  23.288  1.00  0.00     0.023 A 
ATOM     74  C   UNL     1      33.986  29.756  22.604  1.00  0.00     0.023 A 
ATOM     75  C   UNL     1      34.768  28.824  23.249  1.00  0.00     0.072 A 
BRANCH  75  76
ATOM     76  S   UNL     1      34.062  27.409  24.002  1.00  0.00     0.206 S 
ATOM     77  O   UNL     1      33.997  27.650  25.502  1.00  0.00    -0.219 OA
ATOM     78  O   UNL     1      34.792  26.149  23.680  1.00  0.00    -0.219 OA
BRANCH  76  79
ATOM     79  C   UNL     1      32.384  27.269  23.478  1.00  0.00     0.072 A 
ATOM     80  C   UNL     1      32.088  26.885  22.199  1.00  0.00     0.023 A 
ATOM     81  C   UNL     1      31.352  27.544  24.346  1.00  0.00     0.023 A 
ATOM     82  C   UNL     1      30.786  26.782  21.804  1.00  0.00     0.027 A 
ATOM     83  C   UNL     1      30.048  27.437  23.935  1.00  0.00     0.027 A 
ATOM     84  C   UNL     1      29.723  27.056  22.663  1.00  0.00     0.031 A 
BRANCH  84  85
ATOM     85  N   UNL     1      28.391  26.939  22.213  1.00  0.00    -0.399 N 
ATOM     86  H   UNL     1      28.173  26.819  21.214  1.00  0.00     0.156 HD
ATOM     87  H   UNL     1      27.615  26.973  22.897  1.00  0.00     0.156 HD
ENDBRANCH  84  85
ENDBRANCH  76  79
ENDBRANCH  75  76
ENDBRANCH  68  70
ENDBRANCH  64  65
ENDBRANCH  63  64
ENDBRANCH  60  63
ENDBRANCH  58  59
ENDBRANCH  55  58
ENDBRANCH   1  55
TORSDOF 33
BEGIN_RES LYS A 131
REMARK  4 active torsions:
REMARK  status: ('A' for Active; 'I' for Inactive)
REMARK    1  A    between atoms: CA   and  CB  
REMARK    2  A    between atoms: CB   and  CG  
REMARK    3  A    between atoms: CG   and  CD  
REMARK    4  A    between atoms: CD   and  CE  
ROOT
ATOM      1  CA  LYS A 131      29.867  25.555  16.977  1.00 20.52     0.186 C 
ENDROOT
BRANCH   1   2
ATOM      2  CB  LYS A 131      28.345  25.722  17.026  1.00 20.94     0.034 C 
BRANCH   2   3
ATOM      3  CG  LYS A 131      27.599  24.450  16.653  1.00 22.96     0.005 C 
BRANCH   3   4
ATOM      4  CD  LYS A 131      26.897  23.838  17.833  1.00 24.33     0.041 C 
BRANCH   4   5
ATOM      5  CE  LYS A 131      25.394  23.814  17.575  1.00 26.91     0.338 C 
ATOM      6  NZ  LYS A 131      24.868  22.434  17.700  1.00 27.40     0.618 N 
ENDBRANCH   4   5
ENDBRANCH   3   4
ENDBRANCH   2   3
ENDBRANCH   1   2
END_RES LYS A 131
BEGIN_RES LYS A 135
REMARK  4 active torsions:
REMARK  status: ('A' for Active; 'I' for Inactive)
REMARK    5  A    between atoms: CA   and  CB  
REMARK    6  A    between atoms: CB   and  CG  
REMARK    7  A    between atoms: CG   and  CD  
REMARK    8  A    between atoms: CD   and  CE  
ROOT
ATOM      7  CA  LYS A 135      33.193  34.663   9.290  1.00 25.02     0.186 C 
ENDROOT
BRANCH   7   8
ATOM      8  CB  LYS A 135      32.060  35.360  10.034  1.00 26.63     0.034 C 
BRANCH   8   9
ATOM      9  CG  LYS A 135      30.885  35.705   9.156  1.00 29.45     0.005 C 
BRANCH   9  10
ATOM     10  CD  LYS A 135      30.158  34.445   8.712  1.00 32.00     0.041 C 
BRANCH  10  11
ATOM     11  CE  LYS A 135      29.070  34.081   9.704  1.00 34.25     0.338 C 
ATOM     12  NZ  LYS A 135      27.733  34.059   9.049  1.00 35.99     0.618 N 
ENDBRANCH  10  11
ENDBRANCH   9  10
ENDBRANCH   8   9
ENDBRANCH   7   8
END_RES LYS A 135
