REMARK VINA RESULT:    -4.850      2.915      8.341
REMARK INTER + INTRA:         -24.819
REMARK INTER:                 -11.675
REMARK INTRA:                 -13.144
REMARK UNBOUND:               -11.748
REMARK SMILES CC(=O)N[C@@H]1[C@@H](O)C[C@](OC[C@H]2O[C@@H](O[C@H]3[C@H](O)[C@@H](O)[C@H](OCCN=[N+]=[N-])O[C@@H]3CO)[C@H](O)[C@@H](O)[C@H]2O)(C(=O)O)O[C@H]1C(O)[C@H](O)CNC(=O)OCc1cn([C@@H](C)C(=O)OCc2ccccc2)nn1
REMARK SMILES IDX 43 1 42 2 9 3 8 4 41 5 6 6 5 7 10 8 11 9 12 10 14 11 13 12
REMARK SMILES IDX 32 13 34 14 36 15 15 16 16 17 29 18 28 19 21 20 17 21 19 22
REMARK SMILES IDX 30 23 31 24 22 26 23 27 24 28 25 29 26 30 27 31 18 32 20 34
REMARK SMILES IDX 33 36 35 38 37 40 38 42 39 43 40 44 7 46 4 48 2 49 1 51 3 52
REMARK SMILES IDX 44 53 45 55 46 56 47 58 48 59 49 60 50 62 51 63 52 64 53 65
REMARK SMILES IDX 54 66 69 67 55 68 68 69 56 70 57 71 58 72 59 73 60 74 61 75
REMARK SMILES IDX 62 76 63 77 67 78 64 79 66 80 65 81
REMARK H PARENT 31 25 18 33 20 35 33 37 35 39 37 41 40 45 7 47 4 50 44 54
REMARK H PARENT 46 57 48 61
REMARK Flexibility Score: inf
ROOT
ATOM      1  C   UNL     1      29.600  34.301  15.487  1.00  0.00     0.176 C 
ENDROOT
BRANCH   1   2
ATOM      2  C   UNL     1      29.724  34.228  14.016  1.00  0.00     0.178 C 
ATOM      3  C   UNL     1      31.277  35.906  13.544  1.00  0.00     0.272 C 
ATOM      4  C   UNL     1      30.211  36.659  12.846  1.00  0.00     0.113 C 
ATOM      5  O   UNL     1      30.962  34.501  13.497  1.00  0.00    -0.332 OA
ATOM      6  C   UNL     1      28.826  36.406  13.392  1.00  0.00     0.145 C 
ATOM      7  C   UNL     1      28.572  34.929  13.344  1.00  0.00     0.142 C 
BRANCH   3   8
ATOM      8  O   UNL     1      31.581  36.146  14.794  1.00  0.00    -0.338 OA
BRANCH   8   9
ATOM      9  C   UNL     1      31.947  37.219  15.434  1.00  0.00     0.199 C 
BRANCH   9  10
ATOM     10  C   UNL     1      31.621  37.471  16.879  1.00  0.00     0.179 C 
ATOM     11  C   UNL     1      30.341  36.521  18.575  1.00  0.00     0.282 C 
ATOM     12  O   UNL     1      30.496  36.778  17.214  1.00  0.00    -0.341 OA
ATOM     13  C   UNL     1      31.105  37.467  19.429  1.00  0.00     0.202 C 
ATOM     14  C   UNL     1      32.584  37.345  19.183  1.00  0.00     0.179 C 
ATOM     15  C   UNL     1      32.822  37.040  17.748  1.00  0.00     0.177 C 
BRANCH  11  16
ATOM     16  O   UNL     1      30.574  35.186  18.759  1.00  0.00    -0.341 OA
BRANCH  16  17
ATOM     17  C   UNL     1      30.000  34.631  19.864  1.00  0.00     0.184 C 
ATOM     18  C   UNL     1      30.364  33.170  19.936  1.00  0.00     0.178 C 
ATOM     19  O   UNL     1      29.658  32.553  20.975  1.00  0.00    -0.341 OA
ATOM     20  C   UNL     1      28.395  32.239  20.413  1.00  0.00     0.281 C 
ATOM     21  C   UNL     1      28.482  34.708  19.843  1.00  0.00     0.180 C 
ATOM     22  C   UNL     1      27.790  33.405  19.697  1.00  0.00     0.202 C 
BRANCH  18  23
ATOM     23  C   UNL     1      31.836  32.901  20.024  1.00  0.00     0.191 C 
BRANCH  23  24
ATOM     24  O   UNL     1      32.380  33.911  20.823  1.00  0.00    -0.394 OA
ATOM     25  H   UNL     1      33.285  33.696  21.153  1.00  0.00     0.210 HD
ENDBRANCH  23  24
ENDBRANCH  18  23
BRANCH  20  26
ATOM     26  O   UNL     1      27.622  31.716  21.401  1.00  0.00    -0.350 OA
BRANCH  26  27
ATOM     27  C   UNL     1      28.186  31.430  22.600  1.00  0.00     0.169 C 
BRANCH  27  28
ATOM     28  C   UNL     1      28.334  30.001  22.980  1.00  0.00     0.119 C 
BRANCH  28  29
ATOM     29  N   UNL     1      29.261  29.220  22.243  1.00  0.00    -0.092 NA
ATOM     30  N   UNL     1      28.911  28.439  21.367  1.00  0.00     0.001 N 
ATOM     31  N   UNL     1      28.640  27.762  20.358  1.00  0.00    -0.003 NA
ENDBRANCH  28  29
ENDBRANCH  27  28
ENDBRANCH  26  27
ENDBRANCH  20  26
BRANCH  21  32
ATOM     32  O   UNL     1      27.990  35.355  20.980  1.00  0.00    -0.387 OA
ATOM     33  H   UNL     1      28.074  34.815  21.798  1.00  0.00     0.211 HD
ENDBRANCH  21  32
BRANCH  22  34
ATOM     34  O   UNL     1      27.560  33.152  18.340  1.00  0.00    -0.385 OA
ATOM     35  H   UNL     1      28.397  32.752  17.981  1.00  0.00     0.211 HD
ENDBRANCH  22  34
ENDBRANCH  16  17
ENDBRANCH  11  16
BRANCH  13  36
ATOM     36  O   UNL     1      30.654  38.779  19.149  1.00  0.00    -0.385 OA
ATOM     37  H   UNL     1      29.733  38.648  18.766  1.00  0.00     0.211 HD
ENDBRANCH  13  36
BRANCH  14  38
ATOM     38  O   UNL     1      33.101  36.401  20.046  1.00  0.00    -0.387 OA
ATOM     39  H   UNL     1      34.011  36.642  20.372  1.00  0.00     0.211 HD
ENDBRANCH  14  38
BRANCH  15  40
ATOM     40  O   UNL     1      33.155  35.711  17.529  1.00  0.00    -0.387 OA
ATOM     41  H   UNL     1      32.313  35.158  17.525  1.00  0.00     0.211 HD
ENDBRANCH  15  40
ENDBRANCH   9  10
ENDBRANCH   8   9
ENDBRANCH   3   8
BRANCH   3  42
ATOM     42  C   UNL     1      32.491  35.896  12.637  1.00  0.00     0.364 C 
ATOM     43  O   UNL     1      32.668  36.773  11.781  1.00  0.00    -0.246 OA
BRANCH  42  44
ATOM     44  O   UNL     1      33.451  34.891  12.744  1.00  0.00    -0.477 OA
ATOM     45  H   UNL     1      34.437  35.066  12.909  1.00  0.00     0.296 HD
ENDBRANCH  42  44
ENDBRANCH   3  42
BRANCH   6  46
ATOM     46  O   UNL     1      28.637  36.943  14.662  1.00  0.00    -0.391 OA
ATOM     47  H   UNL     1      28.815  36.218  15.305  1.00  0.00     0.211 HD
ENDBRANCH   6  46
BRANCH   7  48
ATOM     48  N   UNL     1      28.441  34.524  11.950  1.00  0.00    -0.348 N 
ATOM     49  C   UNL     1      27.171  34.684  11.312  1.00  0.00     0.217 C 
ATOM     50  H   UNL     1      29.219  34.123  11.389  1.00  0.00     0.163 HD
ATOM     51  C   UNL     1      27.037  34.268   9.884  1.00  0.00     0.114 C 
ATOM     52  O   UNL     1      26.196  35.165  11.950  1.00  0.00    -0.275 OA
ENDBRANCH   7  48
ENDBRANCH   1   2
BRANCH   1  53
ATOM     53  O   UNL     1      28.287  33.914  15.848  1.00  0.00    -0.388 OA
ATOM     54  H   UNL     1      27.678  34.702  15.831  1.00  0.00     0.211 HD
ENDBRANCH   1  53
BRANCH   1  55
ATOM     55  C   UNL     1      30.489  33.293  16.232  1.00  0.00     0.165 C 
BRANCH  55  56
ATOM     56  O   UNL     1      31.802  33.648  16.221  1.00  0.00    -0.388 OA
ATOM     57  H   UNL     1      32.265  33.328  17.031  1.00  0.00     0.211 HD
ENDBRANCH  55  56
BRANCH  55  58
ATOM     58  C   UNL     1      30.186  31.894  15.801  1.00  0.00     0.154 C 
BRANCH  58  59
ATOM     59  N   UNL     1      29.353  31.232  16.766  1.00  0.00    -0.319 N 
ATOM     60  C   UNL     1      28.521  30.115  16.520  1.00  0.00     0.407 C 
ATOM     61  H   UNL     1      29.325  31.577  17.778  1.00  0.00     0.167 HD
ATOM     62  O   UNL     1      28.435  29.617  15.395  1.00  0.00    -0.225 OA
BRANCH  60  63
ATOM     63  O   UNL     1      27.763  29.536  17.550  1.00  0.00    -0.443 OA
BRANCH  63  64
ATOM     64  C   UNL     1      26.409  29.197  17.382  1.00  0.00     0.294 C 
BRANCH  64  65
ATOM     65  C   UNL     1      25.620  30.448  17.462  1.00  0.00     0.120 A 
ATOM     66  C   UNL     1      25.062  31.170  16.432  1.00  0.00     0.139 A 
ATOM     67  N   UNL     1      25.320  31.101  18.591  1.00  0.00    -0.132 NA
ATOM     68  N   UNL     1      24.431  32.255  16.959  1.00  0.00    -0.238 N 
ATOM     69  N   UNL     1      24.603  32.187  18.266  1.00  0.00    -0.066 NA
BRANCH  68  70
ATOM     70  C   UNL     1      23.750  33.224  16.136  1.00  0.00     0.215 C 
ATOM     71  C   UNL     1      23.310  34.426  16.951  1.00  0.00     0.046 C 
BRANCH  70  72
ATOM     72  C   UNL     1      24.643  33.679  15.012  1.00  0.00     0.331 C 
ATOM     73  O   UNL     1      25.537  34.508  15.250  1.00  0.00    -0.250 OA
BRANCH  72  74
ATOM     74  O   UNL     1      24.487  33.196  13.733  1.00  0.00    -0.459 OA
BRANCH  74  75
ATOM     75  C   UNL     1      23.253  33.004  13.086  1.00  0.00     0.268 C 
BRANCH  75  76
ATOM     76  C   UNL     1      22.914  31.582  12.866  1.00  0.00    -0.011 A 
ATOM     77  C   UNL     1      21.638  31.166  12.587  1.00  0.00     0.007 A 
ATOM     78  C   UNL     1      23.894  30.624  12.941  1.00  0.00     0.007 A 
ATOM     79  C   UNL     1      21.318  29.843  12.384  1.00  0.00     0.000 A 
ATOM     80  C   UNL     1      23.621  29.290  12.745  1.00  0.00     0.000 A 
ATOM     81  C   UNL     1      22.316  28.905  12.464  1.00  0.00     0.000 A 
ENDBRANCH  75  76
ENDBRANCH  74  75
ENDBRANCH  72  74
ENDBRANCH  70  72
ENDBRANCH  68  70
ENDBRANCH  64  65
ENDBRANCH  63  64
ENDBRANCH  60  63
ENDBRANCH  58  59
ENDBRANCH  55  58
ENDBRANCH   1  55
TORSDOF 34
BEGIN_RES LYS A 131
REMARK  4 active torsions:
REMARK  status: ('A' for Active; 'I' for Inactive)
REMARK    1  A    between atoms: CA   and  CB  
REMARK    2  A    between atoms: CB   and  CG  
REMARK    3  A    between atoms: CG   and  CD  
REMARK    4  A    between atoms: CD   and  CE  
ROOT
ATOM      1  CA  LYS A 131      29.867  25.555  16.977  1.00 20.52     0.186 C 
ENDROOT
BRANCH   1   2
ATOM      2  CB  LYS A 131      28.345  25.722  17.026  1.00 20.94     0.034 C 
BRANCH   2   3
ATOM      3  CG  LYS A 131      27.602  24.399  16.923  1.00 22.96     0.005 C 
BRANCH   3   4
ATOM      4  CD  LYS A 131      26.159  24.527  17.325  1.00 24.33     0.041 C 
BRANCH   4   5
ATOM      5  CE  LYS A 131      25.624  23.162  17.747  1.00 26.91     0.338 C 
ATOM      6  NZ  LYS A 131      25.359  23.137  19.204  1.00 27.40     0.618 N 
ENDBRANCH   4   5
ENDBRANCH   3   4
ENDBRANCH   2   3
ENDBRANCH   1   2
END_RES LYS A 131
BEGIN_RES LYS A 135
REMARK  4 active torsions:
REMARK  status: ('A' for Active; 'I' for Inactive)
REMARK    5  A    between atoms: CA   and  CB  
REMARK    6  A    between atoms: CB   and  CG  
REMARK    7  A    between atoms: CG   and  CD  
REMARK    8  A    between atoms: CD   and  CE  
ROOT
ATOM      7  CA  LYS A 135      33.193  34.663   9.290  1.00 25.02     0.186 C 
ENDROOT
BRANCH   7   8
ATOM      8  CB  LYS A 135      32.060  35.360  10.034  1.00 26.63     0.034 C 
BRANCH   8   9
ATOM      9  CG  LYS A 135      30.689  34.888   9.623  1.00 29.45     0.005 C 
BRANCH   9  10
ATOM     10  CD  LYS A 135      30.674  34.498   8.153  1.00 32.00     0.041 C 
BRANCH  10  11
ATOM     11  CE  LYS A 135      29.538  35.195   7.429  1.00 34.25     0.338 C 
ATOM     12  NZ  LYS A 135      29.268  36.534   8.020  1.00 35.99     0.618 N 
ENDBRANCH  10  11
ENDBRANCH   9  10
ENDBRANCH   8   9
ENDBRANCH   7   8
END_RES LYS A 135
