REMARK VINA RESULT:    -5.231      2.490      7.501
REMARK INTER + INTRA:         -23.033
REMARK INTER:                 -12.298
REMARK INTRA:                 -10.735
REMARK UNBOUND:                -9.852
REMARK SMILES CC(=O)N[C@@H]1[C@@H](O)C[C@](OC[C@H]2O[C@@H](O[C@H]3[C@H](O)[C@@H](O)[C@H](OCCN=[N+]=[N-])O[C@@H]3CO)[C@H](O)[C@@H](O)[C@H]2O)(C(=O)O)O[C@H]1C(O)[C@H](O)CNC(=O)OCc1cn(Cc2ccc3c(c2)OCO3)nn1
REMARK SMILES IDX 9 1 8 2 6 3 5 4 42 5 41 6 10 7 11 8 12 9 14 10 13 11 32 12
REMARK SMILES IDX 34 13 36 14 15 15 16 16 29 17 28 18 21 19 17 20 19 21 30 22
REMARK SMILES IDX 31 23 22 25 23 26 24 27 25 28 26 29 27 30 18 31 20 33 33 35
REMARK SMILES IDX 35 37 37 39 38 41 39 42 40 43 7 45 43 47 44 48 45 50 46 51
REMARK SMILES IDX 47 53 48 54 49 55 50 57 51 58 52 59 53 60 54 61 67 62 55 63
REMARK SMILES IDX 66 64 56 65 57 66 58 67 62 68 59 69 61 70 60 71 63 72 65 73
REMARK SMILES IDX 64 74 4 75 2 76 1 78 3 79
REMARK H PARENT 31 24 18 32 20 34 33 36 35 38 37 40 40 44 7 46 44 49 46 52
REMARK H PARENT 48 56 4 77
REMARK Flexibility Score: inf
ROOT
ATOM      1  C   UNL     1      29.379  33.518  15.849  1.00  0.00     0.272 C 
ATOM      2  C   UNL     1      30.675  32.792  16.153  1.00  0.00     0.113 C 
ATOM      3  C   UNL     1      30.376  31.363  16.496  1.00  0.00     0.145 C 
ATOM      4  C   UNL     1      29.512  31.400  17.784  1.00  0.00     0.142 C 
ATOM      5  C   UNL     1      28.345  32.278  17.507  1.00  0.00     0.178 C 
ATOM      6  O   UNL     1      28.287  32.765  16.203  1.00  0.00    -0.332 OA
ENDROOT
BRANCH   1   7
ATOM      7  O   UNL     1      29.331  33.892  14.496  1.00  0.00    -0.338 OA
BRANCH   7   8
ATOM      8  C   UNL     1      30.418  33.604  13.742  1.00  0.00     0.199 C 
BRANCH   8   9
ATOM      9  C   UNL     1      30.740  34.823  12.863  1.00  0.00     0.179 C 
ATOM     10  C   UNL     1      29.923  36.870  12.203  1.00  0.00     0.282 C 
ATOM     11  O   UNL     1      29.642  35.638  12.794  1.00  0.00    -0.341 OA
ATOM     12  C   UNL     1      30.872  37.638  13.128  1.00  0.00     0.202 C 
ATOM     13  C   UNL     1      31.766  36.767  13.933  1.00  0.00     0.179 C 
ATOM     14  C   UNL     1      32.023  35.469  13.246  1.00  0.00     0.177 C 
BRANCH  10  15
ATOM     15  O   UNL     1      28.797  37.587  12.115  1.00  0.00    -0.341 OA
BRANCH  15  16
ATOM     16  C   UNL     1      27.892  37.369  11.120  1.00  0.00     0.184 C 
ATOM     17  C   UNL     1      27.736  38.517  10.161  1.00  0.00     0.178 C 
ATOM     18  O   UNL     1      26.508  39.090  10.208  1.00  0.00    -0.341 OA
ATOM     19  C   UNL     1      25.422  38.252   9.882  1.00  0.00     0.281 C 
ATOM     20  C   UNL     1      26.564  37.010  11.731  1.00  0.00     0.180 C 
ATOM     21  C   UNL     1      25.540  36.935  10.616  1.00  0.00     0.202 C 
BRANCH  17  22
ATOM     22  C   UNL     1      28.029  38.033   8.763  1.00  0.00     0.191 C 
BRANCH  22  23
ATOM     23  O   UNL     1      28.060  39.127   7.858  1.00  0.00    -0.394 OA
ATOM     24  H   UNL     1      27.705  38.887   6.971  1.00  0.00     0.210 HD
ENDBRANCH  22  23
ENDBRANCH  17  22
BRANCH  19  25
ATOM     25  O   UNL     1      25.259  38.144   8.538  1.00  0.00    -0.350 OA
BRANCH  25  26
ATOM     26  C   UNL     1      24.404  38.883   7.835  1.00  0.00     0.169 C 
BRANCH  26  27
ATOM     27  C   UNL     1      22.949  38.587   8.017  1.00  0.00     0.119 C 
BRANCH  27  28
ATOM     28  N   UNL     1      22.508  37.308   7.586  1.00  0.00    -0.092 NA
ATOM     29  N   UNL     1      22.389  36.331   8.320  1.00  0.00     0.001 N 
ATOM     30  N   UNL     1      22.713  35.397   9.074  1.00  0.00    -0.003 NA
ENDBRANCH  27  28
ENDBRANCH  26  27
ENDBRANCH  25  26
ENDBRANCH  19  25
BRANCH  20  31
ATOM     31  O   UNL     1      26.684  35.752  12.313  1.00  0.00    -0.387 OA
ATOM     32  H   UNL     1      26.553  35.790  13.296  1.00  0.00     0.211 HD
ENDBRANCH  20  31
BRANCH  21  33
ATOM     33  O   UNL     1      24.331  36.605  11.224  1.00  0.00    -0.385 OA
ATOM     34  H   UNL     1      23.572  36.960  10.689  1.00  0.00     0.211 HD
ENDBRANCH  21  33
ENDBRANCH  15  16
ENDBRANCH  10  15
BRANCH  12  35
ATOM     35  O   UNL     1      31.608  38.567  12.395  1.00  0.00    -0.385 OA
ATOM     36  H   UNL     1      32.561  38.403  12.488  1.00  0.00     0.211 HD
ENDBRANCH  12  35
BRANCH  13  37
ATOM     37  O   UNL     1      31.341  36.589  15.240  1.00  0.00    -0.387 OA
ATOM     38  H   UNL     1      31.778  37.271  15.812  1.00  0.00     0.211 HD
ENDBRANCH  13  37
BRANCH  14  39
ATOM     39  O   UNL     1      32.762  34.661  14.122  1.00  0.00    -0.387 OA
ATOM     40  H   UNL     1      32.877  33.785  13.707  1.00  0.00     0.211 HD
ENDBRANCH  14  39
ENDBRANCH   8   9
ENDBRANCH   7   8
ENDBRANCH   1   7
BRANCH   1  41
ATOM     41  C   UNL     1      29.359  34.795  16.585  1.00  0.00     0.364 C 
ATOM     42  O   UNL     1      28.593  35.727  16.309  1.00  0.00    -0.246 OA
BRANCH  41  43
ATOM     43  O   UNL     1      30.225  35.022  17.659  1.00  0.00    -0.477 OA
ATOM     44  H   UNL     1      30.279  35.960  18.092  1.00  0.00     0.296 HD
ENDBRANCH  41  43
ENDBRANCH   1  41
BRANCH   3  45
ATOM     45  O   UNL     1      29.650  30.653  15.585  1.00  0.00    -0.391 OA
ATOM     46  H   UNL     1      29.367  29.757  15.900  1.00  0.00     0.211 HD
ENDBRANCH   3  45
BRANCH   5  47
ATOM     47  C   UNL     1      27.029  31.472  17.635  1.00  0.00     0.176 C 
BRANCH  47  48
ATOM     48  O   UNL     1      26.936  30.465  16.723  1.00  0.00    -0.388 OA
ATOM     49  H   UNL     1      26.504  29.678  17.131  1.00  0.00     0.211 HD
ENDBRANCH  47  48
BRANCH  47  50
ATOM     50  C   UNL     1      26.644  31.099  18.998  1.00  0.00     0.165 C 
BRANCH  50  51
ATOM     51  O   UNL     1      27.292  31.806  20.021  1.00  0.00    -0.388 OA
ATOM     52  H   UNL     1      26.841  31.653  20.891  1.00  0.00     0.211 HD
ENDBRANCH  50  51
BRANCH  50  53
ATOM     53  C   UNL     1      26.720  29.637  19.349  1.00  0.00     0.154 C 
BRANCH  53  54
ATOM     54  N   UNL     1      25.380  29.066  19.130  1.00  0.00    -0.319 N 
ATOM     55  C   UNL     1      25.152  28.033  18.175  1.00  0.00     0.407 C 
ATOM     56  H   UNL     1      24.604  29.434  19.690  1.00  0.00     0.167 HD
ATOM     57  O   UNL     1      26.149  27.626  17.522  1.00  0.00    -0.225 OA
BRANCH  55  58
ATOM     58  O   UNL     1      23.914  27.481  17.949  1.00  0.00    -0.443 OA
BRANCH  58  59
ATOM     59  C   UNL     1      22.834  28.272  17.514  1.00  0.00     0.294 C 
BRANCH  59  60
ATOM     60  C   UNL     1      22.967  28.492  16.055  1.00  0.00     0.120 A 
ATOM     61  C   UNL     1      23.706  29.468  15.396  1.00  0.00     0.138 A 
ATOM     62  N   UNL     1      22.382  27.785  15.066  1.00  0.00    -0.132 NA
ATOM     63  N   UNL     1      23.545  29.317  14.068  1.00  0.00    -0.248 N 
ATOM     64  N   UNL     1      22.743  28.298  13.898  1.00  0.00    -0.067 NA
BRANCH  63  65
ATOM     65  C   UNL     1      24.153  30.130  13.056  1.00  0.00     0.181 C 
BRANCH  65  66
ATOM     66  C   UNL     1      24.051  31.587  13.303  1.00  0.00    -0.023 A 
ATOM     67  C   UNL     1      22.989  32.289  12.825  1.00  0.00     0.010 A 
ATOM     68  C   UNL     1      25.051  32.248  14.027  1.00  0.00     0.056 A 
ATOM     69  C   UNL     1      22.916  33.638  13.063  1.00  0.00     0.051 A 
ATOM     70  C   UNL     1      24.991  33.592  14.270  1.00  0.00     0.166 A 
ATOM     71  C   UNL     1      23.898  34.277  13.771  1.00  0.00     0.165 A 
ATOM     72  O   UNL     1      25.773  34.526  14.923  1.00  0.00    -0.454 OA
ATOM     73  O   UNL     1      24.012  35.630  14.118  1.00  0.00    -0.454 OA
ATOM     74  C   UNL     1      24.985  35.693  15.140  1.00  0.00     0.468 C 
ENDBRANCH  65  66
ENDBRANCH  63  65
ENDBRANCH  59  60
ENDBRANCH  58  59
ENDBRANCH  55  58
ENDBRANCH  53  54
ENDBRANCH  50  53
ENDBRANCH  47  50
ENDBRANCH   5  47
BRANCH   4  75
ATOM     75  N   UNL     1      30.414  31.858  18.803  1.00  0.00    -0.348 N 
ATOM     76  C   UNL     1      30.596  31.038  19.966  1.00  0.00     0.217 C 
ATOM     77  H   UNL     1      30.969  32.733  18.803  1.00  0.00     0.163 HD
ATOM     78  C   UNL     1      31.531  31.495  21.050  1.00  0.00     0.114 C 
ATOM     79  O   UNL     1      29.982  29.951  20.077  1.00  0.00    -0.275 OA
ENDBRANCH   4  75
TORSDOF 31
BEGIN_RES LYS A 131
REMARK  4 active torsions:
REMARK  status: ('A' for Active; 'I' for Inactive)
REMARK    1  A    between atoms: CA   and  CB  
REMARK    2  A    between atoms: CB   and  CG  
REMARK    3  A    between atoms: CG   and  CD  
REMARK    4  A    between atoms: CD   and  CE  
ROOT
ATOM      1  CA  LYS A 131      29.867  25.555  16.977  1.00 20.52     0.186 C 
ENDROOT
BRANCH   1   2
ATOM      2  CB  LYS A 131      28.345  25.722  17.026  1.00 20.94     0.034 C 
BRANCH   2   3
ATOM      3  CG  LYS A 131      27.601  24.402  16.890  1.00 22.96     0.005 C 
BRANCH   3   4
ATOM      4  CD  LYS A 131      26.538  24.241  17.941  1.00 24.33     0.041 C 
BRANCH   4   5
ATOM      5  CE  LYS A 131      25.180  24.069  17.268  1.00 26.91     0.338 C 
ATOM      6  NZ  LYS A 131      24.101  24.014  18.283  1.00 27.40     0.618 N 
ENDBRANCH   4   5
ENDBRANCH   3   4
ENDBRANCH   2   3
ENDBRANCH   1   2
END_RES LYS A 131
BEGIN_RES LYS A 135
REMARK  4 active torsions:
REMARK  status: ('A' for Active; 'I' for Inactive)
REMARK    5  A    between atoms: CA   and  CB  
REMARK    6  A    between atoms: CB   and  CG  
REMARK    7  A    between atoms: CG   and  CD  
REMARK    8  A    between atoms: CD   and  CE  
ROOT
ATOM      7  CA  LYS A 135      33.193  34.663   9.290  1.00 25.02     0.186 C 
ENDROOT
BRANCH   7   8
ATOM      8  CB  LYS A 135      32.060  35.360  10.034  1.00 26.63     0.034 C 
BRANCH   8   9
ATOM      9  CG  LYS A 135      30.796  35.487   9.224  1.00 29.45     0.005 C 
BRANCH   9  10
ATOM     10  CD  LYS A 135      30.063  34.156   9.160  1.00 32.00     0.041 C 
BRANCH  10  11
ATOM     11  CE  LYS A 135      28.624  34.361   8.726  1.00 34.25     0.338 C 
ATOM     12  NZ  LYS A 135      27.679  33.706   9.673  1.00 35.99     0.618 N 
ENDBRANCH  10  11
ENDBRANCH   9  10
ENDBRANCH   8   9
ENDBRANCH   7   8
END_RES LYS A 135
