REMARK VINA RESULT:    -5.448      3.294      8.002
REMARK INTER + INTRA:         -23.174
REMARK INTER:                 -12.237
REMARK INTRA:                 -10.937
REMARK UNBOUND:                -9.445
REMARK SMILES CC(=O)N[C@@H]1[C@@H](O)C[C@](OC[C@H]2O[C@@H](O[C@H]3[C@H](O)[C@@H](O)[C@H](OCCN=[N+]=[N-])O[C@@H]3CO)[C@H](O)[C@@H](O)[C@H]2O)(C(=O)O)O[C@H]1C(O)[C@H](O)CNC(=O)OCc1cn(Cc2cccc(Br)c2)nn1
REMARK SMILES IDX 9 1 8 2 6 3 5 4 42 5 41 6 10 7 11 8 12 9 14 10 13 11 32 12
REMARK SMILES IDX 34 13 36 14 15 15 16 16 29 17 28 18 21 19 17 20 19 21 30 22
REMARK SMILES IDX 31 23 22 25 23 26 24 27 25 28 26 29 27 30 18 31 20 33 33 35
REMARK SMILES IDX 35 37 37 39 38 41 39 42 40 43 7 45 43 47 44 48 45 50 46 51
REMARK SMILES IDX 47 53 48 54 49 55 50 57 51 58 52 59 53 60 54 61 65 62 55 63
REMARK SMILES IDX 64 64 56 65 57 66 58 67 63 68 59 69 61 70 60 71 62 72 4 73
REMARK SMILES IDX 2 74 1 76 3 77
REMARK H PARENT 31 24 18 32 20 34 33 36 35 38 37 40 40 44 7 46 44 49 46 52
REMARK H PARENT 48 56 4 75
REMARK Flexibility Score: inf
ROOT
ATOM      1  C   UNL     1      21.003  36.371   9.882  1.00  0.00     0.272 C 
ATOM      2  C   UNL     1      19.644  36.752   9.433  1.00  0.00     0.113 C 
ATOM      3  C   UNL     1      18.526  36.191  10.251  1.00  0.00     0.145 C 
ATOM      4  C   UNL     1      18.840  34.828  10.824  1.00  0.00     0.142 C 
ATOM      5  C   UNL     1      20.260  34.584  11.083  1.00  0.00     0.178 C 
ATOM      6  O   UNL     1      21.092  35.659  11.046  1.00  0.00    -0.332 OA
ENDROOT
BRANCH   1   7
ATOM      7  O   UNL     1      21.800  37.553   9.988  1.00  0.00    -0.338 OA
BRANCH   7   8
ATOM      8  C   UNL     1      21.717  38.344   8.879  1.00  0.00     0.199 C 
BRANCH   8   9
ATOM      9  C   UNL     1      22.984  39.214   8.739  1.00  0.00     0.179 C 
ATOM     10  C   UNL     1      25.153  39.224   9.623  1.00  0.00     0.282 C 
ATOM     11  O   UNL     1      23.795  38.856   9.765  1.00  0.00    -0.341 OA
ATOM     12  C   UNL     1      25.357  40.206   8.539  1.00  0.00     0.202 C 
ATOM     13  C   UNL     1      24.793  39.748   7.205  1.00  0.00     0.179 C 
ATOM     14  C   UNL     1      23.618  38.813   7.424  1.00  0.00     0.177 C 
BRANCH  10  15
ATOM     15  O   UNL     1      25.814  38.023   9.533  1.00  0.00    -0.341 OA
BRANCH  15  16
ATOM     16  C   UNL     1      26.230  37.457  10.683  1.00  0.00     0.184 C 
ATOM     17  C   UNL     1      27.687  37.092  10.557  1.00  0.00     0.178 C 
ATOM     18  O   UNL     1      28.151  36.671  11.801  1.00  0.00    -0.341 OA
ATOM     19  C   UNL     1      27.558  35.485  12.239  1.00  0.00     0.281 C 
ATOM     20  C   UNL     1      25.544  36.133  11.006  1.00  0.00     0.180 C 
ATOM     21  C   UNL     1      26.081  35.756  12.395  1.00  0.00     0.202 C 
BRANCH  17  22
ATOM     22  C   UNL     1      28.467  38.301  10.164  1.00  0.00     0.191 C 
BRANCH  22  23
ATOM     23  O   UNL     1      28.588  38.388   8.789  1.00  0.00    -0.394 OA
ATOM     24  H   UNL     1      28.510  39.345   8.539  1.00  0.00     0.210 HD
ENDBRANCH  22  23
ENDBRANCH  17  22
BRANCH  19  25
ATOM     25  O   UNL     1      28.178  35.164  13.428  1.00  0.00    -0.350 OA
BRANCH  25  26
ATOM     26  C   UNL     1      28.247  36.174  14.347  1.00  0.00     0.169 C 
BRANCH  26  27
ATOM     27  C   UNL     1      28.327  35.709  15.783  1.00  0.00     0.119 C 
BRANCH  27  28
ATOM     28  N   UNL     1      27.048  35.994  16.395  1.00  0.00    -0.092 NA
ATOM     29  N   UNL     1      25.994  35.472  16.062  1.00  0.00     0.001 N 
ATOM     30  N   UNL     1      25.018  34.794  15.749  1.00  0.00    -0.003 NA
ENDBRANCH  27  28
ENDBRANCH  26  27
ENDBRANCH  25  26
ENDBRANCH  19  25
BRANCH  20  31
ATOM     31  O   UNL     1      24.184  36.220  11.100  1.00  0.00    -0.387 OA
ATOM     32  H   UNL     1      23.842  37.042  11.515  1.00  0.00     0.211 HD
ENDBRANCH  20  31
BRANCH  21  33
ATOM     33  O   UNL     1      25.350  34.682  12.829  1.00  0.00    -0.385 OA
ATOM     34  H   UNL     1      24.391  34.923  13.035  1.00  0.00     0.211 HD
ENDBRANCH  21  33
ENDBRANCH  15  16
ENDBRANCH  10  15
BRANCH  12  35
ATOM     35  O   UNL     1      24.676  41.394   8.913  1.00  0.00    -0.385 OA
ATOM     36  H   UNL     1      24.310  41.827   8.099  1.00  0.00     0.211 HD
ENDBRANCH  12  35
BRANCH  13  37
ATOM     37  O   UNL     1      25.767  39.204   6.374  1.00  0.00    -0.387 OA
ATOM     38  H   UNL     1      25.868  38.224   6.603  1.00  0.00     0.211 HD
ENDBRANCH  13  37
BRANCH  14  39
ATOM     39  O   UNL     1      23.971  37.485   7.500  1.00  0.00    -0.387 OA
ATOM     40  H   UNL     1      24.910  37.391   7.847  1.00  0.00     0.211 HD
ENDBRANCH  14  39
ENDBRANCH   8   9
ENDBRANCH   7   8
ENDBRANCH   1   7
BRANCH   1  41
ATOM     41  C   UNL     1      21.675  35.596   8.795  1.00  0.00     0.364 C 
ATOM     42  O   UNL     1      21.019  35.329   7.727  1.00  0.00    -0.246 OA
BRANCH  41  43
ATOM     43  O   UNL     1      22.958  35.124   8.821  1.00  0.00    -0.477 OA
ATOM     44  H   UNL     1      23.666  35.633   8.274  1.00  0.00     0.296 HD
ENDBRANCH  41  43
ENDBRANCH   1  41
BRANCH   3  45
ATOM     45  O   UNL     1      18.087  37.094  11.208  1.00  0.00    -0.391 OA
ATOM     46  H   UNL     1      18.183  36.775  12.132  1.00  0.00     0.211 HD
ENDBRANCH   3  45
BRANCH   5  47
ATOM     47  C   UNL     1      20.500  33.809  12.389  1.00  0.00     0.176 C 
BRANCH  47  48
ATOM     48  O   UNL     1      20.457  32.409  12.001  1.00  0.00    -0.388 OA
ATOM     49  H   UNL     1      21.376  32.181  11.707  1.00  0.00     0.211 HD
ENDBRANCH  47  48
BRANCH  47  50
ATOM     50  C   UNL     1      21.828  34.025  13.015  1.00  0.00     0.165 C 
BRANCH  50  51
ATOM     51  O   UNL     1      22.774  33.674  11.980  1.00  0.00    -0.388 OA
ATOM     52  H   UNL     1      23.284  32.871  12.305  1.00  0.00     0.211 HD
ENDBRANCH  50  51
BRANCH  50  53
ATOM     53  C   UNL     1      22.218  33.142  14.153  1.00  0.00     0.154 C 
BRANCH  53  54
ATOM     54  N   UNL     1      23.457  32.412  13.934  1.00  0.00    -0.319 N 
ATOM     55  C   UNL     1      23.695  31.227  14.673  1.00  0.00     0.407 C 
ATOM     56  H   UNL     1      24.167  32.733  13.253  1.00  0.00     0.167 HD
ATOM     57  O   UNL     1      22.844  30.819  15.511  1.00  0.00    -0.225 OA
BRANCH  55  58
ATOM     58  O   UNL     1      24.864  30.486  14.494  1.00  0.00    -0.443 OA
BRANCH  58  59
ATOM     59  C   UNL     1      25.517  29.959  15.657  1.00  0.00     0.294 C 
BRANCH  59  60
ATOM     60  C   UNL     1      26.806  30.668  15.827  1.00  0.00     0.120 A 
ATOM     61  C   UNL     1      28.050  30.135  16.057  1.00  0.00     0.138 A 
ATOM     62  N   UNL     1      26.952  31.998  15.777  1.00  0.00    -0.132 NA
ATOM     63  N   UNL     1      28.913  31.167  16.139  1.00  0.00    -0.248 N 
ATOM     64  N   UNL     1      28.224  32.285  15.968  1.00  0.00    -0.067 NA
BRANCH  63  65
ATOM     65  C   UNL     1      30.348  31.041  16.377  1.00  0.00     0.181 C 
BRANCH  65  66
ATOM     66  C   UNL     1      30.997  32.374  16.476  1.00  0.00    -0.025 A 
ATOM     67  C   UNL     1      31.055  33.038  17.684  1.00  0.00     0.006 A 
ATOM     68  C   UNL     1      31.560  33.010  15.397  1.00  0.00     0.021 A 
ATOM     69  C   UNL     1      31.639  34.275  17.841  1.00  0.00     0.002 A 
ATOM     70  C   UNL     1      32.152  34.246  15.519  1.00  0.00     0.018 A 
ATOM     71  C   UNL     1      32.207  34.901  16.722  1.00  0.00     0.016 A 
ATOM     72  Br  UNL     1      32.939  35.135  14.017  1.00  0.00    -0.051 Br
ENDBRANCH  65  66
ENDBRANCH  63  65
ENDBRANCH  59  60
ENDBRANCH  58  59
ENDBRANCH  55  58
ENDBRANCH  53  54
ENDBRANCH  50  53
ENDBRANCH  47  50
ENDBRANCH   5  47
BRANCH   4  73
ATOM     73  N   UNL     1      18.292  33.784   9.920  1.00  0.00    -0.348 N 
ATOM     74  C   UNL     1      17.517  32.718  10.439  1.00  0.00     0.217 C 
ATOM     75  H   UNL     1      18.470  33.817   8.884  1.00  0.00     0.163 HD
ATOM     76  C   UNL     1      16.952  31.649   9.543  1.00  0.00     0.114 C 
ATOM     77  O   UNL     1      17.303  32.676  11.680  1.00  0.00    -0.275 OA
ENDBRANCH   4  73
TORSDOF 31
BEGIN_RES LYS A 131
REMARK  4 active torsions:
REMARK  status: ('A' for Active; 'I' for Inactive)
REMARK    1  A    between atoms: CA   and  CB  
REMARK    2  A    between atoms: CB   and  CG  
REMARK    3  A    between atoms: CG   and  CD  
REMARK    4  A    between atoms: CD   and  CE  
ROOT
ATOM      1  CA  LYS A 131      29.867  25.555  16.977  1.00 20.52     0.186 C 
ENDROOT
BRANCH   1   2
ATOM      2  CB  LYS A 131      28.345  25.722  17.026  1.00 20.94     0.034 C 
BRANCH   2   3
ATOM      3  CG  LYS A 131      27.602  24.399  16.922  1.00 22.96     0.005 C 
BRANCH   3   4
ATOM      4  CD  LYS A 131      26.144  24.540  17.263  1.00 24.33     0.041 C 
BRANCH   4   5
ATOM      5  CE  LYS A 131      25.930  24.192  18.733  1.00 26.91     0.338 C 
ATOM      6  NZ  LYS A 131      25.819  25.425  19.547  1.00 27.40     0.618 N 
ENDBRANCH   4   5
ENDBRANCH   3   4
ENDBRANCH   2   3
ENDBRANCH   1   2
END_RES LYS A 131
BEGIN_RES LYS A 135
REMARK  4 active torsions:
REMARK  status: ('A' for Active; 'I' for Inactive)
REMARK    5  A    between atoms: CA   and  CB  
REMARK    6  A    between atoms: CB   and  CG  
REMARK    7  A    between atoms: CG   and  CD  
REMARK    8  A    between atoms: CD   and  CE  
ROOT
ATOM      7  CA  LYS A 135      33.193  34.663   9.290  1.00 25.02     0.186 C 
ENDROOT
BRANCH   7   8
ATOM      8  CB  LYS A 135      32.060  35.360  10.034  1.00 26.63     0.034 C 
BRANCH   8   9
ATOM      9  CG  LYS A 135      30.750  34.618   9.969  1.00 29.45     0.005 C 
BRANCH   9  10
ATOM     10  CD  LYS A 135      30.376  34.315   8.526  1.00 32.00     0.041 C 
BRANCH  10  11
ATOM     11  CE  LYS A 135      28.901  34.580   8.291  1.00 34.25     0.338 C 
ATOM     12  NZ  LYS A 135      28.058  33.796   9.236  1.00 35.99     0.618 N 
ENDBRANCH  10  11
ENDBRANCH   9  10
ENDBRANCH   8   9
ENDBRANCH   7   8
END_RES LYS A 135
