REMARK VINA RESULT:    -4.188      5.418     11.527
REMARK INTER + INTRA:         -24.043
REMARK INTER:                 -11.043
REMARK INTRA:                 -13.000
REMARK UNBOUND:               -13.000
REMARK SMILES CC(=O)N[C@@H]1[C@@H](O)C[C@](OC[C@H]2O[C@@H](O[C@H]3[C@H](O)[C@@H](O)[C@H](OCCN=[N+]=[N-])O[C@@H]3CO)[C@H](O)[C@@H](O)[C@H]2O)(C(=O)O)O[C@H]1C(O)[C@H](O)CNC(=O)OCc1cn(C(C)CC(=O)c2ccccc2)nn1
REMARK SMILES IDX 43 1 42 2 9 3 8 4 41 5 6 6 5 7 10 8 11 9 12 10 14 11 13 12
REMARK SMILES IDX 32 13 34 14 36 15 15 16 16 17 29 18 28 19 21 20 17 21 19 22
REMARK SMILES IDX 30 23 31 24 22 26 23 27 24 28 25 29 26 30 27 31 18 32 20 34
REMARK SMILES IDX 33 36 35 38 37 40 38 42 39 43 40 44 7 46 4 48 2 49 1 51 3 52
REMARK SMILES IDX 44 53 45 55 46 56 47 58 48 59 49 60 50 62 51 63 52 64 53 65
REMARK SMILES IDX 54 66 68 67 55 68 67 69 56 70 57 71 58 72 59 73 60 74 61 75
REMARK SMILES IDX 62 76 66 77 63 78 65 79 64 80
REMARK H PARENT 31 25 18 33 20 35 33 37 35 39 37 41 40 45 7 47 4 50 44 54
REMARK H PARENT 46 57 48 61
REMARK Flexibility Score: inf
ROOT
ATOM      1  C   UNL     1      28.880  30.198  18.627  1.00  0.00     0.176 C 
ENDROOT
BRANCH   1   2
ATOM      2  C   UNL     1      28.048  29.038  18.298  1.00  0.00     0.178 C 
ATOM      3  C   UNL     1      25.705  29.307  18.311  1.00  0.00     0.272 C 
ATOM      4  C   UNL     1      25.448  27.905  18.747  1.00  0.00     0.113 C 
ATOM      5  O   UNL     1      26.941  29.229  17.570  1.00  0.00    -0.332 OA
ATOM      6  C   UNL     1      26.734  27.197  19.131  1.00  0.00     0.145 C 
ATOM      7  C   UNL     1      27.782  28.161  19.543  1.00  0.00     0.142 C 
BRANCH   3   8
ATOM      8  O   UNL     1      25.825  30.293  19.150  1.00  0.00    -0.338 OA
BRANCH   8   9
ATOM      9  C   UNL     1      25.093  31.165  19.749  1.00  0.00     0.199 C 
BRANCH   9  10
ATOM     10  C   UNL     1      25.246  32.652  19.752  1.00  0.00     0.179 C 
ATOM     11  C   UNL     1      27.020  34.168  19.353  1.00  0.00     0.282 C 
ATOM     12  O   UNL     1      26.547  32.956  19.690  1.00  0.00    -0.341 OA
ATOM     13  C   UNL     1      26.426  34.650  18.072  1.00  0.00     0.202 C 
ATOM     14  C   UNL     1      24.991  34.398  17.962  1.00  0.00     0.179 C 
ATOM     15  C   UNL     1      24.335  33.439  18.896  1.00  0.00     0.177 C 
BRANCH  11  16
ATOM     16  O   UNL     1      28.424  33.990  19.217  1.00  0.00    -0.341 OA
BRANCH  16  17
ATOM     17  C   UNL     1      29.067  35.142  19.599  1.00  0.00     0.184 C 
ATOM     18  C   UNL     1      29.947  35.669  18.503  1.00  0.00     0.178 C 
ATOM     19  O   UNL     1      30.994  34.805  18.223  1.00  0.00    -0.341 OA
ATOM     20  C   UNL     1      31.789  34.432  19.261  1.00  0.00     0.281 C 
ATOM     21  C   UNL     1      29.936  34.828  20.835  1.00  0.00     0.180 C 
ATOM     22  C   UNL     1      31.081  33.952  20.482  1.00  0.00     0.202 C 
BRANCH  18  23
ATOM     23  C   UNL     1      30.440  37.069  18.808  1.00  0.00     0.191 C 
BRANCH  23  24
ATOM     24  O   UNL     1      29.434  37.895  19.295  1.00  0.00    -0.394 OA
ATOM     25  H   UNL     1      28.891  38.230  18.533  1.00  0.00     0.210 HD
ENDBRANCH  23  24
ENDBRANCH  18  23
BRANCH  20  26
ATOM     26  O   UNL     1      32.778  35.325  19.586  1.00  0.00    -0.350 OA
BRANCH  26  27
ATOM     27  C   UNL     1      33.628  34.925  20.580  1.00  0.00     0.169 C 
BRANCH  27  28
ATOM     28  C   UNL     1      34.210  36.079  21.352  1.00  0.00     0.119 C 
BRANCH  28  29
ATOM     29  N   UNL     1      33.122  36.939  21.782  1.00  0.00    -0.092 NA
ATOM     30  N   UNL     1      33.042  38.081  21.336  1.00  0.00     0.001 N 
ATOM     31  N   UNL     1      32.861  39.140  20.732  1.00  0.00    -0.003 NA
ENDBRANCH  28  29
ENDBRANCH  27  28
ENDBRANCH  26  27
ENDBRANCH  20  26
BRANCH  21  32
ATOM     32  O   UNL     1      30.309  35.999  21.482  1.00  0.00    -0.387 OA
ATOM     33  H   UNL     1      30.050  36.810  20.982  1.00  0.00     0.211 HD
ENDBRANCH  21  32
BRANCH  22  34
ATOM     34  O   UNL     1      30.717  32.606  20.414  1.00  0.00    -0.385 OA
ATOM     35  H   UNL     1      29.733  32.603  20.295  1.00  0.00     0.211 HD
ENDBRANCH  22  34
ENDBRANCH  16  17
ENDBRANCH  11  16
BRANCH  13  36
ATOM     36  O   UNL     1      26.646  36.053  17.940  1.00  0.00    -0.385 OA
ATOM     37  H   UNL     1      26.302  36.441  18.788  1.00  0.00     0.211 HD
ENDBRANCH  13  36
BRANCH  14  38
ATOM     38  O   UNL     1      24.723  34.010  16.617  1.00  0.00    -0.387 OA
ATOM     39  H   UNL     1      25.355  34.429  15.988  1.00  0.00     0.211 HD
ENDBRANCH  14  38
BRANCH  15  40
ATOM     40  O   UNL     1      23.402  32.715  18.181  1.00  0.00    -0.387 OA
ATOM     41  H   UNL     1      23.388  31.760  18.281  1.00  0.00     0.211 HD
ENDBRANCH  15  40
ENDBRANCH   9  10
ENDBRANCH   8   9
ENDBRANCH   3   8
BRANCH   3  42
ATOM     42  C   UNL     1      24.703  29.618  17.199  1.00  0.00     0.364 C 
ATOM     43  O   UNL     1      24.807  30.671  16.559  1.00  0.00    -0.246 OA
BRANCH  42  44
ATOM     44  O   UNL     1      23.688  28.738  16.899  1.00  0.00    -0.477 OA
ATOM     45  H   UNL     1      22.786  29.132  16.658  1.00  0.00     0.296 HD
ENDBRANCH  42  44
ENDBRANCH   3  42
BRANCH   6  46
ATOM     46  O   UNL     1      26.503  26.200  20.070  1.00  0.00    -0.391 OA
ATOM     47  H   UNL     1      26.830  26.541  20.968  1.00  0.00     0.211 HD
ENDBRANCH   6  46
BRANCH   7  48
ATOM     48  N   UNL     1      29.034  27.463  19.823  1.00  0.00    -0.348 N 
ATOM     49  C   UNL     1      29.805  27.692  20.994  1.00  0.00     0.217 C 
ATOM     50  H   UNL     1      29.379  26.766  19.139  1.00  0.00     0.163 HD
ATOM     51  C   UNL     1      31.060  26.992  21.270  1.00  0.00     0.114 C 
ATOM     52  O   UNL     1      29.385  28.551  21.844  1.00  0.00    -0.275 OA
ENDBRANCH   7  48
ENDBRANCH   1   2
BRANCH   1  53
ATOM     53  O   UNL     1      28.571  30.804  19.868  1.00  0.00    -0.388 OA
ATOM     54  H   UNL     1      28.357  31.765  19.659  1.00  0.00     0.211 HD
ENDBRANCH   1  53
BRANCH   1  55
ATOM     55  C   UNL     1      28.941  31.326  17.620  1.00  0.00     0.165 C 
BRANCH  55  56
ATOM     56  O   UNL     1      27.735  31.761  17.175  1.00  0.00    -0.388 OA
ATOM     57  H   UNL     1      27.044  31.593  17.858  1.00  0.00     0.211 HD
ENDBRANCH  55  56
BRANCH  55  58
ATOM     58  C   UNL     1      29.777  30.805  16.442  1.00  0.00     0.154 C 
BRANCH  58  59
ATOM     59  N   UNL     1      29.751  31.749  15.347  1.00  0.00    -0.319 N 
ATOM     60  C   UNL     1      30.723  32.738  15.082  1.00  0.00     0.407 C 
ATOM     61  H   UNL     1      28.947  31.727  14.646  1.00  0.00     0.167 HD
ATOM     62  O   UNL     1      31.746  32.837  15.787  1.00  0.00    -0.225 OA
BRANCH  60  63
ATOM     63  O   UNL     1      30.572  33.648  14.016  1.00  0.00    -0.443 OA
BRANCH  63  64
ATOM     64  C   UNL     1      30.371  35.043  14.332  1.00  0.00     0.294 C 
BRANCH  64  65
ATOM     65  C   UNL     1      28.869  35.174  14.408  1.00  0.00     0.120 A 
ATOM     66  C   UNL     1      28.001  34.505  13.524  1.00  0.00     0.138 A 
ATOM     67  N   UNL     1      28.090  35.896  15.189  1.00  0.00    -0.132 NA
ATOM     68  N   UNL     1      26.739  34.859  13.809  1.00  0.00    -0.249 N 
ATOM     69  N   UNL     1      26.808  35.696  14.815  1.00  0.00    -0.067 NA
BRANCH  68  70
ATOM     70  C   UNL     1      25.572  34.373  13.069  1.00  0.00     0.114 C 
ATOM     71  C   UNL     1      25.723  34.750  11.629  1.00  0.00     0.034 C 
BRANCH  70  72
ATOM     72  C   UNL     1      25.343  32.922  13.339  1.00  0.00     0.108 C 
BRANCH  72  73
ATOM     73  C   UNL     1      23.881  32.716  13.512  1.00  0.00     0.164 C 
ATOM     74  O   UNL     1      23.156  33.599  13.976  1.00  0.00    -0.294 OA
BRANCH  73  75
ATOM     75  C   UNL     1      23.329  31.415  13.105  1.00  0.00     0.018 A 
ATOM     76  C   UNL     1      24.067  30.289  13.069  1.00  0.00     0.012 A 
ATOM     77  C   UNL     1      21.971  31.387  12.750  1.00  0.00     0.012 A 
ATOM     78  C   UNL     1      23.483  29.071  12.680  1.00  0.00     0.001 A 
ATOM     79  C   UNL     1      21.422  30.195  12.375  1.00  0.00     0.001 A 
ATOM     80  C   UNL     1      22.152  29.037  12.333  1.00  0.00     0.000 A 
ENDBRANCH  73  75
ENDBRANCH  72  73
ENDBRANCH  70  72
ENDBRANCH  68  70
ENDBRANCH  64  65
ENDBRANCH  63  64
ENDBRANCH  60  63
ENDBRANCH  58  59
ENDBRANCH  55  58
ENDBRANCH   1  55
TORSDOF 33
BEGIN_RES LYS A 131
REMARK  4 active torsions:
REMARK  status: ('A' for Active; 'I' for Inactive)
REMARK    1  A    between atoms: CA   and  CB  
REMARK    2  A    between atoms: CB   and  CG  
REMARK    3  A    between atoms: CG   and  CD  
REMARK    4  A    between atoms: CD   and  CE  
ROOT
ATOM      1  CA  LYS A 131      29.867  25.555  16.977  1.00 20.52     0.186 C 
ENDROOT
BRANCH   1   2
ATOM      2  CB  LYS A 131      28.345  25.722  17.026  1.00 20.94     0.034 C 
BRANCH   2   3
ATOM      3  CG  LYS A 131      27.599  24.473  16.581  1.00 22.96     0.005 C 
BRANCH   3   4
ATOM      4  CD  LYS A 131      27.271  23.568  17.736  1.00 24.33     0.041 C 
BRANCH   4   5
ATOM      5  CE  LYS A 131      25.759  23.516  17.929  1.00 26.91     0.338 C 
ATOM      6  NZ  LYS A 131      25.081  24.398  16.950  1.00 27.40     0.618 N 
ENDBRANCH   4   5
ENDBRANCH   3   4
ENDBRANCH   2   3
ENDBRANCH   1   2
END_RES LYS A 131
BEGIN_RES LYS A 135
REMARK  4 active torsions:
REMARK  status: ('A' for Active; 'I' for Inactive)
REMARK    5  A    between atoms: CA   and  CB  
REMARK    6  A    between atoms: CB   and  CG  
REMARK    7  A    between atoms: CG   and  CD  
REMARK    8  A    between atoms: CD   and  CE  
ROOT
ATOM      7  CA  LYS A 135      33.193  34.663   9.290  1.00 25.02     0.186 C 
ENDROOT
BRANCH   7   8
ATOM      8  CB  LYS A 135      32.060  35.360  10.034  1.00 26.63     0.034 C 
BRANCH   8   9
ATOM      9  CG  LYS A 135      30.790  35.470   9.231  1.00 29.45     0.005 C 
BRANCH   9  10
ATOM     10  CD  LYS A 135      30.051  34.141   9.211  1.00 32.00     0.041 C 
BRANCH  10  11
ATOM     11  CE  LYS A 135      28.645  34.321   8.670  1.00 34.25     0.338 C 
ATOM     12  NZ  LYS A 135      28.436  35.709   8.172  1.00 35.99     0.618 N 
ENDBRANCH  10  11
ENDBRANCH   9  10
ENDBRANCH   8   9
ENDBRANCH   7   8
END_RES LYS A 135
