REMARK VINA RESULT:    -4.748      3.827      8.880
REMARK INTER + INTRA:         -22.867
REMARK INTER:                 -11.548
REMARK INTRA:                 -11.319
REMARK UNBOUND:               -10.485
REMARK SMILES CC(=O)N[C@@H]1[C@@H](O)C[C@](OC[C@H]2O[C@@H](O[C@H]3[C@H](O)[C@@H](O)[C@H](OCCN=[N+]=[N-])O[C@@H]3CO)[C@H](O)[C@@H](O)[C@H]2O)(C(=O)O)O[C@H]1C(O)[C@H](O)CNC(=O)OCc1cn(CC(O)c2ccccc2)nn1
REMARK SMILES IDX 9 1 8 2 6 3 5 4 42 5 41 6 10 7 11 8 12 9 14 10 13 11 32 12
REMARK SMILES IDX 34 13 36 14 15 15 16 16 29 17 28 18 21 19 17 20 19 21 30 22
REMARK SMILES IDX 31 23 22 25 23 26 24 27 25 28 26 29 27 30 18 31 20 33 33 35
REMARK SMILES IDX 35 37 37 39 38 41 39 42 40 43 7 45 43 47 44 48 45 50 46 51
REMARK SMILES IDX 47 53 48 54 49 55 50 57 51 58 52 59 53 60 54 61 66 62 55 63
REMARK SMILES IDX 65 64 56 65 57 66 58 67 59 69 60 70 64 71 61 72 63 73 62 74
REMARK SMILES IDX 4 75 2 76 1 78 3 79
REMARK H PARENT 31 24 18 32 20 34 33 36 35 38 37 40 40 44 7 46 44 49 46 52
REMARK H PARENT 48 56 58 68 4 77
REMARK Flexibility Score: inf
ROOT
ATOM      1  C   UNL     1      30.230  32.805  15.841  1.00  0.00     0.272 C 
ATOM      2  C   UNL     1      30.327  31.343  16.061  1.00  0.00     0.113 C 
ATOM      3  C   UNL     1      29.047  30.591  16.168  1.00  0.00     0.145 C 
ATOM      4  C   UNL     1      27.926  31.560  16.379  1.00  0.00     0.142 C 
ATOM      5  C   UNL     1      28.428  32.643  17.317  1.00  0.00     0.178 C 
ATOM      6  O   UNL     1      29.441  33.408  16.827  1.00  0.00    -0.332 OA
ENDROOT
BRANCH   1   7
ATOM      7  O   UNL     1      29.756  33.235  14.638  1.00  0.00    -0.338 OA
BRANCH   7   8
ATOM      8  C   UNL     1      29.264  34.501  14.555  1.00  0.00     0.199 C 
BRANCH   8   9
ATOM      9  C   UNL     1      29.289  35.009  13.131  1.00  0.00     0.179 C 
ATOM     10  C   UNL     1      28.661  36.898  11.979  1.00  0.00     0.282 C 
ATOM     11  O   UNL     1      28.330  35.985  12.944  1.00  0.00    -0.341 OA
ATOM     12  C   UNL     1      29.882  37.737  12.286  1.00  0.00     0.202 C 
ATOM     13  C   UNL     1      30.852  36.879  13.068  1.00  0.00     0.179 C 
ATOM     14  C   UNL     1      30.626  35.445  12.634  1.00  0.00     0.177 C 
BRANCH  10  15
ATOM     15  O   UNL     1      27.636  37.811  11.752  1.00  0.00    -0.341 OA
BRANCH  15  16
ATOM     16  C   UNL     1      26.372  37.358  12.015  1.00  0.00     0.184 C 
ATOM     17  C   UNL     1      25.806  36.848  10.695  1.00  0.00     0.178 C 
ATOM     18  O   UNL     1      24.970  37.781  10.117  1.00  0.00    -0.341 OA
ATOM     19  C   UNL     1      25.650  39.012  10.093  1.00  0.00     0.281 C 
ATOM     20  C   UNL     1      25.578  38.548  12.538  1.00  0.00     0.180 C 
ATOM     21  C   UNL     1      25.479  39.630  11.476  1.00  0.00     0.202 C 
BRANCH  17  22
ATOM     22  C   UNL     1      25.116  35.509  10.885  1.00  0.00     0.191 C 
BRANCH  22  23
ATOM     23  O   UNL     1      25.781  34.724  11.821  1.00  0.00    -0.394 OA
ATOM     24  H   UNL     1      26.318  34.007  11.392  1.00  0.00     0.210 HD
ENDBRANCH  22  23
ENDBRANCH  17  22
BRANCH  19  25
ATOM     25  O   UNL     1      25.077  39.762   9.096  1.00  0.00    -0.350 OA
BRANCH  25  26
ATOM     26  C   UNL     1      24.965  39.140   7.875  1.00  0.00     0.169 C 
BRANCH  26  27
ATOM     27  C   UNL     1      23.658  39.382   7.173  1.00  0.00     0.119 C 
BRANCH  27  28
ATOM     28  N   UNL     1      22.553  38.858   7.984  1.00  0.00    -0.092 NA
ATOM     29  N   UNL     1      22.427  37.624   7.949  1.00  0.00     0.001 N 
ATOM     30  N   UNL     1      22.212  36.438   8.196  1.00  0.00    -0.003 NA
ENDBRANCH  27  28
ENDBRANCH  26  27
ENDBRANCH  25  26
ENDBRANCH  19  25
BRANCH  20  31
ATOM     31  O   UNL     1      24.311  38.142  12.936  1.00  0.00    -0.387 OA
ATOM     32  H   UNL     1      23.825  38.913  13.343  1.00  0.00     0.211 HD
ENDBRANCH  20  31
BRANCH  21  33
ATOM     33  O   UNL     1      26.383  40.649  11.718  1.00  0.00    -0.385 OA
ATOM     34  H   UNL     1      27.004  40.340  12.422  1.00  0.00     0.211 HD
ENDBRANCH  21  33
ENDBRANCH  15  16
ENDBRANCH  10  15
BRANCH  12  35
ATOM     35  O   UNL     1      30.475  38.116  11.077  1.00  0.00    -0.385 OA
ATOM     36  H   UNL     1      30.698  39.085  11.151  1.00  0.00     0.211 HD
ENDBRANCH  12  35
BRANCH  13  37
ATOM     37  O   UNL     1      30.528  37.053  14.411  1.00  0.00    -0.387 OA
ATOM     38  H   UNL     1      31.041  37.749  14.858  1.00  0.00     0.211 HD
ENDBRANCH  13  37
BRANCH  14  39
ATOM     39  O   UNL     1      31.653  34.591  12.960  1.00  0.00    -0.387 OA
ATOM     40  H   UNL     1      31.883  34.590  13.925  1.00  0.00     0.211 HD
ENDBRANCH  14  39
ENDBRANCH   8   9
ENDBRANCH   7   8
ENDBRANCH   1   7
BRANCH   1  41
ATOM     41  C   UNL     1      31.623  33.350  16.115  1.00  0.00     0.364 C 
ATOM     42  O   UNL     1      31.868  33.886  17.183  1.00  0.00    -0.246 OA
BRANCH  41  43
ATOM     43  O   UNL     1      32.546  33.194  15.097  1.00  0.00    -0.477 OA
ATOM     44  H   UNL     1      32.668  32.270  14.738  1.00  0.00     0.296 HD
ENDBRANCH  41  43
ENDBRANCH   1  41
BRANCH   3  45
ATOM     45  O   UNL     1      28.848  29.738  15.081  1.00  0.00    -0.391 OA
ATOM     46  H   UNL     1      28.962  28.813  15.437  1.00  0.00     0.211 HD
ENDBRANCH   3  45
BRANCH   5  47
ATOM     47  C   UNL     1      27.206  33.411  17.753  1.00  0.00     0.176 C 
BRANCH  47  48
ATOM     48  O   UNL     1      26.555  33.898  16.609  1.00  0.00    -0.388 OA
ATOM     49  H   UNL     1      27.264  34.052  15.925  1.00  0.00     0.211 HD
ENDBRANCH  47  48
BRANCH  47  50
ATOM     50  C   UNL     1      27.528  34.496  18.725  1.00  0.00     0.165 C 
BRANCH  50  51
ATOM     51  O   UNL     1      26.879  34.349  19.921  1.00  0.00    -0.388 OA
ATOM     52  H   UNL     1      25.988  34.732  19.959  1.00  0.00     0.211 HD
ENDBRANCH  50  51
BRANCH  50  53
ATOM     53  C   UNL     1      27.514  35.886  18.142  1.00  0.00     0.154 C 
BRANCH  53  54
ATOM     54  N   UNL     1      26.252  36.334  17.633  1.00  0.00    -0.319 N 
ATOM     55  C   UNL     1      25.191  36.851  18.433  1.00  0.00     0.407 C 
ATOM     56  H   UNL     1      26.071  36.294  16.579  1.00  0.00     0.167 HD
ATOM     57  O   UNL     1      25.317  36.952  19.666  1.00  0.00    -0.225 OA
BRANCH  55  58
ATOM     58  O   UNL     1      24.001  37.253  17.867  1.00  0.00    -0.443 OA
BRANCH  58  59
ATOM     59  C   UNL     1      23.833  37.469  16.467  1.00  0.00     0.294 C 
BRANCH  59  60
ATOM     60  C   UNL     1      23.952  36.163  15.744  1.00  0.00     0.120 A 
ATOM     61  C   UNL     1      23.150  35.052  15.797  1.00  0.00     0.138 A 
ATOM     62  N   UNL     1      24.935  35.884  14.860  1.00  0.00    -0.132 NA
ATOM     63  N   UNL     1      23.653  34.110  14.944  1.00  0.00    -0.249 N 
ATOM     64  N   UNL     1      24.717  34.671  14.417  1.00  0.00    -0.067 NA
BRANCH  63  65
ATOM     65  C   UNL     1      23.089  32.791  14.707  1.00  0.00     0.182 C 
BRANCH  65  66
ATOM     66  C   UNL     1      23.253  32.412  13.245  1.00  0.00     0.166 C 
BRANCH  66  67
ATOM     67  O   UNL     1      24.647  32.241  13.074  1.00  0.00    -0.386 OA
ATOM     68  H   UNL     1      25.037  33.063  12.666  1.00  0.00     0.211 HD
ENDBRANCH  66  67
BRANCH  66  69
ATOM     69  C   UNL     1      22.540  31.192  12.857  1.00  0.00    -0.018 A 
ATOM     70  C   UNL     1      23.153  29.984  12.718  1.00  0.00     0.006 A 
ATOM     71  C   UNL     1      21.167  31.345  12.615  1.00  0.00     0.006 A 
ATOM     72  C   UNL     1      22.388  28.897  12.329  1.00  0.00     0.000 A 
ATOM     73  C   UNL     1      20.434  30.256  12.231  1.00  0.00     0.000 A 
ATOM     74  C   UNL     1      21.040  29.024  12.085  1.00  0.00     0.000 A 
ENDBRANCH  66  69
ENDBRANCH  65  66
ENDBRANCH  63  65
ENDBRANCH  59  60
ENDBRANCH  58  59
ENDBRANCH  55  58
ENDBRANCH  53  54
ENDBRANCH  50  53
ENDBRANCH  47  50
ENDBRANCH   5  47
BRANCH   4  75
ATOM     75  N   UNL     1      26.826  30.910  17.110  1.00  0.00    -0.348 N 
ATOM     76  C   UNL     1      25.709  30.340  16.449  1.00  0.00     0.217 C 
ATOM     77  H   UNL     1      26.849  30.857  18.150  1.00  0.00     0.163 HD
ATOM     78  C   UNL     1      24.580  29.677  17.152  1.00  0.00     0.114 C 
ATOM     79  O   UNL     1      25.675  30.400  15.189  1.00  0.00    -0.275 OA
ENDBRANCH   4  75
TORSDOF 33
BEGIN_RES LYS A 131
REMARK  4 active torsions:
REMARK  status: ('A' for Active; 'I' for Inactive)
REMARK    1  A    between atoms: CA   and  CB  
REMARK    2  A    between atoms: CB   and  CG  
REMARK    3  A    between atoms: CG   and  CD  
REMARK    4  A    between atoms: CD   and  CE  
ROOT
ATOM      1  CA  LYS A 131      29.867  25.555  16.977  1.00 20.52     0.186 C 
ENDROOT
BRANCH   1   2
ATOM      2  CB  LYS A 131      28.345  25.722  17.026  1.00 20.94     0.034 C 
BRANCH   2   3
ATOM      3  CG  LYS A 131      27.601  24.402  16.891  1.00 22.96     0.005 C 
BRANCH   3   4
ATOM      4  CD  LYS A 131      26.273  24.426  17.596  1.00 24.33     0.041 C 
BRANCH   4   5
ATOM      5  CE  LYS A 131      26.029  25.816  18.175  1.00 26.91     0.338 C 
ATOM      6  NZ  LYS A 131      24.636  26.250  17.914  1.00 27.40     0.618 N 
ENDBRANCH   4   5
ENDBRANCH   3   4
ENDBRANCH   2   3
ENDBRANCH   1   2
END_RES LYS A 131
BEGIN_RES LYS A 135
REMARK  4 active torsions:
REMARK  status: ('A' for Active; 'I' for Inactive)
REMARK    5  A    between atoms: CA   and  CB  
REMARK    6  A    between atoms: CB   and  CG  
REMARK    7  A    between atoms: CG   and  CD  
REMARK    8  A    between atoms: CD   and  CE  
ROOT
ATOM      7  CA  LYS A 135      33.193  34.663   9.290  1.00 25.02     0.186 C 
ENDROOT
BRANCH   7   8
ATOM      8  CB  LYS A 135      32.060  35.360  10.034  1.00 26.63     0.034 C 
BRANCH   8   9
ATOM      9  CG  LYS A 135      30.772  35.418   9.253  1.00 29.45     0.005 C 
BRANCH   9  10
ATOM     10  CD  LYS A 135      30.092  34.058   9.237  1.00 32.00     0.041 C 
BRANCH  10  11
ATOM     11  CE  LYS A 135      28.590  34.215   9.099  1.00 34.25     0.338 C 
ATOM     12  NZ  LYS A 135      28.249  35.417   8.289  1.00 35.99     0.618 N 
ENDBRANCH  10  11
ENDBRANCH   9  10
ENDBRANCH   8   9
ENDBRANCH   7   8
END_RES LYS A 135
