REMARK VINA RESULT:    -4.654      4.259      9.251
REMARK INTER + INTRA:         -22.620
REMARK INTER:                 -12.874
REMARK INTRA:                  -9.746
REMARK UNBOUND:               -10.485
REMARK SMILES CC(=O)N[C@@H]1[C@@H](O)C[C@](OC[C@H]2O[C@@H](O[C@H]3[C@H](O)[C@@H](O)[C@H](OCCN=[N+]=[N-])O[C@@H]3CO)[C@H](O)[C@@H](O)[C@H]2O)(C(=O)O)O[C@H]1C(O)[C@H](O)CNC(=O)OCc1cn(CC(O)c2ccccc2)nn1
REMARK SMILES IDX 9 1 8 2 6 3 5 4 42 5 41 6 10 7 11 8 12 9 14 10 13 11 32 12
REMARK SMILES IDX 34 13 36 14 15 15 16 16 29 17 28 18 21 19 17 20 19 21 30 22
REMARK SMILES IDX 31 23 22 25 23 26 24 27 25 28 26 29 27 30 18 31 20 33 33 35
REMARK SMILES IDX 35 37 37 39 38 41 39 42 40 43 7 45 43 47 44 48 45 50 46 51
REMARK SMILES IDX 47 53 48 54 49 55 50 57 51 58 52 59 53 60 54 61 66 62 55 63
REMARK SMILES IDX 65 64 56 65 57 66 58 67 59 69 60 70 64 71 61 72 63 73 62 74
REMARK SMILES IDX 4 75 2 76 1 78 3 79
REMARK H PARENT 31 24 18 32 20 34 33 36 35 38 37 40 40 44 7 46 44 49 46 52
REMARK H PARENT 48 56 58 68 4 77
REMARK Flexibility Score: inf
ROOT
ATOM      1  C   UNL     1      27.919  34.442  16.333  1.00  0.00     0.272 C 
ATOM      2  C   UNL     1      28.602  35.700  16.717  1.00  0.00     0.113 C 
ATOM      3  C   UNL     1      29.948  35.942  16.129  1.00  0.00     0.145 C 
ATOM      4  C   UNL     1      30.463  34.666  15.543  1.00  0.00     0.142 C 
ATOM      5  C   UNL     1      30.067  33.538  16.480  1.00  0.00     0.178 C 
ATOM      6  O   UNL     1      28.728  33.332  16.601  1.00  0.00    -0.332 OA
ENDROOT
BRANCH   1   7
ATOM      7  O   UNL     1      27.494  34.319  15.045  1.00  0.00    -0.338 OA
BRANCH   7   8
ATOM      8  C   UNL     1      26.745  35.323  14.515  1.00  0.00     0.199 C 
BRANCH   8   9
ATOM      9  C   UNL     1      26.693  35.235  13.007  1.00  0.00     0.179 C 
ATOM     10  C   UNL     1      25.930  36.503  11.245  1.00  0.00     0.282 C 
ATOM     11  O   UNL     1      25.681  36.029  12.505  1.00  0.00    -0.341 OA
ATOM     12  C   UNL     1      27.118  37.434  11.138  1.00  0.00     0.202 C 
ATOM     13  C   UNL     1      28.157  36.982  12.140  1.00  0.00     0.179 C 
ATOM     14  C   UNL     1      27.988  35.486  12.310  1.00  0.00     0.177 C 
BRANCH  10  15
ATOM     15  O   UNL     1      24.853  37.220  10.735  1.00  0.00    -0.341 OA
BRANCH  15  16
ATOM     16  C   UNL     1      24.247  36.675   9.637  1.00  0.00     0.184 C 
ATOM     17  C   UNL     1      23.453  37.795   8.974  1.00  0.00     0.178 C 
ATOM     18  O   UNL     1      22.116  37.723   9.308  1.00  0.00    -0.341 OA
ATOM     19  C   UNL     1      22.028  37.614  10.707  1.00  0.00     0.281 C 
ATOM     20  C   UNL     1      23.331  35.569  10.144  1.00  0.00     0.180 C 
ATOM     21  C   UNL     1      22.249  36.143  11.043  1.00  0.00     0.202 C 
BRANCH  17  22
ATOM     22  C   UNL     1      23.662  37.788   7.470  1.00  0.00     0.191 C 
BRANCH  22  23
ATOM     23  O   UNL     1      23.323  39.013   6.905  1.00  0.00    -0.394 OA
ATOM     24  H   UNL     1      22.656  38.916   6.176  1.00  0.00     0.210 HD
ENDBRANCH  22  23
ENDBRANCH  17  22
BRANCH  19  25
ATOM     25  O   UNL     1      20.779  38.062  11.062  1.00  0.00    -0.350 OA
BRANCH  25  26
ATOM     26  C   UNL     1      20.757  39.141  11.913  1.00  0.00     0.169 C 
BRANCH  26  27
ATOM     27  C   UNL     1      20.311  40.426  11.273  1.00  0.00     0.119 C 
BRANCH  27  28
ATOM     28  N   UNL     1      19.847  40.166   9.905  1.00  0.00    -0.092 NA
ATOM     29  N   UNL     1      20.568  40.645   9.016  1.00  0.00     0.001 N 
ATOM     30  N   UNL     1      21.197  40.878   7.984  1.00  0.00    -0.003 NA
ENDBRANCH  27  28
ENDBRANCH  26  27
ENDBRANCH  25  26
ENDBRANCH  19  25
BRANCH  20  31
ATOM     31  O   UNL     1      22.763  34.889   9.075  1.00  0.00    -0.387 OA
ATOM     32  H   UNL     1      23.177  33.983   8.995  1.00  0.00     0.211 HD
ENDBRANCH  20  31
BRANCH  21  33
ATOM     33  O   UNL     1      22.552  35.942  12.377  1.00  0.00    -0.385 OA
ATOM     34  H   UNL     1      22.890  35.018  12.474  1.00  0.00     0.211 HD
ENDBRANCH  21  33
ENDBRANCH  15  16
ENDBRANCH  10  15
BRANCH  12  35
ATOM     35  O   UNL     1      27.648  37.331   9.847  1.00  0.00    -0.385 OA
ATOM     36  H   UNL     1      27.606  38.238   9.439  1.00  0.00     0.211 HD
ENDBRANCH  12  35
BRANCH  13  37
ATOM     37  O   UNL     1      27.873  37.656  13.325  1.00  0.00    -0.387 OA
ATOM     38  H   UNL     1      28.615  37.689  13.953  1.00  0.00     0.211 HD
ENDBRANCH  13  37
BRANCH  14  39
ATOM     39  O   UNL     1      29.068  34.862  12.888  1.00  0.00    -0.387 OA
ATOM     40  H   UNL     1      29.364  34.045  12.409  1.00  0.00     0.211 HD
ENDBRANCH  14  39
ENDBRANCH   8   9
ENDBRANCH   7   8
ENDBRANCH   1   7
BRANCH   1  41
ATOM     41  C   UNL     1      26.767  34.291  17.315  1.00  0.00     0.364 C 
ATOM     42  O   UNL     1      26.328  35.270  17.894  1.00  0.00    -0.246 OA
BRANCH  41  43
ATOM     43  O   UNL     1      26.281  33.007  17.486  1.00  0.00    -0.477 OA
ATOM     44  H   UNL     1      26.351  32.618  18.402  1.00  0.00     0.296 HD
ENDBRANCH  41  43
ENDBRANCH   1  41
BRANCH   3  45
ATOM     45  O   UNL     1      29.942  37.007  15.227  1.00  0.00    -0.391 OA
ATOM     46  H   UNL     1      30.316  36.645  14.376  1.00  0.00     0.211 HD
ENDBRANCH   3  45
BRANCH   5  47
ATOM     47  C   UNL     1      30.857  32.334  16.035  1.00  0.00     0.176 C 
BRANCH  47  48
ATOM     48  O   UNL     1      30.841  32.284  14.633  1.00  0.00    -0.388 OA
ATOM     49  H   UNL     1      30.148  32.937  14.335  1.00  0.00     0.211 HD
ENDBRANCH  47  48
BRANCH  47  50
ATOM     50  C   UNL     1      30.366  31.067  16.652  1.00  0.00     0.165 C 
BRANCH  50  51
ATOM     51  O   UNL     1      29.614  30.313  15.791  1.00  0.00    -0.388 OA
ATOM     52  H   UNL     1      30.052  30.071  14.961  1.00  0.00     0.211 HD
ENDBRANCH  50  51
BRANCH  50  53
ATOM     53  C   UNL     1      29.806  31.221  18.042  1.00  0.00     0.154 C 
BRANCH  53  54
ATOM     54  N   UNL     1      28.417  30.903  18.192  1.00  0.00    -0.319 N 
ATOM     55  C   UNL     1      27.914  29.794  18.933  1.00  0.00     0.407 C 
ATOM     56  H   UNL     1      27.685  31.533  17.730  1.00  0.00     0.167 HD
ATOM     57  O   UNL     1      28.688  29.018  19.519  1.00  0.00    -0.225 OA
BRANCH  55  58
ATOM     58  O   UNL     1      26.561  29.550  19.021  1.00  0.00    -0.443 OA
BRANCH  58  59
ATOM     59  C   UNL     1      25.830  28.822  18.035  1.00  0.00     0.294 C 
BRANCH  59  60
ATOM     60  C   UNL     1      25.563  29.707  16.858  1.00  0.00     0.120 A 
ATOM     61  C   UNL     1      24.373  30.160  16.350  1.00  0.00     0.138 A 
ATOM     62  N   UNL     1      26.536  30.234  16.083  1.00  0.00    -0.132 NA
ATOM     63  N   UNL     1      24.635  30.959  15.272  1.00  0.00    -0.249 N 
ATOM     64  N   UNL     1      25.944  30.961  15.168  1.00  0.00    -0.067 NA
BRANCH  63  65
ATOM     65  C   UNL     1      23.641  31.639  14.456  1.00  0.00     0.182 C 
BRANCH  65  66
ATOM     66  C   UNL     1      23.582  31.007  13.077  1.00  0.00     0.166 C 
BRANCH  66  67
ATOM     67  O   UNL     1      24.488  29.922  13.141  1.00  0.00    -0.386 OA
ATOM     68  H   UNL     1      25.061  30.012  13.952  1.00  0.00     0.211 HD
ENDBRANCH  66  67
BRANCH  66  69
ATOM     69  C   UNL     1      22.251  30.534  12.688  1.00  0.00    -0.018 A 
ATOM     70  C   UNL     1      21.984  29.237  12.376  1.00  0.00     0.006 A 
ATOM     71  C   UNL     1      21.252  31.518  12.637  1.00  0.00     0.006 A 
ATOM     72  C   UNL     1      20.692  28.900  12.004  1.00  0.00     0.000 A 
ATOM     73  C   UNL     1      19.985  31.160  12.265  1.00  0.00     0.000 A 
ATOM     74  C   UNL     1      19.697  29.847  11.946  1.00  0.00     0.000 A 
ENDBRANCH  66  69
ENDBRANCH  65  66
ENDBRANCH  63  65
ENDBRANCH  59  60
ENDBRANCH  58  59
ENDBRANCH  55  58
ENDBRANCH  53  54
ENDBRANCH  50  53
ENDBRANCH  47  50
ENDBRANCH   5  47
BRANCH   4  75
ATOM     75  N   UNL     1      31.935  34.662  15.552  1.00  0.00    -0.348 N 
ATOM     76  C   UNL     1      32.702  34.830  14.372  1.00  0.00     0.217 C 
ATOM     77  H   UNL     1      32.452  34.530  16.447  1.00  0.00     0.163 HD
ATOM     78  C   UNL     1      34.187  34.832  14.342  1.00  0.00     0.114 C 
ATOM     79  O   UNL     1      32.081  34.990  13.284  1.00  0.00    -0.275 OA
ENDBRANCH   4  75
TORSDOF 33
BEGIN_RES LYS A 131
REMARK  4 active torsions:
REMARK  status: ('A' for Active; 'I' for Inactive)
REMARK    1  A    between atoms: CA   and  CB  
REMARK    2  A    between atoms: CB   and  CG  
REMARK    3  A    between atoms: CG   and  CD  
REMARK    4  A    between atoms: CD   and  CE  
ROOT
ATOM      1  CA  LYS A 131      29.867  25.555  16.977  1.00 20.52     0.186 C 
ENDROOT
BRANCH   1   2
ATOM      2  CB  LYS A 131      28.345  25.722  17.026  1.00 20.94     0.034 C 
BRANCH   2   3
ATOM      3  CG  LYS A 131      27.600  24.415  16.804  1.00 22.96     0.005 C 
BRANCH   3   4
ATOM      4  CD  LYS A 131      26.170  24.493  17.264  1.00 24.33     0.041 C 
BRANCH   4   5
ATOM      5  CE  LYS A 131      26.102  24.215  18.762  1.00 26.91     0.338 C 
ATOM      6  NZ  LYS A 131      25.681  25.432  19.496  1.00 27.40     0.618 N 
ENDBRANCH   4   5
ENDBRANCH   3   4
ENDBRANCH   2   3
ENDBRANCH   1   2
END_RES LYS A 131
BEGIN_RES LYS A 135
REMARK  4 active torsions:
REMARK  status: ('A' for Active; 'I' for Inactive)
REMARK    5  A    between atoms: CA   and  CB  
REMARK    6  A    between atoms: CB   and  CG  
REMARK    7  A    between atoms: CG   and  CD  
REMARK    8  A    between atoms: CD   and  CE  
ROOT
ATOM      7  CA  LYS A 135      33.193  34.663   9.290  1.00 25.02     0.186 C 
ENDROOT
BRANCH   7   8
ATOM      8  CB  LYS A 135      32.060  35.360  10.034  1.00 26.63     0.034 C 
BRANCH   8   9
ATOM      9  CG  LYS A 135      30.710  34.733   9.799  1.00 29.45     0.005 C 
BRANCH   9  10
ATOM     10  CD  LYS A 135      30.469  34.520   8.313  1.00 32.00     0.041 C 
BRANCH  10  11
ATOM     11  CE  LYS A 135      29.016  34.786   7.965  1.00 34.25     0.338 C 
ATOM     12  NZ  LYS A 135      28.899  35.517   6.673  1.00 35.99     0.618 N 
ENDBRANCH  10  11
ENDBRANCH   9  10
ENDBRANCH   8   9
ENDBRANCH   7   8
END_RES LYS A 135
