REMARK VINA RESULT:    -4.627      4.858     11.647
REMARK INTER + INTRA:         -23.399
REMARK INTER:                 -10.323
REMARK INTRA:                 -13.076
REMARK UNBOUND:               -10.521
REMARK SMILES CC(=O)N[C@@H]1[C@@H](O)C[C@](OC[C@H]2O[C@@H](O[C@H]3[C@H](O)[C@@H](O)[C@H](OCCN=[N+]=[N-])O[C@@H]3CO)[C@H](O)[C@@H](O)[C@H]2O)(C(=O)O)O[C@H]1C(O)[C@H](O)CNC(=O)OCc1cn(CCCCCC(=O)O)nn1
REMARK SMILES IDX 47 1 45 2 43 3 42 4 9 5 8 6 41 7 6 8 5 9 10 10 11 11 12 12
REMARK SMILES IDX 14 13 13 14 32 15 34 16 36 17 15 18 16 19 29 20 28 21 21 22
REMARK SMILES IDX 17 23 19 24 30 25 31 26 22 28 23 29 24 30 25 31 26 32 27 33
REMARK SMILES IDX 18 34 20 36 33 38 35 40 37 42 38 44 39 45 40 46 7 48 4 50
REMARK SMILES IDX 2 51 1 53 3 54 44 55 46 57 48 59 49 60 50 62 51 63 52 64
REMARK SMILES IDX 53 65 54 66 65 67 55 68 64 69 56 70 57 71 58 72 59 73 60 74
REMARK SMILES IDX 61 75 62 76 63 77
REMARK H PARENT 31 27 18 35 20 37 33 39 35 41 37 43 40 47 7 49 4 52 44 56
REMARK H PARENT 46 58 48 61 63 78
REMARK Flexibility Score: inf
ROOT
ATOM      1  C   UNL     1      30.918  39.005  12.647  1.00  0.00     0.154 C 
ENDROOT
BRANCH   1   2
ATOM      2  C   UNL     1      29.513  38.817  13.167  1.00  0.00     0.165 C 
BRANCH   2   3
ATOM      3  C   UNL     1      29.634  38.379  14.591  1.00  0.00     0.176 C 
BRANCH   3   4
ATOM      4  C   UNL     1      30.794  37.502  14.911  1.00  0.00     0.178 C 
ATOM      5  C   UNL     1      31.654  35.425  14.754  1.00  0.00     0.272 C 
ATOM      6  C   UNL     1      32.940  36.140  15.015  1.00  0.00     0.113 C 
ATOM      7  O   UNL     1      30.500  36.152  15.014  1.00  0.00    -0.332 OA
ATOM      8  C   UNL     1      32.923  37.255  15.990  1.00  0.00     0.145 C 
ATOM      9  C   UNL     1      31.524  37.851  16.190  1.00  0.00     0.142 C 
BRANCH   5  10
ATOM     10  O   UNL     1      31.610  34.162  15.341  1.00  0.00    -0.338 OA
BRANCH  10  11
ATOM     11  C   UNL     1      31.171  34.085  16.623  1.00  0.00     0.199 C 
BRANCH  11  12
ATOM     12  C   UNL     1      29.943  33.193  16.610  1.00  0.00     0.179 C 
ATOM     13  C   UNL     1      27.800  32.913  16.035  1.00  0.00     0.282 C 
ATOM     14  O   UNL     1      29.028  33.508  15.618  1.00  0.00    -0.341 OA
ATOM     15  C   UNL     1      27.940  31.626  16.715  1.00  0.00     0.202 C 
ATOM     16  C   UNL     1      29.235  30.885  16.531  1.00  0.00     0.179 C 
ATOM     17  C   UNL     1      30.415  31.787  16.285  1.00  0.00     0.177 C 
BRANCH  13  18
ATOM     18  O   UNL     1      26.858  33.031  15.016  1.00  0.00    -0.341 OA
BRANCH  18  19
ATOM     19  C   UNL     1      26.515  34.287  14.678  1.00  0.00     0.184 C 
ATOM     20  C   UNL     1      25.033  34.489  14.578  1.00  0.00     0.178 C 
ATOM     21  O   UNL     1      24.846  35.886  14.623  1.00  0.00    -0.341 OA
ATOM     22  C   UNL     1      25.306  36.477  13.496  1.00  0.00     0.281 C 
ATOM     23  C   UNL     1      26.995  34.605  13.220  1.00  0.00     0.180 C 
ATOM     24  C   UNL     1      26.019  35.558  12.577  1.00  0.00     0.202 C 
BRANCH  20  25
ATOM     25  C   UNL     1      24.258  33.906  15.730  1.00  0.00     0.191 C 
BRANCH  25  26
ATOM     26  O   UNL     1      24.101  32.545  15.580  1.00  0.00    -0.394 OA
ATOM     27  H   UNL     1      23.164  32.381  15.290  1.00  0.00     0.210 HD
ENDBRANCH  25  26
ENDBRANCH  20  25
BRANCH  22  28
ATOM     28  O   UNL     1      26.072  37.625  13.739  1.00  0.00    -0.350 OA
BRANCH  28  29
ATOM     29  C   UNL     1      25.364  38.785  13.551  1.00  0.00     0.169 C 
BRANCH  29  30
ATOM     30  C   UNL     1      25.144  39.014  12.063  1.00  0.00     0.119 C 
BRANCH  30  31
ATOM     31  N   UNL     1      26.413  39.168  11.371  1.00  0.00    -0.092 NA
ATOM     32  N   UNL     1      26.807  40.307  11.056  1.00  0.00     0.001 N 
ATOM     33  N   UNL     1      27.035  41.280  10.337  1.00  0.00    -0.003 NA
ENDBRANCH  30  31
ENDBRANCH  29  30
ENDBRANCH  28  29
ENDBRANCH  22  28
BRANCH  23  34
ATOM     34  O   UNL     1      28.227  35.252  13.296  1.00  0.00    -0.387 OA
ATOM     35  H   UNL     1      28.692  34.961  14.134  1.00  0.00     0.211 HD
ENDBRANCH  23  34
BRANCH  24  36
ATOM     36  O   UNL     1      25.191  34.933  11.637  1.00  0.00    -0.385 OA
ATOM     37  H   UNL     1      24.687  35.584  11.087  1.00  0.00     0.211 HD
ENDBRANCH  24  36
ENDBRANCH  18  19
ENDBRANCH  13  18
BRANCH  15  38
ATOM     38  O   UNL     1      27.786  31.756  18.126  1.00  0.00    -0.385 OA
ATOM     39  H   UNL     1      27.481  30.915  18.512  1.00  0.00     0.211 HD
ENDBRANCH  15  38
BRANCH  16  40
ATOM     40  O   UNL     1      29.188  29.975  15.460  1.00  0.00    -0.387 OA
ATOM     41  H   UNL     1      28.359  29.464  15.431  1.00  0.00     0.211 HD
ENDBRANCH  16  40
BRANCH  17  42
ATOM     42  O   UNL     1      30.713  31.790  14.899  1.00  0.00    -0.387 OA
ATOM     43  H   UNL     1      30.673  32.762  14.631  1.00  0.00     0.211 HD
ENDBRANCH  17  42
ENDBRANCH  11  12
ENDBRANCH  10  11
ENDBRANCH   5  10
BRANCH   5  44
ATOM     44  C   UNL     1      31.612  35.159  13.288  1.00  0.00     0.364 C 
ATOM     45  O   UNL     1      30.746  34.399  12.801  1.00  0.00    -0.246 OA
BRANCH  44  46
ATOM     46  O   UNL     1      32.528  35.748  12.453  1.00  0.00    -0.477 OA
ATOM     47  H   UNL     1      32.418  35.781  11.426  1.00  0.00     0.296 HD
ENDBRANCH  44  46
ENDBRANCH   5  44
BRANCH   8  48
ATOM     48  O   UNL     1      33.559  36.999  17.202  1.00  0.00    -0.391 OA
ATOM     49  H   UNL     1      34.139  37.767  17.405  1.00  0.00     0.211 HD
ENDBRANCH   8  48
BRANCH   9  50
ATOM     50  N   UNL     1      31.580  39.238  16.491  1.00  0.00    -0.348 N 
ATOM     51  C   UNL     1      31.609  39.663  17.841  1.00  0.00     0.217 C 
ATOM     52  H   UNL     1      31.604  39.945  15.743  1.00  0.00     0.163 HD
ATOM     53  C   UNL     1      31.672  41.108  18.183  1.00  0.00     0.114 C 
ATOM     54  O   UNL     1      31.583  38.843  18.805  1.00  0.00    -0.275 OA
ENDBRANCH   9  50
ENDBRANCH   3   4
BRANCH   3  55
ATOM     55  O   UNL     1      28.451  37.742  15.030  1.00  0.00    -0.388 OA
ATOM     56  H   UNL     1      28.204  37.027  14.402  1.00  0.00     0.211 HD
ENDBRANCH   3  55
ENDBRANCH   2   3
BRANCH   2  57
ATOM     57  O   UNL     1      28.899  37.834  12.400  1.00  0.00    -0.388 OA
ATOM     58  H   UNL     1      28.088  37.549  12.892  1.00  0.00     0.211 HD
ENDBRANCH   2  57
ENDBRANCH   1   2
BRANCH   1  59
ATOM     59  N   UNL     1      31.166  38.385  11.385  1.00  0.00    -0.319 N 
ATOM     60  C   UNL     1      31.568  39.215  10.290  1.00  0.00     0.407 C 
ATOM     61  H   UNL     1      31.068  37.370  11.225  1.00  0.00     0.167 HD
ATOM     62  O   UNL     1      31.699  40.455  10.445  1.00  0.00    -0.225 OA
BRANCH  60  63
ATOM     63  O   UNL     1      31.823  38.700   9.040  1.00  0.00    -0.443 OA
BRANCH  63  64
ATOM     64  C   UNL     1      31.551  39.347   7.847  1.00  0.00     0.294 C 
BRANCH  64  65
ATOM     65  C   UNL     1      30.145  39.402   7.428  1.00  0.00     0.120 A 
ATOM     66  C   UNL     1      29.324  40.499   7.398  1.00  0.00     0.138 A 
ATOM     67  N   UNL     1      29.411  38.348   7.007  1.00  0.00    -0.132 NA
ATOM     68  N   UNL     1      28.127  40.096   6.966  1.00  0.00    -0.252 N 
ATOM     69  N   UNL     1      28.215  38.800   6.741  1.00  0.00    -0.067 NA
BRANCH  68  70
ATOM     70  C   UNL     1      26.959  40.944   6.777  1.00  0.00     0.146 C 
BRANCH  70  71
ATOM     71  C   UNL     1      25.818  40.068   6.259  1.00  0.00     0.024 C 
BRANCH  71  72
ATOM     72  C   UNL     1      24.616  40.153   7.153  1.00  0.00     0.002 C 
BRANCH  72  73
ATOM     73  C   UNL     1      24.698  39.100   8.220  1.00  0.00     0.012 C 
BRANCH  73  74
ATOM     74  C   UNL     1      24.844  37.717   7.679  1.00  0.00     0.122 C 
BRANCH  74  75
ATOM     75  C   UNL     1      25.721  36.919   8.581  1.00  0.00     0.303 C 
ATOM     76  O   UNL     1      25.330  35.812   9.012  1.00  0.00    -0.252 OA
BRANCH  75  77
ATOM     77  O   UNL     1      26.977  37.384   8.956  1.00  0.00    -0.481 OA
ATOM     78  H   UNL     1      27.764  37.285   8.312  1.00  0.00     0.296 HD
ENDBRANCH  75  77
ENDBRANCH  74  75
ENDBRANCH  73  74
ENDBRANCH  72  73
ENDBRANCH  71  72
ENDBRANCH  70  71
ENDBRANCH  68  70
ENDBRANCH  64  65
ENDBRANCH  63  64
ENDBRANCH  60  63
ENDBRANCH   1  59
TORSDOF 36
BEGIN_RES LYS A 131
REMARK  4 active torsions:
REMARK  status: ('A' for Active; 'I' for Inactive)
REMARK    1  A    between atoms: CA   and  CB  
REMARK    2  A    between atoms: CB   and  CG  
REMARK    3  A    between atoms: CG   and  CD  
REMARK    4  A    between atoms: CD   and  CE  
ROOT
ATOM      1  CA  LYS A 131      29.867  25.555  16.977  1.00 20.52     0.186 C 
ENDROOT
BRANCH   1   2
ATOM      2  CB  LYS A 131      28.345  25.722  17.026  1.00 20.94     0.034 C 
BRANCH   2   3
ATOM      3  CG  LYS A 131      27.599  24.462  16.616  1.00 22.96     0.005 C 
BRANCH   3   4
ATOM      4  CD  LYS A 131      27.017  23.738  17.798  1.00 24.33     0.041 C 
BRANCH   4   5
ATOM      5  CE  LYS A 131      25.588  23.308  17.479  1.00 26.91     0.338 C 
ATOM      6  NZ  LYS A 131      24.819  24.442  16.915  1.00 27.40     0.618 N 
ENDBRANCH   4   5
ENDBRANCH   3   4
ENDBRANCH   2   3
ENDBRANCH   1   2
END_RES LYS A 131
BEGIN_RES LYS A 135
REMARK  4 active torsions:
REMARK  status: ('A' for Active; 'I' for Inactive)
REMARK    5  A    between atoms: CA   and  CB  
REMARK    6  A    between atoms: CB   and  CG  
REMARK    7  A    between atoms: CG   and  CD  
REMARK    8  A    between atoms: CD   and  CE  
ROOT
ATOM      7  CA  LYS A 135      33.193  34.663   9.290  1.00 25.02     0.186 C 
ENDROOT
BRANCH   7   8
ATOM      8  CB  LYS A 135      32.060  35.360  10.034  1.00 26.63     0.034 C 
BRANCH   8   9
ATOM      9  CG  LYS A 135      30.797  35.491   9.222  1.00 29.45     0.005 C 
BRANCH   9  10
ATOM     10  CD  LYS A 135      30.155  34.129   9.006  1.00 32.00     0.041 C 
BRANCH  10  11
ATOM     11  CE  LYS A 135      28.687  34.282   8.655  1.00 34.25     0.338 C 
ATOM     12  NZ  LYS A 135      27.820  33.672   9.700  1.00 35.99     0.618 N 
ENDBRANCH  10  11
ENDBRANCH   9  10
ENDBRANCH   8   9
ENDBRANCH   7   8
END_RES LYS A 135
