REMARK VINA RESULT:    -4.256      4.013      7.892
REMARK INTER + INTRA:         -21.898
REMARK INTER:                 -11.603
REMARK INTRA:                 -10.295
REMARK UNBOUND:               -10.427
REMARK SMILES CCN(CC)CCn1cc(COC(=O)NC[C@@H](O)C(O)[C@@H]2O[C@@](OC[C@H]3O[C@@H](O[C@H]4[C@H](O)[C@@H](O)[C@H](OCCN=[N+]=[N-])O[C@@H]4CO)[C@H](O)[C@@H](O)[C@H]3O)(C(=O)O)C[C@H](O)[C@H]2NC(C)=O)nn1
REMARK SMILES IDX 19 1 21 2 23 3 55 4 22 5 56 6 58 7 24 8 25 9 26 10 28 11
REMARK SMILES IDX 27 12 46 13 48 14 50 15 29 16 30 17 43 18 42 19 35 20 31 21
REMARK SMILES IDX 33 22 44 23 45 24 36 26 37 27 38 28 39 29 40 30 41 31 32 32
REMARK SMILES IDX 34 34 47 36 49 38 51 40 52 42 53 43 54 44 57 46 59 48 60 49
REMARK SMILES IDX 61 51 62 52 20 53 17 55 18 56 16 58 15 59 13 60 14 62 12 63
REMARK SMILES IDX 11 64 10 65 9 66 63 67 8 68 64 69 7 70 6 71 3 72 2 73 1 74
REMARK SMILES IDX 4 75 5 76
REMARK H PARENT 45 25 32 33 34 35 47 37 49 39 51 41 54 45 57 47 59 50 20 54
REMARK H PARENT 18 57 15 61
REMARK Flexibility Score: inf
ROOT
ATOM      1  C   UNL     1      27.713  38.323   5.511  1.00  0.00     0.176 C 
ENDROOT
BRANCH   1   2
ATOM      2  C   UNL     1      28.404  39.645   5.709  1.00  0.00     0.178 C 
ATOM      3  C   UNL     1      30.303  40.644   6.544  1.00  0.00     0.272 C 
ATOM      4  C   UNL     1      29.615  41.824   5.842  1.00  0.00     0.113 C 
ATOM      5  O   UNL     1      29.637  39.466   6.290  1.00  0.00    -0.332 OA
ATOM      6  C   UNL     1      28.180  41.993   6.224  1.00  0.00     0.145 C 
ATOM      7  C   UNL     1      27.637  40.604   6.594  1.00  0.00     0.142 C 
BRANCH   3   8
ATOM      8  O   UNL     1      30.392  40.979   7.874  1.00  0.00    -0.338 OA
BRANCH   8   9
ATOM      9  C   UNL     1      30.429  39.932   8.762  1.00  0.00     0.199 C 
BRANCH   9  10
ATOM     10  C   UNL     1      29.295  40.040   9.797  1.00  0.00     0.179 C 
ATOM     11  C   UNL     1      28.513  38.499  11.393  1.00  0.00     0.282 C 
ATOM     12  O   UNL     1      28.940  38.775  10.103  1.00  0.00    -0.341 OA
ATOM     13  C   UNL     1      27.927  39.679  12.060  1.00  0.00     0.202 C 
ATOM     14  C   UNL     1      28.829  40.881  12.085  1.00  0.00     0.179 C 
ATOM     15  C   UNL     1      29.858  40.767  10.981  1.00  0.00     0.177 C 
BRANCH  11  16
ATOM     16  O   UNL     1      29.596  37.878  12.000  1.00  0.00    -0.341 OA
BRANCH  16  17
ATOM     17  C   UNL     1      29.273  36.936  12.912  1.00  0.00     0.184 C 
ATOM     18  C   UNL     1      30.247  36.867  14.059  1.00  0.00     0.178 C 
ATOM     19  O   UNL     1      29.743  35.925  15.001  1.00  0.00    -0.341 OA
ATOM     20  C   UNL     1      30.060  34.663  14.552  1.00  0.00     0.281 C 
ATOM     21  C   UNL     1      29.189  35.529  12.329  1.00  0.00     0.180 C 
ATOM     22  C   UNL     1      29.996  34.529  13.093  1.00  0.00     0.202 C 
BRANCH  18  23
ATOM     23  C   UNL     1      30.578  38.161  14.710  1.00  0.00     0.191 C 
BRANCH  23  24
ATOM     24  O   UNL     1      31.426  38.865  13.863  1.00  0.00    -0.394 OA
ATOM     25  H   UNL     1      31.503  39.826  14.084  1.00  0.00     0.210 HD
ENDBRANCH  23  24
ENDBRANCH  18  23
BRANCH  20  26
ATOM     26  O   UNL     1      29.384  33.674  15.259  1.00  0.00    -0.350 OA
BRANCH  26  27
ATOM     27  C   UNL     1      29.631  33.653  16.599  1.00  0.00     0.169 C 
BRANCH  27  28
ATOM     28  C   UNL     1      30.860  32.839  16.962  1.00  0.00     0.119 C 
BRANCH  28  29
ATOM     29  N   UNL     1      30.509  31.467  17.272  1.00  0.00    -0.092 NA
ATOM     30  N   UNL     1      30.245  31.087  18.419  1.00  0.00     0.001 N 
ATOM     31  N   UNL     1      30.444  30.639  19.550  1.00  0.00    -0.003 NA
ENDBRANCH  28  29
ENDBRANCH  27  28
ENDBRANCH  26  27
ENDBRANCH  20  26
BRANCH  21  32
ATOM     32  O   UNL     1      27.863  35.140  12.321  1.00  0.00    -0.387 OA
ATOM     33  H   UNL     1      27.437  35.178  11.440  1.00  0.00     0.211 HD
ENDBRANCH  21  32
BRANCH  22  34
ATOM     34  O   UNL     1      31.310  34.427  12.572  1.00  0.00    -0.385 OA
ATOM     35  H   UNL     1      31.906  34.810  13.266  1.00  0.00     0.211 HD
ENDBRANCH  22  34
ENDBRANCH  16  17
ENDBRANCH  11  16
BRANCH  13  36
ATOM     36  O   UNL     1      26.762  40.064  11.335  1.00  0.00    -0.385 OA
ATOM     37  H   UNL     1      26.963  40.777  10.703  1.00  0.00     0.211 HD
ENDBRANCH  13  36
BRANCH  14  38
ATOM     38  O   UNL     1      29.420  41.120  13.315  1.00  0.00    -0.387 OA
ATOM     39  H   UNL     1      30.374  40.942  13.328  1.00  0.00     0.211 HD
ENDBRANCH  14  38
BRANCH  15  40
ATOM     40  O   UNL     1      30.935  40.046  11.477  1.00  0.00    -0.387 OA
ATOM     41  H   UNL     1      31.790  40.528  11.285  1.00  0.00     0.211 HD
ENDBRANCH  15  40
ENDBRANCH   9  10
ENDBRANCH   8   9
ENDBRANCH   3   8
BRANCH   3  42
ATOM     42  C   UNL     1      31.648  40.581   5.919  1.00  0.00     0.364 C 
ATOM     43  O   UNL     1      32.374  39.537   6.043  1.00  0.00    -0.246 OA
BRANCH  42  44
ATOM     44  O   UNL     1      32.217  41.599   5.180  1.00  0.00    -0.477 OA
ATOM     45  H   UNL     1      31.646  42.139   4.539  1.00  0.00     0.296 HD
ENDBRANCH  42  44
ENDBRANCH   3  42
BRANCH   6  46
ATOM     46  O   UNL     1      27.936  42.938   7.189  1.00  0.00    -0.391 OA
ATOM     47  H   UNL     1      28.441  42.670   7.999  1.00  0.00     0.211 HD
ENDBRANCH   6  46
BRANCH   7  48
ATOM     48  N   UNL     1      26.222  40.540   6.459  1.00  0.00    -0.348 N 
ATOM     49  C   UNL     1      25.413  40.827   7.619  1.00  0.00     0.217 C 
ATOM     50  H   UNL     1      25.703  40.307   5.593  1.00  0.00     0.163 HD
ATOM     51  C   UNL     1      23.931  40.779   7.553  1.00  0.00     0.114 C 
ATOM     52  O   UNL     1      25.936  41.128   8.725  1.00  0.00    -0.275 OA
ENDBRANCH   7  48
ENDBRANCH   1   2
BRANCH   1  53
ATOM     53  O   UNL     1      27.885  37.934   4.189  1.00  0.00    -0.388 OA
ATOM     54  H   UNL     1      28.754  37.428   4.105  1.00  0.00     0.211 HD
ENDBRANCH   1  53
BRANCH   1  55
ATOM     55  C   UNL     1      28.405  37.330   6.409  1.00  0.00     0.165 C 
BRANCH  55  56
ATOM     56  O   UNL     1      29.236  36.513   5.633  1.00  0.00    -0.388 OA
ATOM     57  H   UNL     1      28.818  36.408   4.745  1.00  0.00     0.211 HD
ENDBRANCH  55  56
BRANCH  55  58
ATOM     58  C   UNL     1      27.513  36.485   7.240  1.00  0.00     0.154 C 
BRANCH  58  59
ATOM     59  N   UNL     1      27.095  37.092   8.458  1.00  0.00    -0.319 N 
ATOM     60  C   UNL     1      25.721  37.481   8.614  1.00  0.00     0.407 C 
ATOM     61  H   UNL     1      27.746  37.267   9.224  1.00  0.00     0.167 HD
ATOM     62  O   UNL     1      24.895  37.301   7.698  1.00  0.00    -0.225 OA
BRANCH  60  63
ATOM     63  O   UNL     1      25.337  38.065   9.810  1.00  0.00    -0.443 OA
BRANCH  63  64
ATOM     64  C   UNL     1      24.049  37.727  10.350  1.00  0.00     0.294 C 
BRANCH  64  65
ATOM     65  C   UNL     1      24.232  36.584  11.253  1.00  0.00     0.120 A 
ATOM     66  C   UNL     1      23.345  35.505  11.329  1.00  0.00     0.138 A 
ATOM     67  N   UNL     1      25.190  36.311  12.136  1.00  0.00    -0.132 NA
ATOM     68  N   UNL     1      23.803  34.634  12.246  1.00  0.00    -0.251 N 
ATOM     69  N   UNL     1      24.912  35.141  12.716  1.00  0.00    -0.067 NA
BRANCH  68  70
ATOM     70  C   UNL     1      23.201  33.378  12.648  1.00  0.00     0.161 C 
BRANCH  70  71
ATOM     71  C   UNL     1      24.298  32.499  13.208  1.00  0.00     0.108 C 
BRANCH  71  72
ATOM     72  N   UNL     1      23.821  31.253  13.731  1.00  0.00    -0.302 NA
BRANCH  72  73
ATOM     73  C   UNL     1      24.863  30.491  14.364  1.00  0.00     0.081 C 
ATOM     74  C   UNL     1      25.535  31.371  15.411  1.00  0.00     0.021 C 
ENDBRANCH  72  73
BRANCH  72  75
ATOM     75  C   UNL     1      23.059  30.498  12.785  1.00  0.00     0.081 C 
ATOM     76  C   UNL     1      23.492  29.046  12.774  1.00  0.00     0.021 C 
ENDBRANCH  72  75
ENDBRANCH  71  72
ENDBRANCH  70  71
ENDBRANCH  68  70
ENDBRANCH  64  65
ENDBRANCH  63  64
ENDBRANCH  60  63
ENDBRANCH  58  59
ENDBRANCH  55  58
ENDBRANCH   1  55
TORSDOF 34
BEGIN_RES LYS A 131
REMARK  4 active torsions:
REMARK  status: ('A' for Active; 'I' for Inactive)
REMARK    1  A    between atoms: CA   and  CB  
REMARK    2  A    between atoms: CB   and  CG  
REMARK    3  A    between atoms: CG   and  CD  
REMARK    4  A    between atoms: CD   and  CE  
ROOT
ATOM      1  CA  LYS A 131      29.867  25.555  16.977  1.00 20.52     0.186 C 
ENDROOT
BRANCH   1   2
ATOM      2  CB  LYS A 131      28.345  25.722  17.026  1.00 20.94     0.034 C 
BRANCH   2   3
ATOM      3  CG  LYS A 131      27.602  24.398  16.931  1.00 22.96     0.005 C 
BRANCH   3   4
ATOM      4  CD  LYS A 131      26.514  24.284  17.963  1.00 24.33     0.041 C 
BRANCH   4   5
ATOM      5  CE  LYS A 131      25.190  24.739  17.359  1.00 26.91     0.338 C 
ATOM      6  NZ  LYS A 131      24.356  23.569  16.995  1.00 27.40     0.618 N 
ENDBRANCH   4   5
ENDBRANCH   3   4
ENDBRANCH   2   3
ENDBRANCH   1   2
END_RES LYS A 131
BEGIN_RES LYS A 135
REMARK  4 active torsions:
REMARK  status: ('A' for Active; 'I' for Inactive)
REMARK    5  A    between atoms: CA   and  CB  
REMARK    6  A    between atoms: CB   and  CG  
REMARK    7  A    between atoms: CG   and  CD  
REMARK    8  A    between atoms: CD   and  CE  
ROOT
ATOM      7  CA  LYS A 135      33.193  34.663   9.290  1.00 25.02     0.186 C 
ENDROOT
BRANCH   7   8
ATOM      8  CB  LYS A 135      32.060  35.360  10.034  1.00 26.63     0.034 C 
BRANCH   8   9
ATOM      9  CG  LYS A 135      30.932  35.801   9.137  1.00 29.45     0.005 C 
BRANCH   9  10
ATOM     10  CD  LYS A 135      30.313  34.608   8.427  1.00 32.00     0.041 C 
BRANCH  10  11
ATOM     11  CE  LYS A 135      29.604  33.706   9.420  1.00 34.25     0.338 C 
ATOM     12  NZ  LYS A 135      28.126  33.779   9.249  1.00 35.99     0.618 N 
ENDBRANCH  10  11
ENDBRANCH   9  10
ENDBRANCH   8   9
ENDBRANCH   7   8
END_RES LYS A 135
