REMARK VINA RESULT:    -5.100      3.464     10.592
REMARK INTER + INTRA:         -22.267
REMARK INTER:                 -13.017
REMARK INTRA:                  -9.250
REMARK UNBOUND:                -9.116
REMARK SMILES CC(=O)N[C@@H]1[C@@H](O)C[C@](OC[C@H]2O[C@@H](O[C@H]3[C@H](O)[C@@H](O)[C@H](OCCN=[N+]=[N-])O[C@@H]3CO)[C@H](O)[C@@H](O)[C@H]2O)(C(=O)O)O[C@H]1C(O)[C@H](O)CNC(=O)OCc1cn(CCC2OCCO2)nn1
REMARK SMILES IDX 9 1 8 2 6 3 5 4 42 5 41 6 10 7 11 8 12 9 14 10 13 11 32 12
REMARK SMILES IDX 34 13 36 14 15 15 16 16 29 17 28 18 21 19 17 20 19 21 30 22
REMARK SMILES IDX 31 23 22 25 23 26 24 27 25 28 26 29 27 30 18 31 20 33 33 35
REMARK SMILES IDX 35 37 37 39 38 41 39 42 40 43 7 45 43 47 44 48 45 50 46 51
REMARK SMILES IDX 47 53 48 54 49 55 50 57 51 58 52 59 53 60 54 61 64 62 55 63
REMARK SMILES IDX 63 64 56 65 57 66 58 67 59 68 62 69 60 70 61 71 4 72 2 73
REMARK SMILES IDX 1 75 3 76
REMARK H PARENT 31 24 18 32 20 34 33 36 35 38 37 40 40 44 7 46 44 49 46 52
REMARK H PARENT 48 56 4 74
REMARK Flexibility Score: inf
ROOT
ATOM      1  C   UNL     1      24.346  38.451   8.752  1.00  0.00     0.272 C 
ATOM      2  C   UNL     1      24.239  39.093   7.320  1.00  0.00     0.113 C 
ATOM      3  C   UNL     1      25.392  39.959   7.038  1.00  0.00     0.145 C 
ATOM      4  C   UNL     1      26.673  39.155   7.139  1.00  0.00     0.142 C 
ATOM      5  C   UNL     1      26.512  37.936   7.983  1.00  0.00     0.178 C 
ATOM      6  O   UNL     1      25.615  37.986   8.990  1.00  0.00    -0.332 OA
ENDROOT
BRANCH   1   7
ATOM      7  O   UNL     1      23.479  37.441   8.679  1.00  0.00    -0.338 OA
BRANCH   7   8
ATOM      8  C   UNL     1      22.744  37.045   7.664  1.00  0.00     0.199 C 
BRANCH   8   9
ATOM      9  C   UNL     1      21.289  36.732   7.811  1.00  0.00     0.179 C 
ATOM     10  C   UNL     1      19.836  35.429   9.103  1.00  0.00     0.282 C 
ATOM     11  O   UNL     1      21.110  35.628   8.611  1.00  0.00    -0.341 OA
ATOM     12  C   UNL     1      18.766  36.245   8.479  1.00  0.00     0.202 C 
ATOM     13  C   UNL     1      19.116  37.701   8.330  1.00  0.00     0.179 C 
ATOM     14  C   UNL     1      20.578  37.884   8.565  1.00  0.00     0.177 C 
BRANCH  10  15
ATOM     15  O   UNL     1      19.893  35.472  10.496  1.00  0.00    -0.341 OA
BRANCH  15  16
ATOM     16  C   UNL     1      20.601  34.419  11.058  1.00  0.00     0.184 C 
ATOM     17  C   UNL     1      19.806  33.579  12.011  1.00  0.00     0.178 C 
ATOM     18  O   UNL     1      20.618  32.521  12.426  1.00  0.00    -0.341 OA
ATOM     19  C   UNL     1      21.687  32.925  13.214  1.00  0.00     0.281 C 
ATOM     20  C   UNL     1      21.764  34.996  11.915  1.00  0.00     0.180 C 
ATOM     21  C   UNL     1      22.582  33.776  12.317  1.00  0.00     0.202 C 
BRANCH  17  22
ATOM     22  C   UNL     1      18.648  32.935  11.269  1.00  0.00     0.191 C 
BRANCH  22  23
ATOM     23  O   UNL     1      17.581  33.864  11.369  1.00  0.00    -0.394 OA
ATOM     24  H   UNL     1      17.867  34.785  11.194  1.00  0.00     0.210 HD
ENDBRANCH  22  23
ENDBRANCH  17  22
BRANCH  19  25
ATOM     25  O   UNL     1      22.350  31.817  13.661  1.00  0.00    -0.350 OA
BRANCH  25  26
ATOM     26  C   UNL     1      22.414  30.762  12.796  1.00  0.00     0.169 C 
BRANCH  26  27
ATOM     27  C   UNL     1      23.711  29.983  12.837  1.00  0.00     0.119 C 
BRANCH  27  28
ATOM     28  N   UNL     1      24.024  29.604  14.202  1.00  0.00    -0.092 NA
ATOM     29  N   UNL     1      24.976  30.070  14.823  1.00  0.00     0.001 N 
ATOM     30  N   UNL     1      25.799  30.601  15.564  1.00  0.00    -0.003 NA
ENDBRANCH  27  28
ENDBRANCH  26  27
ENDBRANCH  25  26
ENDBRANCH  19  25
BRANCH  20  31
ATOM     31  O   UNL     1      22.514  35.833  11.124  1.00  0.00    -0.387 OA
ATOM     32  H   UNL     1      23.430  35.452  11.037  1.00  0.00     0.211 HD
ENDBRANCH  20  31
BRANCH  21  33
ATOM     33  O   UNL     1      23.702  34.230  12.980  1.00  0.00    -0.385 OA
ATOM     34  H   UNL     1      23.894  33.610  13.727  1.00  0.00     0.211 HD
ENDBRANCH  21  33
ENDBRANCH  15  16
ENDBRANCH  10  15
BRANCH  12  35
ATOM     35  O   UNL     1      18.421  35.680   7.225  1.00  0.00    -0.385 OA
ATOM     36  H   UNL     1      18.607  34.709   7.325  1.00  0.00     0.211 HD
ENDBRANCH  12  35
BRANCH  13  37
ATOM     37  O   UNL     1      18.329  38.513   9.146  1.00  0.00    -0.387 OA
ATOM     38  H   UNL     1      17.955  37.941   9.867  1.00  0.00     0.211 HD
ENDBRANCH  13  37
BRANCH  14  39
ATOM     39  O   UNL     1      20.949  37.840   9.892  1.00  0.00    -0.387 OA
ATOM     40  H   UNL     1      20.246  37.494  10.497  1.00  0.00     0.211 HD
ENDBRANCH  14  39
ENDBRANCH   8   9
ENDBRANCH   7   8
ENDBRANCH   1   7
BRANCH   1  41
ATOM     41  C   UNL     1      24.111  39.591   9.639  1.00  0.00     0.364 C 
ATOM     42  O   UNL     1      22.939  40.152   9.650  1.00  0.00    -0.246 OA
BRANCH  41  43
ATOM     43  O   UNL     1      24.987  40.189  10.515  1.00  0.00    -0.477 OA
ATOM     44  H   UNL     1      25.851  40.586  10.172  1.00  0.00     0.296 HD
ENDBRANCH  41  43
ENDBRANCH   1  41
BRANCH   3  45
ATOM     45  O   UNL     1      25.224  40.425   5.701  1.00  0.00    -0.391 OA
ATOM     46  H   UNL     1      25.399  39.630   5.111  1.00  0.00     0.211 HD
ENDBRANCH   3  45
BRANCH   5  47
ATOM     47  C   UNL     1      26.427  36.715   7.117  1.00  0.00     0.176 C 
BRANCH  47  48
ATOM     48  O   UNL     1      26.817  36.955   5.791  1.00  0.00    -0.388 OA
ATOM     49  H   UNL     1      26.196  37.607   5.350  1.00  0.00     0.211 HD
ENDBRANCH  47  48
BRANCH  47  50
ATOM     50  C   UNL     1      27.463  35.660   7.597  1.00  0.00     0.165 C 
BRANCH  50  51
ATOM     51  O   UNL     1      28.308  35.375   6.550  1.00  0.00    -0.388 OA
ATOM     52  H   UNL     1      28.941  36.086   6.342  1.00  0.00     0.211 HD
ENDBRANCH  50  51
BRANCH  50  53
ATOM     53  C   UNL     1      26.727  34.538   8.208  1.00  0.00     0.154 C 
BRANCH  53  54
ATOM     54  N   UNL     1      27.051  34.363   9.589  1.00  0.00    -0.319 N 
ATOM     55  C   UNL     1      26.208  34.689  10.650  1.00  0.00     0.407 C 
ATOM     56  H   UNL     1      27.997  33.957   9.802  1.00  0.00     0.167 HD
ATOM     57  O   UNL     1      25.085  35.181  10.455  1.00  0.00    -0.225 OA
BRANCH  55  58
ATOM     58  O   UNL     1      26.554  34.493  11.994  1.00  0.00    -0.443 OA
BRANCH  58  59
ATOM     59  C   UNL     1      27.328  35.450  12.696  1.00  0.00     0.294 C 
BRANCH  59  60
ATOM     60  C   UNL     1      28.674  34.946  13.054  1.00  0.00     0.120 A 
ATOM     61  C   UNL     1      28.934  33.978  14.029  1.00  0.00     0.138 A 
ATOM     62  N   UNL     1      29.882  35.275  12.569  1.00  0.00    -0.132 NA
ATOM     63  N   UNL     1      30.276  33.761  14.092  1.00  0.00    -0.252 N 
ATOM     64  N   UNL     1      30.819  34.557  13.201  1.00  0.00    -0.067 NA
BRANCH  63  65
ATOM     65  C   UNL     1      30.873  32.799  15.008  1.00  0.00     0.151 C 
BRANCH  65  66
ATOM     66  C   UNL     1      31.852  33.495  15.945  1.00  0.00     0.086 C 
BRANCH  66  67
ATOM     67  C   UNL     1      31.187  33.906  17.227  1.00  0.00     0.251 C 
ATOM     68  O   UNL     1      30.923  35.276  17.191  1.00  0.00    -0.350 OA
ATOM     69  O   UNL     1      29.965  33.298  17.435  1.00  0.00    -0.350 OA
ATOM     70  C   UNL     1      29.965  35.476  18.178  1.00  0.00     0.192 C 
ATOM     71  C   UNL     1      29.473  34.077  18.509  1.00  0.00     0.192 C 
ENDBRANCH  66  67
ENDBRANCH  65  66
ENDBRANCH  63  65
ENDBRANCH  59  60
ENDBRANCH  58  59
ENDBRANCH  55  58
ENDBRANCH  53  54
ENDBRANCH  50  53
ENDBRANCH  47  50
ENDBRANCH   5  47
BRANCH   4  72
ATOM     72  N   UNL     1      27.782  40.005   7.566  1.00  0.00    -0.348 N 
ATOM     73  C   UNL     1      29.095  39.843   7.116  1.00  0.00     0.217 C 
ATOM     74  H   UNL     1      27.543  40.776   8.255  1.00  0.00     0.163 HD
ATOM     75  C   UNL     1      30.180  40.758   7.602  1.00  0.00     0.114 C 
ATOM     76  O   UNL     1      29.324  38.911   6.297  1.00  0.00    -0.275 OA
ENDBRANCH   4  72
TORSDOF 32
BEGIN_RES LYS A 131
REMARK  4 active torsions:
REMARK  status: ('A' for Active; 'I' for Inactive)
REMARK    1  A    between atoms: CA   and  CB  
REMARK    2  A    between atoms: CB   and  CG  
REMARK    3  A    between atoms: CG   and  CD  
REMARK    4  A    between atoms: CD   and  CE  
ROOT
ATOM      1  CA  LYS A 131      29.867  25.555  16.977  1.00 20.52     0.186 C 
ENDROOT
BRANCH   1   2
ATOM      2  CB  LYS A 131      28.345  25.722  17.026  1.00 20.94     0.034 C 
BRANCH   2   3
ATOM      3  CG  LYS A 131      27.601  24.404  16.872  1.00 22.96     0.005 C 
BRANCH   3   4
ATOM      4  CD  LYS A 131      26.171  24.505  17.326  1.00 24.33     0.041 C 
BRANCH   4   5
ATOM      5  CE  LYS A 131      25.799  23.256  18.117  1.00 26.91     0.338 C 
ATOM      6  NZ  LYS A 131      24.687  22.534  17.455  1.00 27.40     0.618 N 
ENDBRANCH   4   5
ENDBRANCH   3   4
ENDBRANCH   2   3
ENDBRANCH   1   2
END_RES LYS A 131
BEGIN_RES LYS A 135
REMARK  4 active torsions:
REMARK  status: ('A' for Active; 'I' for Inactive)
REMARK    5  A    between atoms: CA   and  CB  
REMARK    6  A    between atoms: CB   and  CG  
REMARK    7  A    between atoms: CG   and  CD  
REMARK    8  A    between atoms: CD   and  CE  
ROOT
ATOM      7  CA  LYS A 135      33.193  34.663   9.290  1.00 25.02     0.186 C 
ENDROOT
BRANCH   7   8
ATOM      8  CB  LYS A 135      32.060  35.360  10.034  1.00 26.63     0.034 C 
BRANCH   8   9
ATOM      9  CG  LYS A 135      30.790  35.470   9.231  1.00 29.45     0.005 C 
BRANCH   9  10
ATOM     10  CD  LYS A 135      30.400  36.927   9.040  1.00 32.00     0.041 C 
BRANCH  10  11
ATOM     11  CE  LYS A 135      31.173  37.815   9.995  1.00 34.25     0.338 C 
ATOM     12  NZ  LYS A 135      30.253  38.657  10.810  1.00 35.99     0.618 N 
ENDBRANCH  10  11
ENDBRANCH   9  10
ENDBRANCH   8   9
ENDBRANCH   7   8
END_RES LYS A 135
