REMARK VINA RESULT:    -4.283      6.682     12.614
REMARK INTER + INTRA:         -21.206
REMARK INTER:                 -10.946
REMARK INTRA:                 -10.260
REMARK UNBOUND:               -10.664
REMARK SMILES CC(=O)N[C@@H]1[C@@H](O)C[C@](OC[C@H]2O[C@@H](O[C@H]3[C@H](O)[C@@H](O)[C@H](OCCN=[N+]=[N-])O[C@@H]3CO)[C@H](O)[C@@H](O)[C@H]2O)(C(=O)O)O[C@H]1C(O)[C@H](O)CNC(=O)OCc1cn(-c2ccc(Br)cc2)nn1
REMARK SMILES IDX 9 1 8 2 6 3 5 4 42 5 41 6 10 7 11 8 12 9 14 10 13 11 32 12
REMARK SMILES IDX 34 13 36 14 15 15 16 16 29 17 28 18 21 19 17 20 19 21 30 22
REMARK SMILES IDX 31 23 22 25 23 26 24 27 25 28 26 29 27 30 18 31 20 33 33 35
REMARK SMILES IDX 35 37 37 39 38 41 39 42 40 43 7 45 43 47 44 48 45 50 46 51
REMARK SMILES IDX 47 53 48 54 49 55 50 57 51 58 52 59 53 60 54 61 64 62 55 63
REMARK SMILES IDX 63 64 56 65 57 66 62 67 58 68 61 69 59 70 60 71 4 72 2 73
REMARK SMILES IDX 1 75 3 76
REMARK H PARENT 31 24 18 32 20 34 33 36 35 38 37 40 40 44 7 46 44 49 46 52
REMARK H PARENT 48 56 4 74
REMARK Flexibility Score: inf
ROOT
ATOM      1  C   UNL     1      23.387  36.272   9.778  1.00  0.00     0.272 C 
ATOM      2  C   UNL     1      22.467  36.190   8.529  1.00  0.00     0.113 C 
ATOM      3  C   UNL     1      21.379  37.185   8.698  1.00  0.00     0.145 C 
ATOM      4  C   UNL     1      22.055  38.561   8.869  1.00  0.00     0.142 C 
ATOM      5  C   UNL     1      22.752  38.479  10.206  1.00  0.00     0.178 C 
ATOM      6  O   UNL     1      23.762  37.556  10.047  1.00  0.00    -0.332 OA
ENDROOT
BRANCH   1   7
ATOM      7  O   UNL     1      24.515  35.557   9.363  1.00  0.00    -0.338 OA
BRANCH   7   8
ATOM      8  C   UNL     1      25.717  36.150   9.607  1.00  0.00     0.199 C 
BRANCH   8   9
ATOM      9  C   UNL     1      26.383  36.375   8.234  1.00  0.00     0.179 C 
ATOM     10  C   UNL     1      27.710  37.996   7.226  1.00  0.00     0.282 C 
ATOM     11  O   UNL     1      26.621  37.700   8.009  1.00  0.00    -0.341 OA
ATOM     12  C   UNL     1      28.127  36.913   6.317  1.00  0.00     0.202 C 
ATOM     13  C   UNL     1      28.274  35.557   6.930  1.00  0.00     0.179 C 
ATOM     14  C   UNL     1      27.662  35.554   8.293  1.00  0.00     0.177 C 
BRANCH  10  15
ATOM     15  O   UNL     1      28.687  38.503   8.084  1.00  0.00    -0.341 OA
BRANCH  15  16
ATOM     16  C   UNL     1      28.667  39.885   8.135  1.00  0.00     0.184 C 
ATOM     17  C   UNL     1      30.015  40.475   7.868  1.00  0.00     0.178 C 
ATOM     18  O   UNL     1      29.919  41.833   7.771  1.00  0.00    -0.341 OA
ATOM     19  C   UNL     1      28.817  42.452   8.276  1.00  0.00     0.281 C 
ATOM     20  C   UNL     1      28.301  40.363   9.550  1.00  0.00     0.180 C 
ATOM     21  C   UNL     1      28.273  41.876   9.564  1.00  0.00     0.202 C 
BRANCH  17  22
ATOM     22  C   UNL     1      30.544  39.946   6.548  1.00  0.00     0.191 C 
BRANCH  22  23
ATOM     23  O   UNL     1      29.639  40.162   5.537  1.00  0.00    -0.394 OA
ATOM     24  H   UNL     1      30.086  40.313   4.685  1.00  0.00     0.210 HD
ENDBRANCH  22  23
ENDBRANCH  17  22
BRANCH  19  25
ATOM     25  O   UNL     1      27.816  42.649   7.331  1.00  0.00    -0.350 OA
BRANCH  25  26
ATOM     26  C   UNL     1      26.557  42.834   7.869  1.00  0.00     0.169 C 
BRANCH  26  27
ATOM     27  C   UNL     1      25.437  42.372   6.997  1.00  0.00     0.119 C 
BRANCH  27  28
ATOM     28  N   UNL     1      25.548  40.942   6.768  1.00  0.00    -0.092 NA
ATOM     29  N   UNL     1      26.054  40.580   5.702  1.00  0.00     0.001 N 
ATOM     30  N   UNL     1      26.662  40.124   4.711  1.00  0.00    -0.003 NA
ENDBRANCH  27  28
ENDBRANCH  26  27
ENDBRANCH  25  26
ENDBRANCH  19  25
BRANCH  20  31
ATOM     31  O   UNL     1      27.117  39.780   9.963  1.00  0.00    -0.387 OA
ATOM     32  H   UNL     1      27.039  38.842   9.641  1.00  0.00     0.211 HD
ENDBRANCH  20  31
BRANCH  21  33
ATOM     33  O   UNL     1      28.911  42.435  10.649  1.00  0.00    -0.385 OA
ATOM     34  H   UNL     1      29.248  43.325  10.388  1.00  0.00     0.211 HD
ENDBRANCH  21  33
ENDBRANCH  15  16
ENDBRANCH  10  15
BRANCH  12  35
ATOM     35  O   UNL     1      27.180  36.885   5.255  1.00  0.00    -0.385 OA
ATOM     36  H   UNL     1      26.648  36.040   5.312  1.00  0.00     0.211 HD
ENDBRANCH  12  35
BRANCH  13  37
ATOM     37  O   UNL     1      29.641  35.211   7.049  1.00  0.00    -0.387 OA
ATOM     38  H   UNL     1      29.764  34.961   7.999  1.00  0.00     0.211 HD
ENDBRANCH  13  37
BRANCH  14  39
ATOM     39  O   UNL     1      28.534  36.026   9.270  1.00  0.00    -0.387 OA
ATOM     40  H   UNL     1      29.361  36.384   8.861  1.00  0.00     0.211 HD
ENDBRANCH  14  39
ENDBRANCH   8   9
ENDBRANCH   7   8
ENDBRANCH   1   7
BRANCH   1  41
ATOM     41  C   UNL     1      22.712  35.527  10.839  1.00  0.00     0.364 C 
ATOM     42  O   UNL     1      22.859  35.769  12.060  1.00  0.00    -0.246 OA
BRANCH  41  43
ATOM     43  O   UNL     1      21.852  34.491  10.527  1.00  0.00    -0.477 OA
ATOM     44  H   UNL     1      22.072  33.506  10.668  1.00  0.00     0.296 HD
ENDBRANCH  41  43
ENDBRANCH   1  41
BRANCH   3  45
ATOM     45  O   UNL     1      20.598  37.304   7.558  1.00  0.00    -0.391 OA
ATOM     46  H   UNL     1      21.174  37.477   6.784  1.00  0.00     0.211 HD
ENDBRANCH   3  45
BRANCH   5  47
ATOM     47  C   UNL     1      23.377  39.750  10.672  1.00  0.00     0.176 C 
BRANCH  47  48
ATOM     48  O   UNL     1      24.167  40.200   9.576  1.00  0.00    -0.388 OA
ATOM     49  H   UNL     1      25.115  39.992   9.773  1.00  0.00     0.211 HD
ENDBRANCH  47  48
BRANCH  47  50
ATOM     50  C   UNL     1      24.393  39.583  11.792  1.00  0.00     0.165 C 
BRANCH  50  51
ATOM     51  O   UNL     1      23.649  38.922  12.809  1.00  0.00    -0.388 OA
ATOM     52  H   UNL     1      23.449  37.981  12.507  1.00  0.00     0.211 HD
ENDBRANCH  50  51
BRANCH  50  53
ATOM     53  C   UNL     1      24.814  40.892  12.362  1.00  0.00     0.154 C 
BRANCH  53  54
ATOM     54  N   UNL     1      26.195  40.900  12.724  1.00  0.00    -0.319 N 
ATOM     55  C   UNL     1      26.744  40.265  13.883  1.00  0.00     0.407 C 
ATOM     56  H   UNL     1      26.912  41.407  12.112  1.00  0.00     0.167 HD
ATOM     57  O   UNL     1      25.970  39.655  14.657  1.00  0.00    -0.225 OA
BRANCH  55  58
ATOM     58  O   UNL     1      28.089  40.302  14.168  1.00  0.00    -0.443 OA
BRANCH  58  59
ATOM     59  C   UNL     1      29.027  39.891  13.207  1.00  0.00     0.294 C 
BRANCH  59  60
ATOM     60  C   UNL     1      28.880  38.434  12.990  1.00  0.00     0.121 A 
ATOM     61  C   UNL     1      29.252  37.457  13.921  1.00  0.00     0.144 A 
ATOM     62  N   UNL     1      28.404  37.747  11.941  1.00  0.00    -0.131 NA
ATOM     63  N   UNL     1      28.988  36.246  13.401  1.00  0.00    -0.220 N 
ATOM     64  N   UNL     1      28.477  36.456  12.204  1.00  0.00    -0.062 NA
BRANCH  63  65
ATOM     65  C   UNL     1      29.249  35.025  14.081  1.00  0.00     0.066 A 
ATOM     66  C   UNL     1      30.481  34.485  14.270  1.00  0.00     0.029 A 
ATOM     67  C   UNL     1      28.139  34.359  14.588  1.00  0.00     0.029 A 
ATOM     68  C   UNL     1      30.598  33.296  14.959  1.00  0.00     0.018 A 
ATOM     69  C   UNL     1      28.271  33.172  15.274  1.00  0.00     0.018 A 
ATOM     70  C   UNL     1      29.519  32.618  15.470  1.00  0.00     0.018 A 
ATOM     71  Br  UNL     1      29.725  30.976  16.420  1.00  0.00    -0.051 Br
ENDBRANCH  63  65
ENDBRANCH  59  60
ENDBRANCH  58  59
ENDBRANCH  55  58
ENDBRANCH  53  54
ENDBRANCH  50  53
ENDBRANCH  47  50
ENDBRANCH   5  47
BRANCH   4  72
ATOM     72  N   UNL     1      21.011  39.536   8.783  1.00  0.00    -0.348 N 
ATOM     73  C   UNL     1      21.142  40.723   8.013  1.00  0.00     0.217 C 
ATOM     74  H   UNL     1      20.127  39.380   9.298  1.00  0.00     0.163 HD
ATOM     75  C   UNL     1      20.080  41.752   7.909  1.00  0.00     0.114 C 
ATOM     76  O   UNL     1      22.221  40.939   7.371  1.00  0.00    -0.275 OA
ENDBRANCH   4  72
TORSDOF 30
BEGIN_RES LYS A 131
REMARK  4 active torsions:
REMARK  status: ('A' for Active; 'I' for Inactive)
REMARK    1  A    between atoms: CA   and  CB  
REMARK    2  A    between atoms: CB   and  CG  
REMARK    3  A    between atoms: CG   and  CD  
REMARK    4  A    between atoms: CD   and  CE  
ROOT
ATOM      1  CA  LYS A 131      29.867  25.555  16.977  1.00 20.52     0.186 C 
ENDROOT
BRANCH   1   2
ATOM      2  CB  LYS A 131      28.345  25.722  17.026  1.00 20.94     0.034 C 
BRANCH   2   3
ATOM      3  CG  LYS A 131      27.602  24.400  16.911  1.00 22.96     0.005 C 
BRANCH   3   4
ATOM      4  CD  LYS A 131      26.649  24.185  18.054  1.00 24.33     0.041 C 
BRANCH   4   5
ATOM      5  CE  LYS A 131      26.097  25.530  18.517  1.00 26.91     0.338 C 
ATOM      6  NZ  LYS A 131      24.651  25.631  18.211  1.00 27.40     0.618 N 
ENDBRANCH   4   5
ENDBRANCH   3   4
ENDBRANCH   2   3
ENDBRANCH   1   2
END_RES LYS A 131
BEGIN_RES LYS A 135
REMARK  4 active torsions:
REMARK  status: ('A' for Active; 'I' for Inactive)
REMARK    5  A    between atoms: CA   and  CB  
REMARK    6  A    between atoms: CB   and  CG  
REMARK    7  A    between atoms: CG   and  CD  
REMARK    8  A    between atoms: CD   and  CE  
ROOT
ATOM      7  CA  LYS A 135      33.193  34.663   9.290  1.00 25.02     0.186 C 
ENDROOT
BRANCH   7   8
ATOM      8  CB  LYS A 135      32.060  35.360  10.034  1.00 26.63     0.034 C 
BRANCH   8   9
ATOM      9  CG  LYS A 135      32.357  35.606  11.491  1.00 29.45     0.005 C 
BRANCH   9  10
ATOM     10  CD  LYS A 135      32.183  37.077  11.833  1.00 32.00     0.041 C 
BRANCH  10  11
ATOM     11  CE  LYS A 135      32.196  37.922  10.574  1.00 34.25     0.338 C 
ATOM     12  NZ  LYS A 135      31.461  39.201  10.779  1.00 35.99     0.618 N 
ENDBRANCH  10  11
ENDBRANCH   9  10
ENDBRANCH   8   9
ENDBRANCH   7   8
END_RES LYS A 135
