REMARK VINA RESULT:    -4.472      0.000      0.000
REMARK INTER + INTRA:         -23.023
REMARK INTER:                 -12.695
REMARK INTRA:                 -10.328
REMARK UNBOUND:               -10.971
REMARK SMILES C=CCCCCn1cc(COC(=O)NC[C@@H](O)C(O)[C@@H]2O[C@@](OC[C@H]3O[C@@H](O[C@H]4[C@H](O)[C@@H](O)[C@H](OCCN=[N+]=[N-])O[C@@H]4CO)[C@H](O)[C@@H](O)[C@H]3O)(C(=O)O)C[C@H](O)[C@H]2NC(C)=O)nn1
REMARK SMILES IDX 18 1 20 2 22 3 54 4 21 5 55 6 57 7 23 8 24 9 25 10 27 11
REMARK SMILES IDX 26 12 45 13 47 14 49 15 28 16 29 17 42 18 41 19 34 20 30 21
REMARK SMILES IDX 32 22 43 23 44 24 35 26 36 27 37 28 38 29 39 30 40 31 31 32
REMARK SMILES IDX 33 34 46 36 48 38 50 40 51 42 52 43 53 44 56 46 58 48 59 49
REMARK SMILES IDX 60 51 61 52 19 53 16 55 17 56 15 58 14 59 12 60 13 62 11 63
REMARK SMILES IDX 10 64 9 65 8 66 62 67 7 68 63 69 6 70 5 71 4 72 3 73 2 74
REMARK SMILES IDX 1 75
REMARK H PARENT 44 25 31 33 33 35 46 37 48 39 50 41 53 45 56 47 58 50 19 54
REMARK H PARENT 17 57 14 61
REMARK Flexibility Score: inf
ROOT
ATOM      1  C   UNL     1      32.640  31.248  22.760  1.00  0.00     0.176 C 
ENDROOT
BRANCH   1   2
ATOM      2  C   UNL     1      32.370  29.755  22.553  1.00  0.00     0.178 C 
ATOM      3  C   UNL     1      30.701  28.300  21.931  1.00  0.00     0.272 C 
ATOM      4  C   UNL     1      31.141  27.337  22.953  1.00  0.00     0.113 C 
ATOM      5  O   UNL     1      31.033  29.614  22.438  1.00  0.00    -0.332 OA
ATOM      6  C   UNL     1      32.556  27.406  23.331  1.00  0.00     0.145 C 
ATOM      7  C   UNL     1      33.156  28.803  23.318  1.00  0.00     0.142 C 
BRANCH   3   8
ATOM      8  O   UNL     1      29.324  28.437  21.839  1.00  0.00    -0.338 OA
BRANCH   8   9
ATOM      9  C   UNL     1      28.679  29.535  22.178  1.00  0.00     0.199 C 
BRANCH   9  10
ATOM     10  C   UNL     1      27.812  30.262  21.224  1.00  0.00     0.179 C 
ATOM     11  C   UNL     1      27.990  31.740  19.416  1.00  0.00     0.282 C 
ATOM     12  O   UNL     1      28.536  31.299  20.589  1.00  0.00    -0.341 OA
ATOM     13  C   UNL     1      26.573  31.368  19.220  1.00  0.00     0.202 C 
ATOM     14  C   UNL     1      26.280  29.901  19.385  1.00  0.00     0.179 C 
ATOM     15  C   UNL     1      27.418  29.275  20.131  1.00  0.00     0.177 C 
BRANCH  11  16
ATOM     16  O   UNL     1      28.877  31.465  18.409  1.00  0.00    -0.341 OA
BRANCH  16  17
ATOM     17  C   UNL     1      28.602  31.981  17.178  1.00  0.00     0.184 C 
ATOM     18  C   UNL     1      29.412  31.239  16.141  1.00  0.00     0.178 C 
ATOM     19  O   UNL     1      29.895  32.116  15.156  1.00  0.00    -0.341 OA
ATOM     20  C   UNL     1      30.977  32.794  15.708  1.00  0.00     0.281 C 
ATOM     21  C   UNL     1      29.053  33.456  17.074  1.00  0.00     0.180 C 
ATOM     22  C   UNL     1      30.558  33.523  16.950  1.00  0.00     0.202 C 
BRANCH  18  23
ATOM     23  C   UNL     1      28.650  30.090  15.503  1.00  0.00     0.191 C 
BRANCH  23  24
ATOM     24  O   UNL     1      28.176  29.216  16.466  1.00  0.00    -0.394 OA
ATOM     25  H   UNL     1      28.801  29.212  17.229  1.00  0.00     0.210 HD
ENDBRANCH  23  24
ENDBRANCH  18  23
BRANCH  20  26
ATOM     26  O   UNL     1      31.422  33.693  14.737  1.00  0.00    -0.350 OA
BRANCH  26  27
ATOM     27  C   UNL     1      31.838  34.906  15.253  1.00  0.00     0.169 C 
BRANCH  27  28
ATOM     28  C   UNL     1      33.307  35.067  14.902  1.00  0.00     0.119 C 
BRANCH  28  29
ATOM     29  N   UNL     1      34.053  35.661  15.979  1.00  0.00    -0.092 NA
ATOM     30  N   UNL     1      33.750  36.753  16.444  1.00  0.00     0.001 N 
ATOM     31  N   UNL     1      33.237  37.759  16.936  1.00  0.00    -0.003 NA
ENDBRANCH  28  29
ENDBRANCH  27  28
ENDBRANCH  26  27
ENDBRANCH  20  26
BRANCH  21  32
ATOM     32  O   UNL     1      28.515  33.932  15.881  1.00  0.00    -0.387 OA
ATOM     33  H   UNL     1      28.073  33.248  15.338  1.00  0.00     0.211 HD
ENDBRANCH  21  32
BRANCH  22  34
ATOM     34  O   UNL     1      31.166  33.045  18.107  1.00  0.00    -0.385 OA
ATOM     35  H   UNL     1      30.480  32.522  18.604  1.00  0.00     0.211 HD
ENDBRANCH  22  34
ENDBRANCH  16  17
ENDBRANCH  11  16
BRANCH  13  36
ATOM     36  O   UNL     1      25.816  32.064  20.173  1.00  0.00    -0.385 OA
ATOM     37  H   UNL     1      26.229  32.058  21.055  1.00  0.00     0.211 HD
ENDBRANCH  13  36
BRANCH  14  38
ATOM     38  O   UNL     1      26.058  29.266  18.162  1.00  0.00    -0.387 OA
ATOM     39  H   UNL     1      25.638  28.404  18.358  1.00  0.00     0.211 HD
ENDBRANCH  14  38
BRANCH  15  40
ATOM     40  O   UNL     1      28.510  29.000  19.298  1.00  0.00    -0.387 OA
ATOM     41  H   UNL     1      29.112  28.326  19.664  1.00  0.00     0.211 HD
ENDBRANCH  15  40
ENDBRANCH   9  10
ENDBRANCH   8   9
ENDBRANCH   3   8
BRANCH   3  42
ATOM     42  C   UNL     1      31.450  28.188  20.686  1.00  0.00     0.364 C 
ATOM     43  O   UNL     1      31.642  29.184  19.955  1.00  0.00    -0.246 OA
BRANCH  42  44
ATOM     44  O   UNL     1      31.969  27.006  20.249  1.00  0.00    -0.477 OA
ATOM     45  H   UNL     1      32.539  26.420  20.833  1.00  0.00     0.296 HD
ENDBRANCH  42  44
ENDBRANCH   3  42
BRANCH   6  46
ATOM     46  O   UNL     1      32.710  26.833  24.618  1.00  0.00    -0.391 OA
ATOM     47  H   UNL     1      32.785  25.847  24.573  1.00  0.00     0.211 HD
ENDBRANCH   6  46
BRANCH   7  48
ATOM     48  N   UNL     1      34.521  28.723  22.765  1.00  0.00    -0.348 N 
ATOM     49  C   UNL     1      35.682  28.990  23.527  1.00  0.00     0.217 C 
ATOM     50  H   UNL     1      34.695  28.463  21.756  1.00  0.00     0.163 HD
ATOM     51  C   UNL     1      37.053  28.902  22.900  1.00  0.00     0.114 C 
ATOM     52  O   UNL     1      35.553  29.303  24.738  1.00  0.00    -0.275 OA
ENDBRANCH   7  48
ENDBRANCH   1   2
BRANCH   1  53
ATOM     53  O   UNL     1      33.855  31.485  21.925  1.00  0.00    -0.388 OA
ATOM     54  H   UNL     1      33.923  30.581  21.479  1.00  0.00     0.211 HD
ENDBRANCH   1  53
BRANCH   1  55
ATOM     55  C   UNL     1      31.690  32.158  22.122  1.00  0.00     0.165 C 
BRANCH  55  56
ATOM     56  O   UNL     1      31.342  31.841  20.790  1.00  0.00    -0.388 OA
ATOM     57  H   UNL     1      32.086  31.278  20.460  1.00  0.00     0.211 HD
ENDBRANCH  55  56
BRANCH  55  58
ATOM     58  C   UNL     1      31.872  33.613  22.245  1.00  0.00     0.154 C 
BRANCH  58  59
ATOM     59  N   UNL     1      32.896  34.181  21.457  1.00  0.00    -0.319 N 
ATOM     60  C   UNL     1      32.852  35.003  20.324  1.00  0.00     0.407 C 
ATOM     61  H   UNL     1      33.908  33.944  21.785  1.00  0.00     0.167 HD
ATOM     62  O   UNL     1      31.771  35.358  19.827  1.00  0.00    -0.225 OA
BRANCH  60  63
ATOM     63  O   UNL     1      34.026  35.458  19.707  1.00  0.00    -0.443 OA
BRANCH  63  64
ATOM     64  C   UNL     1      35.201  35.580  20.510  1.00  0.00     0.294 C 
BRANCH  64  65
ATOM     65  C   UNL     1      36.365  34.950  19.835  1.00  0.00     0.120 A 
ATOM     66  C   UNL     1      36.833  35.303  18.570  1.00  0.00     0.138 A 
ATOM     67  N   UNL     1      37.169  33.965  20.262  1.00  0.00    -0.132 NA
ATOM     68  N   UNL     1      37.884  34.522  18.301  1.00  0.00    -0.252 N 
ATOM     69  N   UNL     1      38.082  33.722  19.316  1.00  0.00    -0.067 NA
BRANCH  68  70
ATOM     70  C   UNL     1      38.651  34.599  17.050  1.00  0.00     0.146 C 
BRANCH  70  71
ATOM     71  C   UNL     1      37.891  35.446  16.065  1.00  0.00     0.024 C 
BRANCH  71  72
ATOM     72  C   UNL     1      38.344  35.076  14.669  1.00  0.00     0.006 C 
BRANCH  72  73
ATOM     73  C   UNL     1      37.811  33.709  14.302  1.00  0.00     0.027 C 
BRANCH  73  74
ATOM     74  C   UNL     1      38.037  33.409  12.870  1.00  0.00    -0.035 C 
ATOM     75  C   UNL     1      37.038  33.454  12.012  1.00  0.00     0.004 C 
ENDBRANCH  73  74
ENDBRANCH  72  73
ENDBRANCH  71  72
ENDBRANCH  70  71
ENDBRANCH  68  70
ENDBRANCH  64  65
ENDBRANCH  63  64
ENDBRANCH  60  63
ENDBRANCH  58  59
ENDBRANCH  55  58
ENDBRANCH   1  55
TORSDOF 34
BEGIN_RES LYS A 131
REMARK  4 active torsions:
REMARK  status: ('A' for Active; 'I' for Inactive)
REMARK    1  A    between atoms: CA   and  CB  
REMARK    2  A    between atoms: CB   and  CG  
REMARK    3  A    between atoms: CG   and  CD  
REMARK    4  A    between atoms: CD   and  CE  
ROOT
ATOM      1  CA  LYS A 131      29.867  25.555  16.977  1.00 20.52     0.186 C 
ENDROOT
BRANCH   1   2
ATOM      2  CB  LYS A 131      28.345  25.722  17.026  1.00 20.94     0.034 C 
BRANCH   2   3
ATOM      3  CG  LYS A 131      27.602  24.399  16.923  1.00 22.96     0.005 C 
BRANCH   3   4
ATOM      4  CD  LYS A 131      26.126  24.558  17.163  1.00 24.33     0.041 C 
BRANCH   4   5
ATOM      5  CE  LYS A 131      25.556  23.254  17.711  1.00 26.91     0.338 C 
ATOM      6  NZ  LYS A 131      25.631  23.236  19.191  1.00 27.40     0.618 N 
ENDBRANCH   4   5
ENDBRANCH   3   4
ENDBRANCH   2   3
ENDBRANCH   1   2
END_RES LYS A 131
BEGIN_RES LYS A 135
REMARK  4 active torsions:
REMARK  status: ('A' for Active; 'I' for Inactive)
REMARK    5  A    between atoms: CA   and  CB  
REMARK    6  A    between atoms: CB   and  CG  
REMARK    7  A    between atoms: CG   and  CD  
REMARK    8  A    between atoms: CD   and  CE  
ROOT
ATOM      7  CA  LYS A 135      33.193  34.663   9.290  1.00 25.02     0.186 C 
ENDROOT
BRANCH   7   8
ATOM      8  CB  LYS A 135      32.060  35.360  10.034  1.00 26.63     0.034 C 
BRANCH   8   9
ATOM      9  CG  LYS A 135      30.715  34.715   9.824  1.00 29.45     0.005 C 
BRANCH   9  10
ATOM     10  CD  LYS A 135      30.188  35.013   8.429  1.00 32.00     0.041 C 
BRANCH  10  11
ATOM     11  CE  LYS A 135      28.767  34.505   8.276  1.00 34.25     0.338 C 
ATOM     12  NZ  LYS A 135      28.306  33.820   9.515  1.00 35.99     0.618 N 
ENDBRANCH  10  11
ENDBRANCH   9  10
ENDBRANCH   8   9
ENDBRANCH   7   8
END_RES LYS A 135
