REMARK VINA RESULT:    -5.677      3.608      8.052
REMARK INTER + INTRA:         -21.882
REMARK INTER:                 -12.645
REMARK INTRA:                  -9.237
REMARK UNBOUND:                -7.575
REMARK SMILES CC(=O)N[C@@H]1[C@@H](O)C[C@](OC[C@H]2O[C@@H](O[C@H]3[C@H](O)[C@@H](O)[C@H](OCCN=[N+]=[N-])O[C@@H]3CO)[C@H](O)[C@@H](O)[C@H]2O)(C(=O)O)O[C@H]1C(O)[C@H](O)CNC(=O)OCc1cn(Cc2ccccc2Br)nn1
REMARK SMILES IDX 9 1 8 2 6 3 5 4 42 5 41 6 10 7 11 8 12 9 14 10 13 11 32 12
REMARK SMILES IDX 34 13 36 14 15 15 16 16 29 17 28 18 21 19 17 20 19 21 30 22
REMARK SMILES IDX 31 23 22 25 23 26 24 27 25 28 26 29 27 30 18 31 20 33 33 35
REMARK SMILES IDX 35 37 37 39 38 41 39 42 40 43 7 45 43 47 44 48 45 50 46 51
REMARK SMILES IDX 47 53 48 54 49 55 50 57 51 58 52 59 53 60 54 61 65 62 55 63
REMARK SMILES IDX 64 64 56 65 57 66 58 67 62 68 59 69 61 70 63 71 60 72 4 73
REMARK SMILES IDX 2 74 1 76 3 77
REMARK H PARENT 31 24 18 32 20 34 33 36 35 38 37 40 40 44 7 46 44 49 46 52
REMARK H PARENT 48 56 4 75
REMARK Flexibility Score: inf
ROOT
ATOM      1  C   UNL     1      29.395  31.700  16.019  1.00  0.00     0.272 C 
ATOM      2  C   UNL     1      29.991  31.502  17.356  1.00  0.00     0.113 C 
ATOM      3  C   UNL     1      30.690  32.725  17.832  1.00  0.00     0.145 C 
ATOM      4  C   UNL     1      29.725  33.877  17.838  1.00  0.00     0.142 C 
ATOM      5  C   UNL     1      28.733  33.845  16.740  1.00  0.00     0.178 C 
ATOM      6  O   UNL     1      28.299  32.648  16.291  1.00  0.00    -0.332 OA
ENDROOT
BRANCH   1   7
ATOM      7  O   UNL     1      28.764  30.634  15.493  1.00  0.00    -0.338 OA
BRANCH   7   8
ATOM      8  C   UNL     1      28.147  29.649  16.064  1.00  0.00     0.199 C 
BRANCH   8   9
ATOM      9  C   UNL     1      26.868  29.609  16.774  1.00  0.00     0.179 C 
ATOM     10  C   UNL     1      25.667  29.482  18.724  1.00  0.00     0.282 C 
ATOM     11  O   UNL     1      26.878  29.923  18.137  1.00  0.00    -0.341 OA
ATOM     12  C   UNL     1      24.624  30.496  18.345  1.00  0.00     0.202 C 
ATOM     13  C   UNL     1      24.623  30.760  16.879  1.00  0.00     0.179 C 
ATOM     14  C   UNL     1      25.628  30.003  16.057  1.00  0.00     0.177 C 
BRANCH  10  15
ATOM     15  O   UNL     1      25.890  29.407  20.066  1.00  0.00    -0.341 OA
BRANCH  15  16
ATOM     16  C   UNL     1      25.901  28.176  20.649  1.00  0.00     0.184 C 
ATOM     17  C   UNL     1      26.126  28.144  22.120  1.00  0.00     0.178 C 
ATOM     18  O   UNL     1      27.122  27.209  22.390  1.00  0.00    -0.341 OA
ATOM     19  C   UNL     1      28.302  27.719  21.791  1.00  0.00     0.281 C 
ATOM     20  C   UNL     1      26.823  27.190  19.948  1.00  0.00     0.180 C 
ATOM     21  C   UNL     1      28.272  27.449  20.310  1.00  0.00     0.202 C 
BRANCH  17  22
ATOM     22  C   UNL     1      24.887  27.684  22.886  1.00  0.00     0.191 C 
BRANCH  22  23
ATOM     23  O   UNL     1      23.799  28.508  22.596  1.00  0.00    -0.394 OA
ATOM     24  H   UNL     1      24.054  29.455  22.518  1.00  0.00     0.210 HD
ENDBRANCH  22  23
ENDBRANCH  17  22
BRANCH  19  25
ATOM     25  O   UNL     1      29.358  27.090  22.444  1.00  0.00    -0.350 OA
BRANCH  25  26
ATOM     26  C   UNL     1      29.809  27.834  23.535  1.00  0.00     0.169 C 
BRANCH  26  27
ATOM     27  C   UNL     1      29.753  29.302  23.148  1.00  0.00     0.119 C 
BRANCH  27  28
ATOM     28  N   UNL     1      31.061  29.689  22.681  1.00  0.00    -0.092 NA
ATOM     29  N   UNL     1      31.293  29.877  21.484  1.00  0.00     0.001 N 
ATOM     30  N   UNL     1      31.502  29.611  20.282  1.00  0.00    -0.003 NA
ENDBRANCH  27  28
ENDBRANCH  26  27
ENDBRANCH  25  26
ENDBRANCH  19  25
BRANCH  20  31
ATOM     31  O   UNL     1      26.549  25.882  20.352  1.00  0.00    -0.387 OA
ATOM     32  H   UNL     1      26.579  25.322  19.527  1.00  0.00     0.211 HD
ENDBRANCH  20  31
BRANCH  21  33
ATOM     33  O   UNL     1      28.855  28.427  19.547  1.00  0.00    -0.385 OA
ATOM     34  H   UNL     1      28.528  29.311  19.836  1.00  0.00     0.211 HD
ENDBRANCH  21  33
ENDBRANCH  15  16
ENDBRANCH  10  15
BRANCH  12  35
ATOM     35  O   UNL     1      23.334  30.044  18.665  1.00  0.00    -0.385 OA
ATOM     36  H   UNL     1      23.318  29.079  18.469  1.00  0.00     0.211 HD
ENDBRANCH  12  35
BRANCH  13  37
ATOM     37  O   UNL     1      24.831  32.129  16.664  1.00  0.00    -0.387 OA
ATOM     38  H   UNL     1      25.686  32.437  17.026  1.00  0.00     0.211 HD
ENDBRANCH  13  37
BRANCH  14  39
ATOM     39  O   UNL     1      25.873  30.767  14.926  1.00  0.00    -0.387 OA
ATOM     40  H   UNL     1      26.562  31.443  15.005  1.00  0.00     0.211 HD
ENDBRANCH  14  39
ENDBRANCH   8   9
ENDBRANCH   7   8
ENDBRANCH   1   7
BRANCH   1  41
ATOM     41  C   UNL     1      30.167  32.474  15.025  1.00  0.00     0.364 C 
ATOM     42  O   UNL     1      29.725  33.374  14.276  1.00  0.00    -0.246 OA
BRANCH  41  43
ATOM     43  O   UNL     1      31.517  32.199  14.876  1.00  0.00    -0.477 OA
ATOM     44  H   UNL     1      31.848  31.428  14.294  1.00  0.00     0.296 HD
ENDBRANCH  41  43
ENDBRANCH   1  41
BRANCH   3  45
ATOM     45  O   UNL     1      31.049  32.446  19.190  1.00  0.00    -0.391 OA
ATOM     46  H   UNL     1      31.490  31.576  19.258  1.00  0.00     0.211 HD
ENDBRANCH   3  45
BRANCH   5  47
ATOM     47  C   UNL     1      27.485  34.629  17.160  1.00  0.00     0.176 C 
BRANCH  47  48
ATOM     48  O   UNL     1      26.652  33.746  17.831  1.00  0.00    -0.388 OA
ATOM     49  H   UNL     1      25.705  33.923  17.697  1.00  0.00     0.211 HD
ENDBRANCH  47  48
BRANCH  47  50
ATOM     50  C   UNL     1      26.757  35.217  16.003  1.00  0.00     0.165 C 
BRANCH  50  51
ATOM     51  O   UNL     1      26.865  34.418  14.852  1.00  0.00    -0.388 OA
ATOM     52  H   UNL     1      26.008  33.954  14.675  1.00  0.00     0.211 HD
ENDBRANCH  50  51
BRANCH  50  53
ATOM     53  C   UNL     1      27.349  36.550  15.627  1.00  0.00     0.154 C 
BRANCH  53  54
ATOM     54  N   UNL     1      28.243  36.415  14.531  1.00  0.00    -0.319 N 
ATOM     55  C   UNL     1      29.615  36.735  14.581  1.00  0.00     0.407 C 
ATOM     56  H   UNL     1      27.845  36.047  13.617  1.00  0.00     0.167 HD
ATOM     57  O   UNL     1      30.148  37.173  15.631  1.00  0.00    -0.225 OA
BRANCH  55  58
ATOM     58  O   UNL     1      30.442  36.580  13.461  1.00  0.00    -0.443 OA
BRANCH  58  59
ATOM     59  C   UNL     1      31.273  37.614  13.007  1.00  0.00     0.294 C 
BRANCH  59  60
ATOM     60  C   UNL     1      30.843  38.225  11.729  1.00  0.00     0.120 A 
ATOM     61  C   UNL     1      29.532  38.154  11.232  1.00  0.00     0.138 A 
ATOM     62  N   UNL     1      31.532  38.925  10.824  1.00  0.00    -0.132 NA
ATOM     63  N   UNL     1      29.495  38.802  10.073  1.00  0.00    -0.248 N 
ATOM     64  N   UNL     1      30.727  39.266   9.840  1.00  0.00    -0.067 NA
BRANCH  63  65
ATOM     65  C   UNL     1      28.365  39.026   9.172  1.00  0.00     0.182 C 
BRANCH  65  66
ATOM     66  C   UNL     1      28.147  37.922   8.213  1.00  0.00    -0.012 A 
ATOM     67  C   UNL     1      28.970  37.891   7.075  1.00  0.00     0.007 A 
ATOM     68  C   UNL     1      27.188  36.956   8.352  1.00  0.00     0.023 A 
ATOM     69  C   UNL     1      28.783  36.908   6.152  1.00  0.00     0.000 A 
ATOM     70  C   UNL     1      27.010  35.962   7.402  1.00  0.00     0.016 A 
ATOM     71  Br  UNL     1      26.084  36.906   9.897  1.00  0.00    -0.050 Br
ATOM     72  C   UNL     1      27.820  35.946   6.297  1.00  0.00     0.001 A 
ENDBRANCH  65  66
ENDBRANCH  63  65
ENDBRANCH  59  60
ENDBRANCH  58  59
ENDBRANCH  55  58
ENDBRANCH  53  54
ENDBRANCH  50  53
ENDBRANCH  47  50
ENDBRANCH   5  47
BRANCH   4  73
ATOM     73  N   UNL     1      30.469  35.110  17.804  1.00  0.00    -0.348 N 
ATOM     74  C   UNL     1      30.828  35.843  18.975  1.00  0.00     0.217 C 
ATOM     75  H   UNL     1      30.786  35.537  16.908  1.00  0.00     0.163 HD
ATOM     76  C   UNL     1      31.601  37.119  18.865  1.00  0.00     0.114 C 
ATOM     77  O   UNL     1      30.482  35.393  20.075  1.00  0.00    -0.275 OA
ENDBRANCH   4  73
TORSDOF 31
BEGIN_RES LYS A 131
REMARK  4 active torsions:
REMARK  status: ('A' for Active; 'I' for Inactive)
REMARK    1  A    between atoms: CA   and  CB  
REMARK    2  A    between atoms: CB   and  CG  
REMARK    3  A    between atoms: CG   and  CD  
REMARK    4  A    between atoms: CD   and  CE  
ROOT
ATOM      1  CA  LYS A 131      29.867  25.555  16.977  1.00 20.52     0.186 C 
ENDROOT
BRANCH   1   2
ATOM      2  CB  LYS A 131      28.345  25.722  17.026  1.00 20.94     0.034 C 
BRANCH   2   3
ATOM      3  CG  LYS A 131      27.601  24.402  16.897  1.00 22.96     0.005 C 
BRANCH   3   4
ATOM      4  CD  LYS A 131      26.149  24.531  17.265  1.00 24.33     0.041 C 
BRANCH   4   5
ATOM      5  CE  LYS A 131      25.577  23.150  17.571  1.00 26.91     0.338 C 
ATOM      6  NZ  LYS A 131      25.301  23.012  19.020  1.00 27.40     0.618 N 
ENDBRANCH   4   5
ENDBRANCH   3   4
ENDBRANCH   2   3
ENDBRANCH   1   2
END_RES LYS A 131
BEGIN_RES LYS A 135
REMARK  4 active torsions:
REMARK  status: ('A' for Active; 'I' for Inactive)
REMARK    5  A    between atoms: CA   and  CB  
REMARK    6  A    between atoms: CB   and  CG  
REMARK    7  A    between atoms: CG   and  CD  
REMARK    8  A    between atoms: CD   and  CE  
ROOT
ATOM      7  CA  LYS A 135      33.193  34.663   9.290  1.00 25.02     0.186 C 
ENDROOT
BRANCH   7   8
ATOM      8  CB  LYS A 135      32.060  35.360  10.034  1.00 26.63     0.034 C 
BRANCH   8   9
ATOM      9  CG  LYS A 135      30.801  35.502   9.218  1.00 29.45     0.005 C 
BRANCH   9  10
ATOM     10  CD  LYS A 135      30.273  34.137   8.803  1.00 32.00     0.041 C 
BRANCH  10  11
ATOM     11  CE  LYS A 135      28.911  33.883   9.420  1.00 34.25     0.338 C 
ATOM     12  NZ  LYS A 135      28.793  34.543  10.750  1.00 35.99     0.618 N 
ENDBRANCH  10  11
ENDBRANCH   9  10
ENDBRANCH   8   9
ENDBRANCH   7   8
END_RES LYS A 135
