REMARK VINA RESULT:    -4.219      4.639     10.047
REMARK INTER + INTRA:         -22.341
REMARK INTER:                 -12.713
REMARK INTRA:                  -9.629
REMARK UNBOUND:               -10.971
REMARK SMILES C=CCCCCn1cc(COC(=O)NC[C@@H](O)C(O)[C@@H]2O[C@@](OC[C@H]3O[C@@H](O[C@H]4[C@H](O)[C@@H](O)[C@H](OCCN=[N+]=[N-])O[C@@H]4CO)[C@H](O)[C@@H](O)[C@H]3O)(C(=O)O)C[C@H](O)[C@H]2NC(C)=O)nn1
REMARK SMILES IDX 18 1 20 2 22 3 54 4 21 5 55 6 57 7 23 8 24 9 25 10 27 11
REMARK SMILES IDX 26 12 45 13 47 14 49 15 28 16 29 17 42 18 41 19 34 20 30 21
REMARK SMILES IDX 32 22 43 23 44 24 35 26 36 27 37 28 38 29 39 30 40 31 31 32
REMARK SMILES IDX 33 34 46 36 48 38 50 40 51 42 52 43 53 44 56 46 58 48 59 49
REMARK SMILES IDX 60 51 61 52 19 53 16 55 17 56 15 58 14 59 12 60 13 62 11 63
REMARK SMILES IDX 10 64 9 65 8 66 62 67 7 68 63 69 6 70 5 71 4 72 3 73 2 74
REMARK SMILES IDX 1 75
REMARK H PARENT 44 25 31 33 33 35 46 37 48 39 50 41 53 45 56 47 58 50 19 54
REMARK H PARENT 17 57 14 61
REMARK Flexibility Score: inf
ROOT
ATOM      1  C   UNL     1      30.018  34.642  13.395  1.00  0.00     0.176 C 
ENDROOT
BRANCH   1   2
ATOM      2  C   UNL     1      31.061  35.470  14.151  1.00  0.00     0.178 C 
ATOM      3  C   UNL     1      32.245  35.503  16.122  1.00  0.00     0.272 C 
ATOM      4  C   UNL     1      32.083  36.964  16.211  1.00  0.00     0.113 C 
ATOM      5  O   UNL     1      31.083  35.006  15.418  1.00  0.00    -0.332 OA
ATOM      6  C   UNL     1      31.907  37.667  14.936  1.00  0.00     0.145 C 
ATOM      7  C   UNL     1      31.134  36.896  13.880  1.00  0.00     0.142 C 
BRANCH   3   8
ATOM      8  O   UNL     1      32.075  34.842  17.329  1.00  0.00    -0.338 OA
BRANCH   8   9
ATOM      9  C   UNL     1      31.073  35.078  18.151  1.00  0.00     0.199 C 
BRANCH   9  10
ATOM     10  C   UNL     1      30.276  33.983  18.749  1.00  0.00     0.179 C 
ATOM     11  C   UNL     1      28.145  33.023  18.578  1.00  0.00     0.282 C 
ATOM     12  O   UNL     1      28.901  34.157  18.459  1.00  0.00    -0.341 OA
ATOM     13  C   UNL     1      28.781  31.942  19.361  1.00  0.00     0.202 C 
ATOM     14  C   UNL     1      30.167  31.571  18.908  1.00  0.00     0.179 C 
ATOM     15  C   UNL     1      30.703  32.689  18.068  1.00  0.00     0.177 C 
BRANCH  11  16
ATOM     16  O   UNL     1      27.645  32.720  17.341  1.00  0.00    -0.341 OA
BRANCH  16  17
ATOM     17  C   UNL     1      26.910  31.577  17.229  1.00  0.00     0.184 C 
ATOM     18  C   UNL     1      27.081  31.016  15.837  1.00  0.00     0.178 C 
ATOM     19  O   UNL     1      25.869  30.501  15.349  1.00  0.00    -0.341 OA
ATOM     20  C   UNL     1      25.092  31.588  14.958  1.00  0.00     0.281 C 
ATOM     21  C   UNL     1      25.398  31.866  17.374  1.00  0.00     0.180 C 
ATOM     22  C   UNL     1      24.879  32.520  16.114  1.00  0.00     0.202 C 
BRANCH  18  23
ATOM     23  C   UNL     1      28.177  29.967  15.751  1.00  0.00     0.191 C 
BRANCH  23  24
ATOM     24  O   UNL     1      29.358  30.523  15.293  1.00  0.00    -0.394 OA
ATOM     25  H   UNL     1      29.739  29.936  14.599  1.00  0.00     0.210 HD
ENDBRANCH  23  24
ENDBRANCH  18  23
BRANCH  20  26
ATOM     26  O   UNL     1      23.875  31.069  14.515  1.00  0.00    -0.350 OA
BRANCH  26  27
ATOM     27  C   UNL     1      23.771  30.998  13.138  1.00  0.00     0.169 C 
BRANCH  27  28
ATOM     28  C   UNL     1      23.694  29.528  12.765  1.00  0.00     0.119 C 
BRANCH  28  29
ATOM     29  N   UNL     1      22.377  28.990  12.974  1.00  0.00    -0.092 NA
ATOM     30  N   UNL     1      22.103  28.333  13.972  1.00  0.00     0.001 N 
ATOM     31  N   UNL     1      21.913  27.853  15.089  1.00  0.00    -0.003 NA
ENDBRANCH  28  29
ENDBRANCH  27  28
ENDBRANCH  26  27
ENDBRANCH  20  26
BRANCH  21  32
ATOM     32  O   UNL     1      24.784  30.620  17.479  1.00  0.00    -0.387 OA
ATOM     33  H   UNL     1      25.320  29.945  17.942  1.00  0.00     0.211 HD
ENDBRANCH  21  32
BRANCH  22  34
ATOM     34  O   UNL     1      25.465  33.770  15.934  1.00  0.00    -0.385 OA
ATOM     35  H   UNL     1      25.016  34.194  15.154  1.00  0.00     0.211 HD
ENDBRANCH  22  34
ENDBRANCH  16  17
ENDBRANCH  11  16
BRANCH  13  36
ATOM     36  O   UNL     1      28.869  32.375  20.691  1.00  0.00    -0.385 OA
ATOM     37  H   UNL     1      29.690  32.867  20.871  1.00  0.00     0.211 HD
ENDBRANCH  13  36
BRANCH  14  38
ATOM     38  O   UNL     1      30.191  30.356  18.219  1.00  0.00    -0.387 OA
ATOM     39  H   UNL     1      30.941  29.839  18.576  1.00  0.00     0.211 HD
ENDBRANCH  14  38
BRANCH  15  40
ATOM     40  O   UNL     1      30.223  32.642  16.753  1.00  0.00    -0.387 OA
ATOM     41  H   UNL     1      30.299  33.494  16.285  1.00  0.00     0.211 HD
ENDBRANCH  15  40
ENDBRANCH   9  10
ENDBRANCH   8   9
ENDBRANCH   3   8
BRANCH   3  42
ATOM     42  C   UNL     1      33.375  35.108  15.291  1.00  0.00     0.364 C 
ATOM     43  O   UNL     1      34.490  35.661  15.410  1.00  0.00    -0.246 OA
BRANCH  42  44
ATOM     44  O   UNL     1      33.280  34.132  14.344  1.00  0.00    -0.477 OA
ATOM     45  H   UNL     1      33.540  33.179  14.525  1.00  0.00     0.296 HD
ENDBRANCH  42  44
ENDBRANCH   3  42
BRANCH   6  46
ATOM     46  O   UNL     1      31.267  38.906  15.187  1.00  0.00    -0.391 OA
ATOM     47  H   UNL     1      31.721  39.653  14.723  1.00  0.00     0.211 HD
ENDBRANCH   6  46
BRANCH   7  48
ATOM     48  N   UNL     1      31.772  37.123  12.569  1.00  0.00    -0.348 N 
ATOM     49  C   UNL     1      31.479  38.235  11.748  1.00  0.00     0.217 C 
ATOM     50  H   UNL     1      32.487  36.450  12.178  1.00  0.00     0.163 HD
ATOM     51  C   UNL     1      32.160  38.406  10.410  1.00  0.00     0.114 C 
ATOM     52  O   UNL     1      30.640  39.081  12.149  1.00  0.00    -0.275 OA
ENDBRANCH   7  48
ENDBRANCH   1   2
BRANCH   1  53
ATOM     53  O   UNL     1      30.269  33.257  13.893  1.00  0.00    -0.388 OA
ATOM     54  H   UNL     1      30.795  32.896  13.109  1.00  0.00     0.211 HD
ENDBRANCH   1  53
BRANCH   1  55
ATOM     55  C   UNL     1      28.631  34.835  13.815  1.00  0.00     0.165 C 
BRANCH  55  56
ATOM     56  O   UNL     1      28.216  34.060  14.922  1.00  0.00    -0.388 OA
ATOM     57  H   UNL     1      28.306  33.121  14.624  1.00  0.00     0.211 HD
ENDBRANCH  55  56
BRANCH  55  58
ATOM     58  C   UNL     1      27.557  34.863  12.810  1.00  0.00     0.154 C 
BRANCH  58  59
ATOM     59  N   UNL     1      26.252  35.086  13.298  1.00  0.00    -0.319 N 
ATOM     60  C   UNL     1      25.612  36.247  13.747  1.00  0.00     0.407 C 
ATOM     61  H   UNL     1      25.621  34.199  13.334  1.00  0.00     0.167 HD
ATOM     62  O   UNL     1      26.201  37.340  13.771  1.00  0.00    -0.225 OA
BRANCH  60  63
ATOM     63  O   UNL     1      24.280  36.224  14.185  1.00  0.00    -0.443 OA
BRANCH  63  64
ATOM     64  C   UNL     1      23.305  36.916  13.404  1.00  0.00     0.294 C 
BRANCH  64  65
ATOM     65  C   UNL     1      23.315  36.428  12.001  1.00  0.00     0.120 A 
ATOM     66  C   UNL     1      23.362  37.251  10.877  1.00  0.00     0.138 A 
ATOM     67  N   UNL     1      23.280  35.172  11.534  1.00  0.00    -0.132 NA
ATOM     68  N   UNL     1      23.353  36.459   9.800  1.00  0.00    -0.252 N 
ATOM     69  N   UNL     1      23.303  35.214  10.198  1.00  0.00    -0.067 NA
BRANCH  68  70
ATOM     70  C   UNL     1      23.394  36.964   8.421  1.00  0.00     0.146 C 
BRANCH  70  71
ATOM     71  C   UNL     1      24.669  37.740   8.227  1.00  0.00     0.024 C 
BRANCH  71  72
ATOM     72  C   UNL     1      25.765  36.769   7.848  1.00  0.00     0.006 C 
BRANCH  72  73
ATOM     73  C   UNL     1      26.909  37.513   7.198  1.00  0.00     0.027 C 
BRANCH  73  74
ATOM     74  C   UNL     1      27.427  36.784   6.018  1.00  0.00    -0.035 C 
ATOM     75  C   UNL     1      28.503  36.030   6.119  1.00  0.00     0.004 C 
ENDBRANCH  73  74
ENDBRANCH  72  73
ENDBRANCH  71  72
ENDBRANCH  70  71
ENDBRANCH  68  70
ENDBRANCH  64  65
ENDBRANCH  63  64
ENDBRANCH  60  63
ENDBRANCH  58  59
ENDBRANCH  55  58
ENDBRANCH   1  55
TORSDOF 34
BEGIN_RES LYS A 131
REMARK  4 active torsions:
REMARK  status: ('A' for Active; 'I' for Inactive)
REMARK    1  A    between atoms: CA   and  CB  
REMARK    2  A    between atoms: CB   and  CG  
REMARK    3  A    between atoms: CG   and  CD  
REMARK    4  A    between atoms: CD   and  CE  
ROOT
ATOM      1  CA  LYS A 131      29.867  25.555  16.977  1.00 20.52     0.186 C 
ENDROOT
BRANCH   1   2
ATOM      2  CB  LYS A 131      28.345  25.722  17.026  1.00 20.94     0.034 C 
BRANCH   2   3
ATOM      3  CG  LYS A 131      27.601  24.403  16.886  1.00 22.96     0.005 C 
BRANCH   3   4
ATOM      4  CD  LYS A 131      26.308  24.398  17.653  1.00 24.33     0.041 C 
BRANCH   4   5
ATOM      5  CE  LYS A 131      25.677  23.011  17.579  1.00 26.91     0.338 C 
ATOM      6  NZ  LYS A 131      24.263  23.106  17.145  1.00 27.40     0.618 N 
ENDBRANCH   4   5
ENDBRANCH   3   4
ENDBRANCH   2   3
ENDBRANCH   1   2
END_RES LYS A 131
BEGIN_RES LYS A 135
REMARK  4 active torsions:
REMARK  status: ('A' for Active; 'I' for Inactive)
REMARK    5  A    between atoms: CA   and  CB  
REMARK    6  A    between atoms: CB   and  CG  
REMARK    7  A    between atoms: CG   and  CD  
REMARK    8  A    between atoms: CD   and  CE  
ROOT
ATOM      7  CA  LYS A 135      33.193  34.663   9.290  1.00 25.02     0.186 C 
ENDROOT
BRANCH   7   8
ATOM      8  CB  LYS A 135      32.060  35.360  10.034  1.00 26.63     0.034 C 
BRANCH   8   9
ATOM      9  CG  LYS A 135      30.804  35.511   9.215  1.00 29.45     0.005 C 
BRANCH   9  10
ATOM     10  CD  LYS A 135      30.240  34.148   8.842  1.00 32.00     0.041 C 
BRANCH  10  11
ATOM     11  CE  LYS A 135      29.057  33.801   9.725  1.00 34.25     0.338 C 
ATOM     12  NZ  LYS A 135      27.771  34.154   9.062  1.00 35.99     0.618 N 
ENDBRANCH  10  11
ENDBRANCH   9  10
ENDBRANCH   8   9
ENDBRANCH   7   8
END_RES LYS A 135
