REMARK VINA RESULT:    -4.835      2.878      7.629
REMARK INTER + INTRA:         -23.038
REMARK INTER:                 -13.647
REMARK INTRA:                  -9.392
REMARK UNBOUND:               -10.853
REMARK SMILES CC(=O)N[C@@H]1[C@@H](O)C[C@](OC[C@H]2O[C@@H](O[C@H]3[C@H](O)[C@@H](O)[C@H](OCCN=[N+]=[N-])O[C@@H]3CO)[C@H](O)[C@@H](O)[C@H]2O)(C(=O)O)O[C@H]1C(O)[C@H](O)CNC(=O)OCc1cn(-c2ncn3c2c(=O)n(C(C)C)c2ccccc23)nn1
REMARK SMILES IDX 9 1 8 2 6 3 5 4 42 5 41 6 10 7 11 8 12 9 14 10 13 11 32 12
REMARK SMILES IDX 34 13 36 14 15 15 16 16 29 17 28 18 21 19 17 20 19 21 30 22
REMARK SMILES IDX 31 23 22 25 23 26 24 27 25 28 26 29 27 30 18 31 20 33 33 35
REMARK SMILES IDX 35 37 37 39 38 41 39 42 40 43 7 45 43 47 44 48 45 50 46 51
REMARK SMILES IDX 47 53 48 54 49 55 50 57 51 58 52 59 53 60 54 61 74 62 55 63
REMARK SMILES IDX 73 64 56 65 57 66 60 67 58 68 59 69 61 70 72 71 63 72 62 73
REMARK SMILES IDX 71 74 67 75 70 76 68 77 69 78 64 79 65 80 66 81 4 82 2 83
REMARK SMILES IDX 1 85 3 86
REMARK H PARENT 31 24 18 32 20 34 33 36 35 38 37 40 40 44 7 46 44 49 46 52
REMARK H PARENT 48 56 4 84
REMARK Flexibility Score: inf
ROOT
ATOM      1  C   UNL     1      26.384  37.284   7.585  1.00  0.00     0.272 C 
ATOM      2  C   UNL     1      26.923  37.497   8.973  1.00  0.00     0.113 C 
ATOM      3  C   UNL     1      28.186  38.252   8.990  1.00  0.00     0.145 C 
ATOM      4  C   UNL     1      28.213  39.454   8.090  1.00  0.00     0.142 C 
ATOM      5  C   UNL     1      27.326  39.336   6.904  1.00  0.00     0.178 C 
ATOM      6  O   UNL     1      26.234  38.581   7.001  1.00  0.00    -0.332 OA
ENDROOT
BRANCH   1   7
ATOM      7  O   UNL     1      25.079  36.905   7.738  1.00  0.00    -0.338 OA
BRANCH   7   8
ATOM      8  C   UNL     1      24.510  36.442   8.814  1.00  0.00     0.199 C 
BRANCH   8   9
ATOM      9  C   UNL     1      23.176  35.783   8.897  1.00  0.00     0.179 C 
ATOM     10  C   UNL     1      21.439  35.657  10.443  1.00  0.00     0.282 C 
ATOM     11  O   UNL     1      22.681  36.174  10.184  1.00  0.00    -0.341 OA
ATOM     12  C   UNL     1      20.383  36.184   9.487  1.00  0.00     0.202 C 
ATOM     13  C   UNL     1      20.822  35.995   8.046  1.00  0.00     0.179 C 
ATOM     14  C   UNL     1      22.238  36.484   7.913  1.00  0.00     0.177 C 
BRANCH  10  15
ATOM     15  O   UNL     1      21.089  36.062  11.726  1.00  0.00    -0.341 OA
BRANCH  15  16
ATOM     16  C   UNL     1      21.628  35.230  12.672  1.00  0.00     0.184 C 
ATOM     17  C   UNL     1      21.898  33.888  12.096  1.00  0.00     0.178 C 
ATOM     18  O   UNL     1      20.953  32.923  12.336  1.00  0.00    -0.341 OA
ATOM     19  C   UNL     1      19.678  33.367  12.567  1.00  0.00     0.281 C 
ATOM     20  C   UNL     1      20.799  35.164  13.939  1.00  0.00     0.180 C 
ATOM     21  C   UNL     1      19.587  34.337  13.720  1.00  0.00     0.202 C 
BRANCH  17  22
ATOM     22  C   UNL     1      23.258  33.386  12.530  1.00  0.00     0.191 C 
BRANCH  22  23
ATOM     23  O   UNL     1      24.180  34.357  12.071  1.00  0.00    -0.394 OA
ATOM     24  H   UNL     1      23.884  35.216  12.451  1.00  0.00     0.210 HD
ENDBRANCH  22  23
ENDBRANCH  17  22
BRANCH  19  25
ATOM     25  O   UNL     1      18.912  32.251  12.948  1.00  0.00    -0.350 OA
BRANCH  25  26
ATOM     26  C   UNL     1      18.906  31.237  12.030  1.00  0.00     0.169 C 
BRANCH  26  27
ATOM     27  C   UNL     1      18.985  29.850  12.587  1.00  0.00     0.119 C 
BRANCH  27  28
ATOM     28  N   UNL     1      20.169  29.234  11.968  1.00  0.00    -0.092 NA
ATOM     29  N   UNL     1      21.307  29.455  12.323  1.00  0.00     0.001 N 
ATOM     30  N   UNL     1      22.484  29.817  12.413  1.00  0.00    -0.003 NA
ENDBRANCH  27  28
ENDBRANCH  26  27
ENDBRANCH  25  26
ENDBRANCH  19  25
BRANCH  20  31
ATOM     31  O   UNL     1      21.611  34.707  14.983  1.00  0.00    -0.387 OA
ATOM     32  H   UNL     1      21.063  34.007  15.447  1.00  0.00     0.211 HD
ENDBRANCH  20  31
BRANCH  21  33
ATOM     33  O   UNL     1      18.520  35.216  13.459  1.00  0.00    -0.385 OA
ATOM     34  H   UNL     1      17.765  35.072  14.087  1.00  0.00     0.211 HD
ENDBRANCH  21  33
ENDBRANCH  15  16
ENDBRANCH  10  15
BRANCH  12  35
ATOM     35  O   UNL     1      19.245  35.398   9.651  1.00  0.00    -0.385 OA
ATOM     36  H   UNL     1      18.491  35.710   9.097  1.00  0.00     0.211 HD
ENDBRANCH  12  35
BRANCH  13  37
ATOM     37  O   UNL     1      20.028  36.864   7.274  1.00  0.00    -0.387 OA
ATOM     38  H   UNL     1      19.062  36.666   7.421  1.00  0.00     0.211 HD
ENDBRANCH  13  37
BRANCH  14  39
ATOM     39  O   UNL     1      22.207  37.859   8.264  1.00  0.00    -0.387 OA
ATOM     40  H   UNL     1      23.049  38.115   8.710  1.00  0.00     0.211 HD
ENDBRANCH  14  39
ENDBRANCH   8   9
ENDBRANCH   7   8
ENDBRANCH   1   7
BRANCH   1  41
ATOM     41  C   UNL     1      27.247  36.511   6.703  1.00  0.00     0.364 C 
ATOM     42  O   UNL     1      28.011  35.620   7.074  1.00  0.00    -0.246 OA
BRANCH  41  43
ATOM     43  O   UNL     1      27.250  36.758   5.318  1.00  0.00    -0.477 OA
ATOM     44  H   UNL     1      26.388  36.673   4.795  1.00  0.00     0.296 HD
ENDBRANCH  41  43
ENDBRANCH   1  41
BRANCH   3  45
ATOM     45  O   UNL     1      28.391  38.673  10.330  1.00  0.00    -0.391 OA
ATOM     46  H   UNL     1      27.794  39.422  10.556  1.00  0.00     0.211 HD
ENDBRANCH   3  45
BRANCH   5  47
ATOM     47  C   UNL     1      26.942  40.691   6.336  1.00  0.00     0.176 C 
BRANCH  47  48
ATOM     48  O   UNL     1      27.160  41.670   7.279  1.00  0.00    -0.388 OA
ATOM     49  H   UNL     1      28.114  41.917   7.381  1.00  0.00     0.211 HD
ENDBRANCH  47  48
BRANCH  47  50
ATOM     50  C   UNL     1      25.555  40.768   5.801  1.00  0.00     0.165 C 
BRANCH  50  51
ATOM     51  O   UNL     1      25.412  41.295   4.546  1.00  0.00    -0.388 OA
ATOM     52  H   UNL     1      24.773  40.813   3.972  1.00  0.00     0.211 HD
ENDBRANCH  50  51
BRANCH  50  53
ATOM     53  C   UNL     1      24.578  41.400   6.745  1.00  0.00     0.154 C 
BRANCH  53  54
ATOM     54  N   UNL     1      24.096  40.418   7.724  1.00  0.00    -0.319 N 
ATOM     55  C   UNL     1      24.492  40.434   9.071  1.00  0.00     0.407 C 
ATOM     56  H   UNL     1      23.418  39.660   7.411  1.00  0.00     0.167 HD
ATOM     57  O   UNL     1      25.300  41.296   9.502  1.00  0.00    -0.225 OA
BRANCH  55  58
ATOM     58  O   UNL     1      23.960  39.459   9.928  1.00  0.00    -0.443 OA
BRANCH  58  59
ATOM     59  C   UNL     1      23.920  39.671  11.311  1.00  0.00     0.294 C 
BRANCH  59  60
ATOM     60  C   UNL     1      25.088  39.029  12.026  1.00  0.00     0.121 A 
ATOM     61  C   UNL     1      25.172  37.717  12.433  1.00  0.00     0.146 A 
ATOM     62  N   UNL     1      26.249  39.596  12.391  1.00  0.00    -0.131 NA
ATOM     63  N   UNL     1      26.379  37.509  13.036  1.00  0.00    -0.200 N 
ATOM     64  N   UNL     1      26.998  38.673  12.989  1.00  0.00    -0.060 NA
BRANCH  63  65
ATOM     65  C   UNL     1      26.833  36.271  13.584  1.00  0.00     0.186 A 
ATOM     66  N   UNL     1      26.032  35.270  13.987  1.00  0.00    -0.216 NA
ATOM     67  C   UNL     1      28.107  35.825  13.833  1.00  0.00     0.158 A 
ATOM     68  C   UNL     1      26.776  34.254  14.464  1.00  0.00     0.207 A 
ATOM     69  N   UNL     1      28.083  34.582  14.377  1.00  0.00    -0.291 N 
ATOM     70  C   UNL     1      29.310  36.445  13.615  1.00  0.00     0.279 A 
ATOM     71  C   UNL     1      29.216  33.939  14.709  1.00  0.00     0.071 A 
ATOM     72  N   UNL     1      30.471  35.820  13.941  1.00  0.00    -0.302 N 
ATOM     73  O   UNL     1      29.363  37.608  13.107  1.00  0.00    -0.267 OA
ATOM     74  C   UNL     1      29.194  32.687  15.263  1.00  0.00     0.029 A 
ATOM     75  C   UNL     1      30.412  34.583  14.481  1.00  0.00     0.068 A 
ATOM     76  C   UNL     1      30.377  32.018  15.616  1.00  0.00     0.002 A 
ATOM     77  C   UNL     1      31.574  33.920  14.830  1.00  0.00     0.028 A 
ATOM     78  C   UNL     1      31.578  32.650  15.393  1.00  0.00     0.002 A 
BRANCH  72  79
ATOM     79  C   UNL     1      31.756  36.477  13.701  1.00  0.00     0.085 C 
ATOM     80  C   UNL     1      32.515  36.782  14.951  1.00  0.00     0.031 C 
ATOM     81  C   UNL     1      32.563  35.782  12.633  1.00  0.00     0.031 C 
ENDBRANCH  72  79
ENDBRANCH  63  65
ENDBRANCH  59  60
ENDBRANCH  58  59
ENDBRANCH  55  58
ENDBRANCH  53  54
ENDBRANCH  50  53
ENDBRANCH  47  50
ENDBRANCH   5  47
BRANCH   4  82
ATOM     82  N   UNL     1      29.591  39.728   7.737  1.00  0.00    -0.348 N 
ATOM     83  C   UNL     1      30.408  40.640   8.442  1.00  0.00     0.217 C 
ATOM     84  H   UNL     1      30.024  39.236   6.919  1.00  0.00     0.163 HD
ATOM     85  C   UNL     1      31.827  40.914   8.066  1.00  0.00     0.114 C 
ATOM     86  O   UNL     1      29.899  41.243   9.432  1.00  0.00    -0.275 OA
ENDBRANCH   4  82
TORSDOF 31
BEGIN_RES LYS A 131
REMARK  4 active torsions:
REMARK  status: ('A' for Active; 'I' for Inactive)
REMARK    1  A    between atoms: CA   and  CB  
REMARK    2  A    between atoms: CB   and  CG  
REMARK    3  A    between atoms: CG   and  CD  
REMARK    4  A    between atoms: CD   and  CE  
ROOT
ATOM      1  CA  LYS A 131      29.867  25.555  16.977  1.00 20.52     0.186 C 
ENDROOT
BRANCH   1   2
ATOM      2  CB  LYS A 131      28.345  25.722  17.026  1.00 20.94     0.034 C 
BRANCH   2   3
ATOM      3  CG  LYS A 131      27.601  24.403  16.882  1.00 22.96     0.005 C 
BRANCH   3   4
ATOM      4  CD  LYS A 131      26.622  24.180  18.001  1.00 24.33     0.041 C 
BRANCH   4   5
ATOM      5  CE  LYS A 131      25.601  23.128  17.581  1.00 26.91     0.338 C 
ATOM      6  NZ  LYS A 131      24.355  23.270  18.371  1.00 27.40     0.618 N 
ENDBRANCH   4   5
ENDBRANCH   3   4
ENDBRANCH   2   3
ENDBRANCH   1   2
END_RES LYS A 131
BEGIN_RES LYS A 135
REMARK  4 active torsions:
REMARK  status: ('A' for Active; 'I' for Inactive)
REMARK    5  A    between atoms: CA   and  CB  
REMARK    6  A    between atoms: CB   and  CG  
REMARK    7  A    between atoms: CG   and  CD  
REMARK    8  A    between atoms: CD   and  CE  
ROOT
ATOM      7  CA  LYS A 135      33.193  34.663   9.290  1.00 25.02     0.186 C 
ENDROOT
BRANCH   7   8
ATOM      8  CB  LYS A 135      32.060  35.360  10.034  1.00 26.63     0.034 C 
BRANCH   8   9
ATOM      9  CG  LYS A 135      30.728  35.258   9.336  1.00 29.45     0.005 C 
BRANCH   9  10
ATOM     10  CD  LYS A 135      29.600  35.132  10.348  1.00 32.00     0.041 C 
BRANCH  10  11
ATOM     11  CE  LYS A 135      28.601  34.081   9.903  1.00 34.25     0.338 C 
ATOM     12  NZ  LYS A 135      27.265  34.316  10.518  1.00 35.99     0.618 N 
ENDBRANCH  10  11
ENDBRANCH   9  10
ENDBRANCH   8   9
ENDBRANCH   7   8
END_RES LYS A 135
