REMARK VINA RESULT:    -3.902      4.585     10.378
REMARK INTER + INTRA:         -23.282
REMARK INTER:                 -10.719
REMARK INTRA:                 -12.564
REMARK UNBOUND:               -13.108
REMARK SMILES CC(=O)N[C@@H]1[C@@H](O)C[C@](OC[C@H]2O[C@@H](O[C@H]3[C@H](O)[C@@H](O)[C@H](OCCN=[N+]=[N-])O[C@@H]3CO)[C@H](O)[C@@H](O)[C@H]2O)(C(=O)O)O[C@H]1C(O)[C@H](O)CNC(=O)OCc1cn(-c2cccc(C=CC(=O)O)c2)nn1
REMARK SMILES IDX 43 1 42 2 9 3 8 4 41 5 6 6 5 7 10 8 11 9 12 10 14 11 13 12
REMARK SMILES IDX 32 13 34 14 36 15 15 16 16 17 29 18 28 19 21 20 17 21 19 22
REMARK SMILES IDX 30 23 31 24 22 26 23 27 24 28 25 29 26 30 27 31 18 32 20 34
REMARK SMILES IDX 33 36 35 38 37 40 38 42 39 43 40 44 7 46 4 48 2 49 1 51 3 52
REMARK SMILES IDX 44 53 45 55 46 56 47 58 48 59 49 60 50 62 51 63 52 64 53 65
REMARK SMILES IDX 54 66 68 67 55 68 67 69 56 70 66 71 57 72 60 73 58 74 59 75
REMARK SMILES IDX 61 76 62 77 63 78 64 79 65 80
REMARK H PARENT 31 25 18 33 20 35 33 37 35 39 37 41 40 45 7 47 4 50 44 54
REMARK H PARENT 46 57 48 61 65 81
REMARK Flexibility Score: inf
ROOT
ATOM      1  C   UNL     1      26.405  30.520  16.267  1.00  0.00     0.176 C 
ENDROOT
BRANCH   1   2
ATOM      2  C   UNL     1      25.555  30.776  17.496  1.00  0.00     0.178 C 
ATOM      3  C   UNL     1      23.948  32.349  18.203  1.00  0.00     0.272 C 
ATOM      4  C   UNL     1      24.121  31.356  19.450  1.00  0.00     0.113 C 
ATOM      5  O   UNL     1      24.882  31.944  17.272  1.00  0.00    -0.332 OA
ATOM      6  C   UNL     1      25.554  31.459  19.834  1.00  0.00     0.145 C 
ATOM      7  C   UNL     1      26.419  30.905  18.719  1.00  0.00     0.142 C 
BRANCH   3   8
ATOM      8  O   UNL     1      24.317  33.525  18.725  1.00  0.00    -0.338 OA
BRANCH   8   9
ATOM      9  C   UNL     1      23.699  34.683  18.581  1.00  0.00     0.199 C 
BRANCH   9  10
ATOM     10  C   UNL     1      24.429  35.840  17.933  1.00  0.00     0.179 C 
ATOM     11  C   UNL     1      26.641  35.927  17.099  1.00  0.00     0.282 C 
ATOM     12  O   UNL     1      25.748  35.656  18.117  1.00  0.00    -0.341 OA
ATOM     13  C   UNL     1      26.135  37.038  16.267  1.00  0.00     0.202 C 
ATOM     14  C   UNL     1      24.770  36.838  15.684  1.00  0.00     0.179 C 
ATOM     15  C   UNL     1      24.066  35.754  16.457  1.00  0.00     0.177 C 
BRANCH  11  16
ATOM     16  O   UNL     1      26.903  34.723  16.484  1.00  0.00    -0.341 OA
BRANCH  16  17
ATOM     17  C   UNL     1      28.205  34.376  16.378  1.00  0.00     0.184 C 
ATOM     18  C   UNL     1      28.542  33.918  14.993  1.00  0.00     0.178 C 
ATOM     19  O   UNL     1      29.955  33.963  14.926  1.00  0.00    -0.341 OA
ATOM     20  C   UNL     1      30.492  32.914  15.676  1.00  0.00     0.281 C 
ATOM     21  C   UNL     1      28.578  33.197  17.283  1.00  0.00     0.180 C 
ATOM     22  C   UNL     1      30.058  32.929  17.104  1.00  0.00     0.202 C 
BRANCH  18  23
ATOM     23  C   UNL     1      27.974  34.745  13.896  1.00  0.00     0.191 C 
BRANCH  23  24
ATOM     24  O   UNL     1      26.608  34.491  13.792  1.00  0.00    -0.394 OA
ATOM     25  H   UNL     1      26.258  34.118  14.659  1.00  0.00     0.210 HD
ENDBRANCH  23  24
ENDBRANCH  18  23
BRANCH  20  26
ATOM     26  O   UNL     1      31.878  33.036  15.627  1.00  0.00    -0.350 OA
BRANCH  26  27
ATOM     27  C   UNL     1      32.274  34.246  15.063  1.00  0.00     0.169 C 
BRANCH  27  28
ATOM     28  C   UNL     1      32.985  35.047  16.130  1.00  0.00     0.119 C 
BRANCH  28  29
ATOM     29  N   UNL     1      32.053  35.963  16.743  1.00  0.00    -0.092 NA
ATOM     30  N   UNL     1      31.267  36.625  16.041  1.00  0.00     0.001 N 
ATOM     31  N   UNL     1      30.785  37.556  15.378  1.00  0.00    -0.003 NA
ENDBRANCH  28  29
ENDBRANCH  27  28
ENDBRANCH  26  27
ENDBRANCH  20  26
BRANCH  21  32
ATOM     32  O   UNL     1      28.379  33.481  18.628  1.00  0.00    -0.387 OA
ATOM     33  H   UNL     1      27.423  33.286  18.800  1.00  0.00     0.211 HD
ENDBRANCH  21  32
BRANCH  22  34
ATOM     34  O   UNL     1      30.276  31.630  17.617  1.00  0.00    -0.385 OA
ATOM     35  H   UNL     1      30.578  31.004  16.921  1.00  0.00     0.211 HD
ENDBRANCH  22  34
ENDBRANCH  16  17
ENDBRANCH  11  16
BRANCH  13  36
ATOM     36  O   UNL     1      26.074  38.221  17.060  1.00  0.00    -0.385 OA
ATOM     37  H   UNL     1      26.671  38.913  16.660  1.00  0.00     0.211 HD
ENDBRANCH  13  36
BRANCH  14  38
ATOM     38  O   UNL     1      24.774  36.574  14.312  1.00  0.00    -0.387 OA
ATOM     39  H   UNL     1      24.416  37.335  13.789  1.00  0.00     0.211 HD
ENDBRANCH  14  38
BRANCH  15  40
ATOM     40  O   UNL     1      24.415  34.525  15.935  1.00  0.00    -0.387 OA
ATOM     41  H   UNL     1      23.674  33.849  16.028  1.00  0.00     0.211 HD
ENDBRANCH  15  40
ENDBRANCH   9  10
ENDBRANCH   8   9
ENDBRANCH   3   8
BRANCH   3  42
ATOM     42  C   UNL     1      22.595  32.119  17.724  1.00  0.00     0.364 C 
ATOM     43  O   UNL     1      22.090  32.427  16.630  1.00  0.00    -0.246 OA
BRANCH  42  44
ATOM     44  O   UNL     1      21.703  31.454  18.601  1.00  0.00    -0.477 OA
ATOM     45  H   UNL     1      20.806  31.130  18.207  1.00  0.00     0.296 HD
ENDBRANCH  42  44
ENDBRANCH   3  42
BRANCH   6  46
ATOM     46  O   UNL     1      25.827  32.863  19.956  1.00  0.00    -0.391 OA
ATOM     47  H   UNL     1      25.305  33.360  19.267  1.00  0.00     0.211 HD
ENDBRANCH   6  46
BRANCH   7  48
ATOM     48  N   UNL     1      27.194  29.767  19.057  1.00  0.00    -0.348 N 
ATOM     49  C   UNL     1      26.753  28.493  19.428  1.00  0.00     0.217 C 
ATOM     50  H   UNL     1      28.274  29.877  19.064  1.00  0.00     0.163 HD
ATOM     51  C   UNL     1      27.782  27.430  19.766  1.00  0.00     0.114 C 
ATOM     52  O   UNL     1      25.542  28.154  19.503  1.00  0.00    -0.275 OA
ENDBRANCH   7  48
ENDBRANCH   1   2
BRANCH   1  53
ATOM     53  O   UNL     1      26.708  29.173  16.190  1.00  0.00    -0.388 OA
ATOM     54  H   UNL     1      27.296  28.840  16.891  1.00  0.00     0.211 HD
ENDBRANCH   1  53
BRANCH   1  55
ATOM     55  C   UNL     1      25.658  30.861  14.978  1.00  0.00     0.165 C 
BRANCH  55  56
ATOM     56  O   UNL     1      25.536  32.204  14.749  1.00  0.00    -0.388 OA
ATOM     57  H   UNL     1      25.442  32.754  15.561  1.00  0.00     0.211 HD
ENDBRANCH  55  56
BRANCH  55  58
ATOM     58  C   UNL     1      24.337  30.161  14.917  1.00  0.00     0.154 C 
BRANCH  58  59
ATOM     59  N   UNL     1      23.307  31.003  14.423  1.00  0.00    -0.319 N 
ATOM     60  C   UNL     1      22.696  30.806  13.163  1.00  0.00     0.407 C 
ATOM     61  H   UNL     1      22.958  31.820  14.992  1.00  0.00     0.167 HD
ATOM     62  O   UNL     1      23.050  29.858  12.410  1.00  0.00    -0.225 OA
BRANCH  60  63
ATOM     63  O   UNL     1      21.682  31.633  12.688  1.00  0.00    -0.443 OA
BRANCH  63  64
ATOM     64  C   UNL     1      21.625  32.954  13.238  1.00  0.00     0.294 C 
BRANCH  64  65
ATOM     65  C   UNL     1      22.625  33.765  12.520  1.00  0.00     0.121 A 
ATOM     66  C   UNL     1      22.458  34.470  11.331  1.00  0.00     0.144 A 
ATOM     67  N   UNL     1      23.895  33.977  12.901  1.00  0.00    -0.131 NA
ATOM     68  N   UNL     1      23.630  35.080  11.041  1.00  0.00    -0.220 N 
ATOM     69  N   UNL     1      24.473  34.764  12.004  1.00  0.00    -0.062 NA
BRANCH  68  70
ATOM     70  C   UNL     1      23.829  35.899   9.901  1.00  0.00     0.067 A 
ATOM     71  C   UNL     1      25.113  36.059   9.379  1.00  0.00     0.036 A 
ATOM     72  C   UNL     1      22.796  36.536   9.299  1.00  0.00     0.028 A 
ATOM     73  C   UNL     1      25.354  36.833   8.287  1.00  0.00    -0.023 A 
ATOM     74  C   UNL     1      22.995  37.339   8.178  1.00  0.00     0.003 A 
ATOM     75  C   UNL     1      24.278  37.467   7.698  1.00  0.00     0.008 A 
BRANCH  73  76
ATOM     76  C   UNL     1      26.685  37.002   7.746  1.00  0.00     0.015 C 
ATOM     77  C   UNL     1      27.215  36.106   6.952  1.00  0.00     0.094 C 
BRANCH  77  78
ATOM     78  C   UNL     1      28.565  36.320   6.427  1.00  0.00     0.328 C 
ATOM     79  O   UNL     1      29.260  35.377   6.032  1.00  0.00    -0.247 OA
BRANCH  78  80
ATOM     80  O   UNL     1      29.098  37.605   6.362  1.00  0.00    -0.478 OA
ATOM     81  H   UNL     1      28.543  38.318   5.884  1.00  0.00     0.297 HD
ENDBRANCH  78  80
ENDBRANCH  77  78
ENDBRANCH  73  76
ENDBRANCH  68  70
ENDBRANCH  64  65
ENDBRANCH  63  64
ENDBRANCH  60  63
ENDBRANCH  58  59
ENDBRANCH  55  58
ENDBRANCH   1  55
TORSDOF 33
BEGIN_RES LYS A 131
REMARK  4 active torsions:
REMARK  status: ('A' for Active; 'I' for Inactive)
REMARK    1  A    between atoms: CA   and  CB  
REMARK    2  A    between atoms: CB   and  CG  
REMARK    3  A    between atoms: CG   and  CD  
REMARK    4  A    between atoms: CD   and  CE  
ROOT
ATOM      1  CA  LYS A 131      29.867  25.555  16.977  1.00 20.52     0.186 C 
ENDROOT
BRANCH   1   2
ATOM      2  CB  LYS A 131      28.345  25.722  17.026  1.00 20.94     0.034 C 
BRANCH   2   3
ATOM      3  CG  LYS A 131      27.602  24.398  16.929  1.00 22.96     0.005 C 
BRANCH   3   4
ATOM      4  CD  LYS A 131      26.163  24.525  17.345  1.00 24.33     0.041 C 
BRANCH   4   5
ATOM      5  CE  LYS A 131      25.927  23.714  18.615  1.00 26.91     0.338 C 
ATOM      6  NZ  LYS A 131      25.474  24.595  19.717  1.00 27.40     0.618 N 
ENDBRANCH   4   5
ENDBRANCH   3   4
ENDBRANCH   2   3
ENDBRANCH   1   2
END_RES LYS A 131
BEGIN_RES LYS A 135
REMARK  4 active torsions:
REMARK  status: ('A' for Active; 'I' for Inactive)
REMARK    5  A    between atoms: CA   and  CB  
REMARK    6  A    between atoms: CB   and  CG  
REMARK    7  A    between atoms: CG   and  CD  
REMARK    8  A    between atoms: CD   and  CE  
ROOT
ATOM      7  CA  LYS A 135      33.193  34.663   9.290  1.00 25.02     0.186 C 
ENDROOT
BRANCH   7   8
ATOM      8  CB  LYS A 135      32.060  35.360  10.034  1.00 26.63     0.034 C 
BRANCH   8   9
ATOM      9  CG  LYS A 135      30.771  35.413   9.255  1.00 29.45     0.005 C 
BRANCH   9  10
ATOM     10  CD  LYS A 135      30.200  34.016   9.067  1.00 32.00     0.041 C 
BRANCH  10  11
ATOM     11  CE  LYS A 135      28.732  33.985   9.447  1.00 34.25     0.338 C 
ATOM     12  NZ  LYS A 135      28.399  35.088  10.391  1.00 35.99     0.618 N 
ENDBRANCH  10  11
ENDBRANCH   9  10
ENDBRANCH   8   9
ENDBRANCH   7   8
END_RES LYS A 135
