REMARK VINA RESULT:    -4.074      3.457      8.496
REMARK INTER + INTRA:         -22.654
REMARK INTER:                 -10.945
REMARK INTRA:                 -11.709
REMARK UNBOUND:               -12.269
REMARK SMILES CC(=O)N[C@@H]1[C@@H](O)C[C@](OC[C@H]2O[C@@H](O[C@H]3[C@H](O)[C@@H](O)[C@H](OCCN=[N+]=[N-])O[C@@H]3CO)[C@H](O)[C@@H](O)[C@H]2O)(C(=O)O)O[C@H]1C(O)[C@H](O)CNC(=O)OCc1cn(-c2cccc(S(N)(=O)=O)c2)nn1
REMARK SMILES IDX 9 1 8 2 6 3 5 4 42 5 41 6 10 7 11 8 12 9 14 10 13 11 32 12
REMARK SMILES IDX 34 13 36 14 15 15 16 16 29 17 28 18 21 19 17 20 19 21 30 22
REMARK SMILES IDX 31 23 22 25 23 26 24 27 25 28 26 29 27 30 18 31 20 33 33 35
REMARK SMILES IDX 35 37 37 39 38 41 39 42 40 43 7 45 43 47 44 48 45 50 46 51
REMARK SMILES IDX 47 53 48 54 49 55 50 57 51 58 52 59 53 60 54 61 67 62 55 63
REMARK SMILES IDX 66 64 56 65 65 66 57 67 60 68 58 69 59 70 61 71 63 72 64 73
REMARK SMILES IDX 62 74 4 77 2 78 1 80 3 81
REMARK H PARENT 31 24 18 32 20 34 33 36 35 38 37 40 40 44 7 46 44 49 46 52
REMARK H PARENT 48 56 62 75 62 76 4 79
REMARK Flexibility Score: inf
ROOT
ATOM      1  C   UNL     1      27.333  38.215   6.663  1.00  0.00     0.272 C 
ATOM      2  C   UNL     1      28.362  38.214   7.811  1.00  0.00     0.113 C 
ATOM      3  C   UNL     1      29.330  39.317   7.561  1.00  0.00     0.145 C 
ATOM      4  C   UNL     1      28.636  40.630   7.486  1.00  0.00     0.142 C 
ATOM      5  C   UNL     1      27.264  40.537   6.918  1.00  0.00     0.178 C 
ATOM      6  O   UNL     1      26.664  39.364   6.691  1.00  0.00    -0.332 OA
ENDROOT
BRANCH   1   7
ATOM      7  O   UNL     1      26.499  37.114   6.993  1.00  0.00    -0.338 OA
BRANCH   7   8
ATOM      8  C   UNL     1      26.237  37.148   8.328  1.00  0.00     0.199 C 
BRANCH   8   9
ATOM      9  C   UNL     1      24.775  36.925   8.650  1.00  0.00     0.179 C 
ATOM     10  C   UNL     1      23.385  36.902  10.401  1.00  0.00     0.282 C 
ATOM     11  O   UNL     1      24.365  37.686   9.742  1.00  0.00    -0.341 OA
ATOM     12  C   UNL     1      22.384  36.353   9.452  1.00  0.00     0.202 C 
ATOM     13  C   UNL     1      22.423  36.949   8.067  1.00  0.00     0.179 C 
ATOM     14  C   UNL     1      23.830  37.147   7.534  1.00  0.00     0.177 C 
BRANCH  10  15
ATOM     15  O   UNL     1      22.893  37.546  11.508  1.00  0.00    -0.341 OA
BRANCH  15  16
ATOM     16  C   UNL     1      22.870  36.800  12.663  1.00  0.00     0.184 C 
ATOM     17  C   UNL     1      22.668  37.720  13.843  1.00  0.00     0.178 C 
ATOM     18  O   UNL     1      23.499  37.354  14.909  1.00  0.00    -0.341 OA
ATOM     19  C   UNL     1      24.783  37.730  14.592  1.00  0.00     0.281 C 
ATOM     20  C   UNL     1      24.201  36.087  12.750  1.00  0.00     0.180 C 
ATOM     21  C   UNL     1      25.254  36.881  13.455  1.00  0.00     0.202 C 
BRANCH  17  22
ATOM     22  C   UNL     1      21.268  37.728  14.371  1.00  0.00     0.191 C 
BRANCH  22  23
ATOM     23  O   UNL     1      21.210  37.174  15.665  1.00  0.00    -0.394 OA
ATOM     24  H   UNL     1      20.517  36.474  15.721  1.00  0.00     0.210 HD
ENDBRANCH  22  23
ENDBRANCH  17  22
BRANCH  19  25
ATOM     25  O   UNL     1      25.666  37.573  15.660  1.00  0.00    -0.350 OA
BRANCH  25  26
ATOM     26  C   UNL     1      26.577  38.583  15.810  1.00  0.00     0.169 C 
BRANCH  26  27
ATOM     27  C   UNL     1      28.018  38.125  15.888  1.00  0.00     0.119 C 
BRANCH  27  28
ATOM     28  N   UNL     1      28.111  36.736  16.295  1.00  0.00    -0.092 NA
ATOM     29  N   UNL     1      29.051  36.303  16.955  1.00  0.00     0.001 N 
ATOM     30  N   UNL     1      29.940  35.771  17.597  1.00  0.00    -0.003 NA
ENDBRANCH  27  28
ENDBRANCH  26  27
ENDBRANCH  25  26
ENDBRANCH  19  25
BRANCH  20  31
ATOM     31  O   UNL     1      24.018  34.893  13.471  1.00  0.00    -0.387 OA
ATOM     32  H   UNL     1      23.206  34.406  13.188  1.00  0.00     0.211 HD
ENDBRANCH  20  31
BRANCH  21  33
ATOM     33  O   UNL     1      25.913  37.733  12.537  1.00  0.00    -0.385 OA
ATOM     34  H   UNL     1      26.844  37.417  12.469  1.00  0.00     0.211 HD
ENDBRANCH  21  33
ENDBRANCH  15  16
ENDBRANCH  10  15
BRANCH  12  35
ATOM     35  O   UNL     1      22.399  34.938   9.382  1.00  0.00    -0.385 OA
ATOM     36  H   UNL     1      22.743  34.665  10.292  1.00  0.00     0.211 HD
ENDBRANCH  12  35
BRANCH  13  37
ATOM     37  O   UNL     1      21.630  38.077   7.966  1.00  0.00    -0.387 OA
ATOM     38  H   UNL     1      21.055  37.941   7.146  1.00  0.00     0.211 HD
ENDBRANCH  13  37
BRANCH  14  39
ATOM     39  O   UNL     1      23.925  38.479   7.117  1.00  0.00    -0.387 OA
ATOM     40  H   UNL     1      23.196  38.726   6.495  1.00  0.00     0.211 HD
ENDBRANCH  14  39
ENDBRANCH   8   9
ENDBRANCH   7   8
ENDBRANCH   1   7
BRANCH   1  41
ATOM     41  C   UNL     1      28.105  37.900   5.436  1.00  0.00     0.364 C 
ATOM     42  O   UNL     1      27.772  38.493   4.346  1.00  0.00    -0.246 OA
BRANCH  41  43
ATOM     43  O   UNL     1      29.154  37.035   5.328  1.00  0.00    -0.477 OA
ATOM     44  H   UNL     1      29.592  36.795   4.430  1.00  0.00     0.296 HD
ENDBRANCH  41  43
ENDBRANCH   1  41
BRANCH   3  45
ATOM     45  O   UNL     1      30.236  39.284   8.658  1.00  0.00    -0.391 OA
ATOM     46  H   UNL     1      31.106  39.601   8.258  1.00  0.00     0.211 HD
ENDBRANCH   3  45
BRANCH   5  47
ATOM     47  C   UNL     1      26.345  41.430   7.786  1.00  0.00     0.176 C 
BRANCH  47  48
ATOM     48  O   UNL     1      27.016  42.606   8.068  1.00  0.00    -0.388 OA
ATOM     49  H   UNL     1      26.968  43.296   7.386  1.00  0.00     0.211 HD
ENDBRANCH  47  48
BRANCH  47  50
ATOM     50  C   UNL     1      25.832  40.673   8.949  1.00  0.00     0.165 C 
BRANCH  50  51
ATOM     51  O   UNL     1      24.452  40.530   8.827  1.00  0.00    -0.388 OA
ATOM     52  H   UNL     1      24.117  40.479   9.767  1.00  0.00     0.211 HD
ENDBRANCH  50  51
BRANCH  50  53
ATOM     53  C   UNL     1      26.098  41.380  10.268  1.00  0.00     0.154 C 
BRANCH  53  54
ATOM     54  N   UNL     1      26.613  40.405  11.201  1.00  0.00    -0.319 N 
ATOM     55  C   UNL     1      28.041  40.291  11.392  1.00  0.00     0.407 C 
ATOM     56  H   UNL     1      25.993  39.766  11.748  1.00  0.00     0.167 HD
ATOM     57  O   UNL     1      28.841  41.026  10.758  1.00  0.00    -0.225 OA
BRANCH  55  58
ATOM     58  O   UNL     1      28.463  39.343  12.300  1.00  0.00    -0.443 OA
BRANCH  58  59
ATOM     59  C   UNL     1      29.593  38.558  12.059  1.00  0.00     0.294 C 
BRANCH  59  60
ATOM     60  C   UNL     1      29.363  37.145  12.397  1.00  0.00     0.121 A 
ATOM     61  C   UNL     1      30.089  36.449  13.375  1.00  0.00     0.144 A 
ATOM     62  N   UNL     1      28.488  36.282  11.896  1.00  0.00    -0.131 NA
ATOM     63  N   UNL     1      29.613  35.210  13.408  1.00  0.00    -0.220 N 
ATOM     64  N   UNL     1      28.662  35.133  12.521  1.00  0.00    -0.062 NA
BRANCH  63  65
ATOM     65  C   UNL     1      30.098  34.193  14.296  1.00  0.00     0.068 A 
ATOM     66  C   UNL     1      29.199  33.244  14.788  1.00  0.00     0.050 A 
ATOM     67  C   UNL     1      31.411  34.144  14.657  1.00  0.00     0.028 A 
ATOM     68  C   UNL     1      29.613  32.250  15.639  1.00  0.00     0.084 A 
ATOM     69  C   UNL     1      31.833  33.166  15.498  1.00  0.00     0.004 A 
ATOM     70  C   UNL     1      30.952  32.206  16.002  1.00  0.00     0.022 A 
BRANCH  68  71
ATOM     71  S   UNL     1      28.548  31.036  16.288  1.00  0.00     0.238 S 
ATOM     72  O   UNL     1      28.964  30.737  17.701  1.00  0.00    -0.207 OA
ATOM     73  O   UNL     1      28.638  29.780  15.484  1.00  0.00    -0.207 OA
BRANCH  71  74
ATOM     74  N   UNL     1      26.922  31.654  16.263  1.00  0.00    -0.225 NA
ATOM     75  H   UNL     1      26.375  31.112  15.557  1.00  0.00     0.137 HD
ATOM     76  H   UNL     1      26.902  32.685  16.118  1.00  0.00     0.137 HD
ENDBRANCH  71  74
ENDBRANCH  68  71
ENDBRANCH  63  65
ENDBRANCH  59  60
ENDBRANCH  58  59
ENDBRANCH  55  58
ENDBRANCH  53  54
ENDBRANCH  50  53
ENDBRANCH  47  50
ENDBRANCH   5  47
BRANCH   4  77
ATOM     77  N   UNL     1      29.446  41.492   6.611  1.00  0.00    -0.348 N 
ATOM     78  C   UNL     1      30.153  42.627   7.092  1.00  0.00     0.217 C 
ATOM     79  H   UNL     1      29.508  41.268   5.597  1.00  0.00     0.163 HD
ATOM     80  C   UNL     1      30.956  43.457   6.159  1.00  0.00     0.114 C 
ATOM     81  O   UNL     1      30.073  42.897   8.326  1.00  0.00    -0.275 OA
ENDBRANCH   4  77
TORSDOF 32
BEGIN_RES LYS A 131
REMARK  4 active torsions:
REMARK  status: ('A' for Active; 'I' for Inactive)
REMARK    1  A    between atoms: CA   and  CB  
REMARK    2  A    between atoms: CB   and  CG  
REMARK    3  A    between atoms: CG   and  CD  
REMARK    4  A    between atoms: CD   and  CE  
ROOT
ATOM      1  CA  LYS A 131      29.867  25.555  16.977  1.00 20.52     0.186 C 
ENDROOT
BRANCH   1   2
ATOM      2  CB  LYS A 131      28.345  25.722  17.026  1.00 20.94     0.034 C 
BRANCH   2   3
ATOM      3  CG  LYS A 131      27.601  24.402  16.890  1.00 22.96     0.005 C 
BRANCH   3   4
ATOM      4  CD  LYS A 131      26.151  24.528  17.266  1.00 24.33     0.041 C 
BRANCH   4   5
ATOM      5  CE  LYS A 131      26.028  24.667  18.780  1.00 26.91     0.338 C 
ATOM      6  NZ  LYS A 131      25.516  23.410  19.376  1.00 27.40     0.618 N 
ENDBRANCH   4   5
ENDBRANCH   3   4
ENDBRANCH   2   3
ENDBRANCH   1   2
END_RES LYS A 131
BEGIN_RES LYS A 135
REMARK  4 active torsions:
REMARK  status: ('A' for Active; 'I' for Inactive)
REMARK    5  A    between atoms: CA   and  CB  
REMARK    6  A    between atoms: CB   and  CG  
REMARK    7  A    between atoms: CG   and  CD  
REMARK    8  A    between atoms: CD   and  CE  
ROOT
ATOM      7  CA  LYS A 135      33.193  34.663   9.290  1.00 25.02     0.186 C 
ENDROOT
BRANCH   7   8
ATOM      8  CB  LYS A 135      32.060  35.360  10.034  1.00 26.63     0.034 C 
BRANCH   8   9
ATOM      9  CG  LYS A 135      30.865  35.660   9.167  1.00 29.45     0.005 C 
BRANCH   9  10
ATOM     10  CD  LYS A 135      30.305  34.382   8.562  1.00 32.00     0.041 C 
BRANCH  10  11
ATOM     11  CE  LYS A 135      28.804  34.492   8.379  1.00 34.25     0.338 C 
ATOM     12  NZ  LYS A 135      28.077  33.747   9.444  1.00 35.99     0.618 N 
ENDBRANCH  10  11
ENDBRANCH   9  10
ENDBRANCH   8   9
ENDBRANCH   7   8
END_RES LYS A 135
