REMARK VINA RESULT:    -5.047      2.722      6.615
REMARK INTER + INTRA:         -24.336
REMARK INTER:                 -12.003
REMARK INTRA:                 -12.333
REMARK UNBOUND:               -11.174
REMARK SMILES CC(=O)N[C@@H]1[C@@H](O)C[C@](OC[C@H]2O[C@@H](O[C@H]3[C@H](O)[C@@H](O)[C@H](OCCN=[N+]=[N-])O[C@@H]3CO)[C@H](O)[C@@H](O)[C@H]2O)(C(=O)O)O[C@H]1C(O)[C@H](O)CNC(=O)OCc1cn(-c2cc(C(=O)O)nc(-c3ccccc3)c2)nn1
REMARK SMILES IDX 9 1 8 2 6 3 5 4 42 5 41 6 10 7 11 8 12 9 14 10 13 11 32 12
REMARK SMILES IDX 34 13 36 14 15 15 16 16 29 17 28 18 21 19 17 20 19 21 30 22
REMARK SMILES IDX 31 23 22 25 23 26 24 27 25 28 26 29 27 30 18 31 20 33 33 35
REMARK SMILES IDX 35 37 37 39 38 41 39 42 40 43 7 45 43 47 44 48 45 50 46 51
REMARK SMILES IDX 47 53 48 54 49 55 50 57 51 58 52 59 53 60 54 61 72 62 55 63
REMARK SMILES IDX 71 64 56 65 57 66 70 67 58 68 63 69 62 70 59 71 60 72 61 73
REMARK SMILES IDX 64 75 65 76 69 77 66 78 68 79 67 80 4 81 2 82 1 84 3 85
REMARK H PARENT 31 24 18 32 20 34 33 36 35 38 37 40 40 44 7 46 44 49 46 52
REMARK H PARENT 48 56 61 74 4 83
REMARK Flexibility Score: inf
ROOT
ATOM      1  C   UNL     1      27.442  33.579  18.553  1.00  0.00     0.272 C 
ATOM      2  C   UNL     1      27.320  32.779  19.865  1.00  0.00     0.113 C 
ATOM      3  C   UNL     1      28.612  32.558  20.564  1.00  0.00     0.145 C 
ATOM      4  C   UNL     1      29.760  32.225  19.618  1.00  0.00     0.142 C 
ATOM      5  C   UNL     1      29.088  32.064  18.251  1.00  0.00     0.178 C 
ATOM      6  O   UNL     1      28.650  33.323  17.906  1.00  0.00    -0.332 OA
ENDROOT
BRANCH   1   7
ATOM      7  O   UNL     1      27.396  34.884  18.925  1.00  0.00    -0.338 OA
BRANCH   7   8
ATOM      8  C   UNL     1      26.279  35.376  19.519  1.00  0.00     0.199 C 
BRANCH   8   9
ATOM      9  C   UNL     1      25.769  36.628  18.764  1.00  0.00     0.179 C 
ATOM     10  C   UNL     1      26.152  37.750  16.748  1.00  0.00     0.282 C 
ATOM     11  O   UNL     1      26.482  36.738  17.613  1.00  0.00    -0.341 OA
ATOM     12  C   UNL     1      24.818  38.337  17.168  1.00  0.00     0.202 C 
ATOM     13  C   UNL     1      23.772  37.289  17.458  1.00  0.00     0.179 C 
ATOM     14  C   UNL     1      24.321  36.305  18.428  1.00  0.00     0.177 C 
BRANCH  10  15
ATOM     15  O   UNL     1      26.091  37.214  15.475  1.00  0.00    -0.341 OA
BRANCH  15  16
ATOM     16  C   UNL     1      27.085  37.643  14.611  1.00  0.00     0.184 C 
ATOM     17  C   UNL     1      27.149  36.871  13.345  1.00  0.00     0.178 C 
ATOM     18  O   UNL     1      28.363  36.222  13.194  1.00  0.00    -0.341 OA
ATOM     19  C   UNL     1      28.696  35.455  14.308  1.00  0.00     0.281 C 
ATOM     20  C   UNL     1      28.370  37.676  15.386  1.00  0.00     0.180 C 
ATOM     21  C   UNL     1      29.173  36.423  15.368  1.00  0.00     0.202 C 
BRANCH  17  22
ATOM     22  C   UNL     1      27.007  37.816  12.170  1.00  0.00     0.191 C 
BRANCH  22  23
ATOM     23  O   UNL     1      27.200  39.136  12.532  1.00  0.00    -0.394 OA
ATOM     24  H   UNL     1      26.443  39.435  13.102  1.00  0.00     0.210 HD
ENDBRANCH  22  23
ENDBRANCH  17  22
BRANCH  19  25
ATOM     25  O   UNL     1      29.751  34.636  13.934  1.00  0.00    -0.350 OA
BRANCH  25  26
ATOM     26  C   UNL     1      30.961  35.330  13.894  1.00  0.00     0.169 C 
BRANCH  26  27
ATOM     27  C   UNL     1      32.071  34.491  14.476  1.00  0.00     0.119 C 
BRANCH  27  28
ATOM     28  N   UNL     1      32.692  35.209  15.566  1.00  0.00    -0.092 NA
ATOM     29  N   UNL     1      32.290  35.007  16.704  1.00  0.00     0.001 N 
ATOM     30  N   UNL     1      32.286  34.829  17.933  1.00  0.00    -0.003 NA
ENDBRANCH  27  28
ENDBRANCH  26  27
ENDBRANCH  25  26
ENDBRANCH  19  25
BRANCH  20  31
ATOM     31  O   UNL     1      29.174  38.684  14.804  1.00  0.00    -0.387 OA
ATOM     32  H   UNL     1      29.685  38.319  14.039  1.00  0.00     0.211 HD
ENDBRANCH  20  31
BRANCH  21  33
ATOM     33  O   UNL     1      29.120  35.845  16.653  1.00  0.00    -0.385 OA
ATOM     34  H   UNL     1      28.685  34.948  16.632  1.00  0.00     0.211 HD
ENDBRANCH  21  33
ENDBRANCH  15  16
ENDBRANCH  10  15
BRANCH  12  35
ATOM     35  O   UNL     1      24.910  39.176  18.271  1.00  0.00    -0.385 OA
ATOM     36  H   UNL     1      25.376  39.995  17.938  1.00  0.00     0.211 HD
ENDBRANCH  12  35
BRANCH  13  37
ATOM     37  O   UNL     1      23.428  36.716  16.234  1.00  0.00    -0.387 OA
ATOM     38  H   UNL     1      23.642  37.384  15.533  1.00  0.00     0.211 HD
ENDBRANCH  13  37
BRANCH  14  39
ATOM     39  O   UNL     1      24.295  35.047  17.792  1.00  0.00    -0.387 OA
ATOM     40  H   UNL     1      24.557  34.323  18.383  1.00  0.00     0.211 HD
ENDBRANCH  14  39
ENDBRANCH   8   9
ENDBRANCH   7   8
ENDBRANCH   1   7
BRANCH   1  41
ATOM     41  C   UNL     1      26.361  33.137  17.637  1.00  0.00     0.364 C 
ATOM     42  O   UNL     1      25.382  32.449  18.032  1.00  0.00    -0.246 OA
BRANCH  41  43
ATOM     43  O   UNL     1      26.396  33.474  16.302  1.00  0.00    -0.477 OA
ATOM     44  H   UNL     1      26.338  32.788  15.539  1.00  0.00     0.296 HD
ENDBRANCH  41  43
ENDBRANCH   1  41
BRANCH   3  45
ATOM     45  O   UNL     1      28.934  33.552  21.462  1.00  0.00    -0.391 OA
ATOM     46  H   UNL     1      29.383  33.153  22.235  1.00  0.00     0.211 HD
ENDBRANCH   3  45
BRANCH   5  47
ATOM     47  C   UNL     1      29.921  31.356  17.252  1.00  0.00     0.176 C 
BRANCH  47  48
ATOM     48  O   UNL     1      31.096  32.110  17.027  1.00  0.00    -0.388 OA
ATOM     49  H   UNL     1      31.187  32.814  17.744  1.00  0.00     0.211 HD
ENDBRANCH  47  48
BRANCH  47  50
ATOM     50  C   UNL     1      29.256  31.038  15.942  1.00  0.00     0.165 C 
BRANCH  50  51
ATOM     51  O   UNL     1      28.967  32.209  15.270  1.00  0.00    -0.388 OA
ATOM     52  H   UNL     1      27.990  32.360  15.170  1.00  0.00     0.211 HD
ENDBRANCH  50  51
BRANCH  50  53
ATOM     53  C   UNL     1      28.013  30.246  16.266  1.00  0.00     0.154 C 
BRANCH  53  54
ATOM     54  N   UNL     1      26.882  30.490  15.446  1.00  0.00    -0.319 N 
ATOM     55  C   UNL     1      25.601  29.968  15.762  1.00  0.00     0.407 C 
ATOM     56  H   UNL     1      26.962  31.069  14.574  1.00  0.00     0.167 HD
ATOM     57  O   UNL     1      25.464  29.259  16.777  1.00  0.00    -0.225 OA
BRANCH  55  58
ATOM     58  O   UNL     1      24.486  30.243  14.947  1.00  0.00    -0.443 OA
BRANCH  58  59
ATOM     59  C   UNL     1      23.625  31.291  15.316  1.00  0.00     0.294 C 
BRANCH  59  60
ATOM     60  C   UNL     1      23.908  32.520  14.538  1.00  0.00     0.121 A 
ATOM     61  C   UNL     1      24.233  32.673  13.211  1.00  0.00     0.144 A 
ATOM     62  N   UNL     1      23.928  33.795  15.023  1.00  0.00    -0.131 NA
ATOM     63  N   UNL     1      24.441  33.974  12.915  1.00  0.00    -0.220 N 
ATOM     64  N   UNL     1      24.243  34.633  14.057  1.00  0.00    -0.062 NA
BRANCH  63  65
ATOM     65  C   UNL     1      24.821  34.511  11.660  1.00  0.00     0.071 A 
ATOM     66  C   UNL     1      23.863  35.220  10.952  1.00  0.00     0.064 A 
ATOM     67  C   UNL     1      26.073  34.399  11.091  1.00  0.00     0.057 A 
ATOM     68  C   UNL     1      24.198  35.774   9.731  1.00  0.00     0.151 A 
ATOM     69  C   UNL     1      26.395  34.947   9.890  1.00  0.00     0.073 A 
ATOM     70  N   UNL     1      25.441  35.629   9.226  1.00  0.00    -0.241 NA
BRANCH  68  71
ATOM     71  C   UNL     1      23.215  36.527   8.965  1.00  0.00     0.354 C 
ATOM     72  O   UNL     1      22.223  35.907   8.505  1.00  0.00    -0.245 OA
BRANCH  71  73
ATOM     73  O   UNL     1      23.307  37.875   8.715  1.00  0.00    -0.477 OA
ATOM     74  H   UNL     1      24.171  38.325   8.387  1.00  0.00     0.297 HD
ENDBRANCH  71  73
ENDBRANCH  68  71
BRANCH  69  75
ATOM     75  C   UNL     1      27.727  34.821   9.310  1.00  0.00     0.000 A 
ATOM     76  C   UNL     1      28.751  34.345  10.126  1.00  0.00     0.010 A 
ATOM     77  C   UNL     1      28.029  35.143   8.019  1.00  0.00     0.010 A 
ATOM     78  C   UNL     1      30.032  34.193   9.666  1.00  0.00     0.001 A 
ATOM     79  C   UNL     1      29.327  34.986   7.565  1.00  0.00     0.001 A 
ATOM     80  C   UNL     1      30.336  34.520   8.356  1.00  0.00     0.000 A 
ENDBRANCH  69  75
ENDBRANCH  63  65
ENDBRANCH  59  60
ENDBRANCH  58  59
ENDBRANCH  55  58
ENDBRANCH  53  54
ENDBRANCH  50  53
ENDBRANCH  47  50
ENDBRANCH   5  47
BRANCH   4  81
ATOM     81  N   UNL     1      30.484  31.068  20.034  1.00  0.00    -0.348 N 
ATOM     82  C   UNL     1      31.557  31.192  20.953  1.00  0.00     0.217 C 
ATOM     83  H   UNL     1      30.209  30.135  19.651  1.00  0.00     0.163 HD
ATOM     84  C   UNL     1      32.346  30.024  21.422  1.00  0.00     0.114 C 
ATOM     85  O   UNL     1      31.887  32.336  21.417  1.00  0.00    -0.275 OA
ENDBRANCH   4  81
TORSDOF 33
BEGIN_RES LYS A 131
REMARK  4 active torsions:
REMARK  status: ('A' for Active; 'I' for Inactive)
REMARK    1  A    between atoms: CA   and  CB  
REMARK    2  A    between atoms: CB   and  CG  
REMARK    3  A    between atoms: CG   and  CD  
REMARK    4  A    between atoms: CD   and  CE  
ROOT
ATOM      1  CA  LYS A 131      29.867  25.555  16.977  1.00 20.52     0.186 C 
ENDROOT
BRANCH   1   2
ATOM      2  CB  LYS A 131      28.345  25.722  17.026  1.00 20.94     0.034 C 
BRANCH   2   3
ATOM      3  CG  LYS A 131      27.602  24.399  16.924  1.00 22.96     0.005 C 
BRANCH   3   4
ATOM      4  CD  LYS A 131      26.562  24.249  17.999  1.00 24.33     0.041 C 
BRANCH   4   5
ATOM      5  CE  LYS A 131      25.989  25.619  18.348  1.00 26.91     0.338 C 
ATOM      6  NZ  LYS A 131      25.881  25.777  19.818  1.00 27.40     0.618 N 
ENDBRANCH   4   5
ENDBRANCH   3   4
ENDBRANCH   2   3
ENDBRANCH   1   2
END_RES LYS A 131
BEGIN_RES LYS A 135
REMARK  4 active torsions:
REMARK  status: ('A' for Active; 'I' for Inactive)
REMARK    5  A    between atoms: CA   and  CB  
REMARK    6  A    between atoms: CB   and  CG  
REMARK    7  A    between atoms: CG   and  CD  
REMARK    8  A    between atoms: CD   and  CE  
ROOT
ATOM      7  CA  LYS A 135      33.193  34.663   9.290  1.00 25.02     0.186 C 
ENDROOT
BRANCH   7   8
ATOM      8  CB  LYS A 135      32.060  35.360  10.034  1.00 26.63     0.034 C 
BRANCH   8   9
ATOM      9  CG  LYS A 135      32.531  36.442  10.972  1.00 29.45     0.005 C 
BRANCH   9  10
ATOM     10  CD  LYS A 135      31.886  37.774  10.621  1.00 32.00     0.041 C 
BRANCH  10  11
ATOM     11  CE  LYS A 135      30.387  37.715  10.844  1.00 34.25     0.338 C 
ATOM     12  NZ  LYS A 135      29.645  38.060   9.600  1.00 35.99     0.618 N 
ENDBRANCH  10  11
ENDBRANCH   9  10
ENDBRANCH   8   9
ENDBRANCH   7   8
END_RES LYS A 135
