REMARK VINA RESULT:    -4.203      3.816      7.382
REMARK INTER + INTRA:         -24.400
REMARK INTER:                 -14.740
REMARK INTRA:                  -9.660
REMARK UNBOUND:               -13.073
REMARK SMILES CC(=O)N[C@@H]1[C@@H](O)C[C@](OC[C@H]2O[C@@H](O[C@H]3[C@H](O)[C@@H](O)[C@H](OCCN=[N+]=[N-])O[C@@H]3CO)[C@H](O)[C@@H](O)[C@H]2O)(C(=O)O)O[C@H]1C(O)[C@H](O)CNC(=O)OCc1cn(C[C@@H](C)CN2CCN(c3ccc(Cl)cc3)CC2)nn1
REMARK SMILES IDX 43 1 42 2 9 3 8 4 41 5 6 6 5 7 10 8 11 9 12 10 14 11 13 12
REMARK SMILES IDX 32 13 34 14 36 15 15 16 16 17 29 18 28 19 21 20 17 21 19 22
REMARK SMILES IDX 30 23 31 24 22 26 23 27 24 28 25 29 26 30 27 31 18 32 20 34
REMARK SMILES IDX 33 36 35 38 37 40 38 42 39 43 40 44 7 46 4 48 2 49 1 51 3 52
REMARK SMILES IDX 44 53 45 55 46 56 47 58 48 59 49 60 50 62 51 63 52 64 53 65
REMARK SMILES IDX 54 66 74 67 55 68 73 69 56 70 57 71 58 72 59 73 60 74 61 75
REMARK SMILES IDX 72 76 62 77 71 78 63 79 64 80 65 81 70 82 66 83 69 84 67 85
REMARK SMILES IDX 68 86
REMARK H PARENT 31 25 18 33 20 35 33 37 35 39 37 41 40 45 7 47 4 50 44 54
REMARK H PARENT 46 57 48 61
REMARK Flexibility Score: inf
ROOT
ATOM      1  C   UNL     1      28.186  37.672   5.638  1.00  0.00     0.176 C 
ENDROOT
BRANCH   1   2
ATOM      2  C   UNL     1      28.267  38.902   6.530  1.00  0.00     0.178 C 
ATOM      3  C   UNL     1      26.979  40.481   7.726  1.00  0.00     0.272 C 
ATOM      4  C   UNL     1      28.143  41.335   7.611  1.00  0.00     0.113 C 
ATOM      5  O   UNL     1      27.042  39.438   6.750  1.00  0.00    -0.332 OA
ATOM      6  C   UNL     1      28.807  41.264   6.249  1.00  0.00     0.145 C 
ATOM      7  C   UNL     1      29.347  39.835   6.098  1.00  0.00     0.142 C 
BRANCH   3   8
ATOM      8  O   UNL     1      25.744  40.958   7.599  1.00  0.00    -0.338 OA
BRANCH   8   9
ATOM      9  C   UNL     1      24.801  40.613   6.763  1.00  0.00     0.199 C 
BRANCH   9  10
ATOM     10  C   UNL     1      23.554  39.889   7.179  1.00  0.00     0.179 C 
ATOM     11  C   UNL     1      23.036  38.480   8.967  1.00  0.00     0.282 C 
ATOM     12  O   UNL     1      23.780  38.717   7.842  1.00  0.00    -0.341 OA
ATOM     13  C   UNL     1      23.382  39.518  10.017  1.00  0.00     0.202 C 
ATOM     14  C   UNL     1      23.089  40.871   9.455  1.00  0.00     0.179 C 
ATOM     15  C   UNL     1      22.698  40.851   8.016  1.00  0.00     0.177 C 
BRANCH  11  16
ATOM     16  O   UNL     1      23.463  37.224   9.460  1.00  0.00    -0.341 OA
BRANCH  16  17
ATOM     17  C   UNL     1      22.416  36.338   9.429  1.00  0.00     0.184 C 
ATOM     18  C   UNL     1      21.155  36.943   8.848  1.00  0.00     0.178 C 
ATOM     19  O   UNL     1      20.146  37.131   9.741  1.00  0.00    -0.341 OA
ATOM     20  C   UNL     1      19.743  36.019  10.459  1.00  0.00     0.281 C 
ATOM     21  C   UNL     1      22.143  35.735  10.803  1.00  0.00     0.180 C 
ATOM     22  C   UNL     1      20.825  35.002  10.700  1.00  0.00     0.202 C 
BRANCH  18  23
ATOM     23  C   UNL     1      20.714  36.230   7.579  1.00  0.00     0.191 C 
BRANCH  23  24
ATOM     24  O   UNL     1      20.919  34.875   7.644  1.00  0.00    -0.394 OA
ATOM     25  H   UNL     1      21.093  34.561   6.705  1.00  0.00     0.210 HD
ENDBRANCH  23  24
ENDBRANCH  18  23
BRANCH  20  26
ATOM     26  O   UNL     1      18.632  35.400   9.899  1.00  0.00    -0.350 OA
BRANCH  26  27
ATOM     27  C   UNL     1      17.498  36.157   9.836  1.00  0.00     0.169 C 
BRANCH  27  28
ATOM     28  C   UNL     1      16.952  36.239   8.439  1.00  0.00     0.119 C 
BRANCH  28  29
ATOM     29  N   UNL     1      17.379  37.489   7.832  1.00  0.00    -0.092 NA
ATOM     30  N   UNL     1      17.013  38.568   8.333  1.00  0.00     0.001 N 
ATOM     31  N   UNL     1      16.584  39.553   8.920  1.00  0.00    -0.003 NA
ENDBRANCH  28  29
ENDBRANCH  27  28
ENDBRANCH  26  27
ENDBRANCH  20  26
BRANCH  21  32
ATOM     32  O   UNL     1      23.119  34.797  11.133  1.00  0.00    -0.387 OA
ATOM     33  H   UNL     1      22.761  34.310  11.932  1.00  0.00     0.211 HD
ENDBRANCH  21  32
BRANCH  22  34
ATOM     34  O   UNL     1      20.568  34.387  11.949  1.00  0.00    -0.385 OA
ATOM     35  H   UNL     1      19.638  34.447  12.221  1.00  0.00     0.211 HD
ENDBRANCH  22  34
ENDBRANCH  16  17
ENDBRANCH  11  16
BRANCH  13  36
ATOM     36  O   UNL     1      22.661  39.227  11.162  1.00  0.00    -0.385 OA
ATOM     37  H   UNL     1      22.212  40.078  11.443  1.00  0.00     0.211 HD
ENDBRANCH  13  36
BRANCH  14  38
ATOM     38  O   UNL     1      24.122  41.792   9.677  1.00  0.00    -0.387 OA
ATOM     39  H   UNL     1      24.960  41.335   9.918  1.00  0.00     0.211 HD
ENDBRANCH  14  38
BRANCH  15  40
ATOM     40  O   UNL     1      22.777  42.105   7.463  1.00  0.00    -0.387 OA
ATOM     41  H   UNL     1      21.891  42.504   7.301  1.00  0.00     0.211 HD
ENDBRANCH  15  40
ENDBRANCH   9  10
ENDBRANCH   8   9
ENDBRANCH   3   8
BRANCH   3  42
ATOM     42  C   UNL     1      27.061  39.659   8.997  1.00  0.00     0.364 C 
ATOM     43  O   UNL     1      27.723  40.092  10.004  1.00  0.00    -0.246 OA
BRANCH  42  44
ATOM     44  O   UNL     1      26.464  38.436   9.166  1.00  0.00    -0.477 OA
ATOM     45  H   UNL     1      26.011  37.955   8.398  1.00  0.00     0.296 HD
ENDBRANCH  42  44
ENDBRANCH   3  42
BRANCH   6  46
ATOM     46  O   UNL     1      27.816  41.507   5.298  1.00  0.00    -0.391 OA
ATOM     47  H   UNL     1      28.028  42.299   4.747  1.00  0.00     0.211 HD
ENDBRANCH   6  46
BRANCH   7  48
ATOM     48  N   UNL     1      30.534  39.739   6.924  1.00  0.00    -0.348 N 
ATOM     49  C   UNL     1      31.819  39.872   6.340  1.00  0.00     0.217 C 
ATOM     50  H   UNL     1      30.490  39.568   7.966  1.00  0.00     0.163 HD
ATOM     51  C   UNL     1      33.027  39.766   7.233  1.00  0.00     0.114 C 
ATOM     52  O   UNL     1      32.001  40.075   5.106  1.00  0.00    -0.275 OA
ENDBRANCH   7  48
ENDBRANCH   1   2
BRANCH   1  53
ATOM     53  O   UNL     1      29.436  37.056   5.668  1.00  0.00    -0.388 OA
ATOM     54  H   UNL     1      30.006  37.364   4.926  1.00  0.00     0.211 HD
ENDBRANCH   1  53
BRANCH   1  55
ATOM     55  C   UNL     1      27.192  36.645   6.103  1.00  0.00     0.165 C 
BRANCH  55  56
ATOM     56  O   UNL     1      25.957  37.132   6.442  1.00  0.00    -0.388 OA
ATOM     57  H   UNL     1      25.550  37.664   5.738  1.00  0.00     0.211 HD
ENDBRANCH  55  56
BRANCH  55  58
ATOM     58  C   UNL     1      27.706  35.708   7.142  1.00  0.00     0.154 C 
BRANCH  58  59
ATOM     59  N   UNL     1      26.825  35.783   8.310  1.00  0.00    -0.319 N 
ATOM     60  C   UNL     1      26.791  34.750   9.275  1.00  0.00     0.407 C 
ATOM     61  H   UNL     1      26.214  36.616   8.425  1.00  0.00     0.167 HD
ATOM     62  O   UNL     1      27.537  33.755   9.101  1.00  0.00    -0.225 OA
BRANCH  60  63
ATOM     63  O   UNL     1      25.953  34.845  10.377  1.00  0.00    -0.443 OA
BRANCH  63  64
ATOM     64  C   UNL     1      26.510  34.576  11.664  1.00  0.00     0.294 C 
BRANCH  64  65
ATOM     65  C   UNL     1      27.537  35.571  12.050  1.00  0.00     0.120 A 
ATOM     66  C   UNL     1      28.771  35.320  12.605  1.00  0.00     0.138 A 
ATOM     67  N   UNL     1      27.463  36.918  11.938  1.00  0.00    -0.132 NA
ATOM     68  N   UNL     1      29.368  36.492  12.797  1.00  0.00    -0.252 N 
ATOM     69  N   UNL     1      28.573  37.457  12.393  1.00  0.00    -0.067 NA
BRANCH  68  70
ATOM     70  C   UNL     1      30.700  36.656  13.383  1.00  0.00     0.150 C 
BRANCH  70  71
ATOM     71  C   UNL     1      31.477  35.337  13.330  1.00  0.00     0.022 C 
ATOM     72  C   UNL     1      32.766  35.648  12.600  1.00  0.00     0.011 C 
BRANCH  71  73
ATOM     73  C   UNL     1      31.734  34.865  14.727  1.00  0.00     0.089 C 
BRANCH  73  74
ATOM     74  N   UNL     1      30.719  34.161  15.395  1.00  0.00    -0.299 NA
ATOM     75  C   UNL     1      30.645  34.143  16.794  1.00  0.00     0.106 C 
ATOM     76  C   UNL     1      30.221  33.014  14.706  1.00  0.00     0.106 C 
ATOM     77  C   UNL     1      30.549  32.726  17.360  1.00  0.00     0.132 C 
ATOM     78  C   UNL     1      28.992  32.488  15.426  1.00  0.00     0.132 C 
ATOM     79  N   UNL     1      29.434  32.032  16.718  1.00  0.00    -0.369 N 
BRANCH  79  80
ATOM     80  C   UNL     1      28.836  30.948  17.372  1.00  0.00     0.037 A 
ATOM     81  C   UNL     1      29.048  30.688  18.723  1.00  0.00     0.027 A 
ATOM     82  C   UNL     1      27.983  30.061  16.727  1.00  0.00     0.027 A 
ATOM     83  C   UNL     1      28.467  29.635  19.390  1.00  0.00     0.022 A 
ATOM     84  C   UNL     1      27.398  29.003  17.393  1.00  0.00     0.022 A 
ATOM     85  C   UNL     1      27.630  28.773  18.731  1.00  0.00     0.041 A 
ATOM     86  Cl  UNL     1      26.897  27.447  19.571  1.00  0.00    -0.084 Cl
ENDBRANCH  79  80
ENDBRANCH  73  74
ENDBRANCH  71  73
ENDBRANCH  70  71
ENDBRANCH  68  70
ENDBRANCH  64  65
ENDBRANCH  63  64
ENDBRANCH  60  63
ENDBRANCH  58  59
ENDBRANCH  55  58
ENDBRANCH   1  55
TORSDOF 34
BEGIN_RES LYS A 131
REMARK  4 active torsions:
REMARK  status: ('A' for Active; 'I' for Inactive)
REMARK    1  A    between atoms: CA   and  CB  
REMARK    2  A    between atoms: CB   and  CG  
REMARK    3  A    between atoms: CG   and  CD  
REMARK    4  A    between atoms: CD   and  CE  
ROOT
ATOM      1  CA  LYS A 131      29.867  25.555  16.977  1.00 20.52     0.186 C 
ENDROOT
BRANCH   1   2
ATOM      2  CB  LYS A 131      28.345  25.722  17.026  1.00 20.94     0.034 C 
BRANCH   2   3
ATOM      3  CG  LYS A 131      27.602  24.398  16.928  1.00 22.96     0.005 C 
BRANCH   3   4
ATOM      4  CD  LYS A 131      26.153  24.533  17.308  1.00 24.33     0.041 C 
BRANCH   4   5
ATOM      5  CE  LYS A 131      25.789  23.451  18.319  1.00 26.91     0.338 C 
ATOM      6  NZ  LYS A 131      24.989  22.384  17.672  1.00 27.40     0.618 N 
ENDBRANCH   4   5
ENDBRANCH   3   4
ENDBRANCH   2   3
ENDBRANCH   1   2
END_RES LYS A 131
BEGIN_RES LYS A 135
REMARK  4 active torsions:
REMARK  status: ('A' for Active; 'I' for Inactive)
REMARK    5  A    between atoms: CA   and  CB  
REMARK    6  A    between atoms: CB   and  CG  
REMARK    7  A    between atoms: CG   and  CD  
REMARK    8  A    between atoms: CD   and  CE  
ROOT
ATOM      7  CA  LYS A 135      33.193  34.663   9.290  1.00 25.02     0.186 C 
ENDROOT
BRANCH   7   8
ATOM      8  CB  LYS A 135      32.060  35.360  10.034  1.00 26.63     0.034 C 
BRANCH   8   9
ATOM      9  CG  LYS A 135      30.828  35.573   9.193  1.00 29.45     0.005 C 
BRANCH   9  10
ATOM     10  CD  LYS A 135      30.356  37.016   9.288  1.00 32.00     0.041 C 
BRANCH  10  11
ATOM     11  CE  LYS A 135      31.413  37.879   9.950  1.00 34.25     0.338 C 
ATOM     12  NZ  LYS A 135      30.846  39.188  10.378  1.00 35.99     0.618 N 
ENDBRANCH  10  11
ENDBRANCH   9  10
ENDBRANCH   8   9
ENDBRANCH   7   8
END_RES LYS A 135
