REMARK VINA RESULT:    -5.076      3.230      6.864
REMARK INTER + INTRA:         -23.645
REMARK INTER:                 -12.577
REMARK INTRA:                 -11.068
REMARK UNBOUND:               -10.853
REMARK SMILES CC(=O)N[C@@H]1[C@@H](O)C[C@](OC[C@H]2O[C@@H](O[C@H]3[C@H](O)[C@@H](O)[C@H](OCCN=[N+]=[N-])O[C@@H]3CO)[C@H](O)[C@@H](O)[C@H]2O)(C(=O)O)O[C@H]1C(O)[C@H](O)CNC(=O)OCc1cn(-c2ncn3c2c(=O)n(C(C)C)c2ccccc23)nn1
REMARK SMILES IDX 9 1 8 2 6 3 5 4 42 5 41 6 10 7 11 8 12 9 14 10 13 11 32 12
REMARK SMILES IDX 34 13 36 14 15 15 16 16 29 17 28 18 21 19 17 20 19 21 30 22
REMARK SMILES IDX 31 23 22 25 23 26 24 27 25 28 26 29 27 30 18 31 20 33 33 35
REMARK SMILES IDX 35 37 37 39 38 41 39 42 40 43 7 45 43 47 44 48 45 50 46 51
REMARK SMILES IDX 47 53 48 54 49 55 50 57 51 58 52 59 53 60 54 61 74 62 55 63
REMARK SMILES IDX 73 64 56 65 57 66 60 67 58 68 59 69 61 70 72 71 63 72 62 73
REMARK SMILES IDX 71 74 67 75 70 76 68 77 69 78 64 79 65 80 66 81 4 82 2 83
REMARK SMILES IDX 1 85 3 86
REMARK H PARENT 31 24 18 32 20 34 33 36 35 38 37 40 40 44 7 46 44 49 46 52
REMARK H PARENT 48 56 4 84
REMARK Flexibility Score: inf
ROOT
ATOM      1  C   UNL     1      23.464  37.274   8.882  1.00  0.00     0.272 C 
ATOM      2  C   UNL     1      22.721  38.570   8.709  1.00  0.00     0.113 C 
ATOM      3  C   UNL     1      21.612  38.730   9.662  1.00  0.00     0.145 C 
ATOM      4  C   UNL     1      21.940  38.353  11.078  1.00  0.00     0.142 C 
ATOM      5  C   UNL     1      22.999  37.316  11.194  1.00  0.00     0.178 C 
ATOM      6  O   UNL     1      23.922  37.243  10.238  1.00  0.00    -0.332 OA
ENDROOT
BRANCH   1   7
ATOM      7  O   UNL     1      24.643  37.417   8.204  1.00  0.00    -0.338 OA
BRANCH   7   8
ATOM      8  C   UNL     1      25.194  38.526   7.800  1.00  0.00     0.199 C 
BRANCH   8   9
ATOM      9  C   UNL     1      26.650  38.844   7.805  1.00  0.00     0.179 C 
ATOM     10  C   UNL     1      28.514  38.239   9.064  1.00  0.00     0.282 C 
ATOM     11  O   UNL     1      27.163  38.076   8.901  1.00  0.00    -0.341 OA
ATOM     12  C   UNL     1      29.305  37.725   7.875  1.00  0.00     0.202 C 
ATOM     13  C   UNL     1      28.781  38.324   6.582  1.00  0.00     0.179 C 
ATOM     14  C   UNL     1      27.282  38.196   6.572  1.00  0.00     0.177 C 
BRANCH  10  15
ATOM     15  O   UNL     1      28.884  37.490  10.175  1.00  0.00    -0.341 OA
BRANCH  15  16
ATOM     16  C   UNL     1      28.939  38.269  11.301  1.00  0.00     0.184 C 
ATOM     17  C   UNL     1      30.292  38.859  11.463  1.00  0.00     0.178 C 
ATOM     18  O   UNL     1      31.137  38.214  12.330  1.00  0.00    -0.341 OA
ATOM     19  C   UNL     1      30.903  36.877  12.521  1.00  0.00     0.281 C 
ATOM     20  C   UNL     1      28.469  37.540  12.543  1.00  0.00     0.180 C 
ATOM     21  C   UNL     1      29.505  36.581  13.003  1.00  0.00     0.202 C 
BRANCH  17  22
ATOM     22  C   UNL     1      30.193  40.321  11.844  1.00  0.00     0.191 C 
BRANCH  22  23
ATOM     23  O   UNL     1      30.474  40.367  13.230  1.00  0.00    -0.394 OA
ATOM     24  H   UNL     1      30.673  41.309  13.436  1.00  0.00     0.210 HD
ENDBRANCH  22  23
ENDBRANCH  17  22
BRANCH  19  25
ATOM     25  O   UNL     1      31.759  36.449  13.552  1.00  0.00    -0.350 OA
BRANCH  25  26
ATOM     26  C   UNL     1      32.690  35.527  13.160  1.00  0.00     0.169 C 
BRANCH  26  27
ATOM     27  C   UNL     1      33.463  34.870  14.259  1.00  0.00     0.119 C 
BRANCH  27  28
ATOM     28  N   UNL     1      32.473  34.496  15.281  1.00  0.00    -0.092 NA
ATOM     29  N   UNL     1      32.001  33.384  15.386  1.00  0.00     0.001 N 
ATOM     30  N   UNL     1      31.266  32.391  15.402  1.00  0.00    -0.003 NA
ENDBRANCH  27  28
ENDBRANCH  26  27
ENDBRANCH  25  26
ENDBRANCH  19  25
BRANCH  20  31
ATOM     31  O   UNL     1      28.111  38.487  13.511  1.00  0.00    -0.387 OA
ATOM     32  H   UNL     1      27.197  38.797  13.240  1.00  0.00     0.211 HD
ENDBRANCH  20  31
BRANCH  21  33
ATOM     33  O   UNL     1      29.144  35.310  12.520  1.00  0.00    -0.385 OA
ATOM     34  H   UNL     1      29.783  34.611  12.816  1.00  0.00     0.211 HD
ENDBRANCH  21  33
ENDBRANCH  15  16
ENDBRANCH  10  15
BRANCH  12  35
ATOM     35  O   UNL     1      30.612  38.188   8.013  1.00  0.00    -0.385 OA
ATOM     36  H   UNL     1      31.194  37.896   7.272  1.00  0.00     0.211 HD
ENDBRANCH  12  35
BRANCH  13  37
ATOM     37  O   UNL     1      29.255  37.501   5.543  1.00  0.00    -0.387 OA
ATOM     38  H   UNL     1      30.218  37.693   5.368  1.00  0.00     0.211 HD
ENDBRANCH  13  37
BRANCH  14  39
ATOM     39  O   UNL     1      27.013  36.804   6.640  1.00  0.00    -0.387 OA
ATOM     40  H   UNL     1      26.998  36.506   7.580  1.00  0.00     0.211 HD
ENDBRANCH  14  39
ENDBRANCH   8   9
ENDBRANCH   7   8
ENDBRANCH   1   7
BRANCH   1  41
ATOM     41  C   UNL     1      22.665  36.075   8.669  1.00  0.00     0.364 C 
ATOM     42  O   UNL     1      21.689  36.007   7.923  1.00  0.00    -0.246 OA
BRANCH  41  43
ATOM     43  O   UNL     1      22.986  34.879   9.338  1.00  0.00    -0.477 OA
ATOM     44  H   UNL     1      22.477  34.626  10.176  1.00  0.00     0.296 HD
ENDBRANCH  41  43
ENDBRANCH   1  41
BRANCH   3  45
ATOM     45  O   UNL     1      21.235  40.098   9.623  1.00  0.00    -0.391 OA
ATOM     46  H   UNL     1      21.720  40.613  10.307  1.00  0.00     0.211 HD
ENDBRANCH   3  45
BRANCH   5  47
ATOM     47  C   UNL     1      23.689  37.348  12.546  1.00  0.00     0.176 C 
BRANCH  47  48
ATOM     48  O   UNL     1      22.790  37.019  13.536  1.00  0.00    -0.388 OA
ATOM     49  H   UNL     1      22.327  37.802  13.927  1.00  0.00     0.211 HD
ENDBRANCH  47  48
BRANCH  47  50
ATOM     50  C   UNL     1      24.379  38.629  12.860  1.00  0.00     0.165 C 
BRANCH  50  51
ATOM     51  O   UNL     1      25.390  39.003  12.016  1.00  0.00    -0.388 OA
ATOM     52  H   UNL     1      25.956  39.733  12.356  1.00  0.00     0.211 HD
ENDBRANCH  50  51
BRANCH  50  53
ATOM     53  C   UNL     1      24.823  38.743  14.287  1.00  0.00     0.154 C 
BRANCH  53  54
ATOM     54  N   UNL     1      25.199  37.428  14.817  1.00  0.00    -0.319 N 
ATOM     55  C   UNL     1      26.145  37.266  15.843  1.00  0.00     0.407 C 
ATOM     56  H   UNL     1      24.743  36.554  14.417  1.00  0.00     0.167 HD
ATOM     57  O   UNL     1      26.729  38.258  16.351  1.00  0.00    -0.225 OA
BRANCH  55  58
ATOM     58  O   UNL     1      26.422  35.966  16.289  1.00  0.00    -0.443 OA
BRANCH  58  59
ATOM     59  C   UNL     1      27.194  35.095  15.512  1.00  0.00     0.294 C 
BRANCH  59  60
ATOM     60  C   UNL     1      26.387  34.429  14.420  1.00  0.00     0.121 A 
ATOM     61  C   UNL     1      25.631  33.286  14.548  1.00  0.00     0.146 A 
ATOM     62  N   UNL     1      26.245  34.814  13.142  1.00  0.00    -0.131 NA
ATOM     63  N   UNL     1      25.044  32.996  13.350  1.00  0.00    -0.200 N 
ATOM     64  N   UNL     1      25.444  33.947  12.528  1.00  0.00    -0.060 NA
BRANCH  63  65
ATOM     65  C   UNL     1      24.183  31.888  13.092  1.00  0.00     0.186 A 
ATOM     66  N   UNL     1      24.573  30.603  13.063  1.00  0.00    -0.216 NA
ATOM     67  C   UNL     1      22.840  31.855  12.813  1.00  0.00     0.158 A 
ATOM     68  C   UNL     1      23.520  29.812  12.779  1.00  0.00     0.207 A 
ATOM     69  N   UNL     1      22.420  30.579  12.618  1.00  0.00    -0.291 N 
ATOM     70  C   UNL     1      21.939  32.884  12.714  1.00  0.00     0.279 A 
ATOM     71  C   UNL     1      21.138  30.297  12.329  1.00  0.00     0.071 A 
ATOM     72  N   UNL     1      20.638  32.631  12.423  1.00  0.00    -0.302 N 
ATOM     73  O   UNL     1      22.303  34.088  12.893  1.00  0.00    -0.267 OA
ATOM     74  C   UNL     1      20.714  29.011  12.126  1.00  0.00     0.029 A 
ATOM     75  C   UNL     1      20.253  31.349  12.234  1.00  0.00     0.068 A 
ATOM     76  C   UNL     1      19.376  28.718  11.818  1.00  0.00     0.002 A 
ATOM     77  C   UNL     1      18.937  31.055  11.931  1.00  0.00     0.028 A 
ATOM     78  C   UNL     1      18.483  29.759  11.721  1.00  0.00     0.002 A 
BRANCH  72  79
ATOM     79  C   UNL     1      19.675  33.728  12.326  1.00  0.00     0.085 C 
ATOM     80  C   UNL     1      19.521  34.503  13.594  1.00  0.00     0.031 C 
ATOM     81  C   UNL     1      19.895  34.575  11.098  1.00  0.00     0.031 C 
ENDBRANCH  72  79
ENDBRANCH  63  65
ENDBRANCH  59  60
ENDBRANCH  58  59
ENDBRANCH  55  58
ENDBRANCH  53  54
ENDBRANCH  50  53
ENDBRANCH  47  50
ENDBRANCH   5  47
BRANCH   4  82
ATOM     82  N   UNL     1      20.711  37.978  11.746  1.00  0.00    -0.348 N 
ATOM     83  C   UNL     1      20.230  38.621  12.909  1.00  0.00     0.217 C 
ATOM     84  H   UNL     1      20.132  37.191  11.365  1.00  0.00     0.163 HD
ATOM     85  C   UNL     1      18.962  38.224  13.589  1.00  0.00     0.114 C 
ATOM     86  O   UNL     1      20.917  39.573  13.383  1.00  0.00    -0.275 OA
ENDBRANCH   4  82
TORSDOF 31
BEGIN_RES LYS A 131
REMARK  4 active torsions:
REMARK  status: ('A' for Active; 'I' for Inactive)
REMARK    1  A    between atoms: CA   and  CB  
REMARK    2  A    between atoms: CB   and  CG  
REMARK    3  A    between atoms: CG   and  CD  
REMARK    4  A    between atoms: CD   and  CE  
ROOT
ATOM      1  CA  LYS A 131      29.867  25.555  16.977  1.00 20.52     0.186 C 
ENDROOT
BRANCH   1   2
ATOM      2  CB  LYS A 131      28.345  25.722  17.026  1.00 20.94     0.034 C 
BRANCH   2   3
ATOM      3  CG  LYS A 131      27.599  24.429  16.733  1.00 22.96     0.005 C 
BRANCH   3   4
ATOM      4  CD  LYS A 131      26.997  23.829  17.973  1.00 24.33     0.041 C 
BRANCH   4   5
ATOM      5  CE  LYS A 131      25.624  23.252  17.644  1.00 26.91     0.338 C 
ATOM      6  NZ  LYS A 131      24.806  24.246  16.910  1.00 27.40     0.618 N 
ENDBRANCH   4   5
ENDBRANCH   3   4
ENDBRANCH   2   3
ENDBRANCH   1   2
END_RES LYS A 131
BEGIN_RES LYS A 135
REMARK  4 active torsions:
REMARK  status: ('A' for Active; 'I' for Inactive)
REMARK    5  A    between atoms: CA   and  CB  
REMARK    6  A    between atoms: CB   and  CG  
REMARK    7  A    between atoms: CG   and  CD  
REMARK    8  A    between atoms: CD   and  CE  
ROOT
ATOM      7  CA  LYS A 135      33.193  34.663   9.290  1.00 25.02     0.186 C 
ENDROOT
BRANCH   7   8
ATOM      8  CB  LYS A 135      32.060  35.360  10.034  1.00 26.63     0.034 C 
BRANCH   8   9
ATOM      9  CG  LYS A 135      30.747  34.624   9.959  1.00 29.45     0.005 C 
BRANCH   9  10
ATOM     10  CD  LYS A 135      30.338  34.402   8.511  1.00 32.00     0.041 C 
BRANCH  10  11
ATOM     11  CE  LYS A 135      28.827  34.366   8.385  1.00 34.25     0.338 C 
ATOM     12  NZ  LYS A 135      28.207  33.683   9.554  1.00 35.99     0.618 N 
ENDBRANCH  10  11
ENDBRANCH   9  10
ENDBRANCH   8   9
ENDBRANCH   7   8
END_RES LYS A 135
