REMARK VINA RESULT:    -3.977      3.761      9.955
REMARK INTER + INTRA:         -24.368
REMARK INTER:                 -10.540
REMARK INTRA:                 -13.827
REMARK UNBOUND:               -13.881
REMARK SMILES CCOC(=O)c1cccc(-n2cc(COC(=O)NC[C@@H](O)C(O)[C@@H]3O[C@@](OC[C@H]4O[C@@H](O[C@H]5[C@H](O)[C@@H](O)[C@H](OCCN=[N+]=[N-])O[C@@H]5CO)[C@H](O)[C@@H](O)[C@H]4O)(C(=O)O)C[C@H](O)[C@H]3NC(C)=O)nn2)c1
REMARK SMILES IDX 22 1 24 2 26 3 58 4 25 5 59 6 61 7 27 8 28 9 29 10 31 11
REMARK SMILES IDX 30 12 49 13 51 14 53 15 32 16 33 17 46 18 45 19 38 20 34 21
REMARK SMILES IDX 36 22 47 23 48 24 39 26 40 27 41 28 42 29 43 30 44 31 35 32
REMARK SMILES IDX 37 34 50 36 52 38 54 40 55 42 56 43 57 44 60 46 62 48 63 49
REMARK SMILES IDX 64 51 65 52 23 53 20 55 21 56 19 58 18 59 16 60 17 62 15 63
REMARK SMILES IDX 14 64 13 65 12 66 66 67 11 68 67 69 10 70 68 71 9 72 6 73
REMARK SMILES IDX 8 74 7 75 4 76 5 77 3 78 2 79 1 80
REMARK H PARENT 48 25 35 33 37 35 50 37 52 39 54 41 57 45 60 47 62 50 23 54
REMARK H PARENT 21 57 18 61
REMARK Flexibility Score: inf
ROOT
ATOM      1  C   UNL     1      20.123  36.256  11.589  1.00  0.00     0.176 C 
ENDROOT
BRANCH   1   2
ATOM      2  C   UNL     1      20.298  35.863  10.183  1.00  0.00     0.178 C 
ATOM      3  C   UNL     1      21.960  36.206   8.536  1.00  0.00     0.272 C 
ATOM      4  C   UNL     1      20.975  35.358   7.797  1.00  0.00     0.113 C 
ATOM      5  O   UNL     1      21.158  36.787   9.584  1.00  0.00    -0.332 OA
ATOM      6  C   UNL     1      19.553  35.891   7.857  1.00  0.00     0.145 C 
ATOM      7  C   UNL     1      19.076  35.757   9.341  1.00  0.00     0.142 C 
BRANCH   3   8
ATOM      8  O   UNL     1      22.355  37.258   7.770  1.00  0.00    -0.338 OA
BRANCH   8   9
ATOM      9  C   UNL     1      22.419  38.516   8.130  1.00  0.00     0.199 C 
BRANCH   9  10
ATOM     10  C   UNL     1      23.591  39.255   8.616  1.00  0.00     0.179 C 
ATOM     11  C   UNL     1      25.413  39.164  10.081  1.00  0.00     0.282 C 
ATOM     12  O   UNL     1      24.085  38.783   9.779  1.00  0.00    -0.341 OA
ATOM     13  C   UNL     1      25.849  40.328   9.245  1.00  0.00     0.202 C 
ATOM     14  C   UNL     1      25.711  40.093   7.776  1.00  0.00     0.179 C 
ATOM     15  C   UNL     1      24.693  39.033   7.530  1.00  0.00     0.177 C 
BRANCH  11  16
ATOM     16  O   UNL     1      26.148  38.021   9.964  1.00  0.00    -0.341 OA
BRANCH  16  17
ATOM     17  C   UNL     1      26.669  37.447  11.072  1.00  0.00     0.184 C 
ATOM     18  C   UNL     1      28.066  36.982  10.758  1.00  0.00     0.178 C 
ATOM     19  O   UNL     1      28.682  36.424  11.880  1.00  0.00    -0.341 OA
ATOM     20  C   UNL     1      28.017  35.199  12.166  1.00  0.00     0.281 C 
ATOM     21  C   UNL     1      25.883  36.202  11.518  1.00  0.00     0.180 C 
ATOM     22  C   UNL     1      26.663  35.598  12.683  1.00  0.00     0.202 C 
BRANCH  18  23
ATOM     23  C   UNL     1      28.919  38.118  10.269  1.00  0.00     0.191 C 
BRANCH  23  24
ATOM     24  O   UNL     1      28.758  38.284   8.869  1.00  0.00    -0.394 OA
ATOM     25  H   UNL     1      28.559  37.413   8.441  1.00  0.00     0.210 HD
ENDBRANCH  23  24
ENDBRANCH  18  23
BRANCH  20  26
ATOM     26  O   UNL     1      28.784  34.506  13.057  1.00  0.00    -0.350 OA
BRANCH  26  27
ATOM     27  C   UNL     1      29.152  35.275  14.152  1.00  0.00     0.169 C 
BRANCH  27  28
ATOM     28  C   UNL     1      29.031  34.554  15.461  1.00  0.00     0.119 C 
BRANCH  28  29
ATOM     29  N   UNL     1      28.057  33.465  15.319  1.00  0.00    -0.092 NA
ATOM     30  N   UNL     1      27.160  33.385  16.169  1.00  0.00     0.001 N 
ATOM     31  N   UNL     1      26.079  33.322  16.788  1.00  0.00    -0.003 NA
ENDBRANCH  28  29
ENDBRANCH  27  28
ENDBRANCH  26  27
ENDBRANCH  20  26
BRANCH  21  32
ATOM     32  O   UNL     1      24.649  36.551  12.046  1.00  0.00    -0.387 OA
ATOM     33  H   UNL     1      23.983  36.459  11.323  1.00  0.00     0.211 HD
ENDBRANCH  21  32
BRANCH  22  34
ATOM     34  O   UNL     1      25.974  34.523  13.237  1.00  0.00    -0.385 OA
ATOM     35  H   UNL     1      25.083  34.783  13.621  1.00  0.00     0.211 HD
ENDBRANCH  22  34
ENDBRANCH  16  17
ENDBRANCH  11  16
BRANCH  13  36
ATOM     36  O   UNL     1      25.163  41.481   9.673  1.00  0.00    -0.385 OA
ATOM     37  H   UNL     1      24.875  42.045   8.919  1.00  0.00     0.211 HD
ENDBRANCH  13  36
BRANCH  14  38
ATOM     38  O   UNL     1      26.912  39.929   7.125  1.00  0.00    -0.387 OA
ATOM     39  H   UNL     1      27.282  40.837   6.962  1.00  0.00     0.211 HD
ENDBRANCH  14  38
BRANCH  15  40
ATOM     40  O   UNL     1      25.206  37.775   7.575  1.00  0.00    -0.387 OA
ATOM     41  H   UNL     1      25.647  37.626   8.449  1.00  0.00     0.211 HD
ENDBRANCH  15  40
ENDBRANCH   9  10
ENDBRANCH   8   9
ENDBRANCH   3   8
BRANCH   3  42
ATOM     42  C   UNL     1      23.056  35.502   9.185  1.00  0.00     0.364 C 
ATOM     43  O   UNL     1      24.198  35.452   8.703  1.00  0.00    -0.246 OA
BRANCH  42  44
ATOM     44  O   UNL     1      22.853  34.843  10.399  1.00  0.00    -0.477 OA
ATOM     45  H   UNL     1      22.485  33.917  10.474  1.00  0.00     0.296 HD
ENDBRANCH  42  44
ENDBRANCH   3  42
BRANCH   6  46
ATOM     46  O   UNL     1      19.579  37.236   7.588  1.00  0.00    -0.391 OA
ATOM     47  H   UNL     1      20.436  37.617   7.897  1.00  0.00     0.211 HD
ENDBRANCH   6  46
BRANCH   7  48
ATOM     48  N   UNL     1      18.426  34.470   9.432  1.00  0.00    -0.348 N 
ATOM     49  C   UNL     1      17.287  34.207  10.261  1.00  0.00     0.217 C 
ATOM     50  H   UNL     1      18.764  33.629   8.873  1.00  0.00     0.163 HD
ATOM     51  C   UNL     1      16.644  32.868  10.330  1.00  0.00     0.114 C 
ATOM     52  O   UNL     1      16.806  35.124  10.957  1.00  0.00    -0.275 OA
ENDBRANCH   7  48
ENDBRANCH   1   2
BRANCH   1  53
ATOM     53  O   UNL     1      20.332  35.283  12.529  1.00  0.00    -0.388 OA
ATOM     54  H   UNL     1      20.985  34.604  12.238  1.00  0.00     0.211 HD
ENDBRANCH   1  53
BRANCH   1  55
ATOM     55  C   UNL     1      20.732  37.569  12.011  1.00  0.00     0.165 C 
BRANCH  55  56
ATOM     56  O   UNL     1      22.126  37.516  11.921  1.00  0.00    -0.388 OA
ATOM     57  H   UNL     1      22.418  36.609  11.644  1.00  0.00     0.211 HD
ENDBRANCH  55  56
BRANCH  55  58
ATOM     58  C   UNL     1      20.202  38.123  13.299  1.00  0.00     0.154 C 
BRANCH  58  59
ATOM     59  N   UNL     1      21.031  37.768  14.429  1.00  0.00    -0.319 N 
ATOM     60  C   UNL     1      20.608  36.816  15.383  1.00  0.00     0.407 C 
ATOM     61  H   UNL     1      21.986  38.224  14.562  1.00  0.00     0.167 HD
ATOM     62  O   UNL     1      19.522  36.195  15.352  1.00  0.00    -0.225 OA
BRANCH  60  63
ATOM     63  O   UNL     1      21.430  36.505  16.484  1.00  0.00    -0.443 OA
BRANCH  63  64
ATOM     64  C   UNL     1      22.591  35.735  16.420  1.00  0.00     0.294 C 
BRANCH  64  65
ATOM     65  C   UNL     1      22.748  34.904  15.219  1.00  0.00     0.121 A 
ATOM     66  C   UNL     1      22.584  33.525  15.149  1.00  0.00     0.144 A 
ATOM     67  N   UNL     1      23.071  35.301  13.994  1.00  0.00    -0.131 NA
ATOM     68  N   UNL     1      22.817  33.155  13.890  1.00  0.00    -0.220 N 
ATOM     69  N   UNL     1      23.109  34.233  13.198  1.00  0.00    -0.062 NA
BRANCH  68  70
ATOM     70  C   UNL     1      22.753  31.835  13.394  1.00  0.00     0.067 A 
ATOM     71  C   UNL     1      21.556  31.280  12.949  1.00  0.00     0.044 A 
ATOM     72  C   UNL     1      23.863  31.038  13.314  1.00  0.00     0.028 A 
ATOM     73  C   UNL     1      21.446  30.010  12.449  1.00  0.00     0.062 A 
ATOM     74  C   UNL     1      23.794  29.747  12.813  1.00  0.00     0.003 A 
ATOM     75  C   UNL     1      22.595  29.230  12.382  1.00  0.00     0.016 A 
BRANCH  73  76
ATOM     76  C   UNL     1      20.168  29.494  12.006  1.00  0.00     0.338 C 
ATOM     77  O   UNL     1      20.061  28.287  11.715  1.00  0.00    -0.246 OA
BRANCH  76  78
ATOM     78  O   UNL     1      19.084  30.328  11.909  1.00  0.00    -0.462 OA
BRANCH  78  79
ATOM     79  C   UNL     1      17.943  30.241  12.731  1.00  0.00     0.230 C 
ATOM     80  C   UNL     1      17.836  31.478  13.596  1.00  0.00     0.049 C 
ENDBRANCH  78  79
ENDBRANCH  76  78
ENDBRANCH  73  76
ENDBRANCH  68  70
ENDBRANCH  64  65
ENDBRANCH  63  64
ENDBRANCH  60  63
ENDBRANCH  58  59
ENDBRANCH  55  58
ENDBRANCH   1  55
TORSDOF 33
BEGIN_RES LYS A 131
REMARK  4 active torsions:
REMARK  status: ('A' for Active; 'I' for Inactive)
REMARK    1  A    between atoms: CA   and  CB  
REMARK    2  A    between atoms: CB   and  CG  
REMARK    3  A    between atoms: CG   and  CD  
REMARK    4  A    between atoms: CD   and  CE  
ROOT
ATOM      1  CA  LYS A 131      29.867  25.555  16.977  1.00 20.52     0.186 C 
ENDROOT
BRANCH   1   2
ATOM      2  CB  LYS A 131      28.345  25.722  17.026  1.00 20.94     0.034 C 
BRANCH   2   3
ATOM      3  CG  LYS A 131      27.602  24.400  16.916  1.00 22.96     0.005 C 
BRANCH   3   4
ATOM      4  CD  LYS A 131      26.528  24.265  17.960  1.00 24.33     0.041 C 
BRANCH   4   5
ATOM      5  CE  LYS A 131      25.204  23.918  17.287  1.00 26.91     0.338 C 
ATOM      6  NZ  LYS A 131      24.857  22.497  17.528  1.00 27.40     0.618 N 
ENDBRANCH   4   5
ENDBRANCH   3   4
ENDBRANCH   2   3
ENDBRANCH   1   2
END_RES LYS A 131
BEGIN_RES LYS A 135
REMARK  4 active torsions:
REMARK  status: ('A' for Active; 'I' for Inactive)
REMARK    5  A    between atoms: CA   and  CB  
REMARK    6  A    between atoms: CB   and  CG  
REMARK    7  A    between atoms: CG   and  CD  
REMARK    8  A    between atoms: CD   and  CE  
ROOT
ATOM      7  CA  LYS A 135      33.193  34.663   9.290  1.00 25.02     0.186 C 
ENDROOT
BRANCH   7   8
ATOM      8  CB  LYS A 135      32.060  35.360  10.034  1.00 26.63     0.034 C 
BRANCH   8   9
ATOM      9  CG  LYS A 135      30.706  34.751   9.776  1.00 29.45     0.005 C 
BRANCH   9  10
ATOM     10  CD  LYS A 135      30.470  34.580   8.284  1.00 32.00     0.041 C 
BRANCH  10  11
ATOM     11  CE  LYS A 135      29.013  34.831   7.943  1.00 34.25     0.338 C 
ATOM     12  NZ  LYS A 135      28.883  35.559   6.650  1.00 35.99     0.618 N 
ENDBRANCH  10  11
ENDBRANCH   9  10
ENDBRANCH   8   9
ENDBRANCH   7   8
END_RES LYS A 135
