REMARK VINA RESULT:    -4.064      3.630      9.846
REMARK INTER + INTRA:         -22.629
REMARK INTER:                 -12.840
REMARK INTRA:                  -9.789
REMARK UNBOUND:               -12.269
REMARK SMILES CC(=O)N[C@@H]1[C@@H](O)C[C@](OC[C@H]2O[C@@H](O[C@H]3[C@H](O)[C@@H](O)[C@H](OCCN=[N+]=[N-])O[C@@H]3CO)[C@H](O)[C@@H](O)[C@H]2O)(C(=O)O)O[C@H]1C(O)[C@H](O)CNC(=O)OCc1cn(-c2cccc(S(N)(=O)=O)c2)nn1
REMARK SMILES IDX 9 1 8 2 6 3 5 4 42 5 41 6 10 7 11 8 12 9 14 10 13 11 32 12
REMARK SMILES IDX 34 13 36 14 15 15 16 16 29 17 28 18 21 19 17 20 19 21 30 22
REMARK SMILES IDX 31 23 22 25 23 26 24 27 25 28 26 29 27 30 18 31 20 33 33 35
REMARK SMILES IDX 35 37 37 39 38 41 39 42 40 43 7 45 43 47 44 48 45 50 46 51
REMARK SMILES IDX 47 53 48 54 49 55 50 57 51 58 52 59 53 60 54 61 67 62 55 63
REMARK SMILES IDX 66 64 56 65 65 66 57 67 60 68 58 69 59 70 61 71 63 72 64 73
REMARK SMILES IDX 62 74 4 77 2 78 1 80 3 81
REMARK H PARENT 31 24 18 32 20 34 33 36 35 38 37 40 40 44 7 46 44 49 46 52
REMARK H PARENT 48 56 62 75 62 76 4 79
REMARK Flexibility Score: inf
ROOT
ATOM      1  C   UNL     1      26.523  37.914   9.015  1.00  0.00     0.272 C 
ATOM      2  C   UNL     1      25.545  38.778   9.835  1.00  0.00     0.113 C 
ATOM      3  C   UNL     1      24.165  38.294   9.561  1.00  0.00     0.145 C 
ATOM      4  C   UNL     1      24.020  36.859   9.925  1.00  0.00     0.142 C 
ATOM      5  C   UNL     1      25.269  36.075   9.724  1.00  0.00     0.178 C 
ATOM      6  O   UNL     1      26.438  36.656   9.438  1.00  0.00    -0.332 OA
ENDROOT
BRANCH   1   7
ATOM      7  O   UNL     1      27.784  38.489   9.330  1.00  0.00    -0.338 OA
BRANCH   7   8
ATOM      8  C   UNL     1      27.803  38.800  10.655  1.00  0.00     0.199 C 
BRANCH   8   9
ATOM      9  C   UNL     1      29.133  38.500  11.313  1.00  0.00     0.179 C 
ATOM     10  C   UNL     1      30.051  37.056  12.754  1.00  0.00     0.282 C 
ATOM     11  O   UNL     1      29.291  37.138  11.559  1.00  0.00    -0.341 OA
ATOM     12  C   UNL     1      31.233  37.954  12.720  1.00  0.00     0.202 C 
ATOM     13  C   UNL     1      31.556  38.535  11.367  1.00  0.00     0.179 C 
ATOM     14  C   UNL     1      30.330  38.995  10.600  1.00  0.00     0.177 C 
BRANCH  10  15
ATOM     15  O   UNL     1      30.280  35.752  13.111  1.00  0.00    -0.341 OA
BRANCH  15  16
ATOM     16  C   UNL     1      31.000  35.575  14.269  1.00  0.00     0.184 C 
ATOM     17  C   UNL     1      32.042  34.506  14.047  1.00  0.00     0.178 C 
ATOM     18  O   UNL     1      32.118  33.647  15.151  1.00  0.00    -0.341 OA
ATOM     19  C   UNL     1      31.007  32.838  15.136  1.00  0.00     0.281 C 
ATOM     20  C   UNL     1      30.014  35.162  15.339  1.00  0.00     0.180 C 
ATOM     21  C   UNL     1      29.806  33.683  15.414  1.00  0.00     0.202 C 
BRANCH  17  22
ATOM     22  C   UNL     1      33.420  35.040  13.821  1.00  0.00     0.191 C 
BRANCH  22  23
ATOM     23  O   UNL     1      34.269  34.050  13.288  1.00  0.00    -0.394 OA
ATOM     24  H   UNL     1      33.931  33.146  13.489  1.00  0.00     0.210 HD
ENDBRANCH  22  23
ENDBRANCH  17  22
BRANCH  19  25
ATOM     25  O   UNL     1      31.070  31.824  16.091  1.00  0.00    -0.350 OA
BRANCH  25  26
ATOM     26  C   UNL     1      30.006  31.773  16.951  1.00  0.00     0.169 C 
BRANCH  26  27
ATOM     27  C   UNL     1      30.379  31.545  18.401  1.00  0.00     0.119 C 
BRANCH  27  28
ATOM     28  N   UNL     1      30.690  32.792  19.071  1.00  0.00    -0.092 NA
ATOM     29  N   UNL     1      29.893  33.724  19.135  1.00  0.00     0.001 N 
ATOM     30  N   UNL     1      29.183  34.709  19.245  1.00  0.00    -0.003 NA
ENDBRANCH  27  28
ENDBRANCH  26  27
ENDBRANCH  25  26
ENDBRANCH  19  25
BRANCH  20  31
ATOM     31  O   UNL     1      30.509  35.583  16.586  1.00  0.00    -0.387 OA
ATOM     32  H   UNL     1      31.272  35.031  16.891  1.00  0.00     0.211 HD
ENDBRANCH  20  31
BRANCH  21  33
ATOM     33  O   UNL     1      28.794  33.290  14.507  1.00  0.00    -0.385 OA
ATOM     34  H   UNL     1      28.652  34.044  13.889  1.00  0.00     0.211 HD
ENDBRANCH  21  33
ENDBRANCH  15  16
ENDBRANCH  10  15
BRANCH  12  35
ATOM     35  O   UNL     1      31.184  38.976  13.699  1.00  0.00    -0.385 OA
ATOM     36  H   UNL     1      32.157  39.144  13.909  1.00  0.00     0.211 HD
ENDBRANCH  12  35
BRANCH  13  37
ATOM     37  O   UNL     1      32.390  37.711  10.635  1.00  0.00    -0.387 OA
ATOM     38  H   UNL     1      32.986  38.324  10.097  1.00  0.00     0.211 HD
ENDBRANCH  13  37
BRANCH  14  39
ATOM     39  O   UNL     1      30.388  38.391   9.338  1.00  0.00    -0.387 OA
ATOM     40  H   UNL     1      29.804  38.847   8.682  1.00  0.00     0.211 HD
ENDBRANCH  14  39
ENDBRANCH   8   9
ENDBRANCH   7   8
ENDBRANCH   1   7
BRANCH   1  41
ATOM     41  C   UNL     1      26.199  38.185   7.593  1.00  0.00     0.364 C 
ATOM     42  O   UNL     1      26.327  39.389   7.164  1.00  0.00    -0.246 OA
BRANCH  41  43
ATOM     43  O   UNL     1      25.771  37.281   6.665  1.00  0.00    -0.477 OA
ATOM     44  H   UNL     1      26.405  36.631   6.183  1.00  0.00     0.296 HD
ENDBRANCH  41  43
ENDBRANCH   1  41
BRANCH   3  45
ATOM     45  O   UNL     1      23.310  39.107  10.358  1.00  0.00    -0.391 OA
ATOM     46  H   UNL     1      22.389  38.745  10.166  1.00  0.00     0.211 HD
ENDBRANCH   3  45
BRANCH   5  47
ATOM     47  C   UNL     1      25.435  35.153  10.956  1.00  0.00     0.176 C 
BRANCH  47  48
ATOM     48  O   UNL     1      24.189  34.931  11.510  1.00  0.00    -0.388 OA
ATOM     49  H   UNL     1      23.708  35.722  11.805  1.00  0.00     0.211 HD
ENDBRANCH  47  48
BRANCH  47  50
ATOM     50  C   UNL     1      26.472  35.685  11.867  1.00  0.00     0.165 C 
BRANCH  50  51
ATOM     51  O   UNL     1      27.588  34.853  11.826  1.00  0.00    -0.388 OA
ATOM     52  H   UNL     1      27.234  33.968  11.524  1.00  0.00     0.211 HD
ENDBRANCH  50  51
BRANCH  50  53
ATOM     53  C   UNL     1      26.005  35.743  13.312  1.00  0.00     0.154 C 
BRANCH  53  54
ATOM     54  N   UNL     1      26.341  34.488  13.941  1.00  0.00    -0.319 N 
ATOM     55  C   UNL     1      25.282  33.610  14.384  1.00  0.00     0.407 C 
ATOM     56  H   UNL     1      27.328  34.182  14.098  1.00  0.00     0.167 HD
ATOM     57  O   UNL     1      24.073  33.923  14.231  1.00  0.00    -0.225 OA
BRANCH  55  58
ATOM     58  O   UNL     1      25.674  32.426  14.973  1.00  0.00    -0.443 OA
BRANCH  58  59
ATOM     59  C   UNL     1      26.034  32.369  16.321  1.00  0.00     0.294 C 
BRANCH  59  60
ATOM     60  C   UNL     1      26.293  30.991  16.763  1.00  0.00     0.121 A 
ATOM     61  C   UNL     1      26.670  30.648  18.070  1.00  0.00     0.144 A 
ATOM     62  N   UNL     1      26.231  29.853  16.082  1.00  0.00    -0.131 NA
ATOM     63  N   UNL     1      26.814  29.329  18.104  1.00  0.00    -0.220 N 
ATOM     64  N   UNL     1      26.548  28.876  16.911  1.00  0.00    -0.062 NA
BRANCH  63  65
ATOM     65  C   UNL     1      27.186  28.597  19.280  1.00  0.00     0.068 A 
ATOM     66  C   UNL     1      28.488  28.728  19.770  1.00  0.00     0.050 A 
ATOM     67  C   UNL     1      26.293  27.788  19.915  1.00  0.00     0.028 A 
ATOM     68  C   UNL     1      28.894  28.051  20.893  1.00  0.00     0.084 A 
ATOM     69  C   UNL     1      26.683  27.113  21.027  1.00  0.00     0.004 A 
ATOM     70  C   UNL     1      27.979  27.229  21.536  1.00  0.00     0.022 A 
BRANCH  68  71
ATOM     71  S   UNL     1      30.497  28.169  21.559  1.00  0.00     0.238 S 
ATOM     72  O   UNL     1      30.394  28.217  23.057  1.00  0.00    -0.207 OA
ATOM     73  O   UNL     1      31.169  29.417  21.083  1.00  0.00    -0.207 OA
BRANCH  71  74
ATOM     74  N   UNL     1      31.406  26.769  21.067  1.00  0.00    -0.225 NA
ATOM     75  H   UNL     1      32.419  27.021  21.058  1.00  0.00     0.137 HD
ATOM     76  H   UNL     1      31.055  26.376  20.169  1.00  0.00     0.137 HD
ENDBRANCH  71  74
ENDBRANCH  68  71
ENDBRANCH  63  65
ENDBRANCH  59  60
ENDBRANCH  58  59
ENDBRANCH  55  58
ENDBRANCH  53  54
ENDBRANCH  50  53
ENDBRANCH  47  50
ENDBRANCH   5  47
BRANCH   4  77
ATOM     77  N   UNL     1      22.974  36.301   9.053  1.00  0.00    -0.348 N 
ATOM     78  C   UNL     1      21.686  35.940   9.534  1.00  0.00     0.217 C 
ATOM     79  H   UNL     1      23.178  36.161   8.042  1.00  0.00     0.163 HD
ATOM     80  C   UNL     1      20.671  35.383   8.604  1.00  0.00     0.114 C 
ATOM     81  O   UNL     1      21.444  36.108  10.764  1.00  0.00    -0.275 OA
ENDBRANCH   4  77
TORSDOF 32
BEGIN_RES LYS A 131
REMARK  4 active torsions:
REMARK  status: ('A' for Active; 'I' for Inactive)
REMARK    1  A    between atoms: CA   and  CB  
REMARK    2  A    between atoms: CB   and  CG  
REMARK    3  A    between atoms: CG   and  CD  
REMARK    4  A    between atoms: CD   and  CE  
ROOT
ATOM      1  CA  LYS A 131      29.867  25.555  16.977  1.00 20.52     0.186 C 
ENDROOT
BRANCH   1   2
ATOM      2  CB  LYS A 131      28.345  25.722  17.026  1.00 20.94     0.034 C 
BRANCH   2   3
ATOM      3  CG  LYS A 131      27.602  24.399  16.924  1.00 22.96     0.005 C 
BRANCH   3   4
ATOM      4  CD  LYS A 131      26.527  24.271  17.967  1.00 24.33     0.041 C 
BRANCH   4   5
ATOM      5  CE  LYS A 131      25.158  24.354  17.300  1.00 26.91     0.338 C 
ATOM      6  NZ  LYS A 131      24.368  25.469  17.873  1.00 27.40     0.618 N 
ENDBRANCH   4   5
ENDBRANCH   3   4
ENDBRANCH   2   3
ENDBRANCH   1   2
END_RES LYS A 131
BEGIN_RES LYS A 135
REMARK  4 active torsions:
REMARK  status: ('A' for Active; 'I' for Inactive)
REMARK    5  A    between atoms: CA   and  CB  
REMARK    6  A    between atoms: CB   and  CG  
REMARK    7  A    between atoms: CG   and  CD  
REMARK    8  A    between atoms: CD   and  CE  
ROOT
ATOM      7  CA  LYS A 135      33.193  34.663   9.290  1.00 25.02     0.186 C 
ENDROOT
BRANCH   7   8
ATOM      8  CB  LYS A 135      32.060  35.360  10.034  1.00 26.63     0.034 C 
BRANCH   8   9
ATOM      9  CG  LYS A 135      30.723  34.685   9.865  1.00 29.45     0.005 C 
BRANCH   9  10
ATOM     10  CD  LYS A 135      30.370  34.554   8.392  1.00 32.00     0.041 C 
BRANCH  10  11
ATOM     11  CE  LYS A 135      28.868  34.629   8.195  1.00 34.25     0.338 C 
ATOM     12  NZ  LYS A 135      28.526  35.398   6.967  1.00 35.99     0.618 N 
ENDBRANCH  10  11
ENDBRANCH   9  10
ENDBRANCH   8   9
ENDBRANCH   7   8
END_RES LYS A 135
