REMARK VINA RESULT:    -4.147      2.381      4.369
REMARK INTER + INTRA:         -22.839
REMARK INTER:                 -12.003
REMARK INTRA:                 -10.836
REMARK UNBOUND:               -12.269
REMARK SMILES CC(=O)N[C@@H]1[C@@H](O)C[C@](OC[C@H]2O[C@@H](O[C@H]3[C@H](O)[C@@H](O)[C@H](OCCN=[N+]=[N-])O[C@@H]3CO)[C@H](O)[C@@H](O)[C@H]2O)(C(=O)O)O[C@H]1C(O)[C@H](O)CNC(=O)OCc1cn(-c2cccc(S(N)(=O)=O)c2)nn1
REMARK SMILES IDX 9 1 8 2 6 3 5 4 42 5 41 6 10 7 11 8 12 9 14 10 13 11 32 12
REMARK SMILES IDX 34 13 36 14 15 15 16 16 29 17 28 18 21 19 17 20 19 21 30 22
REMARK SMILES IDX 31 23 22 25 23 26 24 27 25 28 26 29 27 30 18 31 20 33 33 35
REMARK SMILES IDX 35 37 37 39 38 41 39 42 40 43 7 45 43 47 44 48 45 50 46 51
REMARK SMILES IDX 47 53 48 54 49 55 50 57 51 58 52 59 53 60 54 61 67 62 55 63
REMARK SMILES IDX 66 64 56 65 65 66 57 67 60 68 58 69 59 70 61 71 63 72 64 73
REMARK SMILES IDX 62 74 4 77 2 78 1 80 3 81
REMARK H PARENT 31 24 18 32 20 34 33 36 35 38 37 40 40 44 7 46 44 49 46 52
REMARK H PARENT 48 56 62 75 62 76 4 79
REMARK Flexibility Score: inf
ROOT
ATOM      1  C   UNL     1      30.147  34.196  18.553  1.00  0.00     0.272 C 
ATOM      2  C   UNL     1      29.961  35.617  17.987  1.00  0.00     0.113 C 
ATOM      3  C   UNL     1      31.310  36.224  17.819  1.00  0.00     0.145 C 
ATOM      4  C   UNL     1      32.152  35.407  16.905  1.00  0.00     0.142 C 
ATOM      5  C   UNL     1      31.862  33.951  16.985  1.00  0.00     0.178 C 
ATOM      6  O   UNL     1      30.817  33.467  17.665  1.00  0.00    -0.332 OA
ENDROOT
BRANCH   1   7
ATOM      7  O   UNL     1      28.808  33.743  18.700  1.00  0.00    -0.338 OA
BRANCH   7   8
ATOM      8  C   UNL     1      28.826  32.410  18.973  1.00  0.00     0.199 C 
BRANCH   8   9
ATOM      9  C   UNL     1      28.139  31.580  17.910  1.00  0.00     0.179 C 
ATOM     10  C   UNL     1      26.632  31.793  16.271  1.00  0.00     0.282 C 
ATOM     11  O   UNL     1      27.839  32.336  16.779  1.00  0.00    -0.341 OA
ATOM     12  C   UNL     1      26.682  30.311  16.191  1.00  0.00     0.202 C 
ATOM     13  C   UNL     1      28.052  29.708  16.374  1.00  0.00     0.179 C 
ATOM     14  C   UNL     1      28.853  30.356  17.487  1.00  0.00     0.177 C 
BRANCH  10  15
ATOM     15  O   UNL     1      26.223  32.456  15.142  1.00  0.00    -0.341 OA
BRANCH  15  16
ATOM     16  C   UNL     1      26.333  33.826  15.190  1.00  0.00     0.184 C 
ATOM     17  C   UNL     1      25.024  34.412  15.661  1.00  0.00     0.178 C 
ATOM     18  O   UNL     1      24.689  35.548  14.915  1.00  0.00    -0.341 OA
ATOM     19  C   UNL     1      24.276  35.132  13.672  1.00  0.00     0.281 C 
ATOM     20  C   UNL     1      26.665  34.288  13.788  1.00  0.00     0.180 C 
ATOM     21  C   UNL     1      25.455  34.559  12.952  1.00  0.00     0.202 C 
BRANCH  17  22
ATOM     22  C   UNL     1      25.027  34.825  17.098  1.00  0.00     0.191 C 
BRANCH  22  23
ATOM     23  O   UNL     1      25.675  33.866  17.902  1.00  0.00    -0.394 OA
ATOM     24  H   UNL     1      25.123  33.054  18.002  1.00  0.00     0.210 HD
ENDBRANCH  22  23
ENDBRANCH  17  22
BRANCH  19  25
ATOM     25  O   UNL     1      23.750  36.173  12.906  1.00  0.00    -0.350 OA
BRANCH  25  26
ATOM     26  C   UNL     1      22.513  35.932  12.374  1.00  0.00     0.169 C 
BRANCH  26  27
ATOM     27  C   UNL     1      21.685  34.921  13.138  1.00  0.00     0.119 C 
BRANCH  27  28
ATOM     28  N   UNL     1      21.404  33.748  12.333  1.00  0.00    -0.092 NA
ATOM     29  N   UNL     1      21.916  32.655  12.557  1.00  0.00     0.001 N 
ATOM     30  N   UNL     1      22.376  31.533  12.685  1.00  0.00    -0.003 NA
ENDBRANCH  27  28
ENDBRANCH  26  27
ENDBRANCH  25  26
ENDBRANCH  19  25
BRANCH  20  31
ATOM     31  O   UNL     1      27.394  35.488  13.878  1.00  0.00    -0.387 OA
ATOM     32  H   UNL     1      27.804  35.741  13.014  1.00  0.00     0.211 HD
ENDBRANCH  20  31
BRANCH  21  33
ATOM     33  O   UNL     1      25.025  33.367  12.322  1.00  0.00    -0.385 OA
ATOM     34  H   UNL     1      24.360  33.625  11.642  1.00  0.00     0.211 HD
ENDBRANCH  21  33
ENDBRANCH  15  16
ENDBRANCH  10  15
BRANCH  12  35
ATOM     35  O   UNL     1      25.743  29.675  17.039  1.00  0.00    -0.385 OA
ATOM     36  H   UNL     1      26.050  29.939  17.964  1.00  0.00     0.211 HD
ENDBRANCH  12  35
BRANCH  13  37
ATOM     37  O   UNL     1      28.741  29.613  15.180  1.00  0.00    -0.387 OA
ATOM     38  H   UNL     1      29.383  30.392  15.165  1.00  0.00     0.211 HD
ENDBRANCH  13  37
BRANCH  14  39
ATOM     39  O   UNL     1      30.090  30.719  16.942  1.00  0.00    -0.387 OA
ATOM     40  H   UNL     1      30.427  30.041  16.305  1.00  0.00     0.211 HD
ENDBRANCH  14  39
ENDBRANCH   8   9
ENDBRANCH   7   8
ENDBRANCH   1   7
BRANCH   1  41
ATOM     41  C   UNL     1      30.757  34.377  19.893  1.00  0.00     0.364 C 
ATOM     42  O   UNL     1      30.141  35.120  20.741  1.00  0.00    -0.246 OA
BRANCH  41  43
ATOM     43  O   UNL     1      31.924  33.831  20.342  1.00  0.00    -0.477 OA
ATOM     44  H   UNL     1      32.088  33.594  21.329  1.00  0.00     0.296 HD
ENDBRANCH  41  43
ENDBRANCH   1  41
BRANCH   3  45
ATOM     45  O   UNL     1      31.080  37.519  17.274  1.00  0.00    -0.391 OA
ATOM     46  H   UNL     1      31.991  37.808  16.955  1.00  0.00     0.211 HD
ENDBRANCH   3  45
BRANCH   5  47
ATOM     47  C   UNL     1      31.836  33.406  15.537  1.00  0.00     0.176 C 
BRANCH  47  48
ATOM     48  O   UNL     1      32.858  34.005  14.824  1.00  0.00    -0.388 OA
ATOM     49  H   UNL     1      32.648  34.257  13.910  1.00  0.00     0.211 HD
ENDBRANCH  47  48
BRANCH  47  50
ATOM     50  C   UNL     1      30.478  33.526  14.961  1.00  0.00     0.165 C 
BRANCH  50  51
ATOM     51  O   UNL     1      29.993  32.253  14.669  1.00  0.00    -0.388 OA
ATOM     52  H   UNL     1      29.962  31.784  15.552  1.00  0.00     0.211 HD
ENDBRANCH  50  51
BRANCH  50  53
ATOM     53  C   UNL     1      30.462  34.324  13.667  1.00  0.00     0.154 C 
BRANCH  53  54
ATOM     54  N   UNL     1      30.213  35.706  13.999  1.00  0.00    -0.319 N 
ATOM     55  C   UNL     1      31.235  36.694  13.737  1.00  0.00     0.407 C 
ATOM     56  H   UNL     1      29.318  36.031  14.430  1.00  0.00     0.167 HD
ATOM     57  O   UNL     1      32.338  36.368  13.226  1.00  0.00    -0.225 OA
BRANCH  55  58
ATOM     58  O   UNL     1      30.929  37.997  14.074  1.00  0.00    -0.443 OA
BRANCH  58  59
ATOM     59  C   UNL     1      29.736  38.593  13.660  1.00  0.00     0.294 C 
BRANCH  59  60
ATOM     60  C   UNL     1      29.625  38.641  12.195  1.00  0.00     0.121 A 
ATOM     61  C   UNL     1      28.589  38.032  11.471  1.00  0.00     0.144 A 
ATOM     62  N   UNL     1      30.413  39.226  11.301  1.00  0.00    -0.131 NA
ATOM     63  N   UNL     1      28.811  38.282  10.185  1.00  0.00    -0.220 N 
ATOM     64  N   UNL     1      29.899  38.993  10.107  1.00  0.00    -0.062 NA
BRANCH  63  65
ATOM     65  C   UNL     1      27.955  37.828   9.127  1.00  0.00     0.068 A 
ATOM     66  C   UNL     1      26.590  37.680   9.382  1.00  0.00     0.050 A 
ATOM     67  C   UNL     1      28.456  37.547   7.892  1.00  0.00     0.028 A 
ATOM     68  C   UNL     1      25.729  37.252   8.403  1.00  0.00     0.084 A 
ATOM     69  C   UNL     1      27.615  37.122   6.915  1.00  0.00     0.004 A 
ATOM     70  C   UNL     1      26.246  36.966   7.147  1.00  0.00     0.022 A 
BRANCH  68  71
ATOM     71  S   UNL     1      24.018  37.047   8.650  1.00  0.00     0.238 S 
ATOM     72  O   UNL     1      23.578  37.968   9.753  1.00  0.00    -0.207 OA
ATOM     73  O   UNL     1      23.714  35.639   9.050  1.00  0.00    -0.207 OA
BRANCH  71  74
ATOM     74  N   UNL     1      23.193  37.448   7.172  1.00  0.00    -0.225 NA
ATOM     75  H   UNL     1      22.173  37.537   7.379  1.00  0.00     0.137 HD
ATOM     76  H   UNL     1      23.416  36.775   6.410  1.00  0.00     0.137 HD
ENDBRANCH  71  74
ENDBRANCH  68  71
ENDBRANCH  63  65
ENDBRANCH  59  60
ENDBRANCH  58  59
ENDBRANCH  55  58
ENDBRANCH  53  54
ENDBRANCH  50  53
ENDBRANCH  47  50
ENDBRANCH   5  47
BRANCH   4  77
ATOM     77  N   UNL     1      33.552  35.627  17.303  1.00  0.00    -0.348 N 
ATOM     78  C   UNL     1      34.302  36.757  16.880  1.00  0.00     0.217 C 
ATOM     79  H   UNL     1      34.018  34.930  17.920  1.00  0.00     0.163 HD
ATOM     80  C   UNL     1      35.711  36.925  17.318  1.00  0.00     0.114 C 
ATOM     81  O   UNL     1      33.732  37.600  16.128  1.00  0.00    -0.275 OA
ENDBRANCH   4  77
TORSDOF 32
BEGIN_RES LYS A 131
REMARK  4 active torsions:
REMARK  status: ('A' for Active; 'I' for Inactive)
REMARK    1  A    between atoms: CA   and  CB  
REMARK    2  A    between atoms: CB   and  CG  
REMARK    3  A    between atoms: CG   and  CD  
REMARK    4  A    between atoms: CD   and  CE  
ROOT
ATOM      1  CA  LYS A 131      29.867  25.555  16.977  1.00 20.52     0.186 C 
ENDROOT
BRANCH   1   2
ATOM      2  CB  LYS A 131      28.345  25.722  17.026  1.00 20.94     0.034 C 
BRANCH   2   3
ATOM      3  CG  LYS A 131      27.602  24.397  16.947  1.00 22.96     0.005 C 
BRANCH   3   4
ATOM      4  CD  LYS A 131      26.337  24.408  17.759  1.00 24.33     0.041 C 
BRANCH   4   5
ATOM      5  CE  LYS A 131      25.577  23.104  17.536  1.00 26.91     0.338 C 
ATOM      6  NZ  LYS A 131      24.214  23.378  17.023  1.00 27.40     0.618 N 
ENDBRANCH   4   5
ENDBRANCH   3   4
ENDBRANCH   2   3
ENDBRANCH   1   2
END_RES LYS A 131
BEGIN_RES LYS A 135
REMARK  4 active torsions:
REMARK  status: ('A' for Active; 'I' for Inactive)
REMARK    5  A    between atoms: CA   and  CB  
REMARK    6  A    between atoms: CB   and  CG  
REMARK    7  A    between atoms: CG   and  CD  
REMARK    8  A    between atoms: CD   and  CE  
ROOT
ATOM      7  CA  LYS A 135      33.193  34.663   9.290  1.00 25.02     0.186 C 
ENDROOT
BRANCH   7   8
ATOM      8  CB  LYS A 135      32.060  35.360  10.034  1.00 26.63     0.034 C 
BRANCH   8   9
ATOM      9  CG  LYS A 135      30.757  35.369   9.277  1.00 29.45     0.005 C 
BRANCH   9  10
ATOM     10  CD  LYS A 135      29.678  34.634  10.057  1.00 32.00     0.041 C 
BRANCH  10  11
ATOM     11  CE  LYS A 135      28.613  34.099   9.119  1.00 34.25     0.338 C 
ATOM     12  NZ  LYS A 135      27.275  34.095   9.773  1.00 35.99     0.618 N 
ENDBRANCH  10  11
ENDBRANCH   9  10
ENDBRANCH   8   9
ENDBRANCH   7   8
END_RES LYS A 135
