REMARK VINA RESULT:    -4.937      2.567      4.198
REMARK INTER + INTRA:         -22.459
REMARK INTER:                 -11.826
REMARK INTRA:                 -10.633
REMARK UNBOUND:               -10.018
REMARK SMILES COc1ccc(-n2cc(COC(=O)NC[C@@H](O)C(O)[C@@H]3O[C@@](OC[C@H]4O[C@@H](O[C@H]5[C@H](O)[C@@H](O)[C@H](OCCN=[N+]=[N-])O[C@@H]5CO)[C@H](O)[C@@H](O)[C@H]4O)(C(=O)O)C[C@H](O)[C@H]3NC(C)=O)nn2)cc1
REMARK SMILES IDX 22 1 54 2 55 3 57 4 20 5 21 6 23 7 24 8 25 9 27 10 26 11
REMARK SMILES IDX 45 12 47 13 49 14 28 15 29 16 42 17 41 18 34 19 30 20 32 21
REMARK SMILES IDX 43 22 44 23 35 25 36 26 37 27 38 28 39 29 40 30 31 31 33 33
REMARK SMILES IDX 46 35 48 37 50 39 51 41 52 42 53 43 56 45 18 47 19 48 16 50
REMARK SMILES IDX 17 51 15 53 14 54 12 55 13 57 11 58 10 59 9 60 8 61 62 62
REMARK SMILES IDX 7 63 63 64 6 65 5 66 64 67 4 68 65 69 3 70 2 71 1 72 58 73
REMARK SMILES IDX 59 74 60 76 61 77
REMARK H PARENT 44 24 31 32 33 34 46 36 48 38 50 40 53 44 56 46 19 49 17 52
REMARK H PARENT 14 56 58 75
REMARK Flexibility Score: inf
ROOT
ATOM      1  C   UNL     1      24.422  36.201   9.557  1.00  0.00     0.272 C 
ATOM      2  C   UNL     1      23.145  35.667  10.090  1.00  0.00     0.113 C 
ATOM      3  C   UNL     1      21.926  35.914   9.291  1.00  0.00     0.145 C 
ATOM      4  C   UNL     1      22.186  37.140   8.392  1.00  0.00     0.142 C 
ATOM      5  C   UNL     1      23.021  38.086   9.179  1.00  0.00     0.178 C 
ATOM      6  O   UNL     1      24.312  37.562   9.219  1.00  0.00    -0.332 OA
ENDROOT
BRANCH   1   7
ATOM      7  O   UNL     1      25.164  35.612   8.673  1.00  0.00    -0.338 OA
BRANCH   7   8
ATOM      8  C   UNL     1      25.852  34.550   8.478  1.00  0.00     0.199 C 
BRANCH   8   9
ATOM      9  C   UNL     1      27.343  34.524   8.296  1.00  0.00     0.179 C 
ATOM     10  C   UNL     1      29.227  35.654   7.667  1.00  0.00     0.282 C 
ATOM     11  O   UNL     1      27.860  35.735   7.986  1.00  0.00    -0.341 OA
ATOM     12  C   UNL     1      30.076  35.117   8.775  1.00  0.00     0.202 C 
ATOM     13  C   UNL     1      29.359  34.359   9.828  1.00  0.00     0.179 C 
ATOM     14  C   UNL     1      28.041  33.824   9.437  1.00  0.00     0.177 C 
BRANCH  10  15
ATOM     15  O   UNL     1      29.647  36.943   7.353  1.00  0.00    -0.341 OA
BRANCH  15  16
ATOM     16  C   UNL     1      28.684  37.890   7.568  1.00  0.00     0.184 C 
ATOM     17  C   UNL     1      28.500  38.801   6.410  1.00  0.00     0.178 C 
ATOM     18  O   UNL     1      27.565  39.825   6.719  1.00  0.00    -0.341 OA
ATOM     19  C   UNL     1      28.232  40.667   7.647  1.00  0.00     0.281 C 
ATOM     20  C   UNL     1      29.094  38.712   8.804  1.00  0.00     0.180 C 
ATOM     21  C   UNL     1      28.161  39.882   8.959  1.00  0.00     0.202 C 
BRANCH  17  22
ATOM     22  C   UNL     1      28.030  38.066   5.181  1.00  0.00     0.191 C 
BRANCH  22  23
ATOM     23  O   UNL     1      27.040  37.169   5.542  1.00  0.00    -0.394 OA
ATOM     24  H   UNL     1      26.438  37.520   6.235  1.00  0.00     0.210 HD
ENDBRANCH  22  23
ENDBRANCH  17  22
BRANCH  19  25
ATOM     25  O   UNL     1      27.634  41.875   7.740  1.00  0.00    -0.350 OA
BRANCH  25  26
ATOM     26  C   UNL     1      26.361  41.969   8.208  1.00  0.00     0.169 C 
BRANCH  26  27
ATOM     27  C   UNL     1      25.391  42.777   7.412  1.00  0.00     0.119 C 
BRANCH  27  28
ATOM     28  N   UNL     1      24.556  42.042   6.511  1.00  0.00    -0.092 NA
ATOM     29  N   UNL     1      23.521  42.524   6.064  1.00  0.00     0.001 N 
ATOM     30  N   UNL     1      22.453  43.081   5.789  1.00  0.00    -0.003 NA
ENDBRANCH  27  28
ENDBRANCH  26  27
ENDBRANCH  25  26
ENDBRANCH  19  25
BRANCH  20  31
ATOM     31  O   UNL     1      29.082  37.883   9.910  1.00  0.00    -0.387 OA
ATOM     32  H   UNL     1      29.211  36.943   9.573  1.00  0.00     0.211 HD
ENDBRANCH  20  31
BRANCH  21  33
ATOM     33  O   UNL     1      28.590  40.710   9.972  1.00  0.00    -0.385 OA
ATOM     34  H   UNL     1      27.960  40.706  10.735  1.00  0.00     0.211 HD
ENDBRANCH  21  33
ENDBRANCH  15  16
ENDBRANCH  10  15
BRANCH  12  35
ATOM     35  O   UNL     1      31.086  34.271   8.285  1.00  0.00    -0.385 OA
ATOM     36  H   UNL     1      30.935  33.338   8.555  1.00  0.00     0.211 HD
ENDBRANCH  12  35
BRANCH  13  37
ATOM     37  O   UNL     1      29.332  35.096  11.018  1.00  0.00    -0.387 OA
ATOM     38  H   UNL     1      29.531  34.557  11.811  1.00  0.00     0.211 HD
ENDBRANCH  13  37
BRANCH  14  39
ATOM     39  O   UNL     1      27.229  33.752  10.572  1.00  0.00    -0.387 OA
ATOM     40  H   UNL     1      27.815  33.918  11.353  1.00  0.00     0.211 HD
ENDBRANCH  14  39
ENDBRANCH   8   9
ENDBRANCH   7   8
ENDBRANCH   1   7
BRANCH   1  41
ATOM     41  C   UNL     1      25.300  36.311  10.844  1.00  0.00     0.364 C 
ATOM     42  O   UNL     1      24.848  35.966  11.938  1.00  0.00    -0.246 OA
BRANCH  41  43
ATOM     43  O   UNL     1      26.569  36.803  10.670  1.00  0.00    -0.477 OA
ATOM     44  H   UNL     1      27.020  36.826   9.744  1.00  0.00     0.296 HD
ENDBRANCH  41  43
ENDBRANCH   1  41
BRANCH   3  45
ATOM     45  O   UNL     1      21.416  34.857   8.594  1.00  0.00    -0.391 OA
ATOM     46  H   UNL     1      20.929  34.186   9.122  1.00  0.00     0.211 HD
ENDBRANCH   3  45
BRANCH   5  47
ATOM     47  C   UNL     1      23.181  39.469   8.505  1.00  0.00     0.176 C 
BRANCH  47  48
ATOM     48  O   UNL     1      22.999  39.377   7.159  1.00  0.00    -0.388 OA
ATOM     49  H   UNL     1      23.158  38.450   6.866  1.00  0.00     0.211 HD
ENDBRANCH  47  48
BRANCH  47  50
ATOM     50  C   UNL     1      22.622  40.540   9.292  1.00  0.00     0.165 C 
BRANCH  50  51
ATOM     51  O   UNL     1      21.929  41.551   8.570  1.00  0.00    -0.388 OA
ATOM     52  H   UNL     1      22.623  42.139   8.214  1.00  0.00     0.211 HD
ENDBRANCH  50  51
BRANCH  50  53
ATOM     53  C   UNL     1      23.347  41.272  10.343  1.00  0.00     0.154 C 
BRANCH  53  54
ATOM     54  N   UNL     1      23.654  40.629  11.539  1.00  0.00    -0.319 N 
ATOM     55  C   UNL     1      24.837  39.940  11.845  1.00  0.00     0.407 C 
ATOM     56  H   UNL     1      22.916  40.652  12.324  1.00  0.00     0.167 HD
ATOM     57  O   UNL     1      25.777  39.854  11.038  1.00  0.00    -0.225 OA
BRANCH  55  58
ATOM     58  O   UNL     1      24.967  39.323  13.111  1.00  0.00    -0.443 OA
BRANCH  58  59
ATOM     59  C   UNL     1      26.180  39.510  13.796  1.00  0.00     0.294 C 
BRANCH  59  60
ATOM     60  C   UNL     1      26.981  38.264  13.745  1.00  0.00     0.121 A 
ATOM     61  C   UNL     1      26.943  37.152  14.564  1.00  0.00     0.144 A 
ATOM     62  N   UNL     1      27.922  38.011  12.813  1.00  0.00    -0.131 NA
ATOM     63  N   UNL     1      27.849  36.281  14.103  1.00  0.00    -0.220 N 
ATOM     64  N   UNL     1      28.434  36.829  13.033  1.00  0.00    -0.062 NA
BRANCH  63  65
ATOM     65  C   UNL     1      28.226  34.987  14.546  1.00  0.00     0.067 A 
ATOM     66  C   UNL     1      27.406  34.145  15.248  1.00  0.00     0.032 A 
ATOM     67  C   UNL     1      29.514  34.532  14.266  1.00  0.00     0.032 A 
ATOM     68  C   UNL     1      27.842  32.895  15.661  1.00  0.00     0.048 A 
ATOM     69  C   UNL     1      29.949  33.288  14.678  1.00  0.00     0.048 A 
ATOM     70  C   UNL     1      29.120  32.442  15.384  1.00  0.00     0.119 A 
BRANCH  70  71
ATOM     71  O   UNL     1      29.551  31.171  15.811  1.00  0.00    -0.497 OA
ATOM     72  C   UNL     1      30.085  31.079  17.140  1.00  0.00     0.278 C 
ENDBRANCH  70  71
ENDBRANCH  63  65
ENDBRANCH  59  60
ENDBRANCH  58  59
ENDBRANCH  55  58
ENDBRANCH  53  54
ENDBRANCH  50  53
ENDBRANCH  47  50
ENDBRANCH   5  47
BRANCH   4  73
ATOM     73  N   UNL     1      20.927  37.611   7.887  1.00  0.00    -0.348 N 
ATOM     74  C   UNL     1      19.902  38.056   8.762  1.00  0.00     0.217 C 
ATOM     75  H   UNL     1      20.774  37.655   6.864  1.00  0.00     0.163 HD
ATOM     76  C   UNL     1      18.608  38.538   8.213  1.00  0.00     0.114 C 
ATOM     77  O   UNL     1      20.033  38.065  10.014  1.00  0.00    -0.275 OA
ENDBRANCH   4  73
TORSDOF 31
BEGIN_RES LYS A 131
REMARK  4 active torsions:
REMARK  status: ('A' for Active; 'I' for Inactive)
REMARK    1  A    between atoms: CA   and  CB  
REMARK    2  A    between atoms: CB   and  CG  
REMARK    3  A    between atoms: CG   and  CD  
REMARK    4  A    between atoms: CD   and  CE  
ROOT
ATOM      1  CA  LYS A 131      29.867  25.555  16.977  1.00 20.52     0.186 C 
ENDROOT
BRANCH   1   2
ATOM      2  CB  LYS A 131      28.345  25.722  17.026  1.00 20.94     0.034 C 
BRANCH   2   3
ATOM      3  CG  LYS A 131      27.601  24.401  16.900  1.00 22.96     0.005 C 
BRANCH   3   4
ATOM      4  CD  LYS A 131      26.534  24.250  17.948  1.00 24.33     0.041 C 
BRANCH   4   5
ATOM      5  CE  LYS A 131      25.160  24.347  17.293  1.00 26.91     0.338 C 
ATOM      6  NZ  LYS A 131      24.506  23.018  17.259  1.00 27.40     0.618 N 
ENDBRANCH   4   5
ENDBRANCH   3   4
ENDBRANCH   2   3
ENDBRANCH   1   2
END_RES LYS A 131
BEGIN_RES LYS A 135
REMARK  4 active torsions:
REMARK  status: ('A' for Active; 'I' for Inactive)
REMARK    5  A    between atoms: CA   and  CB  
REMARK    6  A    between atoms: CB   and  CG  
REMARK    7  A    between atoms: CG   and  CD  
REMARK    8  A    between atoms: CD   and  CE  
ROOT
ATOM      7  CA  LYS A 135      33.193  34.663   9.290  1.00 25.02     0.186 C 
ENDROOT
BRANCH   7   8
ATOM      8  CB  LYS A 135      32.060  35.360  10.034  1.00 26.63     0.034 C 
BRANCH   8   9
ATOM      9  CG  LYS A 135      32.529  36.453  10.959  1.00 29.45     0.005 C 
BRANCH   9  10
ATOM     10  CD  LYS A 135      32.423  36.010  12.410  1.00 32.00     0.041 C 
BRANCH  10  11
ATOM     11  CE  LYS A 135      31.876  37.133  13.271  1.00 34.25     0.338 C 
ATOM     12  NZ  LYS A 135      31.451  38.291  12.436  1.00 35.99     0.618 N 
ENDBRANCH  10  11
ENDBRANCH   9  10
ENDBRANCH   8   9
ENDBRANCH   7   8
END_RES LYS A 135
