REMARK VINA RESULT:    -4.921      4.500      8.048
REMARK INTER + INTRA:         -22.130
REMARK INTER:                 -11.402
REMARK INTRA:                 -10.728
REMARK UNBOUND:                -9.729
REMARK SMILES CC(=O)N[C@@H]1[C@@H](O)C[C@](OC[C@H]2O[C@@H](O[C@H]3[C@H](O)[C@@H](O)[C@H](OCCN=[N+]=[N-])O[C@@H]3CO)[C@H](O)[C@@H](O)[C@H]2O)(C(=O)O)O[C@H]1C(O)[C@H](O)CNC(=O)OCc1cn(-c2ncccc2C#N)nn1
REMARK SMILES IDX 9 1 8 2 6 3 5 4 42 5 41 6 10 7 11 8 12 9 14 10 13 11 32 12
REMARK SMILES IDX 34 13 36 14 15 15 16 16 29 17 28 18 21 19 17 20 19 21 30 22
REMARK SMILES IDX 31 23 22 25 23 26 24 27 25 28 26 29 27 30 18 31 20 33 33 35
REMARK SMILES IDX 35 37 37 39 38 41 39 42 40 43 7 45 43 47 44 48 45 50 46 51
REMARK SMILES IDX 47 53 48 54 49 55 50 57 51 58 52 59 53 60 54 61 65 62 55 63
REMARK SMILES IDX 64 64 56 65 57 66 61 67 58 68 60 69 59 70 62 71 63 72 4 73
REMARK SMILES IDX 2 74 1 76 3 77
REMARK H PARENT 31 24 18 32 20 34 33 36 35 38 37 40 40 44 7 46 44 49 46 52
REMARK H PARENT 48 56 4 75
REMARK Flexibility Score: inf
ROOT
ATOM      1  C   UNL     1      30.877  35.514  13.308  1.00  0.00     0.272 C 
ATOM      2  C   UNL     1      32.235  35.151  12.879  1.00  0.00     0.113 C 
ATOM      3  C   UNL     1      33.187  34.986  13.998  1.00  0.00     0.145 C 
ATOM      4  C   UNL     1      32.615  34.541  15.304  1.00  0.00     0.142 C 
ATOM      5  C   UNL     1      31.147  34.224  15.316  1.00  0.00     0.178 C 
ATOM      6  O   UNL     1      30.419  34.874  14.437  1.00  0.00    -0.332 OA
ENDROOT
BRANCH   1   7
ATOM      7  O   UNL     1      29.844  35.456  12.462  1.00  0.00    -0.338 OA
BRANCH   7   8
ATOM      8  C   UNL     1      28.893  34.609  12.216  1.00  0.00     0.199 C 
BRANCH   8   9
ATOM      9  C   UNL     1      27.615  35.419  11.973  1.00  0.00     0.179 C 
ATOM     10  C   UNL     1      25.550  35.377  11.038  1.00  0.00     0.282 C 
ATOM     11  O   UNL     1      26.905  34.893  10.929  1.00  0.00    -0.341 OA
ATOM     12  C   UNL     1      24.869  34.696  12.169  1.00  0.00     0.202 C 
ATOM     13  C   UNL     1      25.693  34.813  13.455  1.00  0.00     0.179 C 
ATOM     14  C   UNL     1      26.833  35.725  13.196  1.00  0.00     0.177 C 
BRANCH  10  15
ATOM     15  O   UNL     1      24.896  35.220   9.866  1.00  0.00    -0.341 OA
BRANCH  15  16
ATOM     16  C   UNL     1      24.862  36.317   9.052  1.00  0.00     0.184 C 
ATOM     17  C   UNL     1      24.910  37.612   9.915  1.00  0.00     0.178 C 
ATOM     18  O   UNL     1      23.664  38.232   9.829  1.00  0.00    -0.341 OA
ATOM     19  C   UNL     1      22.642  37.340  10.184  1.00  0.00     0.281 C 
ATOM     20  C   UNL     1      23.652  36.404   8.159  1.00  0.00     0.180 C 
ATOM     21  C   UNL     1      22.383  36.425   9.019  1.00  0.00     0.202 C 
BRANCH  17  22
ATOM     22  C   UNL     1      26.019  38.478   9.412  1.00  0.00     0.191 C 
BRANCH  22  23
ATOM     23  O   UNL     1      25.568  39.412   8.461  1.00  0.00    -0.394 OA
ATOM     24  H   UNL     1      24.608  39.612   8.568  1.00  0.00     0.210 HD
ENDBRANCH  22  23
ENDBRANCH  17  22
BRANCH  19  25
ATOM     25  O   UNL     1      21.549  38.105  10.521  1.00  0.00    -0.350 OA
BRANCH  25  26
ATOM     26  C   UNL     1      21.231  37.978  11.885  1.00  0.00     0.169 C 
BRANCH  26  27
ATOM     27  C   UNL     1      20.260  36.835  12.097  1.00  0.00     0.119 C 
BRANCH  27  28
ATOM     28  N   UNL     1      20.883  35.945  13.085  1.00  0.00    -0.092 NA
ATOM     29  N   UNL     1      20.574  36.173  14.284  1.00  0.00     0.001 N 
ATOM     30  N   UNL     1      20.611  36.544  15.466  1.00  0.00    -0.003 NA
ENDBRANCH  27  28
ENDBRANCH  26  27
ENDBRANCH  25  26
ENDBRANCH  19  25
BRANCH  20  31
ATOM     31  O   UNL     1      23.669  37.504   7.333  1.00  0.00    -0.387 OA
ATOM     32  H   UNL     1      23.734  38.378   7.750  1.00  0.00     0.211 HD
ENDBRANCH  20  31
BRANCH  21  33
ATOM     33  O   UNL     1      22.069  35.132   9.425  1.00  0.00    -0.385 OA
ATOM     34  H   UNL     1      21.081  35.036   9.343  1.00  0.00     0.211 HD
ENDBRANCH  21  33
ENDBRANCH  15  16
ENDBRANCH  10  15
BRANCH  12  35
ATOM     35  O   UNL     1      23.616  35.237  12.390  1.00  0.00    -0.385 OA
ATOM     36  H   UNL     1      23.365  35.762  11.560  1.00  0.00     0.211 HD
ENDBRANCH  12  35
BRANCH  13  37
ATOM     37  O   UNL     1      26.133  33.524  13.837  1.00  0.00    -0.387 OA
ATOM     38  H   UNL     1      26.742  33.592  14.625  1.00  0.00     0.211 HD
ENDBRANCH  13  37
BRANCH  14  39
ATOM     39  O   UNL     1      27.695  35.869  14.287  1.00  0.00    -0.387 OA
ATOM     40  H   UNL     1      27.169  35.839  15.149  1.00  0.00     0.211 HD
ENDBRANCH  14  39
ENDBRANCH   8   9
ENDBRANCH   7   8
ENDBRANCH   1   7
BRANCH   1  41
ATOM     41  C   UNL     1      30.966  36.985  13.711  1.00  0.00     0.364 C 
ATOM     42  O   UNL     1      31.686  37.811  13.176  1.00  0.00    -0.246 OA
BRANCH  41  43
ATOM     43  O   UNL     1      30.166  37.445  14.776  1.00  0.00    -0.477 OA
ATOM     44  H   UNL     1      29.377  36.923  15.127  1.00  0.00     0.296 HD
ENDBRANCH  41  43
ENDBRANCH   1  41
BRANCH   3  45
ATOM     45  O   UNL     1      34.271  34.176  13.610  1.00  0.00    -0.391 OA
ATOM     46  H   UNL     1      34.999  34.396  14.280  1.00  0.00     0.211 HD
ENDBRANCH   3  45
BRANCH   5  47
ATOM     47  C   UNL     1      30.906  32.688  15.296  1.00  0.00     0.176 C 
BRANCH  47  48
ATOM     48  O   UNL     1      29.634  32.506  14.676  1.00  0.00    -0.388 OA
ATOM     49  H   UNL     1      29.719  31.997  13.852  1.00  0.00     0.211 HD
ENDBRANCH  47  48
BRANCH  47  50
ATOM     50  C   UNL     1      30.840  32.032  16.577  1.00  0.00     0.165 C 
BRANCH  50  51
ATOM     51  O   UNL     1      30.194  30.772  16.627  1.00  0.00    -0.388 OA
ATOM     52  H   UNL     1      30.652  30.151  15.978  1.00  0.00     0.211 HD
ENDBRANCH  50  51
BRANCH  50  53
ATOM     53  C   UNL     1      30.157  32.812  17.654  1.00  0.00     0.154 C 
BRANCH  53  54
ATOM     54  N   UNL     1      28.803  32.572  17.961  1.00  0.00    -0.319 N 
ATOM     55  C   UNL     1      27.648  33.095  17.381  1.00  0.00     0.407 C 
ATOM     56  H   UNL     1      28.604  31.877  18.780  1.00  0.00     0.167 HD
ATOM     57  O   UNL     1      27.784  33.900  16.427  1.00  0.00    -0.225 OA
BRANCH  55  58
ATOM     58  O   UNL     1      26.384  32.706  17.867  1.00  0.00    -0.443 OA
BRANCH  58  59
ATOM     59  C   UNL     1      25.958  31.392  17.658  1.00  0.00     0.294 C 
BRANCH  59  60
ATOM     60  C   UNL     1      25.421  31.180  16.327  1.00  0.00     0.121 A 
ATOM     61  C   UNL     1      24.139  31.334  15.953  1.00  0.00     0.146 A 
ATOM     62  N   UNL     1      26.124  30.715  15.206  1.00  0.00    -0.131 NA
ATOM     63  N   UNL     1      23.993  30.995  14.679  1.00  0.00    -0.201 N 
ATOM     64  N   UNL     1      25.188  30.646  14.306  1.00  0.00    -0.060 NA
BRANCH  63  65
ATOM     65  C   UNL     1      22.865  31.042  13.831  1.00  0.00     0.173 A 
ATOM     66  N   UNL     1      22.626  32.241  13.238  1.00  0.00    -0.236 NA
ATOM     67  C   UNL     1      21.967  29.972  13.725  1.00  0.00     0.097 A 
ATOM     68  C   UNL     1      21.396  32.386  12.493  1.00  0.00     0.113 A 
ATOM     69  C   UNL     1      20.812  30.188  13.005  1.00  0.00     0.025 A 
ATOM     70  C   UNL     1      20.577  31.365  12.429  1.00  0.00     0.022 A 
BRANCH  67  71
ATOM     71  C   UNL     1      22.201  28.657  14.229  1.00  0.00     0.103 C 
ATOM     72  N   UNL     1      22.379  27.540  14.659  1.00  0.00    -0.192 NA
ENDBRANCH  67  71
ENDBRANCH  63  65
ENDBRANCH  59  60
ENDBRANCH  58  59
ENDBRANCH  55  58
ENDBRANCH  53  54
ENDBRANCH  50  53
ENDBRANCH  47  50
ENDBRANCH   5  47
BRANCH   4  73
ATOM     73  N   UNL     1      33.091  35.490  16.287  1.00  0.00    -0.348 N 
ATOM     74  C   UNL     1      32.339  36.237  17.198  1.00  0.00     0.217 C 
ATOM     75  H   UNL     1      34.159  35.671  16.332  1.00  0.00     0.163 HD
ATOM     76  C   UNL     1      33.021  37.153  18.196  1.00  0.00     0.114 C 
ATOM     77  O   UNL     1      31.091  36.223  17.282  1.00  0.00    -0.275 OA
ENDBRANCH   4  73
TORSDOF 31
BEGIN_RES LYS A 131
REMARK  4 active torsions:
REMARK  status: ('A' for Active; 'I' for Inactive)
REMARK    1  A    between atoms: CA   and  CB  
REMARK    2  A    between atoms: CB   and  CG  
REMARK    3  A    between atoms: CG   and  CD  
REMARK    4  A    between atoms: CD   and  CE  
ROOT
ATOM      1  CA  LYS A 131      29.867  25.555  16.977  1.00 20.52     0.186 C 
ENDROOT
BRANCH   1   2
ATOM      2  CB  LYS A 131      28.345  25.722  17.026  1.00 20.94     0.034 C 
BRANCH   2   3
ATOM      3  CG  LYS A 131      27.599  24.427  16.744  1.00 22.96     0.005 C 
BRANCH   3   4
ATOM      4  CD  LYS A 131      26.995  23.838  17.989  1.00 24.33     0.041 C 
BRANCH   4   5
ATOM      5  CE  LYS A 131      25.607  24.430  18.210  1.00 26.91     0.338 C 
ATOM      6  NZ  LYS A 131      24.872  24.523  16.926  1.00 27.40     0.618 N 
ENDBRANCH   4   5
ENDBRANCH   3   4
ENDBRANCH   2   3
ENDBRANCH   1   2
END_RES LYS A 131
BEGIN_RES LYS A 135
REMARK  4 active torsions:
REMARK  status: ('A' for Active; 'I' for Inactive)
REMARK    5  A    between atoms: CA   and  CB  
REMARK    6  A    between atoms: CB   and  CG  
REMARK    7  A    between atoms: CG   and  CD  
REMARK    8  A    between atoms: CD   and  CE  
ROOT
ATOM      7  CA  LYS A 135      33.193  34.663   9.290  1.00 25.02     0.186 C 
ENDROOT
BRANCH   7   8
ATOM      8  CB  LYS A 135      32.060  35.360  10.034  1.00 26.63     0.034 C 
BRANCH   8   9
ATOM      9  CG  LYS A 135      30.870  35.673   9.164  1.00 29.45     0.005 C 
BRANCH   9  10
ATOM     10  CD  LYS A 135      30.157  34.395   8.750  1.00 32.00     0.041 C 
BRANCH  10  11
ATOM     11  CE  LYS A 135      28.854  34.717   8.045  1.00 34.25     0.338 C 
ATOM     12  NZ  LYS A 135      28.493  36.152   8.212  1.00 35.99     0.618 N 
ENDBRANCH  10  11
ENDBRANCH   9  10
ENDBRANCH   8   9
ENDBRANCH   7   8
END_RES LYS A 135
