REMARK VINA RESULT:    -4.753      2.481      7.662
REMARK INTER + INTRA:         -22.363
REMARK INTER:                 -12.349
REMARK INTRA:                 -10.014
REMARK UNBOUND:               -10.664
REMARK SMILES CC(=O)N[C@@H]1[C@@H](O)C[C@](OC[C@H]2O[C@@H](O[C@H]3[C@H](O)[C@@H](O)[C@H](OCCN=[N+]=[N-])O[C@@H]3CO)[C@H](O)[C@@H](O)[C@H]2O)(C(=O)O)O[C@H]1C(O)[C@H](O)CNC(=O)OCc1cn(-c2ccc(Br)cc2)nn1
REMARK SMILES IDX 9 1 8 2 6 3 5 4 42 5 41 6 10 7 11 8 12 9 14 10 13 11 32 12
REMARK SMILES IDX 34 13 36 14 15 15 16 16 29 17 28 18 21 19 17 20 19 21 30 22
REMARK SMILES IDX 31 23 22 25 23 26 24 27 25 28 26 29 27 30 18 31 20 33 33 35
REMARK SMILES IDX 35 37 37 39 38 41 39 42 40 43 7 45 43 47 44 48 45 50 46 51
REMARK SMILES IDX 47 53 48 54 49 55 50 57 51 58 52 59 53 60 54 61 64 62 55 63
REMARK SMILES IDX 63 64 56 65 57 66 62 67 58 68 61 69 59 70 60 71 4 72 2 73
REMARK SMILES IDX 1 75 3 76
REMARK H PARENT 31 24 18 32 20 34 33 36 35 38 37 40 40 44 7 46 44 49 46 52
REMARK H PARENT 48 56 4 74
REMARK Flexibility Score: inf
ROOT
ATOM      1  C   UNL     1      29.246  32.234  17.580  1.00  0.00     0.272 C 
ATOM      2  C   UNL     1      30.474  32.340  18.526  1.00  0.00     0.113 C 
ATOM      3  C   UNL     1      30.082  31.787  19.845  1.00  0.00     0.145 C 
ATOM      4  C   UNL     1      29.624  30.335  19.603  1.00  0.00     0.142 C 
ATOM      5  C   UNL     1      28.342  30.468  18.814  1.00  0.00     0.178 C 
ATOM      6  O   UNL     1      28.708  30.980  17.589  1.00  0.00    -0.332 OA
ENDROOT
BRANCH   1   7
ATOM      7  O   UNL     1      29.817  32.463  16.324  1.00  0.00    -0.338 OA
BRANCH   7   8
ATOM      8  C   UNL     1      31.173  32.356  16.259  1.00  0.00     0.199 C 
BRANCH   8   9
ATOM      9  C   UNL     1      31.635  33.286  15.119  1.00  0.00     0.179 C 
ATOM     10  C   UNL     1      30.640  34.671  13.538  1.00  0.00     0.282 C 
ATOM     11  O   UNL     1      30.648  33.464  14.193  1.00  0.00    -0.341 OA
ATOM     12  C   UNL     1      31.944  35.359  13.503  1.00  0.00     0.202 C 
ATOM     13  C   UNL     1      32.666  35.474  14.807  1.00  0.00     0.179 C 
ATOM     14  C   UNL     1      32.021  34.581  15.817  1.00  0.00     0.177 C 
BRANCH  10  15
ATOM     15  O   UNL     1      29.566  35.395  14.055  1.00  0.00    -0.341 OA
BRANCH  15  16
ATOM     16  C   UNL     1      28.428  35.260  13.281  1.00  0.00     0.184 C 
ATOM     17  C   UNL     1      27.950  36.575  12.753  1.00  0.00     0.178 C 
ATOM     18  O   UNL     1      26.926  36.380  11.871  1.00  0.00    -0.341 OA
ATOM     19  C   UNL     1      26.265  35.190  11.885  1.00  0.00     0.281 C 
ATOM     20  C   UNL     1      27.262  34.729  14.131  1.00  0.00     0.180 C 
ATOM     21  C   UNL     1      26.041  34.579  13.249  1.00  0.00     0.202 C 
BRANCH  17  22
ATOM     22  C   UNL     1      29.081  37.263  12.014  1.00  0.00     0.191 C 
BRANCH  22  23
ATOM     23  O   UNL     1      28.598  38.004  10.962  1.00  0.00    -0.394 OA
ATOM     24  H   UNL     1      28.097  37.450  10.337  1.00  0.00     0.210 HD
ENDBRANCH  22  23
ENDBRANCH  17  22
BRANCH  19  25
ATOM     25  O   UNL     1      26.776  34.267  10.979  1.00  0.00    -0.350 OA
BRANCH  25  26
ATOM     26  C   UNL     1      26.926  34.755   9.696  1.00  0.00     0.169 C 
BRANCH  26  27
ATOM     27  C   UNL     1      25.652  35.160   9.034  1.00  0.00     0.119 C 
BRANCH  27  28
ATOM     28  N   UNL     1      25.894  36.285   8.146  1.00  0.00    -0.092 NA
ATOM     29  N   UNL     1      26.079  37.386   8.671  1.00  0.00     0.001 N 
ATOM     30  N   UNL     1      26.398  38.509   9.115  1.00  0.00    -0.003 NA
ENDBRANCH  27  28
ENDBRANCH  26  27
ENDBRANCH  25  26
ENDBRANCH  19  25
BRANCH  20  31
ATOM     31  O   UNL     1      27.630  33.563  14.777  1.00  0.00    -0.387 OA
ATOM     32  H   UNL     1      27.268  33.527  15.703  1.00  0.00     0.211 HD
ENDBRANCH  20  31
BRANCH  21  33
ATOM     33  O   UNL     1      24.883  35.067  13.812  1.00  0.00    -0.385 OA
ATOM     34  H   UNL     1      24.227  34.333  13.863  1.00  0.00     0.211 HD
ENDBRANCH  21  33
ENDBRANCH  15  16
ENDBRANCH  10  15
BRANCH  12  35
ATOM     35  O   UNL     1      32.741  34.672  12.545  1.00  0.00    -0.385 OA
ATOM     36  H   UNL     1      33.497  35.264  12.262  1.00  0.00     0.211 HD
ENDBRANCH  12  35
BRANCH  13  37
ATOM     37  O   UNL     1      32.618  36.804  15.286  1.00  0.00    -0.387 OA
ATOM     38  H   UNL     1      31.654  37.025  15.346  1.00  0.00     0.211 HD
ENDBRANCH  13  37
BRANCH  14  39
ATOM     39  O   UNL     1      30.926  35.180  16.436  1.00  0.00    -0.387 OA
ATOM     40  H   UNL     1      31.067  36.154  16.535  1.00  0.00     0.211 HD
ENDBRANCH  14  39
ENDBRANCH   8   9
ENDBRANCH   7   8
ENDBRANCH   1   7
BRANCH   1  41
ATOM     41  C   UNL     1      28.367  33.351  17.917  1.00  0.00     0.364 C 
ATOM     42  O   UNL     1      28.766  34.415  18.448  1.00  0.00    -0.246 OA
BRANCH  41  43
ATOM     43  O   UNL     1      27.013  33.279  17.652  1.00  0.00    -0.477 OA
ATOM     44  H   UNL     1      26.352  34.028  17.855  1.00  0.00     0.296 HD
ENDBRANCH  41  43
ENDBRANCH   1  41
BRANCH   3  45
ATOM     45  O   UNL     1      31.163  31.687  20.711  1.00  0.00    -0.391 OA
ATOM     46  H   UNL     1      31.763  32.449  20.573  1.00  0.00     0.211 HD
ENDBRANCH   3  45
BRANCH   5  47
ATOM     47  C   UNL     1      27.617  29.189  18.566  1.00  0.00     0.176 C 
BRANCH  47  48
ATOM     48  O   UNL     1      27.803  28.919  17.180  1.00  0.00    -0.388 OA
ATOM     49  H   UNL     1      27.198  28.176  16.928  1.00  0.00     0.211 HD
ENDBRANCH  47  48
BRANCH  47  50
ATOM     50  C   UNL     1      26.105  29.281  18.707  1.00  0.00     0.165 C 
BRANCH  50  51
ATOM     51  O   UNL     1      25.777  28.113  19.451  1.00  0.00    -0.388 OA
ATOM     52  H   UNL     1      26.569  27.857  20.021  1.00  0.00     0.211 HD
ENDBRANCH  50  51
BRANCH  50  53
ATOM     53  C   UNL     1      25.414  29.152  17.394  1.00  0.00     0.154 C 
BRANCH  53  54
ATOM     54  N   UNL     1      24.844  30.389  16.965  1.00  0.00    -0.319 N 
ATOM     55  C   UNL     1      25.422  31.266  15.993  1.00  0.00     0.407 C 
ATOM     56  H   UNL     1      23.915  30.726  17.374  1.00  0.00     0.167 HD
ATOM     57  O   UNL     1      26.515  30.946  15.471  1.00  0.00    -0.225 OA
BRANCH  55  58
ATOM     58  O   UNL     1      24.814  32.440  15.616  1.00  0.00    -0.443 OA
BRANCH  58  59
ATOM     59  C   UNL     1      23.436  32.620  15.819  1.00  0.00     0.294 C 
BRANCH  59  60
ATOM     60  C   UNL     1      22.733  32.406  14.534  1.00  0.00     0.121 A 
ATOM     61  C   UNL     1      21.803  31.384  14.305  1.00  0.00     0.144 A 
ATOM     62  N   UNL     1      22.807  33.071  13.372  1.00  0.00    -0.131 NA
ATOM     63  N   UNL     1      21.368  31.477  13.037  1.00  0.00    -0.220 N 
ATOM     64  N   UNL     1      21.993  32.506  12.500  1.00  0.00    -0.062 NA
BRANCH  63  65
ATOM     65  C   UNL     1      20.415  30.589  12.466  1.00  0.00     0.066 A 
ATOM     66  C   UNL     1      19.169  30.939  12.056  1.00  0.00     0.029 A 
ATOM     67  C   UNL     1      20.823  29.267  12.320  1.00  0.00     0.029 A 
ATOM     68  C   UNL     1      18.344  29.980  11.508  1.00  0.00     0.018 A 
ATOM     69  C   UNL     1      19.989  28.320  11.771  1.00  0.00     0.018 A 
ATOM     70  C   UNL     1      18.721  28.669  11.352  1.00  0.00     0.018 A 
ATOM     71  Br  UNL     1      17.550  27.372  10.585  1.00  0.00    -0.051 Br
ENDBRANCH  63  65
ENDBRANCH  59  60
ENDBRANCH  58  59
ENDBRANCH  55  58
ENDBRANCH  53  54
ENDBRANCH  50  53
ENDBRANCH  47  50
ENDBRANCH   5  47
BRANCH   4  72
ATOM     72  N   UNL     1      29.485  29.735  20.895  1.00  0.00    -0.348 N 
ATOM     73  C   UNL     1      30.186  28.556  21.265  1.00  0.00     0.217 C 
ATOM     74  H   UNL     1      28.852  30.168  21.591  1.00  0.00     0.163 HD
ATOM     75  C   UNL     1      30.060  27.911  22.593  1.00  0.00     0.114 C 
ATOM     76  O   UNL     1      30.970  28.004  20.426  1.00  0.00    -0.275 OA
ENDBRANCH   4  72
TORSDOF 30
BEGIN_RES LYS A 131
REMARK  4 active torsions:
REMARK  status: ('A' for Active; 'I' for Inactive)
REMARK    1  A    between atoms: CA   and  CB  
REMARK    2  A    between atoms: CB   and  CG  
REMARK    3  A    between atoms: CG   and  CD  
REMARK    4  A    between atoms: CD   and  CE  
ROOT
ATOM      1  CA  LYS A 131      29.867  25.555  16.977  1.00 20.52     0.186 C 
ENDROOT
BRANCH   1   2
ATOM      2  CB  LYS A 131      28.345  25.722  17.026  1.00 20.94     0.034 C 
BRANCH   2   3
ATOM      3  CG  LYS A 131      27.599  24.443  16.679  1.00 22.96     0.005 C 
BRANCH   3   4
ATOM      4  CD  LYS A 131      26.523  24.125  17.680  1.00 24.33     0.041 C 
BRANCH   4   5
ATOM      5  CE  LYS A 131      25.450  25.208  17.634  1.00 26.91     0.338 C 
ATOM      6  NZ  LYS A 131      24.227  24.699  16.970  1.00 27.40     0.618 N 
ENDBRANCH   4   5
ENDBRANCH   3   4
ENDBRANCH   2   3
ENDBRANCH   1   2
END_RES LYS A 131
BEGIN_RES LYS A 135
REMARK  4 active torsions:
REMARK  status: ('A' for Active; 'I' for Inactive)
REMARK    5  A    between atoms: CA   and  CB  
REMARK    6  A    between atoms: CB   and  CG  
REMARK    7  A    between atoms: CG   and  CD  
REMARK    8  A    between atoms: CD   and  CE  
ROOT
ATOM      7  CA  LYS A 135      33.193  34.663   9.290  1.00 25.02     0.186 C 
ENDROOT
BRANCH   7   8
ATOM      8  CB  LYS A 135      32.060  35.360  10.034  1.00 26.63     0.034 C 
BRANCH   8   9
ATOM      9  CG  LYS A 135      30.690  34.866   9.646  1.00 29.45     0.005 C 
BRANCH   9  10
ATOM     10  CD  LYS A 135      30.662  34.458   8.181  1.00 32.00     0.041 C 
BRANCH  10  11
ATOM     11  CE  LYS A 135      29.553  35.187   7.446  1.00 34.25     0.338 C 
ATOM     12  NZ  LYS A 135      29.455  36.604   7.894  1.00 35.99     0.618 N 
ENDBRANCH  10  11
ENDBRANCH   9  10
ENDBRANCH   8   9
ENDBRANCH   7   8
END_RES LYS A 135
