REMARK VINA RESULT:    -4.697      6.926     12.586
REMARK INTER + INTRA:         -22.805
REMARK INTER:                 -12.455
REMARK INTRA:                 -10.349
REMARK UNBOUND:               -11.242
REMARK SMILES CC(=O)N[C@@H]1[C@@H](O)C[C@](OC[C@H]2O[C@@H](O[C@H]3[C@H](O)[C@@H](O)[C@H](OCCN=[N+]=[N-])O[C@@H]3CO)[C@H](O)[C@@H](O)[C@H]2O)(C(=O)O)O[C@H]1C(O)[C@H](O)CNC(=O)OCc1cn(-c2c(C)cc(C)cc2C)nn1
REMARK SMILES IDX 9 1 8 2 6 3 5 4 42 5 41 6 10 7 11 8 12 9 14 10 13 11 32 12
REMARK SMILES IDX 34 13 36 14 15 15 16 16 29 17 28 18 21 19 17 20 19 21 30 22
REMARK SMILES IDX 31 23 22 25 23 26 24 27 25 28 26 29 27 30 18 31 20 33 33 35
REMARK SMILES IDX 35 37 37 39 38 41 39 42 40 43 7 45 43 47 44 48 45 50 46 51
REMARK SMILES IDX 47 53 48 54 49 55 50 57 51 58 52 59 53 60 54 61 66 62 55 63
REMARK SMILES IDX 65 64 56 65 57 66 63 67 58 68 59 69 62 70 64 71 60 72 61 73
REMARK SMILES IDX 4 74 2 75 1 77 3 78
REMARK H PARENT 31 24 18 32 20 34 33 36 35 38 37 40 40 44 7 46 44 49 46 52
REMARK H PARENT 48 56 4 76
REMARK Flexibility Score: inf
ROOT
ATOM      1  C   UNL     1      28.556  34.882  15.198  1.00  0.00     0.272 C 
ATOM      2  C   UNL     1      28.651  35.625  16.473  1.00  0.00     0.113 C 
ATOM      3  C   UNL     1      30.022  36.119  16.864  1.00  0.00     0.145 C 
ATOM      4  C   UNL     1      31.064  35.149  16.406  1.00  0.00     0.142 C 
ATOM      5  C   UNL     1      30.340  33.802  16.279  1.00  0.00     0.178 C 
ATOM      6  O   UNL     1      29.550  33.898  15.101  1.00  0.00    -0.332 OA
ENDROOT
BRANCH   1   7
ATOM      7  O   UNL     1      28.509  35.605  14.043  1.00  0.00    -0.338 OA
BRANCH   7   8
ATOM      8  C   UNL     1      29.336  35.318  13.021  1.00  0.00     0.199 C 
BRANCH   8   9
ATOM      9  C   UNL     1      29.248  36.476  12.016  1.00  0.00     0.179 C 
ATOM     10  C   UNL     1      27.588  37.752  11.058  1.00  0.00     0.282 C 
ATOM     11  O   UNL     1      28.023  36.474  11.377  1.00  0.00    -0.341 OA
ATOM     12  C   UNL     1      27.244  38.413  12.368  1.00  0.00     0.202 C 
ATOM     13  C   UNL     1      28.560  38.587  13.111  1.00  0.00     0.179 C 
ATOM     14  C   UNL     1      29.688  37.782  12.567  1.00  0.00     0.177 C 
BRANCH  10  15
ATOM     15  O   UNL     1      26.643  37.793  10.106  1.00  0.00    -0.341 OA
BRANCH  15  16
ATOM     16  C   UNL     1      25.383  37.416  10.403  1.00  0.00     0.184 C 
ATOM     17  C   UNL     1      25.122  36.032   9.836  1.00  0.00     0.178 C 
ATOM     18  O   UNL     1      24.373  36.051   8.698  1.00  0.00    -0.341 OA
ATOM     19  C   UNL     1      23.092  36.556   8.854  1.00  0.00     0.281 C 
ATOM     20  C   UNL     1      24.408  38.411   9.767  1.00  0.00     0.180 C 
ATOM     21  C   UNL     1      23.024  37.795   9.671  1.00  0.00     0.202 C 
BRANCH  17  22
ATOM     22  C   UNL     1      24.570  35.102  10.903  1.00  0.00     0.191 C 
BRANCH  22  23
ATOM     23  O   UNL     1      25.456  35.000  11.972  1.00  0.00    -0.394 OA
ATOM     24  H   UNL     1      25.544  34.085  12.326  1.00  0.00     0.210 HD
ENDBRANCH  22  23
ENDBRANCH  17  22
BRANCH  19  25
ATOM     25  O   UNL     1      22.233  35.592   9.402  1.00  0.00    -0.350 OA
BRANCH  25  26
ATOM     26  C   UNL     1      21.016  36.093   9.788  1.00  0.00     0.169 C 
BRANCH  26  27
ATOM     27  C   UNL     1      19.848  35.184   9.558  1.00  0.00     0.119 C 
BRANCH  27  28
ATOM     28  N   UNL     1      19.652  34.886   8.151  1.00  0.00    -0.092 NA
ATOM     29  N   UNL     1      18.695  34.180   7.775  1.00  0.00     0.001 N 
ATOM     30  N   UNL     1      17.662  33.522   7.604  1.00  0.00    -0.003 NA
ENDBRANCH  27  28
ENDBRANCH  26  27
ENDBRANCH  25  26
ENDBRANCH  19  25
BRANCH  20  31
ATOM     31  O   UNL     1      24.302  39.586  10.468  1.00  0.00    -0.387 OA
ATOM     32  H   UNL     1      24.140  40.391   9.911  1.00  0.00     0.211 HD
ENDBRANCH  20  31
BRANCH  21  33
ATOM     33  O   UNL     1      22.212  38.723   9.023  1.00  0.00    -0.385 OA
ATOM     34  H   UNL     1      22.458  39.655   9.280  1.00  0.00     0.211 HD
ENDBRANCH  21  33
ENDBRANCH  15  16
ENDBRANCH  10  15
BRANCH  12  35
ATOM     35  O   UNL     1      26.696  39.682  12.201  1.00  0.00    -0.385 OA
ATOM     36  H   UNL     1      25.725  39.551  11.978  1.00  0.00     0.211 HD
ENDBRANCH  12  35
BRANCH  13  37
ATOM     37  O   UNL     1      28.417  38.303  14.468  1.00  0.00    -0.387 OA
ATOM     38  H   UNL     1      27.578  38.663  14.856  1.00  0.00     0.211 HD
ENDBRANCH  13  37
BRANCH  14  39
ATOM     39  O   UNL     1      30.601  37.567  13.628  1.00  0.00    -0.387 OA
ATOM     40  H   UNL     1      31.514  37.440  13.280  1.00  0.00     0.211 HD
ENDBRANCH  14  39
ENDBRANCH   8   9
ENDBRANCH   7   8
ENDBRANCH   1   7
BRANCH   1  41
ATOM     41  C   UNL     1      27.292  34.056  15.289  1.00  0.00     0.364 C 
ATOM     42  O   UNL     1      26.309  34.395  14.623  1.00  0.00    -0.246 OA
BRANCH  41  43
ATOM     43  O   UNL     1      27.218  32.938  16.097  1.00  0.00    -0.477 OA
ATOM     44  H   UNL     1      26.449  32.718  16.705  1.00  0.00     0.296 HD
ENDBRANCH  41  43
ENDBRANCH   1  41
BRANCH   3  45
ATOM     45  O   UNL     1      30.165  37.397  16.327  1.00  0.00    -0.391 OA
ATOM     46  H   UNL     1      29.320  37.627  15.821  1.00  0.00     0.211 HD
ENDBRANCH   3  45
BRANCH   5  47
ATOM     47  C   UNL     1      31.220  32.641  16.035  1.00  0.00     0.176 C 
BRANCH  47  48
ATOM     48  O   UNL     1      31.455  32.605  14.612  1.00  0.00    -0.388 OA
ATOM     49  H   UNL     1      31.519  31.657  14.330  1.00  0.00     0.211 HD
ENDBRANCH  47  48
BRANCH  47  50
ATOM     50  C   UNL     1      30.646  31.260  16.285  1.00  0.00     0.165 C 
BRANCH  50  51
ATOM     51  O   UNL     1      29.594  31.198  15.292  1.00  0.00    -0.388 OA
ATOM     52  H   UNL     1      28.866  30.646  15.637  1.00  0.00     0.211 HD
ENDBRANCH  50  51
BRANCH  50  53
ATOM     53  C   UNL     1      29.877  31.200  17.582  1.00  0.00     0.154 C 
BRANCH  53  54
ATOM     54  N   UNL     1      28.722  30.357  17.593  1.00  0.00    -0.319 N 
ATOM     55  C   UNL     1      27.764  30.486  18.644  1.00  0.00     0.407 C 
ATOM     56  H   UNL     1      28.568  29.634  16.833  1.00  0.00     0.167 HD
ATOM     57  O   UNL     1      28.011  31.353  19.528  1.00  0.00    -0.225 OA
BRANCH  55  58
ATOM     58  O   UNL     1      26.614  29.708  18.709  1.00  0.00    -0.443 OA
BRANCH  58  59
ATOM     59  C   UNL     1      26.205  28.883  17.645  1.00  0.00     0.294 C 
BRANCH  59  60
ATOM     60  C   UNL     1      25.679  29.632  16.472  1.00  0.00     0.121 A 
ATOM     61  C   UNL     1      24.371  29.796  16.078  1.00  0.00     0.144 A 
ATOM     62  N   UNL     1      26.418  30.310  15.546  1.00  0.00    -0.131 NA
ATOM     63  N   UNL     1      24.340  30.542  14.962  1.00  0.00    -0.220 N 
ATOM     64  N   UNL     1      25.610  30.830  14.677  1.00  0.00    -0.062 NA
BRANCH  63  65
ATOM     65  C   UNL     1      23.198  30.963  14.191  1.00  0.00     0.072 A 
ATOM     66  C   UNL     1      22.601  32.142  14.560  1.00  0.00    -0.025 A 
ATOM     67  C   UNL     1      22.759  30.206  13.161  1.00  0.00    -0.025 A 
ATOM     68  C   UNL     1      23.121  32.955  15.714  1.00  0.00     0.047 C 
ATOM     69  C   UNL     1      21.503  32.561  13.836  1.00  0.00     0.009 A 
ATOM     70  C   UNL     1      21.642  30.671  12.457  1.00  0.00     0.009 A 
ATOM     71  C   UNL     1      23.380  28.927  12.732  1.00  0.00     0.047 C 
ATOM     72  C   UNL     1      21.003  31.843  12.779  1.00  0.00    -0.050 A 
ATOM     73  C   UNL     1      19.820  32.349  12.040  1.00  0.00     0.044 C 
ENDBRANCH  63  65
ENDBRANCH  59  60
ENDBRANCH  58  59
ENDBRANCH  55  58
ENDBRANCH  53  54
ENDBRANCH  50  53
ENDBRANCH  47  50
ENDBRANCH   5  47
BRANCH   4  74
ATOM     74  N   UNL     1      32.243  35.090  17.156  1.00  0.00    -0.348 N 
ATOM     75  C   UNL     1      33.335  35.987  16.975  1.00  0.00     0.217 C 
ATOM     76  H   UNL     1      32.348  34.381  17.904  1.00  0.00     0.163 HD
ATOM     77  C   UNL     1      34.581  35.898  17.796  1.00  0.00     0.114 C 
ATOM     78  O   UNL     1      33.219  36.863  16.102  1.00  0.00    -0.275 OA
ENDBRANCH   4  74
TORSDOF 30
BEGIN_RES LYS A 131
REMARK  4 active torsions:
REMARK  status: ('A' for Active; 'I' for Inactive)
REMARK    1  A    between atoms: CA   and  CB  
REMARK    2  A    between atoms: CB   and  CG  
REMARK    3  A    between atoms: CG   and  CD  
REMARK    4  A    between atoms: CD   and  CE  
ROOT
ATOM      1  CA  LYS A 131      29.867  25.555  16.977  1.00 20.52     0.186 C 
ENDROOT
BRANCH   1   2
ATOM      2  CB  LYS A 131      28.345  25.722  17.026  1.00 20.94     0.034 C 
BRANCH   2   3
ATOM      3  CG  LYS A 131      27.600  24.411  16.827  1.00 22.96     0.005 C 
BRANCH   3   4
ATOM      4  CD  LYS A 131      26.800  24.024  18.039  1.00 24.33     0.041 C 
BRANCH   4   5
ATOM      5  CE  LYS A 131      25.578  23.220  17.608  1.00 26.91     0.338 C 
ATOM      6  NZ  LYS A 131      24.611  24.088  16.895  1.00 27.40     0.618 N 
ENDBRANCH   4   5
ENDBRANCH   3   4
ENDBRANCH   2   3
ENDBRANCH   1   2
END_RES LYS A 131
BEGIN_RES LYS A 135
REMARK  4 active torsions:
REMARK  status: ('A' for Active; 'I' for Inactive)
REMARK    5  A    between atoms: CA   and  CB  
REMARK    6  A    between atoms: CB   and  CG  
REMARK    7  A    between atoms: CG   and  CD  
REMARK    8  A    between atoms: CD   and  CE  
ROOT
ATOM      7  CA  LYS A 135      33.193  34.663   9.290  1.00 25.02     0.186 C 
ENDROOT
BRANCH   7   8
ATOM      8  CB  LYS A 135      32.060  35.360  10.034  1.00 26.63     0.034 C 
BRANCH   8   9
ATOM      9  CG  LYS A 135      30.828  35.572   9.193  1.00 29.45     0.005 C 
BRANCH   9  10
ATOM     10  CD  LYS A 135      30.193  34.239   8.825  1.00 32.00     0.041 C 
BRANCH  10  11
ATOM     11  CE  LYS A 135      28.714  34.413   8.542  1.00 34.25     0.338 C 
ATOM     12  NZ  LYS A 135      27.887  33.650   9.517  1.00 35.99     0.618 N 
ENDBRANCH  10  11
ENDBRANCH   9  10
ENDBRANCH   8   9
ENDBRANCH   7   8
END_RES LYS A 135
