REMARK VINA RESULT:    -3.507      4.554      9.940
REMARK INTER + INTRA:         -22.346
REMARK INTER:                  -9.231
REMARK INTRA:                 -13.115
REMARK UNBOUND:               -13.100
REMARK SMILES CC(=O)N[C@@H]1[C@@H](O)C[C@](OC[C@H]2O[C@@H](O[C@H]3[C@H](O)[C@@H](O)[C@H](OCCN=[N+]=[N-])O[C@@H]3CO)[C@H](O)[C@@H](O)[C@H]2O)(C(=O)O)O[C@H]1C(O)[C@H](O)CNC(=O)OCc1cn(CCNS(C)(=O)=O)nn1
REMARK SMILES IDX 43 1 42 2 9 3 8 4 41 5 6 6 5 7 10 8 11 9 12 10 14 11 13 12
REMARK SMILES IDX 32 13 34 14 36 15 15 16 16 17 29 18 28 19 21 20 17 21 19 22
REMARK SMILES IDX 30 23 31 24 22 26 23 27 24 28 25 29 26 30 27 31 18 32 20 34
REMARK SMILES IDX 33 36 35 38 37 40 38 42 39 43 40 44 7 46 4 48 2 49 1 51 3 52
REMARK SMILES IDX 44 53 45 55 46 56 47 58 48 59 49 60 50 62 51 63 52 64 53 65
REMARK SMILES IDX 54 66 64 67 55 68 63 69 56 70 57 71 58 72 59 74 61 75 62 76
REMARK SMILES IDX 60 77
REMARK H PARENT 31 25 18 33 20 35 33 37 35 39 37 41 40 45 7 47 4 50 44 54
REMARK H PARENT 46 57 48 61 58 73
REMARK Flexibility Score: inf
ROOT
ATOM      1  C   UNL     1      29.614  33.775  14.107  1.00  0.00     0.176 C 
ENDROOT
BRANCH   1   2
ATOM      2  C   UNL     1      30.438  35.044  14.395  1.00  0.00     0.178 C 
ATOM      3  C   UNL     1      31.213  36.894  13.187  1.00  0.00     0.272 C 
ATOM      4  C   UNL     1      32.644  36.588  13.386  1.00  0.00     0.113 C 
ATOM      5  O   UNL     1      30.420  35.755  13.243  1.00  0.00    -0.332 OA
ATOM      6  C   UNL     1      32.938  35.315  14.131  1.00  0.00     0.145 C 
ATOM      7  C   UNL     1      31.797  34.677  14.846  1.00  0.00     0.142 C 
BRANCH   3   8
ATOM      8  O   UNL     1      30.875  37.482  11.964  1.00  0.00    -0.338 OA
BRANCH   8   9
ATOM      9  C   UNL     1      31.973  37.677  11.143  1.00  0.00     0.199 C 
BRANCH   9  10
ATOM     10  C   UNL     1      31.566  38.377   9.893  1.00  0.00     0.179 C 
ATOM     11  C   UNL     1      30.027  38.486   8.179  1.00  0.00     0.282 C 
ATOM     12  O   UNL     1      30.305  37.998   9.467  1.00  0.00    -0.341 OA
ATOM     13  C   UNL     1      30.002  39.975   8.148  1.00  0.00     0.202 C 
ATOM     14  C   UNL     1      31.386  40.455   8.529  1.00  0.00     0.179 C 
ATOM     15  C   UNL     1      31.801  39.849   9.827  1.00  0.00     0.177 C 
BRANCH  11  16
ATOM     16  O   UNL     1      28.837  37.942   7.798  1.00  0.00    -0.341 OA
BRANCH  16  17
ATOM     17  C   UNL     1      27.731  38.407   8.423  1.00  0.00     0.184 C 
ATOM     18  C   UNL     1      27.115  37.645   9.529  1.00  0.00     0.178 C 
ATOM     19  O   UNL     1      25.763  37.986   9.598  1.00  0.00    -0.341 OA
ATOM     20  C   UNL     1      25.029  37.407   8.604  1.00  0.00     0.281 C 
ATOM     21  C   UNL     1      26.617  38.762   7.400  1.00  0.00     0.180 C 
ATOM     22  C   UNL     1      25.799  37.492   7.302  1.00  0.00     0.202 C 
BRANCH  18  23
ATOM     23  C   UNL     1      27.687  38.092  10.870  1.00  0.00     0.191 C 
BRANCH  23  24
ATOM     24  O   UNL     1      28.133  36.963  11.595  1.00  0.00    -0.394 OA
ATOM     25  H   UNL     1      27.625  36.156  11.360  1.00  0.00     0.210 HD
ENDBRANCH  23  24
ENDBRANCH  18  23
BRANCH  20  26
ATOM     26  O   UNL     1      23.764  38.001   8.483  1.00  0.00    -0.350 OA
BRANCH  26  27
ATOM     27  C   UNL     1      23.128  38.230   9.676  1.00  0.00     0.169 C 
BRANCH  27  28
ATOM     28  C   UNL     1      22.215  39.404   9.509  1.00  0.00     0.119 C 
BRANCH  28  29
ATOM     29  N   UNL     1      22.915  40.576   9.001  1.00  0.00    -0.092 NA
ATOM     30  N   UNL     1      23.753  41.064   9.780  1.00  0.00     0.001 N 
ATOM     31  N   UNL     1      24.573  41.787  10.333  1.00  0.00    -0.003 NA
ENDBRANCH  28  29
ENDBRANCH  27  28
ENDBRANCH  26  27
ENDBRANCH  20  26
BRANCH  21  32
ATOM     32  O   UNL     1      25.792  39.758   7.931  1.00  0.00    -0.387 OA
ATOM     33  H   UNL     1      25.353  40.243   7.183  1.00  0.00     0.211 HD
ENDBRANCH  21  32
BRANCH  22  34
ATOM     34  O   UNL     1      26.544  36.362   7.049  1.00  0.00    -0.385 OA
ATOM     35  H   UNL     1      27.263  36.492   6.379  1.00  0.00     0.211 HD
ENDBRANCH  22  34
ENDBRANCH  16  17
ENDBRANCH  11  16
BRANCH  13  36
ATOM     36  O   UNL     1      29.797  40.449   6.844  1.00  0.00    -0.385 OA
ATOM     37  H   UNL     1      29.296  41.304   6.834  1.00  0.00     0.211 HD
ENDBRANCH  13  36
BRANCH  14  38
ATOM     38  O   UNL     1      31.502  41.821   8.466  1.00  0.00    -0.387 OA
ATOM     39  H   UNL     1      30.983  42.213   7.695  1.00  0.00     0.211 HD
ENDBRANCH  14  38
BRANCH  15  40
ATOM     40  O   UNL     1      31.082  40.457  10.851  1.00  0.00    -0.387 OA
ATOM     41  H   UNL     1      31.538  40.405  11.730  1.00  0.00     0.211 HD
ENDBRANCH  15  40
ENDBRANCH   9  10
ENDBRANCH   8   9
ENDBRANCH   3   8
BRANCH   3  42
ATOM     42  C   UNL     1      30.726  37.860  14.201  1.00  0.00     0.364 C 
ATOM     43  O   UNL     1      31.432  38.189  15.211  1.00  0.00    -0.246 OA
BRANCH  42  44
ATOM     44  O   UNL     1      29.494  38.480  14.153  1.00  0.00    -0.477 OA
ATOM     45  H   UNL     1      29.372  39.468  13.948  1.00  0.00     0.296 HD
ENDBRANCH  42  44
ENDBRANCH   3  42
BRANCH   6  46
ATOM     46  O   UNL     1      33.553  34.383  13.307  1.00  0.00    -0.391 OA
ATOM     47  H   UNL     1      34.491  34.195  13.507  1.00  0.00     0.211 HD
ENDBRANCH   6  46
BRANCH   7  48
ATOM     48  N   UNL     1      31.940  34.982  16.279  1.00  0.00    -0.348 N 
ATOM     49  C   UNL     1      31.674  34.109  17.339  1.00  0.00     0.217 C 
ATOM     50  H   UNL     1      32.317  35.955  16.560  1.00  0.00     0.163 HD
ATOM     51  C   UNL     1      31.846  34.543  18.771  1.00  0.00     0.114 C 
ATOM     52  O   UNL     1      31.277  32.928  17.147  1.00  0.00    -0.275 OA
ENDBRANCH   7  48
ENDBRANCH   1   2
BRANCH   1  53
ATOM     53  O   UNL     1      30.436  32.654  14.321  1.00  0.00    -0.388 OA
ATOM     54  H   UNL     1      31.112  32.916  14.972  1.00  0.00     0.211 HD
ENDBRANCH   1  53
BRANCH   1  55
ATOM     55  C   UNL     1      28.458  33.693  15.034  1.00  0.00     0.165 C 
BRANCH  55  56
ATOM     56  O   UNL     1      28.576  32.798  16.069  1.00  0.00    -0.388 OA
ATOM     57  H   UNL     1      28.647  33.230  16.961  1.00  0.00     0.211 HD
ENDBRANCH  55  56
BRANCH  55  58
ATOM     58  C   UNL     1      27.112  33.603  14.385  1.00  0.00     0.154 C 
BRANCH  58  59
ATOM     59  N   UNL     1      26.722  34.842  13.766  1.00  0.00    -0.319 N 
ATOM     60  C   UNL     1      25.645  34.799  12.801  1.00  0.00     0.407 C 
ATOM     61  H   UNL     1      27.160  35.756  13.963  1.00  0.00     0.167 HD
ATOM     62  O   UNL     1      25.116  33.676  12.598  1.00  0.00    -0.225 OA
BRANCH  60  63
ATOM     63  O   UNL     1      25.237  35.934  12.150  1.00  0.00    -0.443 OA
BRANCH  63  64
ATOM     64  C   UNL     1      24.455  36.895  12.818  1.00  0.00     0.294 C 
BRANCH  64  65
ATOM     65  C   UNL     1      25.287  38.013  13.300  1.00  0.00     0.120 A 
ATOM     66  C   UNL     1      25.143  39.358  13.003  1.00  0.00     0.138 A 
ATOM     67  N   UNL     1      26.311  37.946  14.139  1.00  0.00    -0.132 NA
ATOM     68  N   UNL     1      26.067  40.061  13.658  1.00  0.00    -0.251 N 
ATOM     69  N   UNL     1      26.785  39.180  14.356  1.00  0.00    -0.067 NA
BRANCH  68  70
ATOM     70  C   UNL     1      26.257  41.501  13.610  1.00  0.00     0.162 C 
BRANCH  70  71
ATOM     71  C   UNL     1      27.372  41.840  12.622  1.00  0.00     0.122 C 
BRANCH  71  72
ATOM     72  N   UNL     1      28.535  41.038  12.871  1.00  0.00    -0.214 NA
ATOM     73  H   UNL     1      29.070  40.923  11.969  1.00  0.00     0.141 HD
BRANCH  72  74
ATOM     74  S   UNL     1      29.614  41.753  14.003  1.00  0.00     0.208 S 
ATOM     75  O   UNL     1      29.285  41.275  15.407  1.00  0.00    -0.213 OA
ATOM     76  O   UNL     1      31.001  41.255  13.641  1.00  0.00    -0.213 OA
ATOM     77  C   UNL     1      29.558  43.516  13.910  1.00  0.00     0.176 C 
ENDBRANCH  72  74
ENDBRANCH  71  72
ENDBRANCH  70  71
ENDBRANCH  68  70
ENDBRANCH  64  65
ENDBRANCH  63  64
ENDBRANCH  60  63
ENDBRANCH  58  59
ENDBRANCH  55  58
ENDBRANCH   1  55
TORSDOF 33
BEGIN_RES LYS A 131
REMARK  4 active torsions:
REMARK  status: ('A' for Active; 'I' for Inactive)
REMARK    1  A    between atoms: CA   and  CB  
REMARK    2  A    between atoms: CB   and  CG  
REMARK    3  A    between atoms: CG   and  CD  
REMARK    4  A    between atoms: CD   and  CE  
ROOT
ATOM      1  CA  LYS A 131      29.867  25.555  16.977  1.00 20.52     0.186 C 
ENDROOT
BRANCH   1   2
ATOM      2  CB  LYS A 131      28.345  25.722  17.026  1.00 20.94     0.034 C 
BRANCH   2   3
ATOM      3  CG  LYS A 131      27.602  24.399  16.919  1.00 22.96     0.005 C 
BRANCH   3   4
ATOM      4  CD  LYS A 131      26.426  24.333  17.854  1.00 24.33     0.041 C 
BRANCH   4   5
ATOM      5  CE  LYS A 131      26.402  25.581  18.731  1.00 26.91     0.338 C 
ATOM      6  NZ  LYS A 131      25.075  26.238  18.663  1.00 27.40     0.618 N 
ENDBRANCH   4   5
ENDBRANCH   3   4
ENDBRANCH   2   3
ENDBRANCH   1   2
END_RES LYS A 131
BEGIN_RES LYS A 135
REMARK  4 active torsions:
REMARK  status: ('A' for Active; 'I' for Inactive)
REMARK    5  A    between atoms: CA   and  CB  
REMARK    6  A    between atoms: CB   and  CG  
REMARK    7  A    between atoms: CG   and  CD  
REMARK    8  A    between atoms: CD   and  CE  
ROOT
ATOM      7  CA  LYS A 135      33.193  34.663   9.290  1.00 25.02     0.186 C 
ENDROOT
BRANCH   7   8
ATOM      8  CB  LYS A 135      32.060  35.360  10.034  1.00 26.63     0.034 C 
BRANCH   8   9
ATOM      9  CG  LYS A 135      30.750  34.618   9.968  1.00 29.45     0.005 C 
BRANCH   9  10
ATOM     10  CD  LYS A 135      30.315  34.425   8.524  1.00 32.00     0.041 C 
BRANCH  10  11
ATOM     11  CE  LYS A 135      28.802  34.438   8.417  1.00 34.25     0.338 C 
ATOM     12  NZ  LYS A 135      28.174  33.802   9.608  1.00 35.99     0.618 N 
ENDBRANCH  10  11
ENDBRANCH   9  10
ENDBRANCH   8   9
ENDBRANCH   7   8
END_RES LYS A 135
