REMARK VINA RESULT:    -5.342      1.979      2.673
REMARK INTER + INTRA:         -23.566
REMARK INTER:                 -11.680
REMARK INTRA:                 -11.885
REMARK UNBOUND:               -10.416
REMARK SMILES CC(=O)N[C@@H]1[C@@H](O)C[C@](OC[C@H]2O[C@@H](O[C@H]3[C@H](O)[C@@H](O)[C@H](OCCN=[N+]=[N-])O[C@@H]3CO)[C@H](O)[C@@H](O)[C@H]2O)(C(=O)O)O[C@H]1C(O)[C@H](O)CNC(=O)OCc1cn(-c2ccc3c(c2)OCO3)nn1
REMARK SMILES IDX 9 1 8 2 6 3 5 4 42 5 41 6 10 7 11 8 12 9 14 10 13 11 32 12
REMARK SMILES IDX 34 13 36 14 15 15 16 16 29 17 28 18 21 19 17 20 19 21 30 22
REMARK SMILES IDX 31 23 22 25 23 26 24 27 25 28 26 29 27 30 18 31 20 33 33 35
REMARK SMILES IDX 35 37 37 39 38 41 39 42 40 43 7 45 43 47 44 48 45 50 46 51
REMARK SMILES IDX 47 53 48 54 49 55 50 57 51 58 52 59 53 60 54 61 66 62 55 63
REMARK SMILES IDX 65 64 56 65 57 66 61 67 58 68 60 69 59 70 62 71 64 72 63 73
REMARK SMILES IDX 4 74 2 75 1 77 3 78
REMARK H PARENT 31 24 18 32 20 34 33 36 35 38 37 40 40 44 7 46 44 49 46 52
REMARK H PARENT 48 56 4 76
REMARK Flexibility Score: inf
ROOT
ATOM      1  C   UNL     1      27.962  31.326  17.249  1.00  0.00     0.272 C 
ATOM      2  C   UNL     1      28.177  30.095  18.086  1.00  0.00     0.113 C 
ATOM      3  C   UNL     1      27.380  28.890  17.554  1.00  0.00     0.145 C 
ATOM      4  C   UNL     1      25.926  29.244  17.787  1.00  0.00     0.142 C 
ATOM      5  C   UNL     1      25.724  30.594  17.130  1.00  0.00     0.178 C 
ATOM      6  O   UNL     1      26.797  31.084  16.467  1.00  0.00    -0.332 OA
ENDROOT
BRANCH   1   7
ATOM      7  O   UNL     1      28.923  31.568  16.372  1.00  0.00    -0.338 OA
BRANCH   7   8
ATOM      8  C   UNL     1      30.216  31.473  16.404  1.00  0.00     0.199 C 
BRANCH   8   9
ATOM      9  C   UNL     1      31.114  32.504  15.773  1.00  0.00     0.179 C 
ATOM     10  C   UNL     1      30.954  34.246  14.235  1.00  0.00     0.282 C 
ATOM     11  O   UNL     1      30.444  33.070  14.719  1.00  0.00    -0.341 OA
ATOM     12  C   UNL     1      32.309  34.586  14.760  1.00  0.00     0.202 C 
ATOM     13  C   UNL     1      32.337  34.609  16.279  1.00  0.00     0.179 C 
ATOM     14  C   UNL     1      31.401  33.589  16.843  1.00  0.00     0.177 C 
BRANCH  10  15
ATOM     15  O   UNL     1      30.089  35.273  14.661  1.00  0.00    -0.341 OA
BRANCH  15  16
ATOM     16  C   UNL     1      29.503  35.951  13.623  1.00  0.00     0.184 C 
ATOM     17  C   UNL     1      29.028  37.297  14.105  1.00  0.00     0.178 C 
ATOM     18  O   UNL     1      27.774  37.277  14.668  1.00  0.00    -0.341 OA
ATOM     19  C   UNL     1      27.459  36.050  15.254  1.00  0.00     0.281 C 
ATOM     20  C   UNL     1      28.367  35.094  13.113  1.00  0.00     0.180 C 
ATOM     21  C   UNL     1      27.355  34.950  14.228  1.00  0.00     0.202 C 
BRANCH  17  22
ATOM     22  C   UNL     1      29.002  38.317  12.976  1.00  0.00     0.191 C 
BRANCH  22  23
ATOM     23  O   UNL     1      27.715  38.493  12.484  1.00  0.00    -0.394 OA
ATOM     24  H   UNL     1      27.553  37.972  11.639  1.00  0.00     0.210 HD
ENDBRANCH  22  23
ENDBRANCH  17  22
BRANCH  19  25
ATOM     25  O   UNL     1      26.208  36.219  15.830  1.00  0.00    -0.350 OA
BRANCH  25  26
ATOM     26  C   UNL     1      25.308  36.602  14.842  1.00  0.00     0.169 C 
BRANCH  26  27
ATOM     27  C   UNL     1      23.895  36.132  15.173  1.00  0.00     0.119 C 
BRANCH  27  28
ATOM     28  N   UNL     1      24.033  34.818  15.817  1.00  0.00    -0.092 NA
ATOM     29  N   UNL     1      23.001  34.157  16.062  1.00  0.00     0.001 N 
ATOM     30  N   UNL     1      21.867  33.688  16.263  1.00  0.00    -0.003 NA
ENDBRANCH  27  28
ENDBRANCH  26  27
ENDBRANCH  25  26
ENDBRANCH  19  25
BRANCH  20  31
ATOM     31  O   UNL     1      27.805  35.567  11.945  1.00  0.00    -0.387 OA
ATOM     32  H   UNL     1      28.458  36.026  11.338  1.00  0.00     0.211 HD
ENDBRANCH  20  31
BRANCH  21  33
ATOM     33  O   UNL     1      27.618  33.742  14.878  1.00  0.00    -0.385 OA
ATOM     34  H   UNL     1      27.557  32.958  14.275  1.00  0.00     0.211 HD
ENDBRANCH  21  33
ENDBRANCH  15  16
ENDBRANCH  10  15
BRANCH  12  35
ATOM     35  O   UNL     1      33.328  33.752  14.309  1.00  0.00    -0.385 OA
ATOM     36  H   UNL     1      33.866  33.462  15.111  1.00  0.00     0.211 HD
ENDBRANCH  12  35
BRANCH  13  37
ATOM     37  O   UNL     1      31.980  35.893  16.696  1.00  0.00    -0.387 OA
ATOM     38  H   UNL     1      32.170  36.071  17.635  1.00  0.00     0.211 HD
ENDBRANCH  13  37
BRANCH  14  39
ATOM     39  O   UNL     1      30.214  34.225  17.194  1.00  0.00    -0.387 OA
ATOM     40  H   UNL     1      30.161  34.475  18.131  1.00  0.00     0.211 HD
ENDBRANCH  14  39
ENDBRANCH   8   9
ENDBRANCH   7   8
ENDBRANCH   1   7
BRANCH   1  41
ATOM     41  C   UNL     1      27.621  32.505  18.109  1.00  0.00     0.364 C 
ATOM     42  O   UNL     1      27.725  32.318  19.372  1.00  0.00    -0.246 OA
BRANCH  41  43
ATOM     43  O   UNL     1      27.217  33.726  17.676  1.00  0.00    -0.477 OA
ATOM     44  H   UNL     1      27.793  34.553  17.697  1.00  0.00     0.296 HD
ENDBRANCH  41  43
ENDBRANCH   1  41
BRANCH   3  45
ATOM     45  O   UNL     1      27.672  28.830  16.185  1.00  0.00    -0.391 OA
ATOM     46  H   UNL     1      27.793  27.897  15.900  1.00  0.00     0.211 HD
ENDBRANCH   3  45
BRANCH   5  47
ATOM     47  C   UNL     1      24.656  30.339  16.045  1.00  0.00     0.176 C 
BRANCH  47  48
ATOM     48  O   UNL     1      23.453  30.916  16.331  1.00  0.00    -0.388 OA
ATOM     49  H   UNL     1      22.696  30.281  16.393  1.00  0.00     0.211 HD
ENDBRANCH  47  48
BRANCH  47  50
ATOM     50  C   UNL     1      25.143  30.804  14.679  1.00  0.00     0.165 C 
BRANCH  50  51
ATOM     51  O   UNL     1      25.203  32.152  14.570  1.00  0.00    -0.388 OA
ATOM     52  H   UNL     1      24.809  32.677  15.297  1.00  0.00     0.211 HD
ENDBRANCH  50  51
BRANCH  50  53
ATOM     53  C   UNL     1      24.212  30.198  13.675  1.00  0.00     0.154 C 
BRANCH  53  54
ATOM     54  N   UNL     1      23.465  31.182  12.956  1.00  0.00    -0.319 N 
ATOM     55  C   UNL     1      22.119  31.551  13.209  1.00  0.00     0.407 C 
ATOM     56  H   UNL     1      23.915  31.725  12.137  1.00  0.00     0.167 HD
ATOM     57  O   UNL     1      21.473  31.021  14.136  1.00  0.00    -0.225 OA
BRANCH  55  58
ATOM     58  O   UNL     1      21.471  32.518  12.434  1.00  0.00    -0.443 OA
BRANCH  58  59
ATOM     59  C   UNL     1      21.626  33.898  12.625  1.00  0.00     0.294 C 
BRANCH  59  60
ATOM     60  C   UNL     1      22.936  34.318  12.022  1.00  0.00     0.121 A 
ATOM     61  C   UNL     1      23.091  35.114  10.885  1.00  0.00     0.144 A 
ATOM     62  N   UNL     1      24.179  34.039  12.434  1.00  0.00    -0.131 NA
ATOM     63  N   UNL     1      24.411  35.283  10.655  1.00  0.00    -0.220 N 
ATOM     64  N   UNL     1      25.027  34.614  11.618  1.00  0.00    -0.062 NA
BRANCH  63  65
ATOM     65  C   UNL     1      25.028  36.014   9.625  1.00  0.00     0.070 A 
ATOM     66  C   UNL     1      24.786  37.352   9.478  1.00  0.00     0.032 A 
ATOM     67  C   UNL     1      25.888  35.395   8.750  1.00  0.00     0.079 A 
ATOM     68  C   UNL     1      25.411  38.068   8.448  1.00  0.00     0.053 A 
ATOM     69  C   UNL     1      26.511  36.084   7.732  1.00  0.00     0.167 A 
ATOM     70  C   UNL     1      26.266  37.425   7.588  1.00  0.00     0.165 A 
ATOM     71  O   UNL     1      27.394  35.675   6.757  1.00  0.00    -0.454 OA
ATOM     72  O   UNL     1      27.005  37.880   6.504  1.00  0.00    -0.454 OA
ATOM     73  C   UNL     1      27.470  36.752   5.815  1.00  0.00     0.468 C 
ENDBRANCH  63  65
ENDBRANCH  59  60
ENDBRANCH  58  59
ENDBRANCH  55  58
ENDBRANCH  53  54
ENDBRANCH  50  53
ENDBRANCH  47  50
ENDBRANCH   5  47
BRANCH   4  74
ATOM     74  N   UNL     1      25.652  29.226  19.192  1.00  0.00    -0.348 N 
ATOM     75  C   UNL     1      25.052  28.078  19.830  1.00  0.00     0.217 C 
ATOM     76  H   UNL     1      25.852  30.009  19.848  1.00  0.00     0.163 HD
ATOM     77  C   UNL     1      24.773  28.071  21.291  1.00  0.00     0.114 C 
ATOM     78  O   UNL     1      24.768  27.089  19.146  1.00  0.00    -0.275 OA
ENDBRANCH   4  74
TORSDOF 30
BEGIN_RES LYS A 131
REMARK  4 active torsions:
REMARK  status: ('A' for Active; 'I' for Inactive)
REMARK    1  A    between atoms: CA   and  CB  
REMARK    2  A    between atoms: CB   and  CG  
REMARK    3  A    between atoms: CG   and  CD  
REMARK    4  A    between atoms: CD   and  CE  
ROOT
ATOM      1  CA  LYS A 131      29.867  25.555  16.977  1.00 20.52     0.186 C 
ENDROOT
BRANCH   1   2
ATOM      2  CB  LYS A 131      28.345  25.722  17.026  1.00 20.94     0.034 C 
BRANCH   2   3
ATOM      3  CG  LYS A 131      27.602  24.398  16.934  1.00 22.96     0.005 C 
BRANCH   3   4
ATOM      4  CD  LYS A 131      26.575  24.248  18.022  1.00 24.33     0.041 C 
BRANCH   4   5
ATOM      5  CE  LYS A 131      25.216  23.940  17.401  1.00 26.91     0.338 C 
ATOM      6  NZ  LYS A 131      24.924  22.490  17.485  1.00 27.40     0.618 N 
ENDBRANCH   4   5
ENDBRANCH   3   4
ENDBRANCH   2   3
ENDBRANCH   1   2
END_RES LYS A 131
BEGIN_RES LYS A 135
REMARK  4 active torsions:
REMARK  status: ('A' for Active; 'I' for Inactive)
REMARK    5  A    between atoms: CA   and  CB  
REMARK    6  A    between atoms: CB   and  CG  
REMARK    7  A    between atoms: CG   and  CD  
REMARK    8  A    between atoms: CD   and  CE  
ROOT
ATOM      7  CA  LYS A 135      33.193  34.663   9.290  1.00 25.02     0.186 C 
ENDROOT
BRANCH   7   8
ATOM      8  CB  LYS A 135      32.060  35.360  10.034  1.00 26.63     0.034 C 
BRANCH   8   9
ATOM      9  CG  LYS A 135      30.710  34.733   9.800  1.00 29.45     0.005 C 
BRANCH   9  10
ATOM     10  CD  LYS A 135      30.039  35.343   8.580  1.00 32.00     0.041 C 
BRANCH  10  11
ATOM     11  CE  LYS A 135      30.212  36.850   8.574  1.00 34.25     0.338 C 
ATOM     12  NZ  LYS A 135      29.247  37.504   9.501  1.00 35.99     0.618 N 
ENDBRANCH  10  11
ENDBRANCH   9  10
ENDBRANCH   8   9
ENDBRANCH   7   8
END_RES LYS A 135
