REMARK VINA RESULT:    -5.120      3.377     11.612
REMARK INTER + INTRA:         -24.526
REMARK INTER:                 -13.806
REMARK INTRA:                 -10.720
REMARK UNBOUND:               -11.174
REMARK SMILES CC(=O)N[C@@H]1[C@@H](O)C[C@](OC[C@H]2O[C@@H](O[C@H]3[C@H](O)[C@@H](O)[C@H](OCCN=[N+]=[N-])O[C@@H]3CO)[C@H](O)[C@@H](O)[C@H]2O)(C(=O)O)O[C@H]1C(O)[C@H](O)CNC(=O)OCc1cn(-c2cc(C(=O)O)nc(-c3ccccc3)c2)nn1
REMARK SMILES IDX 9 1 8 2 6 3 5 4 42 5 41 6 10 7 11 8 12 9 14 10 13 11 32 12
REMARK SMILES IDX 34 13 36 14 15 15 16 16 29 17 28 18 21 19 17 20 19 21 30 22
REMARK SMILES IDX 31 23 22 25 23 26 24 27 25 28 26 29 27 30 18 31 20 33 33 35
REMARK SMILES IDX 35 37 37 39 38 41 39 42 40 43 7 45 43 47 44 48 45 50 46 51
REMARK SMILES IDX 47 53 48 54 49 55 50 57 51 58 52 59 53 60 54 61 72 62 55 63
REMARK SMILES IDX 71 64 56 65 57 66 70 67 58 68 63 69 62 70 59 71 60 72 61 73
REMARK SMILES IDX 64 75 65 76 69 77 66 78 68 79 67 80 4 81 2 82 1 84 3 85
REMARK H PARENT 31 24 18 32 20 34 33 36 35 38 37 40 40 44 7 46 44 49 46 52
REMARK H PARENT 48 56 61 74 4 83
REMARK Flexibility Score: inf
ROOT
ATOM      1  C   UNL     1      27.304  29.380  19.187  1.00  0.00     0.272 C 
ATOM      2  C   UNL     1      27.415  28.614  17.854  1.00  0.00     0.113 C 
ATOM      3  C   UNL     1      26.176  28.641  17.034  1.00  0.00     0.145 C 
ATOM      4  C   UNL     1      24.904  28.479  17.858  1.00  0.00     0.142 C 
ATOM      5  C   UNL     1      25.407  28.160  19.269  1.00  0.00     0.178 C 
ATOM      6  O   UNL     1      26.015  29.314  19.712  1.00  0.00    -0.332 OA
ENDROOT
BRANCH   1   7
ATOM      7  O   UNL     1      27.604  30.669  18.884  1.00  0.00    -0.338 OA
BRANCH   7   8
ATOM      8  C   UNL     1      28.884  31.012  18.588  1.00  0.00     0.199 C 
BRANCH   8   9
ATOM      9  C   UNL     1      28.913  32.100  17.487  1.00  0.00     0.179 C 
ATOM     10  C   UNL     1      30.098  34.047  16.962  1.00  0.00     0.282 C 
ATOM     11  O   UNL     1      29.854  33.017  17.834  1.00  0.00    -0.341 OA
ATOM     12  C   UNL     1      29.443  33.729  15.632  1.00  0.00     0.202 C 
ATOM     13  C   UNL     1      29.717  32.323  15.156  1.00  0.00     0.179 C 
ATOM     14  C   UNL     1      29.368  31.364  16.237  1.00  0.00     0.177 C 
BRANCH  10  15
ATOM     15  O   UNL     1      31.469  34.176  16.834  1.00  0.00    -0.341 OA
BRANCH  15  16
ATOM     16  C   UNL     1      31.886  35.261  16.081  1.00  0.00     0.184 C 
ATOM     17  C   UNL     1      33.176  35.039  15.380  1.00  0.00     0.178 C 
ATOM     18  O   UNL     1      34.153  35.927  15.796  1.00  0.00    -0.341 OA
ATOM     19  C   UNL     1      34.293  35.950  17.183  1.00  0.00     0.281 C 
ATOM     20  C   UNL     1      31.865  36.465  16.978  1.00  0.00     0.180 C 
ATOM     21  C   UNL     1      33.124  36.747  17.718  1.00  0.00     0.202 C 
BRANCH  17  22
ATOM     22  C   UNL     1      32.986  35.261  13.893  1.00  0.00     0.191 C 
BRANCH  22  23
ATOM     23  O   UNL     1      31.737  35.774  13.595  1.00  0.00    -0.394 OA
ATOM     24  H   UNL     1      31.643  35.858  12.610  1.00  0.00     0.210 HD
ENDBRANCH  22  23
ENDBRANCH  17  22
BRANCH  19  25
ATOM     25  O   UNL     1      35.471  36.628  17.458  1.00  0.00    -0.350 OA
BRANCH  25  26
ATOM     26  C   UNL     1      36.560  35.761  17.557  1.00  0.00     0.169 C 
BRANCH  26  27
ATOM     27  C   UNL     1      37.563  36.046  16.467  1.00  0.00     0.119 C 
BRANCH  27  28
ATOM     28  N   UNL     1      38.081  34.797  15.957  1.00  0.00    -0.092 NA
ATOM     29  N   UNL     1      37.653  34.378  14.890  1.00  0.00     0.001 N 
ATOM     30  N   UNL     1      37.615  33.853  13.765  1.00  0.00    -0.003 NA
ENDBRANCH  27  28
ENDBRANCH  26  27
ENDBRANCH  25  26
ENDBRANCH  19  25
BRANCH  20  31
ATOM     31  O   UNL     1      31.617  37.586  16.152  1.00  0.00    -0.387 OA
ATOM     32  H   UNL     1      30.865  38.120  16.511  1.00  0.00     0.211 HD
ENDBRANCH  20  31
BRANCH  21  33
ATOM     33  O   UNL     1      32.904  36.481  19.085  1.00  0.00    -0.385 OA
ATOM     34  H   UNL     1      31.967  36.184  19.252  1.00  0.00     0.211 HD
ENDBRANCH  21  33
ENDBRANCH  15  16
ENDBRANCH  10  15
BRANCH  12  35
ATOM     35  O   UNL     1      28.068  33.925  15.634  1.00  0.00    -0.385 OA
ATOM     36  H   UNL     1      27.679  33.041  15.887  1.00  0.00     0.211 HD
ENDBRANCH  12  35
BRANCH  13  37
ATOM     37  O   UNL     1      31.065  32.276  14.799  1.00  0.00    -0.387 OA
ATOM     38  H   UNL     1      31.123  31.744  13.963  1.00  0.00     0.211 HD
ENDBRANCH  13  37
BRANCH  14  39
ATOM     39  O   UNL     1      30.548  30.660  16.554  1.00  0.00    -0.387 OA
ATOM     40  H   UNL     1      31.211  31.218  16.992  1.00  0.00     0.211 HD
ENDBRANCH  14  39
ENDBRANCH   8   9
ENDBRANCH   7   8
ENDBRANCH   1   7
BRANCH   1  41
ATOM     41  C   UNL     1      28.204  28.729  20.173  1.00  0.00     0.364 C 
ATOM     42  O   UNL     1      28.296  29.126  21.366  1.00  0.00    -0.246 OA
BRANCH  41  43
ATOM     43  O   UNL     1      28.978  27.651  19.806  1.00  0.00    -0.477 OA
ATOM     44  H   UNL     1      30.005  27.663  19.797  1.00  0.00     0.296 HD
ENDBRANCH  41  43
ENDBRANCH   1  41
BRANCH   3  45
ATOM     45  O   UNL     1      26.112  29.704  16.160  1.00  0.00    -0.391 OA
ATOM     46  H   UNL     1      25.720  29.403  15.316  1.00  0.00     0.211 HD
ENDBRANCH   3  45
BRANCH   5  47
ATOM     47  C   UNL     1      24.376  27.573  20.156  1.00  0.00     0.176 C 
BRANCH  47  48
ATOM     48  O   UNL     1      23.231  28.401  20.127  1.00  0.00    -0.388 OA
ATOM     49  H   UNL     1      22.409  27.836  19.974  1.00  0.00     0.211 HD
ENDBRANCH  47  48
BRANCH  47  50
ATOM     50  C   UNL     1      24.792  27.321  21.578  1.00  0.00     0.165 C 
BRANCH  50  51
ATOM     51  O   UNL     1      25.228  28.498  22.152  1.00  0.00    -0.388 OA
ATOM     52  H   UNL     1      24.741  29.293  21.808  1.00  0.00     0.211 HD
ENDBRANCH  50  51
BRANCH  50  53
ATOM     53  C   UNL     1      25.878  26.273  21.535  1.00  0.00     0.154 C 
BRANCH  53  54
ATOM     54  N   UNL     1      27.097  26.605  22.178  1.00  0.00    -0.319 N 
ATOM     55  C   UNL     1      27.364  26.229  23.520  1.00  0.00     0.407 C 
ATOM     56  H   UNL     1      27.844  27.143  21.673  1.00  0.00     0.167 HD
ATOM     57  O   UNL     1      26.497  25.607  24.163  1.00  0.00    -0.225 OA
BRANCH  55  58
ATOM     58  O   UNL     1      28.592  26.548  24.131  1.00  0.00    -0.443 OA
BRANCH  58  59
ATOM     59  C   UNL     1      29.752  25.884  23.696  1.00  0.00     0.294 C 
BRANCH  59  60
ATOM     60  C   UNL     1      30.563  26.746  22.804  1.00  0.00     0.121 A 
ATOM     61  C   UNL     1      31.109  27.989  23.029  1.00  0.00     0.144 A 
ATOM     62  N   UNL     1      30.917  26.469  21.516  1.00  0.00    -0.131 NA
ATOM     63  N   UNL     1      31.754  28.434  21.930  1.00  0.00    -0.220 N 
ATOM     64  N   UNL     1      31.614  27.470  21.021  1.00  0.00    -0.062 NA
BRANCH  63  65
ATOM     65  C   UNL     1      32.411  29.681  21.777  1.00  0.00     0.071 A 
ATOM     66  C   UNL     1      31.634  30.773  21.424  1.00  0.00     0.064 A 
ATOM     67  C   UNL     1      33.760  29.900  21.966  1.00  0.00     0.057 A 
ATOM     68  C   UNL     1      32.233  32.010  21.280  1.00  0.00     0.151 A 
ATOM     69  C   UNL     1      34.342  31.120  21.823  1.00  0.00     0.073 A 
ATOM     70  N   UNL     1      33.559  32.161  21.479  1.00  0.00    -0.241 NA
BRANCH  68  71
ATOM     71  C   UNL     1      31.443  33.177  20.913  1.00  0.00     0.354 C 
ATOM     72  O   UNL     1      32.053  34.212  20.546  1.00  0.00    -0.245 OA
BRANCH  71  73
ATOM     73  O   UNL     1      30.069  33.214  20.944  1.00  0.00    -0.477 OA
ATOM     74  H   UNL     1      29.482  32.623  20.342  1.00  0.00     0.297 HD
ENDBRANCH  71  73
ENDBRANCH  68  71
BRANCH  69  75
ATOM     75  C   UNL     1      35.769  31.330  22.035  1.00  0.00     0.000 A 
ATOM     76  C   UNL     1      36.398  32.327  21.291  1.00  0.00     0.010 A 
ATOM     77  C   UNL     1      36.523  30.610  22.915  1.00  0.00     0.010 A 
ATOM     78  C   UNL     1      37.734  32.596  21.426  1.00  0.00     0.001 A 
ATOM     79  C   UNL     1      37.873  30.890  23.041  1.00  0.00     0.001 A 
ATOM     80  C   UNL     1      38.497  31.865  22.319  1.00  0.00     0.000 A 
ENDBRANCH  69  75
ENDBRANCH  63  65
ENDBRANCH  59  60
ENDBRANCH  58  59
ENDBRANCH  55  58
ENDBRANCH  53  54
ENDBRANCH  50  53
ENDBRANCH  47  50
ENDBRANCH   5  47
BRANCH   4  81
ATOM     81  N   UNL     1      24.040  27.478  17.324  1.00  0.00    -0.348 N 
ATOM     82  C   UNL     1      23.137  27.800  16.279  1.00  0.00     0.217 C 
ATOM     83  H   UNL     1      24.084  26.509  17.717  1.00  0.00     0.163 HD
ATOM     84  C   UNL     1      22.214  26.799  15.683  1.00  0.00     0.114 C 
ATOM     85  O   UNL     1      23.089  28.985  15.804  1.00  0.00    -0.275 OA
ENDBRANCH   4  81
TORSDOF 33
BEGIN_RES LYS A 131
REMARK  4 active torsions:
REMARK  status: ('A' for Active; 'I' for Inactive)
REMARK    1  A    between atoms: CA   and  CB  
REMARK    2  A    between atoms: CB   and  CG  
REMARK    3  A    between atoms: CG   and  CD  
REMARK    4  A    between atoms: CD   and  CE  
ROOT
ATOM      1  CA  LYS A 131      29.867  25.555  16.977  1.00 20.52     0.186 C 
ENDROOT
BRANCH   1   2
ATOM      2  CB  LYS A 131      28.345  25.722  17.026  1.00 20.94     0.034 C 
BRANCH   2   3
ATOM      3  CG  LYS A 131      27.601  24.400  16.908  1.00 22.96     0.005 C 
BRANCH   3   4
ATOM      4  CD  LYS A 131      26.153  24.529  17.290  1.00 24.33     0.041 C 
BRANCH   4   5
ATOM      5  CE  LYS A 131      25.790  23.433  18.286  1.00 26.91     0.338 C 
ATOM      6  NZ  LYS A 131      25.099  22.316  17.599  1.00 27.40     0.618 N 
ENDBRANCH   4   5
ENDBRANCH   3   4
ENDBRANCH   2   3
ENDBRANCH   1   2
END_RES LYS A 131
BEGIN_RES LYS A 135
REMARK  4 active torsions:
REMARK  status: ('A' for Active; 'I' for Inactive)
REMARK    5  A    between atoms: CA   and  CB  
REMARK    6  A    between atoms: CB   and  CG  
REMARK    7  A    between atoms: CG   and  CD  
REMARK    8  A    between atoms: CD   and  CE  
ROOT
ATOM      7  CA  LYS A 135      33.193  34.663   9.290  1.00 25.02     0.186 C 
ENDROOT
BRANCH   7   8
ATOM      8  CB  LYS A 135      32.060  35.360  10.034  1.00 26.63     0.034 C 
BRANCH   8   9
ATOM      9  CG  LYS A 135      30.808  35.521   9.211  1.00 29.45     0.005 C 
BRANCH   9  10
ATOM     10  CD  LYS A 135      29.603  34.963   9.952  1.00 32.00     0.041 C 
BRANCH  10  11
ATOM     11  CE  LYS A 135      28.833  34.001   9.067  1.00 34.25     0.338 C 
ATOM     12  NZ  LYS A 135      27.425  33.856   9.530  1.00 35.99     0.618 N 
ENDBRANCH  10  11
ENDBRANCH   9  10
ENDBRANCH   8   9
ENDBRANCH   7   8
END_RES LYS A 135
