REMARK VINA RESULT:    -3.686      2.647      6.891
REMARK INTER + INTRA:         -23.600
REMARK INTER:                 -12.497
REMARK INTRA:                 -11.103
REMARK UNBOUND:               -13.881
REMARK SMILES CCOC(=O)c1cccc(-n2cc(COC(=O)NC[C@@H](O)C(O)[C@@H]3O[C@@](OC[C@H]4O[C@@H](O[C@H]5[C@H](O)[C@@H](O)[C@H](OCCN=[N+]=[N-])O[C@@H]5CO)[C@H](O)[C@@H](O)[C@H]4O)(C(=O)O)C[C@H](O)[C@H]3NC(C)=O)nn2)c1
REMARK SMILES IDX 22 1 24 2 26 3 58 4 25 5 59 6 61 7 27 8 28 9 29 10 31 11
REMARK SMILES IDX 30 12 49 13 51 14 53 15 32 16 33 17 46 18 45 19 38 20 34 21
REMARK SMILES IDX 36 22 47 23 48 24 39 26 40 27 41 28 42 29 43 30 44 31 35 32
REMARK SMILES IDX 37 34 50 36 52 38 54 40 55 42 56 43 57 44 60 46 62 48 63 49
REMARK SMILES IDX 64 51 65 52 23 53 20 55 21 56 19 58 18 59 16 60 17 62 15 63
REMARK SMILES IDX 14 64 13 65 12 66 66 67 11 68 67 69 10 70 68 71 9 72 6 73
REMARK SMILES IDX 8 74 7 75 4 76 5 77 3 78 2 79 1 80
REMARK H PARENT 48 25 35 33 37 35 50 37 52 39 54 41 57 45 60 47 62 50 23 54
REMARK H PARENT 21 57 18 61
REMARK Flexibility Score: inf
ROOT
ATOM      1  C   UNL     1      23.439  33.985  14.133  1.00  0.00     0.176 C 
ENDROOT
BRANCH   1   2
ATOM      2  C   UNL     1      23.693  32.808  14.978  1.00  0.00     0.178 C 
ATOM      3  C   UNL     1      25.547  31.978  16.188  1.00  0.00     0.272 C 
ATOM      4  C   UNL     1      24.500  30.959  16.504  1.00  0.00     0.113 C 
ATOM      5  O   UNL     1      25.068  32.557  14.958  1.00  0.00    -0.332 OA
ATOM      6  C   UNL     1      23.820  30.387  15.271  1.00  0.00     0.145 C 
ATOM      7  C   UNL     1      22.988  31.546  14.629  1.00  0.00     0.142 C 
BRANCH   3   8
ATOM      8  O   UNL     1      26.720  31.373  15.861  1.00  0.00    -0.338 OA
BRANCH   8   9
ATOM      9  C   UNL     1      27.852  31.441  16.517  1.00  0.00     0.199 C 
BRANCH   9  10
ATOM     10  C   UNL     1      29.145  31.941  16.034  1.00  0.00     0.179 C 
ATOM     11  C   UNL     1      30.160  33.496  14.611  1.00  0.00     0.282 C 
ATOM     12  O   UNL     1      29.055  32.661  14.896  1.00  0.00    -0.341 OA
ATOM     13  C   UNL     1      31.360  33.108  15.418  1.00  0.00     0.202 C 
ATOM     14  C   UNL     1      31.107  33.088  16.891  1.00  0.00     0.179 C 
ATOM     15  C   UNL     1      29.650  32.913  17.148  1.00  0.00     0.177 C 
BRANCH  11  16
ATOM     16  O   UNL     1      29.699  34.769  14.778  1.00  0.00    -0.341 OA
BRANCH  16  17
ATOM     17  C   UNL     1      29.153  35.424  13.729  1.00  0.00     0.184 C 
ATOM     18  C   UNL     1      29.796  36.782  13.626  1.00  0.00     0.178 C 
ATOM     19  O   UNL     1      29.311  37.493  12.527  1.00  0.00    -0.341 OA
ATOM     20  C   UNL     1      27.955  37.825  12.797  1.00  0.00     0.281 C 
ATOM     21  C   UNL     1      27.644  35.666  13.904  1.00  0.00     0.180 C 
ATOM     22  C   UNL     1      27.207  36.522  12.717  1.00  0.00     0.202 C 
BRANCH  18  23
ATOM     23  C   UNL     1      31.287  36.667  13.493  1.00  0.00     0.191 C 
BRANCH  23  24
ATOM     24  O   UNL     1      31.895  36.658  14.775  1.00  0.00    -0.394 OA
ATOM     25  H   UNL     1      32.502  37.434  14.873  1.00  0.00     0.210 HD
ENDBRANCH  23  24
ENDBRANCH  18  23
BRANCH  20  26
ATOM     26  O   UNL     1      27.564  38.761  11.884  1.00  0.00    -0.350 OA
BRANCH  26  27
ATOM     27  C   UNL     1      28.623  39.238  11.125  1.00  0.00     0.169 C 
BRANCH  27  28
ATOM     28  C   UNL     1      28.328  39.303   9.656  1.00  0.00     0.119 C 
BRANCH  28  29
ATOM     29  N   UNL     1      27.512  40.492   9.385  1.00  0.00    -0.092 NA
ATOM     30  N   UNL     1      26.283  40.345   9.343  1.00  0.00     0.001 N 
ATOM     31  N   UNL     1      25.048  40.405   9.512  1.00  0.00    -0.003 NA
ENDBRANCH  28  29
ENDBRANCH  27  28
ENDBRANCH  26  27
ENDBRANCH  20  26
BRANCH  21  32
ATOM     32  O   UNL     1      26.930  34.483  13.782  1.00  0.00    -0.387 OA
ATOM     33  H   UNL     1      26.062  34.705  13.368  1.00  0.00     0.211 HD
ENDBRANCH  21  32
BRANCH  22  34
ATOM     34  O   UNL     1      25.828  36.707  12.719  1.00  0.00    -0.385 OA
ATOM     35  H   UNL     1      25.377  36.284  13.510  1.00  0.00     0.211 HD
ENDBRANCH  22  34
ENDBRANCH  16  17
ENDBRANCH  11  16
BRANCH  13  36
ATOM     36  O   UNL     1      31.855  31.879  14.941  1.00  0.00    -0.385 OA
ATOM     37  H   UNL     1      31.278  31.489  14.246  1.00  0.00     0.211 HD
ENDBRANCH  13  36
BRANCH  14  38
ATOM     38  O   UNL     1      31.713  34.119  17.572  1.00  0.00    -0.387 OA
ATOM     39  H   UNL     1      31.794  34.880  16.937  1.00  0.00     0.211 HD
ENDBRANCH  14  38
BRANCH  15  40
ATOM     40  O   UNL     1      28.961  34.085  17.153  1.00  0.00    -0.387 OA
ATOM     41  H   UNL     1      28.831  34.399  16.223  1.00  0.00     0.211 HD
ENDBRANCH  15  40
ENDBRANCH   9  10
ENDBRANCH   8   9
ENDBRANCH   3   8
BRANCH   3  42
ATOM     42  C   UNL     1      25.689  33.070  17.141  1.00  0.00     0.364 C 
ATOM     43  O   UNL     1      25.434  32.941  18.348  1.00  0.00    -0.246 OA
BRANCH  42  44
ATOM     44  O   UNL     1      26.127  34.326  16.718  1.00  0.00    -0.477 OA
ATOM     45  H   UNL     1      25.725  34.825  15.952  1.00  0.00     0.296 HD
ENDBRANCH  42  44
ENDBRANCH   3  42
BRANCH   6  46
ATOM     46  O   UNL     1      24.786  30.061  14.352  1.00  0.00    -0.391 OA
ATOM     47  H   UNL     1      25.014  30.858  13.816  1.00  0.00     0.211 HD
ENDBRANCH   6  46
BRANCH   7  48
ATOM     48  N   UNL     1      21.667  31.448  15.204  1.00  0.00    -0.348 N 
ATOM     49  C   UNL     1      20.498  31.077  14.462  1.00  0.00     0.217 C 
ATOM     50  H   UNL     1      21.486  31.648  16.234  1.00  0.00     0.163 HD
ATOM     51  C   UNL     1      19.153  30.987  15.088  1.00  0.00     0.114 C 
ATOM     52  O   UNL     1      20.596  30.817  13.246  1.00  0.00    -0.275 OA
ENDBRANCH   7  48
ENDBRANCH   1   2
BRANCH   1  53
ATOM     53  O   UNL     1      24.169  35.109  14.411  1.00  0.00    -0.388 OA
ATOM     54  H   UNL     1      24.522  35.546  13.601  1.00  0.00     0.211 HD
ENDBRANCH   1  53
BRANCH   1  55
ATOM     55  C   UNL     1      23.337  33.749  12.647  1.00  0.00     0.165 C 
BRANCH  55  56
ATOM     56  O   UNL     1      24.318  34.476  11.965  1.00  0.00    -0.388 OA
ATOM     57  H   UNL     1      24.020  34.669  11.039  1.00  0.00     0.211 HD
ENDBRANCH  55  56
BRANCH  55  58
ATOM     58  C   UNL     1      21.954  33.872  12.084  1.00  0.00     0.154 C 
BRANCH  58  59
ATOM     59  N   UNL     1      21.913  34.716  10.912  1.00  0.00    -0.319 N 
ATOM     60  C   UNL     1      20.922  35.710  10.754  1.00  0.00     0.407 C 
ATOM     61  H   UNL     1      22.640  34.603  10.139  1.00  0.00     0.167 HD
ATOM     62  O   UNL     1      20.014  35.963  11.578  1.00  0.00    -0.225 OA
BRANCH  60  63
ATOM     63  O   UNL     1      20.897  36.505   9.591  1.00  0.00    -0.443 OA
BRANCH  63  64
ATOM     64  C   UNL     1      21.746  37.583   9.344  1.00  0.00     0.294 C 
BRANCH  64  65
ATOM     65  C   UNL     1      23.177  37.266   9.246  1.00  0.00     0.121 A 
ATOM     66  C   UNL     1      23.950  37.309   8.090  1.00  0.00     0.144 A 
ATOM     67  N   UNL     1      23.993  36.886  10.222  1.00  0.00    -0.131 NA
ATOM     68  N   UNL     1      25.190  36.952   8.422  1.00  0.00    -0.220 N 
ATOM     69  N   UNL     1      25.209  36.699   9.711  1.00  0.00    -0.062 NA
BRANCH  68  70
ATOM     70  C   UNL     1      26.287  36.867   7.537  1.00  0.00     0.067 A 
ATOM     71  C   UNL     1      26.724  37.971   6.810  1.00  0.00     0.044 A 
ATOM     72  C   UNL     1      26.983  35.702   7.358  1.00  0.00     0.028 A 
ATOM     73  C   UNL     1      27.789  37.941   5.950  1.00  0.00     0.062 A 
ATOM     74  C   UNL     1      28.067  35.631   6.496  1.00  0.00     0.003 A 
ATOM     75  C   UNL     1      28.472  36.741   5.793  1.00  0.00     0.016 A 
BRANCH  73  76
ATOM     76  C   UNL     1      28.189  39.127   5.222  1.00  0.00     0.338 C 
ATOM     77  O   UNL     1      27.700  39.351   4.097  1.00  0.00    -0.246 OA
BRANCH  76  78
ATOM     78  O   UNL     1      29.097  39.997   5.767  1.00  0.00    -0.462 OA
BRANCH  78  79
ATOM     79  C   UNL     1      30.495  39.841   5.679  1.00  0.00     0.230 C 
ATOM     80  C   UNL     1      31.090  39.727   7.066  1.00  0.00     0.049 C 
ENDBRANCH  78  79
ENDBRANCH  76  78
ENDBRANCH  73  76
ENDBRANCH  68  70
ENDBRANCH  64  65
ENDBRANCH  63  64
ENDBRANCH  60  63
ENDBRANCH  58  59
ENDBRANCH  55  58
ENDBRANCH   1  55
TORSDOF 33
BEGIN_RES LYS A 131
REMARK  4 active torsions:
REMARK  status: ('A' for Active; 'I' for Inactive)
REMARK    1  A    between atoms: CA   and  CB  
REMARK    2  A    between atoms: CB   and  CG  
REMARK    3  A    between atoms: CG   and  CD  
REMARK    4  A    between atoms: CD   and  CE  
ROOT
ATOM      1  CA  LYS A 131      29.867  25.555  16.977  1.00 20.52     0.186 C 
ENDROOT
BRANCH   1   2
ATOM      2  CB  LYS A 131      28.345  25.722  17.026  1.00 20.94     0.034 C 
BRANCH   2   3
ATOM      3  CG  LYS A 131      27.602  24.399  16.919  1.00 22.96     0.005 C 
BRANCH   3   4
ATOM      4  CD  LYS A 131      26.151  24.533  17.291  1.00 24.33     0.041 C 
BRANCH   4   5
ATOM      5  CE  LYS A 131      26.011  25.516  18.448  1.00 26.91     0.338 C 
ATOM      6  NZ  LYS A 131      25.043  26.585  18.107  1.00 27.40     0.618 N 
ENDBRANCH   4   5
ENDBRANCH   3   4
ENDBRANCH   2   3
ENDBRANCH   1   2
END_RES LYS A 131
BEGIN_RES LYS A 135
REMARK  4 active torsions:
REMARK  status: ('A' for Active; 'I' for Inactive)
REMARK    5  A    between atoms: CA   and  CB  
REMARK    6  A    between atoms: CB   and  CG  
REMARK    7  A    between atoms: CG   and  CD  
REMARK    8  A    between atoms: CD   and  CE  
ROOT
ATOM      7  CA  LYS A 135      33.193  34.663   9.290  1.00 25.02     0.186 C 
ENDROOT
BRANCH   7   8
ATOM      8  CB  LYS A 135      32.060  35.360  10.034  1.00 26.63     0.034 C 
BRANCH   8   9
ATOM      9  CG  LYS A 135      30.760  35.379   9.272  1.00 29.45     0.005 C 
BRANCH   9  10
ATOM     10  CD  LYS A 135      29.593  35.057  10.192  1.00 32.00     0.041 C 
BRANCH  10  11
ATOM     11  CE  LYS A 135      28.810  33.870   9.665  1.00 34.25     0.338 C 
ATOM     12  NZ  LYS A 135      27.430  33.846  10.224  1.00 35.99     0.618 N 
ENDBRANCH  10  11
ENDBRANCH   9  10
ENDBRANCH   8   9
ENDBRANCH   7   8
END_RES LYS A 135
