REMARK VINA RESULT:    -4.103      5.529     11.053
REMARK INTER + INTRA:         -21.487
REMARK INTER:                 -10.819
REMARK INTRA:                 -10.668
REMARK UNBOUND:               -10.427
REMARK SMILES CCN(CC)CCn1cc(COC(=O)NC[C@@H](O)C(O)[C@@H]2O[C@@](OC[C@H]3O[C@@H](O[C@H]4[C@H](O)[C@@H](O)[C@H](OCCN=[N+]=[N-])O[C@@H]4CO)[C@H](O)[C@@H](O)[C@H]3O)(C(=O)O)C[C@H](O)[C@H]2NC(C)=O)nn1
REMARK SMILES IDX 19 1 21 2 23 3 55 4 22 5 56 6 58 7 24 8 25 9 26 10 28 11
REMARK SMILES IDX 27 12 46 13 48 14 50 15 29 16 30 17 43 18 42 19 35 20 31 21
REMARK SMILES IDX 33 22 44 23 45 24 36 26 37 27 38 28 39 29 40 30 41 31 32 32
REMARK SMILES IDX 34 34 47 36 49 38 51 40 52 42 53 43 54 44 57 46 59 48 60 49
REMARK SMILES IDX 61 51 62 52 20 53 17 55 18 56 16 58 15 59 13 60 14 62 12 63
REMARK SMILES IDX 11 64 10 65 9 66 63 67 8 68 64 69 7 70 6 71 3 72 2 73 1 74
REMARK SMILES IDX 4 75 5 76
REMARK H PARENT 45 25 32 33 34 35 47 37 49 39 51 41 54 45 57 47 59 50 20 54
REMARK H PARENT 18 57 15 61
REMARK Flexibility Score: inf
ROOT
ATOM      1  C   UNL     1      30.179  37.492   8.681  1.00  0.00     0.176 C 
ENDROOT
BRANCH   1   2
ATOM      2  C   UNL     1      29.019  37.746   7.754  1.00  0.00     0.178 C 
ATOM      3  C   UNL     1      27.926  39.373   6.549  1.00  0.00     0.272 C 
ATOM      4  C   UNL     1      27.217  38.099   6.064  1.00  0.00     0.113 C 
ATOM      5  O   UNL     1      28.994  39.063   7.361  1.00  0.00    -0.332 OA
ATOM      6  C   UNL     1      26.735  37.225   7.175  1.00  0.00     0.145 C 
ATOM      7  C   UNL     1      27.672  37.446   8.373  1.00  0.00     0.142 C 
BRANCH   3   8
ATOM      8  O   UNL     1      26.963  40.155   7.139  1.00  0.00    -0.338 OA
BRANCH   8   9
ATOM      9  C   UNL     1      27.416  41.190   7.921  1.00  0.00     0.199 C 
BRANCH   9  10
ATOM     10  C   UNL     1      26.366  41.596   8.970  1.00  0.00     0.179 C 
ATOM     11  C   UNL     1      24.135  40.910   9.263  1.00  0.00     0.282 C 
ATOM     12  O   UNL     1      25.162  41.320   8.427  1.00  0.00    -0.341 OA
ATOM     13  C   UNL     1      24.295  41.409  10.644  1.00  0.00     0.202 C 
ATOM     14  C   UNL     1      25.615  41.058  11.274  1.00  0.00     0.179 C 
ATOM     15  C   UNL     1      26.633  40.770  10.192  1.00  0.00     0.177 C 
BRANCH  11  16
ATOM     16  O   UNL     1      24.047  39.539   9.071  1.00  0.00    -0.341 OA
BRANCH  16  17
ATOM     17  C   UNL     1      22.826  39.010   9.300  1.00  0.00     0.184 C 
ATOM     18  C   UNL     1      22.885  37.627   9.896  1.00  0.00     0.178 C 
ATOM     19  O   UNL     1      21.550  37.226  10.193  1.00  0.00    -0.341 OA
ATOM     20  C   UNL     1      20.969  36.784   9.024  1.00  0.00     0.281 C 
ATOM     21  C   UNL     1      21.965  38.905   8.046  1.00  0.00     0.180 C 
ATOM     22  C   UNL     1      21.389  37.541   7.841  1.00  0.00     0.202 C 
BRANCH  18  23
ATOM     23  C   UNL     1      23.775  37.464  11.074  1.00  0.00     0.191 C 
BRANCH  23  24
ATOM     24  O   UNL     1      25.072  37.278  10.611  1.00  0.00    -0.394 OA
ATOM     25  H   UNL     1      25.478  36.422  10.895  1.00  0.00     0.210 HD
ENDBRANCH  23  24
ENDBRANCH  18  23
BRANCH  20  26
ATOM     26  O   UNL     1      19.593  36.624   9.157  1.00  0.00    -0.350 OA
BRANCH  26  27
ATOM     27  C   UNL     1      19.026  37.337  10.170  1.00  0.00     0.169 C 
BRANCH  27  28
ATOM     28  C   UNL     1      17.792  38.106   9.735  1.00  0.00     0.119 C 
BRANCH  28  29
ATOM     29  N   UNL     1      18.110  39.065   8.695  1.00  0.00    -0.092 NA
ATOM     30  N   UNL     1      17.639  38.996   7.553  1.00  0.00     0.001 N 
ATOM     31  N   UNL     1      17.558  38.670   6.367  1.00  0.00    -0.003 NA
ENDBRANCH  28  29
ENDBRANCH  27  28
ENDBRANCH  26  27
ENDBRANCH  20  26
BRANCH  21  32
ATOM     32  O   UNL     1      20.940  39.827   8.144  1.00  0.00    -0.387 OA
ATOM     33  H   UNL     1      20.445  39.791   8.988  1.00  0.00     0.211 HD
ENDBRANCH  21  32
BRANCH  22  34
ATOM     34  O   UNL     1      22.248  36.737   7.050  1.00  0.00    -0.385 OA
ATOM     35  H   UNL     1      23.015  36.507   7.634  1.00  0.00     0.211 HD
ENDBRANCH  22  34
ENDBRANCH  16  17
ENDBRANCH  11  16
BRANCH  13  36
ATOM     36  O   UNL     1      24.230  42.833  10.611  1.00  0.00    -0.385 OA
ATOM     37  H   UNL     1      24.844  43.226  11.258  1.00  0.00     0.211 HD
ENDBRANCH  13  36
BRANCH  14  38
ATOM     38  O   UNL     1      25.544  40.031  12.201  1.00  0.00    -0.387 OA
ATOM     39  H   UNL     1      24.682  39.968  12.644  1.00  0.00     0.211 HD
ENDBRANCH  14  38
BRANCH  15  40
ATOM     40  O   UNL     1      26.526  39.427   9.855  1.00  0.00    -0.387 OA
ATOM     41  H   UNL     1      25.564  39.176   9.739  1.00  0.00     0.211 HD
ENDBRANCH  15  40
ENDBRANCH   9  10
ENDBRANCH   8   9
ENDBRANCH   3   8
BRANCH   3  42
ATOM     42  C   UNL     1      28.435  40.004   5.305  1.00  0.00     0.364 C 
ATOM     43  O   UNL     1      29.665  40.334   5.199  1.00  0.00    -0.246 OA
BRANCH  42  44
ATOM     44  O   UNL     1      27.662  40.282   4.195  1.00  0.00    -0.477 OA
ATOM     45  H   UNL     1      28.105  40.450   3.298  1.00  0.00     0.296 HD
ENDBRANCH  42  44
ENDBRANCH   3  42
BRANCH   6  46
ATOM     46  O   UNL     1      25.408  37.364   7.499  1.00  0.00    -0.391 OA
ATOM     47  H   UNL     1      25.097  38.220   7.108  1.00  0.00     0.211 HD
ENDBRANCH   6  46
BRANCH   7  48
ATOM     48  N   UNL     1      27.656  36.336   9.264  1.00  0.00    -0.348 N 
ATOM     49  C   UNL     1      27.529  35.014   8.703  1.00  0.00     0.217 C 
ATOM     50  H   UNL     1      27.733  36.384  10.296  1.00  0.00     0.163 HD
ATOM     51  C   UNL     1      27.504  33.810   9.571  1.00  0.00     0.114 C 
ATOM     52  O   UNL     1      27.434  34.835   7.460  1.00  0.00    -0.275 OA
ENDBRANCH   7  48
ENDBRANCH   1   2
BRANCH   1  53
ATOM     53  O   UNL     1      30.882  36.391   8.209  1.00  0.00    -0.388 OA
ATOM     54  H   UNL     1      31.660  36.712   7.652  1.00  0.00     0.211 HD
ENDBRANCH   1  53
BRANCH   1  55
ATOM     55  C   UNL     1      31.066  38.708   8.612  1.00  0.00     0.165 C 
BRANCH  55  56
ATOM     56  O   UNL     1      31.832  38.650   7.442  1.00  0.00    -0.388 OA
ATOM     57  H   UNL     1      31.294  39.027   6.705  1.00  0.00     0.211 HD
ENDBRANCH  55  56
BRANCH  55  58
ATOM     58  C   UNL     1      31.957  38.920   9.780  1.00  0.00     0.154 C 
BRANCH  58  59
ATOM     59  N   UNL     1      31.394  38.529  11.027  1.00  0.00    -0.319 N 
ATOM     60  C   UNL     1      31.018  39.540  11.975  1.00  0.00     0.407 C 
ATOM     61  H   UNL     1      31.256  37.549  11.273  1.00  0.00     0.167 HD
ATOM     62  O   UNL     1      31.183  40.750  11.724  1.00  0.00    -0.225 OA
BRANCH  60  63
ATOM     63  O   UNL     1      30.467  39.136  13.180  1.00  0.00    -0.443 OA
BRANCH  63  64
ATOM     64  C   UNL     1      29.104  39.496  13.461  1.00  0.00     0.294 C 
BRANCH  64  65
ATOM     65  C   UNL     1      28.278  38.299  13.253  1.00  0.00     0.120 A 
ATOM     66  C   UNL     1      27.883  37.441  14.284  1.00  0.00     0.138 A 
ATOM     67  N   UNL     1      27.751  37.782  12.147  1.00  0.00    -0.132 NA
ATOM     68  N   UNL     1      27.139  36.451  13.759  1.00  0.00    -0.251 N 
ATOM     69  N   UNL     1      27.074  36.679  12.474  1.00  0.00    -0.067 NA
BRANCH  68  70
ATOM     70  C   UNL     1      26.522  35.342  14.462  1.00  0.00     0.161 C 
BRANCH  70  71
ATOM     71  C   UNL     1      26.292  34.233  13.460  1.00  0.00     0.108 C 
BRANCH  71  72
ATOM     72  N   UNL     1      24.924  33.809  13.382  1.00  0.00    -0.302 NA
BRANCH  72  73
ATOM     73  C   UNL     1      24.763  32.420  13.719  1.00  0.00     0.081 C 
ATOM     74  C   UNL     1      24.415  32.321  15.199  1.00  0.00     0.021 C 
ENDBRANCH  72  73
BRANCH  72  75
ATOM     75  C   UNL     1      24.290  34.173  12.153  1.00  0.00     0.081 C 
ATOM     76  C   UNL     1      22.785  34.025  12.254  1.00  0.00     0.021 C 
ENDBRANCH  72  75
ENDBRANCH  71  72
ENDBRANCH  70  71
ENDBRANCH  68  70
ENDBRANCH  64  65
ENDBRANCH  63  64
ENDBRANCH  60  63
ENDBRANCH  58  59
ENDBRANCH  55  58
ENDBRANCH   1  55
TORSDOF 34
BEGIN_RES LYS A 131
REMARK  4 active torsions:
REMARK  status: ('A' for Active; 'I' for Inactive)
REMARK    1  A    between atoms: CA   and  CB  
REMARK    2  A    between atoms: CB   and  CG  
REMARK    3  A    between atoms: CG   and  CD  
REMARK    4  A    between atoms: CD   and  CE  
ROOT
ATOM      1  CA  LYS A 131      29.867  25.555  16.977  1.00 20.52     0.186 C 
ENDROOT
BRANCH   1   2
ATOM      2  CB  LYS A 131      28.345  25.722  17.026  1.00 20.94     0.034 C 
BRANCH   2   3
ATOM      3  CG  LYS A 131      27.601  24.405  16.866  1.00 22.96     0.005 C 
BRANCH   3   4
ATOM      4  CD  LYS A 131      26.650  24.150  18.002  1.00 24.33     0.041 C 
BRANCH   4   5
ATOM      5  CE  LYS A 131      25.433  23.389  17.487  1.00 26.91     0.338 C 
ATOM      6  NZ  LYS A 131      24.457  24.324  16.877  1.00 27.40     0.618 N 
ENDBRANCH   4   5
ENDBRANCH   3   4
ENDBRANCH   2   3
ENDBRANCH   1   2
END_RES LYS A 131
BEGIN_RES LYS A 135
REMARK  4 active torsions:
REMARK  status: ('A' for Active; 'I' for Inactive)
REMARK    5  A    between atoms: CA   and  CB  
REMARK    6  A    between atoms: CB   and  CG  
REMARK    7  A    between atoms: CG   and  CD  
REMARK    8  A    between atoms: CD   and  CE  
ROOT
ATOM      7  CA  LYS A 135      33.193  34.663   9.290  1.00 25.02     0.186 C 
ENDROOT
BRANCH   7   8
ATOM      8  CB  LYS A 135      32.060  35.360  10.034  1.00 26.63     0.034 C 
BRANCH   8   9
ATOM      9  CG  LYS A 135      31.098  34.407  10.695  1.00 29.45     0.005 C 
BRANCH   9  10
ATOM     10  CD  LYS A 135      30.176  35.152  11.649  1.00 32.00     0.041 C 
BRANCH  10  11
ATOM     11  CE  LYS A 135      30.430  34.720  13.080  1.00 34.25     0.338 C 
ATOM     12  NZ  LYS A 135      31.062  35.815  13.867  1.00 35.99     0.618 N 
ENDBRANCH  10  11
ENDBRANCH   9  10
ENDBRANCH   8   9
ENDBRANCH   7   8
END_RES LYS A 135
