REMARK VINA RESULT:    -4.562      2.856      6.545
REMARK INTER + INTRA:         -22.698
REMARK INTER:                 -12.355
REMARK INTRA:                 -10.343
REMARK UNBOUND:               -11.068
REMARK SMILES CC(=O)N[C@@H]1[C@@H](O)C[C@](OC[C@H]2O[C@@H](O[C@H]3[C@H](O)[C@@H](O)[C@H](OCCN=[N+]=[N-])O[C@@H]3CO)[C@H](O)[C@@H](O)[C@H]2O)(C(=O)O)O[C@H]1C(O)[C@H](O)CNC(=O)OCc1cn(Cc2cc(Br)cc(Br)c2O)nn1
REMARK SMILES IDX 9 1 8 2 6 3 5 4 42 5 41 6 10 7 11 8 12 9 14 10 13 11 32 12
REMARK SMILES IDX 34 13 36 14 15 15 16 16 29 17 28 18 21 19 17 20 19 21 30 22
REMARK SMILES IDX 31 23 22 25 23 26 24 27 25 28 26 29 27 30 18 31 20 33 33 35
REMARK SMILES IDX 35 37 37 39 38 41 39 42 40 43 7 45 43 47 44 48 45 50 46 51
REMARK SMILES IDX 47 53 48 54 49 55 50 57 51 58 52 59 53 60 54 61 67 62 55 63
REMARK SMILES IDX 66 64 56 65 57 66 58 67 64 68 59 69 62 70 60 71 61 72 63 73
REMARK SMILES IDX 65 74 4 76 2 77 1 79 3 80
REMARK H PARENT 31 24 18 32 20 34 33 36 35 38 37 40 40 44 7 46 44 49 46 52
REMARK H PARENT 48 56 65 75 4 78
REMARK Flexibility Score: inf
ROOT
ATOM      1  C   UNL     1      30.001  33.713  15.722  1.00  0.00     0.272 C 
ATOM      2  C   UNL     1      30.098  34.569  17.074  1.00  0.00     0.113 C 
ATOM      3  C   UNL     1      31.502  34.924  17.348  1.00  0.00     0.145 C 
ATOM      4  C   UNL     1      32.097  35.648  16.169  1.00  0.00     0.142 C 
ATOM      5  C   UNL     1      31.387  35.445  14.864  1.00  0.00     0.178 C 
ATOM      6  O   UNL     1      30.475  34.490  14.726  1.00  0.00    -0.332 OA
ENDROOT
BRANCH   1   7
ATOM      7  O   UNL     1      28.657  33.579  15.639  1.00  0.00    -0.338 OA
BRANCH   7   8
ATOM      8  C   UNL     1      27.975  32.451  15.692  1.00  0.00     0.199 C 
BRANCH   8   9
ATOM      9  C   UNL     1      27.101  32.115  16.849  1.00  0.00     0.179 C 
ATOM     10  C   UNL     1      25.180  31.554  15.656  1.00  0.00     0.282 C 
ATOM     11  O   UNL     1      25.784  32.307  16.611  1.00  0.00    -0.341 OA
ATOM     12  C   UNL     1      25.588  30.118  15.709  1.00  0.00     0.202 C 
ATOM     13  C   UNL     1      26.227  29.793  17.031  1.00  0.00     0.179 C 
ATOM     14  C   UNL     1      27.371  30.702  17.373  1.00  0.00     0.177 C 
BRANCH  10  15
ATOM     15  O   UNL     1      25.330  32.133  14.386  1.00  0.00    -0.341 OA
BRANCH  15  16
ATOM     16  C   UNL     1      24.371  33.070  14.075  1.00  0.00     0.184 C 
ATOM     17  C   UNL     1      23.617  32.699  12.819  1.00  0.00     0.178 C 
ATOM     18  O   UNL     1      22.833  33.697  12.314  1.00  0.00    -0.341 OA
ATOM     19  C   UNL     1      22.594  34.772  13.151  1.00  0.00     0.281 C 
ATOM     20  C   UNL     1      25.004  34.426  13.744  1.00  0.00     0.180 C 
ATOM     21  C   UNL     1      23.856  35.403  13.674  1.00  0.00     0.202 C 
BRANCH  17  22
ATOM     22  C   UNL     1      22.809  31.427  12.978  1.00  0.00     0.191 C 
BRANCH  22  23
ATOM     23  O   UNL     1      23.587  30.307  12.782  1.00  0.00    -0.394 OA
ATOM     24  H   UNL     1      24.478  30.596  12.476  1.00  0.00     0.210 HD
ENDBRANCH  22  23
ENDBRANCH  17  22
BRANCH  19  25
ATOM     25  O   UNL     1      21.735  34.371  14.161  1.00  0.00    -0.350 OA
BRANCH  25  26
ATOM     26  C   UNL     1      20.503  34.951  14.025  1.00  0.00     0.169 C 
BRANCH  26  27
ATOM     27  C   UNL     1      19.847  34.789  12.696  1.00  0.00     0.119 C 
BRANCH  27  28
ATOM     28  N   UNL     1      19.291  33.466  12.498  1.00  0.00    -0.092 NA
ATOM     29  N   UNL     1      18.707  32.859  13.373  1.00  0.00     0.001 N 
ATOM     30  N   UNL     1      17.887  32.245  14.053  1.00  0.00    -0.003 NA
ENDBRANCH  27  28
ENDBRANCH  26  27
ENDBRANCH  25  26
ENDBRANCH  19  25
BRANCH  20  31
ATOM     31  O   UNL     1      25.986  34.802  14.620  1.00  0.00    -0.387 OA
ATOM     32  H   UNL     1      26.006  34.092  15.338  1.00  0.00     0.211 HD
ENDBRANCH  20  31
BRANCH  21  33
ATOM     33  O   UNL     1      24.173  36.512  12.899  1.00  0.00    -0.385 OA
ATOM     34  H   UNL     1      23.637  37.281  13.162  1.00  0.00     0.211 HD
ENDBRANCH  21  33
ENDBRANCH  15  16
ENDBRANCH  10  15
BRANCH  12  35
ATOM     35  O   UNL     1      24.419  29.338  15.534  1.00  0.00    -0.385 OA
ATOM     36  H   UNL     1      24.546  28.886  14.666  1.00  0.00     0.211 HD
ENDBRANCH  12  35
BRANCH  13  37
ATOM     37  O   UNL     1      26.609  28.454  17.112  1.00  0.00    -0.387 OA
ATOM     38  H   UNL     1      25.895  27.941  16.656  1.00  0.00     0.211 HD
ENDBRANCH  13  37
BRANCH  14  39
ATOM     39  O   UNL     1      28.536  30.219  16.806  1.00  0.00    -0.387 OA
ATOM     40  H   UNL     1      28.827  29.381  17.256  1.00  0.00     0.211 HD
ENDBRANCH  14  39
ENDBRANCH   8   9
ENDBRANCH   7   8
ENDBRANCH   1   7
BRANCH   1  41
ATOM     41  C   UNL     1      30.793  32.514  15.976  1.00  0.00     0.364 C 
ATOM     42  O   UNL     1      30.806  31.961  17.140  1.00  0.00    -0.246 OA
BRANCH  41  43
ATOM     43  O   UNL     1      31.565  31.874  15.042  1.00  0.00    -0.477 OA
ATOM     44  H   UNL     1      31.501  30.876  14.909  1.00  0.00     0.296 HD
ENDBRANCH  41  43
ENDBRANCH   1  41
BRANCH   3  45
ATOM     45  O   UNL     1      31.550  35.711  18.512  1.00  0.00    -0.391 OA
ATOM     46  H   UNL     1      32.486  35.850  18.782  1.00  0.00     0.211 HD
ENDBRANCH   3  45
BRANCH   5  47
ATOM     47  C   UNL     1      30.949  36.809  14.365  1.00  0.00     0.176 C 
BRANCH  47  48
ATOM     48  O   UNL     1      31.843  37.794  14.854  1.00  0.00    -0.388 OA
ATOM     49  H   UNL     1      31.615  38.677  14.501  1.00  0.00     0.211 HD
ENDBRANCH  47  48
BRANCH  47  50
ATOM     50  C   UNL     1      30.741  36.929  12.912  1.00  0.00     0.165 C 
BRANCH  50  51
ATOM     51  O   UNL     1      31.914  37.146  12.223  1.00  0.00    -0.388 OA
ATOM     52  H   UNL     1      32.697  37.295  12.811  1.00  0.00     0.211 HD
ENDBRANCH  50  51
BRANCH  50  53
ATOM     53  C   UNL     1      29.671  37.845  12.429  1.00  0.00     0.154 C 
BRANCH  53  54
ATOM     54  N   UNL     1      28.740  37.309  11.497  1.00  0.00    -0.319 N 
ATOM     55  C   UNL     1      27.451  36.918  11.997  1.00  0.00     0.407 C 
ATOM     56  H   UNL     1      28.932  37.161  10.493  1.00  0.00     0.167 HD
ATOM     57  O   UNL     1      27.201  37.068  13.242  1.00  0.00    -0.225 OA
BRANCH  55  58
ATOM     58  O   UNL     1      26.517  36.398  11.147  1.00  0.00    -0.443 OA
BRANCH  58  59
ATOM     59  C   UNL     1      26.253  36.942   9.879  1.00  0.00     0.294 C 
BRANCH  59  60
ATOM     60  C   UNL     1      24.901  36.555   9.418  1.00  0.00     0.120 A 
ATOM     61  C   UNL     1      24.100  37.135   8.442  1.00  0.00     0.138 A 
ATOM     62  N   UNL     1      24.171  35.522   9.870  1.00  0.00    -0.132 NA
ATOM     63  N   UNL     1      22.944  36.464   8.332  1.00  0.00    -0.248 N 
ATOM     64  N   UNL     1      23.021  35.475   9.228  1.00  0.00    -0.067 NA
BRANCH  63  65
ATOM     65  C   UNL     1      21.797  36.703   7.449  1.00  0.00     0.185 C 
BRANCH  65  66
ATOM     66  C   UNL     1      20.570  36.564   8.267  1.00  0.00     0.018 A 
ATOM     67  C   UNL     1      20.152  37.638   9.028  1.00  0.00     0.025 A 
ATOM     68  C   UNL     1      19.823  35.392   8.296  1.00  0.00     0.134 A 
ATOM     69  C   UNL     1      19.012  37.579   9.816  1.00  0.00     0.019 A 
ATOM     70  C   UNL     1      18.680  35.301   9.073  1.00  0.00     0.061 A 
ATOM     71  Br  UNL     1      18.474  39.084  10.849  1.00  0.00    -0.051 Br
ATOM     72  C   UNL     1      18.292  36.409   9.826  1.00  0.00     0.035 A 
ATOM     73  Br  UNL     1      17.682  33.698   9.093  1.00  0.00    -0.047 Br
BRANCH  68  74
ATOM     74  O   UNL     1      20.295  34.355   7.514  1.00  0.00    -0.506 OA
ATOM     75  H   UNL     1      19.865  34.173   6.622  1.00  0.00     0.293 HD
ENDBRANCH  68  74
ENDBRANCH  65  66
ENDBRANCH  63  65
ENDBRANCH  59  60
ENDBRANCH  58  59
ENDBRANCH  55  58
ENDBRANCH  53  54
ENDBRANCH  50  53
ENDBRANCH  47  50
ENDBRANCH   5  47
BRANCH   4  76
ATOM     76  N   UNL     1      33.522  35.405  16.115  1.00  0.00    -0.348 N 
ATOM     77  C   UNL     1      34.406  36.364  16.672  1.00  0.00     0.217 C 
ATOM     78  H   UNL     1      33.940  34.550  15.678  1.00  0.00     0.163 HD
ATOM     79  C   UNL     1      35.881  36.112  16.616  1.00  0.00     0.114 C 
ATOM     80  O   UNL     1      33.940  37.423  17.212  1.00  0.00    -0.275 OA
ENDBRANCH   4  76
TORSDOF 32
BEGIN_RES LYS A 131
REMARK  4 active torsions:
REMARK  status: ('A' for Active; 'I' for Inactive)
REMARK    1  A    between atoms: CA   and  CB  
REMARK    2  A    between atoms: CB   and  CG  
REMARK    3  A    between atoms: CG   and  CD  
REMARK    4  A    between atoms: CD   and  CE  
ROOT
ATOM      1  CA  LYS A 131      29.867  25.555  16.977  1.00 20.52     0.186 C 
ENDROOT
BRANCH   1   2
ATOM      2  CB  LYS A 131      28.345  25.722  17.026  1.00 20.94     0.034 C 
BRANCH   2   3
ATOM      3  CG  LYS A 131      27.602  24.400  16.915  1.00 22.96     0.005 C 
BRANCH   3   4
ATOM      4  CD  LYS A 131      26.157  24.527  17.313  1.00 24.33     0.041 C 
BRANCH   4   5
ATOM      5  CE  LYS A 131      25.955  23.917  18.696  1.00 26.91     0.338 C 
ATOM      6  NZ  LYS A 131      25.003  24.731  19.488  1.00 27.40     0.618 N 
ENDBRANCH   4   5
ENDBRANCH   3   4
ENDBRANCH   2   3
ENDBRANCH   1   2
END_RES LYS A 131
BEGIN_RES LYS A 135
REMARK  4 active torsions:
REMARK  status: ('A' for Active; 'I' for Inactive)
REMARK    5  A    between atoms: CA   and  CB  
REMARK    6  A    between atoms: CB   and  CG  
REMARK    7  A    between atoms: CG   and  CD  
REMARK    8  A    between atoms: CD   and  CE  
ROOT
ATOM      7  CA  LYS A 135      33.193  34.663   9.290  1.00 25.02     0.186 C 
ENDROOT
BRANCH   7   8
ATOM      8  CB  LYS A 135      32.060  35.360  10.034  1.00 26.63     0.034 C 
BRANCH   8   9
ATOM      9  CG  LYS A 135      30.809  35.523   9.210  1.00 29.45     0.005 C 
BRANCH   9  10
ATOM     10  CD  LYS A 135      30.168  34.171   8.934  1.00 32.00     0.041 C 
BRANCH  10  11
ATOM     11  CE  LYS A 135      28.691  34.334   8.633  1.00 34.25     0.338 C 
ATOM     12  NZ  LYS A 135      27.857  33.635   9.650  1.00 35.99     0.618 N 
ENDBRANCH  10  11
ENDBRANCH   9  10
ENDBRANCH   8   9
ENDBRANCH   7   8
END_RES LYS A 135
