REMARK VINA RESULT:    -5.217      3.015      5.562
REMARK INTER + INTRA:         -23.334
REMARK INTER:                 -12.462
REMARK INTRA:                 -10.872
REMARK UNBOUND:                -9.883
REMARK SMILES CC(=O)N[C@@H]1[C@@H](O)C[C@](OC[C@H]2O[C@@H](O[C@H]3[C@H](O)[C@@H](O)[C@H](OCCN=[N+]=[N-])O[C@@H]3CO)[C@H](O)[C@@H](O)[C@H]2O)(C(=O)O)O[C@H]1C(O)[C@H](O)CNC(=O)OCc1cn(C(c2ccccc2)c2ccccc2)nn1
REMARK SMILES IDX 9 1 8 2 6 3 5 4 42 5 41 6 10 7 11 8 12 9 14 10 13 11 32 12
REMARK SMILES IDX 34 13 36 14 15 15 16 16 29 17 28 18 21 19 17 20 19 21 30 22
REMARK SMILES IDX 31 23 22 25 23 26 24 27 25 28 26 29 27 30 18 31 20 33 33 35
REMARK SMILES IDX 35 37 37 39 38 41 39 42 40 43 7 45 43 47 44 48 45 50 46 51
REMARK SMILES IDX 47 53 48 54 49 55 50 57 51 58 52 59 53 60 54 61 70 62 55 63
REMARK SMILES IDX 69 64 56 65 57 66 58 67 62 68 59 69 61 70 60 71 63 72 64 73
REMARK SMILES IDX 68 74 65 75 67 76 66 77 4 78 2 79 1 81 3 82
REMARK H PARENT 31 24 18 32 20 34 33 36 35 38 37 40 40 44 7 46 44 49 46 52
REMARK H PARENT 48 56 4 80
REMARK Flexibility Score: inf
ROOT
ATOM      1  C   UNL     1      30.901  29.032  21.874  1.00  0.00     0.272 C 
ATOM      2  C   UNL     1      30.647  29.732  23.225  1.00  0.00     0.113 C 
ATOM      3  C   UNL     1      31.890  30.361  23.706  1.00  0.00     0.145 C 
ATOM      4  C   UNL     1      32.391  31.354  22.687  1.00  0.00     0.142 C 
ATOM      5  C   UNL     1      31.877  31.104  21.317  1.00  0.00     0.178 C 
ATOM      6  O   UNL     1      31.573  29.815  21.015  1.00  0.00    -0.332 OA
ENDROOT
BRANCH   1   7
ATOM      7  O   UNL     1      29.648  28.708  21.329  1.00  0.00    -0.338 OA
BRANCH   7   8
ATOM      8  C   UNL     1      28.622  29.196  22.095  1.00  0.00     0.199 C 
BRANCH   8   9
ATOM      9  C   UNL     1      27.270  29.094  21.391  1.00  0.00     0.179 C 
ATOM     10  C   UNL     1      27.296  29.772  19.104  1.00  0.00     0.282 C 
ATOM     11  O   UNL     1      27.149  29.969  20.429  1.00  0.00    -0.341 OA
ATOM     12  C   UNL     1      27.718  28.438  18.710  1.00  0.00     0.202 C 
ATOM     13  C   UNL     1      27.242  27.337  19.593  1.00  0.00     0.179 C 
ATOM     14  C   UNL     1      26.956  27.667  21.006  1.00  0.00     0.177 C 
BRANCH  10  15
ATOM     15  O   UNL     1      28.180  30.825  18.715  1.00  0.00    -0.341 OA
BRANCH  15  16
ATOM     16  C   UNL     1      27.593  31.680  17.832  1.00  0.00     0.184 C 
ATOM     17  C   UNL     1      28.479  31.994  16.680  1.00  0.00     0.178 C 
ATOM     18  O   UNL     1      27.767  32.693  15.696  1.00  0.00    -0.341 OA
ATOM     19  C   UNL     1      27.511  33.966  16.124  1.00  0.00     0.281 C 
ATOM     20  C   UNL     1      27.258  33.015  18.487  1.00  0.00     0.180 C 
ATOM     21  C   UNL     1      27.568  34.146  17.587  1.00  0.00     0.202 C 
BRANCH  17  22
ATOM     22  C   UNL     1      29.195  30.800  16.081  1.00  0.00     0.191 C 
BRANCH  22  23
ATOM     23  O   UNL     1      30.375  30.577  16.784  1.00  0.00    -0.394 OA
ATOM     24  H   UNL     1      31.127  30.298  16.222  1.00  0.00     0.210 HD
ENDBRANCH  22  23
ENDBRANCH  17  22
BRANCH  19  25
ATOM     25  O   UNL     1      26.324  34.473  15.569  1.00  0.00    -0.350 OA
BRANCH  25  26
ATOM     26  C   UNL     1      25.556  33.557  14.911  1.00  0.00     0.169 C 
BRANCH  26  27
ATOM     27  C   UNL     1      24.382  33.166  15.778  1.00  0.00     0.119 C 
BRANCH  27  28
ATOM     28  N   UNL     1      23.953  31.793  15.520  1.00  0.00    -0.092 NA
ATOM     29  N   UNL     1      24.662  30.828  15.776  1.00  0.00     0.001 N 
ATOM     30  N   UNL     1      25.556  29.972  15.750  1.00  0.00    -0.003 NA
ENDBRANCH  27  28
ENDBRANCH  26  27
ENDBRANCH  25  26
ENDBRANCH  19  25
BRANCH  20  31
ATOM     31  O   UNL     1      25.926  32.944  18.898  1.00  0.00    -0.387 OA
ATOM     32  H   UNL     1      25.788  33.395  19.774  1.00  0.00     0.211 HD
ENDBRANCH  20  31
BRANCH  21  33
ATOM     33  O   UNL     1      28.850  34.650  17.956  1.00  0.00    -0.385 OA
ATOM     34  H   UNL     1      29.116  34.118  18.757  1.00  0.00     0.211 HD
ENDBRANCH  21  33
ENDBRANCH  15  16
ENDBRANCH  10  15
BRANCH  12  35
ATOM     35  O   UNL     1      27.297  28.078  17.404  1.00  0.00    -0.385 OA
ATOM     36  H   UNL     1      27.146  28.933  16.933  1.00  0.00     0.211 HD
ENDBRANCH  12  35
BRANCH  13  37
ATOM     37  O   UNL     1      28.140  26.238  19.566  1.00  0.00    -0.387 OA
ATOM     38  H   UNL     1      28.023  25.744  18.713  1.00  0.00     0.211 HD
ENDBRANCH  13  37
BRANCH  14  39
ATOM     39  O   UNL     1      27.755  26.866  21.839  1.00  0.00    -0.387 OA
ATOM     40  H   UNL     1      28.582  27.328  22.112  1.00  0.00     0.211 HD
ENDBRANCH  14  39
ENDBRANCH   8   9
ENDBRANCH   7   8
ENDBRANCH   1   7
BRANCH   1  41
ATOM     41  C   UNL     1      31.614  27.798  22.205  1.00  0.00     0.364 C 
ATOM     42  O   UNL     1      30.997  26.771  22.550  1.00  0.00    -0.246 OA
BRANCH  41  43
ATOM     43  O   UNL     1      33.007  27.702  22.156  1.00  0.00    -0.477 OA
ATOM     44  H   UNL     1      33.537  27.420  22.967  1.00  0.00     0.296 HD
ENDBRANCH  41  43
ENDBRANCH   1  41
BRANCH   3  45
ATOM     45  O   UNL     1      31.578  31.035  24.907  1.00  0.00    -0.391 OA
ATOM     46  H   UNL     1      31.738  32.007  24.816  1.00  0.00     0.211 HD
ENDBRANCH   3  45
BRANCH   5  47
ATOM     47  C   UNL     1      30.788  32.014  20.826  1.00  0.00     0.176 C 
BRANCH  47  48
ATOM     48  O   UNL     1      30.702  31.804  19.434  1.00  0.00    -0.388 OA
ATOM     49  H   UNL     1      31.362  32.309  18.928  1.00  0.00     0.211 HD
ENDBRANCH  47  48
BRANCH  47  50
ATOM     50  C   UNL     1      30.990  33.467  21.058  1.00  0.00     0.165 C 
BRANCH  50  51
ATOM     51  O   UNL     1      29.788  34.100  20.762  1.00  0.00    -0.388 OA
ATOM     52  H   UNL     1      29.911  35.005  20.377  1.00  0.00     0.211 HD
ENDBRANCH  50  51
BRANCH  50  53
ATOM     53  C   UNL     1      32.095  34.109  20.294  1.00  0.00     0.154 C 
BRANCH  53  54
ATOM     54  N   UNL     1      31.878  34.287  18.894  1.00  0.00    -0.319 N 
ATOM     55  C   UNL     1      32.610  35.081  18.006  1.00  0.00     0.407 C 
ATOM     56  H   UNL     1      31.058  33.751  18.462  1.00  0.00     0.167 HD
ATOM     57  O   UNL     1      33.568  35.751  18.410  1.00  0.00    -0.225 OA
BRANCH  55  58
ATOM     58  O   UNL     1      32.285  35.141  16.653  1.00  0.00    -0.443 OA
BRANCH  58  59
ATOM     59  C   UNL     1      31.787  33.969  15.987  1.00  0.00     0.294 C 
BRANCH  59  60
ATOM     60  C   UNL     1      30.887  34.402  14.888  1.00  0.00     0.120 A 
ATOM     61  C   UNL     1      30.434  35.682  14.746  1.00  0.00     0.139 A 
ATOM     62  N   UNL     1      30.412  33.634  13.913  1.00  0.00    -0.132 NA
ATOM     63  N   UNL     1      29.661  35.670  13.645  1.00  0.00    -0.240 N 
ATOM     64  N   UNL     1      29.658  34.427  13.152  1.00  0.00    -0.066 NA
BRANCH  63  65
ATOM     65  C   UNL     1      28.937  36.756  13.019  1.00  0.00     0.169 C 
BRANCH  65  66
ATOM     66  C   UNL     1      27.641  36.235  12.567  1.00  0.00    -0.019 A 
ATOM     67  C   UNL     1      27.578  35.155  11.709  1.00  0.00     0.006 A 
ATOM     68  C   UNL     1      26.437  36.788  12.948  1.00  0.00     0.006 A 
ATOM     69  C   UNL     1      26.364  34.657  11.257  1.00  0.00     0.000 A 
ATOM     70  C   UNL     1      25.214  36.297  12.501  1.00  0.00     0.000 A 
ATOM     71  C   UNL     1      25.171  35.216  11.643  1.00  0.00     0.000 A 
ENDBRANCH  65  66
BRANCH  65  72
ATOM     72  C   UNL     1      29.758  37.386  11.966  1.00  0.00    -0.019 A 
ATOM     73  C   UNL     1      29.090  37.850  10.838  1.00  0.00     0.006 A 
ATOM     74  C   UNL     1      31.115  37.521  12.007  1.00  0.00     0.006 A 
ATOM     75  C   UNL     1      29.783  38.423   9.804  1.00  0.00     0.000 A 
ATOM     76  C   UNL     1      31.821  38.099  10.968  1.00  0.00     0.000 A 
ATOM     77  C   UNL     1      31.156  38.553   9.859  1.00  0.00     0.000 A 
ENDBRANCH  65  72
ENDBRANCH  63  65
ENDBRANCH  59  60
ENDBRANCH  58  59
ENDBRANCH  55  58
ENDBRANCH  53  54
ENDBRANCH  50  53
ENDBRANCH  47  50
ENDBRANCH   5  47
BRANCH   4  78
ATOM     78  N   UNL     1      33.859  31.204  22.708  1.00  0.00    -0.348 N 
ATOM     79  C   UNL     1      34.734  32.318  22.843  1.00  0.00     0.217 C 
ATOM     80  H   UNL     1      34.312  30.260  22.624  1.00  0.00     0.163 HD
ATOM     81  C   UNL     1      36.225  32.132  22.864  1.00  0.00     0.114 C 
ATOM     82  O   UNL     1      34.291  33.481  22.950  1.00  0.00    -0.275 OA
ENDBRANCH   4  78
TORSDOF 32
BEGIN_RES LYS A 131
REMARK  4 active torsions:
REMARK  status: ('A' for Active; 'I' for Inactive)
REMARK    1  A    between atoms: CA   and  CB  
REMARK    2  A    between atoms: CB   and  CG  
REMARK    3  A    between atoms: CG   and  CD  
REMARK    4  A    between atoms: CD   and  CE  
ROOT
ATOM      1  CA  LYS A 131      29.867  25.555  16.977  1.00 20.52     0.186 C 
ENDROOT
BRANCH   1   2
ATOM      2  CB  LYS A 131      28.345  25.722  17.026  1.00 20.94     0.034 C 
BRANCH   2   3
ATOM      3  CG  LYS A 131      27.599  24.481  16.561  1.00 22.96     0.005 C 
BRANCH   3   4
ATOM      4  CD  LYS A 131      27.285  23.549  17.699  1.00 24.33     0.041 C 
BRANCH   4   5
ATOM      5  CE  LYS A 131      25.779  23.527  17.938  1.00 26.91     0.338 C 
ATOM      6  NZ  LYS A 131      25.084  24.383  16.947  1.00 27.40     0.618 N 
ENDBRANCH   4   5
ENDBRANCH   3   4
ENDBRANCH   2   3
ENDBRANCH   1   2
END_RES LYS A 131
BEGIN_RES LYS A 135
REMARK  4 active torsions:
REMARK  status: ('A' for Active; 'I' for Inactive)
REMARK    5  A    between atoms: CA   and  CB  
REMARK    6  A    between atoms: CB   and  CG  
REMARK    7  A    between atoms: CG   and  CD  
REMARK    8  A    between atoms: CD   and  CE  
ROOT
ATOM      7  CA  LYS A 135      33.193  34.663   9.290  1.00 25.02     0.186 C 
ENDROOT
BRANCH   7   8
ATOM      8  CB  LYS A 135      32.060  35.360  10.034  1.00 26.63     0.034 C 
BRANCH   8   9
ATOM      9  CG  LYS A 135      30.701  34.776   9.746  1.00 29.45     0.005 C 
BRANCH   9  10
ATOM     10  CD  LYS A 135      30.549  34.478   8.262  1.00 32.00     0.041 C 
BRANCH  10  11
ATOM     11  CE  LYS A 135      29.438  35.318   7.661  1.00 34.25     0.338 C 
ATOM     12  NZ  LYS A 135      28.100  34.826   8.092  1.00 35.99     0.618 N 
ENDBRANCH  10  11
ENDBRANCH   9  10
ENDBRANCH   8   9
ENDBRANCH   7   8
END_RES LYS A 135
