REMARK VINA RESULT:    -4.772      3.850     10.220
REMARK INTER + INTRA:         -23.802
REMARK INTER:                 -11.392
REMARK INTRA:                 -12.410
REMARK UNBOUND:               -10.521
REMARK SMILES CC(=O)N[C@@H]1[C@@H](O)C[C@](OC[C@H]2O[C@@H](O[C@H]3[C@H](O)[C@@H](O)[C@H](OCCN=[N+]=[N-])O[C@@H]3CO)[C@H](O)[C@@H](O)[C@H]2O)(C(=O)O)O[C@H]1C(O)[C@H](O)CNC(=O)OCc1cn(CCCCCC(=O)O)nn1
REMARK SMILES IDX 47 1 45 2 43 3 42 4 9 5 8 6 41 7 6 8 5 9 10 10 11 11 12 12
REMARK SMILES IDX 14 13 13 14 32 15 34 16 36 17 15 18 16 19 29 20 28 21 21 22
REMARK SMILES IDX 17 23 19 24 30 25 31 26 22 28 23 29 24 30 25 31 26 32 27 33
REMARK SMILES IDX 18 34 20 36 33 38 35 40 37 42 38 44 39 45 40 46 7 48 4 50
REMARK SMILES IDX 2 51 1 53 3 54 44 55 46 57 48 59 49 60 50 62 51 63 52 64
REMARK SMILES IDX 53 65 54 66 65 67 55 68 64 69 56 70 57 71 58 72 59 73 60 74
REMARK SMILES IDX 61 75 62 76 63 77
REMARK H PARENT 31 27 18 35 20 37 33 39 35 41 37 43 40 47 7 49 4 52 44 56
REMARK H PARENT 46 58 48 61 63 78
REMARK Flexibility Score: inf
ROOT
ATOM      1  C   UNL     1      30.345  31.069  16.761  1.00  0.00     0.154 C 
ENDROOT
BRANCH   1   2
ATOM      2  C   UNL     1      28.859  31.148  17.016  1.00  0.00     0.165 C 
BRANCH   2   3
ATOM      3  C   UNL     1      28.182  30.616  15.795  1.00  0.00     0.176 C 
BRANCH   3   4
ATOM      4  C   UNL     1      26.700  30.491  15.868  1.00  0.00     0.178 C 
ATOM      5  C   UNL     1      24.726  31.456  15.367  1.00  0.00     0.272 C 
ATOM      6  C   UNL     1      24.212  30.065  15.554  1.00  0.00     0.113 C 
ATOM      7  O   UNL     1      26.007  31.691  15.847  1.00  0.00    -0.332 OA
ATOM      8  C   UNL     1      24.796  29.255  16.647  1.00  0.00     0.145 C 
ATOM      9  C   UNL     1      26.181  29.752  17.082  1.00  0.00     0.142 C 
BRANCH   5  10
ATOM     10  O   UNL     1      23.826  32.426  15.803  1.00  0.00    -0.338 OA
BRANCH  10  11
ATOM     11  C   UNL     1      23.895  32.800  17.107  1.00  0.00     0.199 C 
BRANCH  11  12
ATOM     12  C   UNL     1      24.294  34.264  17.119  1.00  0.00     0.179 C 
ATOM     13  C   UNL     1      25.757  35.843  16.513  1.00  0.00     0.282 C 
ATOM     14  O   UNL     1      25.149  34.624  16.089  1.00  0.00    -0.341 OA
ATOM     15  C   UNL     1      24.882  36.735  17.271  1.00  0.00     0.202 C 
ATOM     16  C   UNL     1      23.401  36.508  17.162  1.00  0.00     0.179 C 
ATOM     17  C   UNL     1      23.031  35.074  16.889  1.00  0.00     0.177 C 
BRANCH  13  18
ATOM     18  O   UNL     1      26.509  36.374  15.468  1.00  0.00    -0.341 OA
BRANCH  18  19
ATOM     19  C   UNL     1      26.146  35.992  14.231  1.00  0.00     0.184 C 
ATOM     20  C   UNL     1      27.311  35.689  13.338  1.00  0.00     0.178 C 
ATOM     21  O   UNL     1      26.775  34.942  12.269  1.00  0.00    -0.341 OA
ATOM     22  C   UNL     1      25.986  35.712  11.483  1.00  0.00     0.281 C 
ATOM     23  C   UNL     1      25.449  37.178  13.480  1.00  0.00     0.180 C 
ATOM     24  C   UNL     1      25.756  37.078  12.008  1.00  0.00     0.202 C 
BRANCH  20  25
ATOM     25  C   UNL     1      28.370  34.834  13.983  1.00  0.00     0.191 C 
BRANCH  25  26
ATOM     26  O   UNL     1      27.801  33.808  14.707  1.00  0.00    -0.394 OA
ATOM     27  H   UNL     1      28.456  33.533  15.403  1.00  0.00     0.210 HD
ENDBRANCH  25  26
ENDBRANCH  20  25
BRANCH  22  28
ATOM     28  O   UNL     1      24.772  35.102  11.141  1.00  0.00    -0.350 OA
BRANCH  28  29
ATOM     29  C   UNL     1      24.208  35.638  10.012  1.00  0.00     0.169 C 
BRANCH  29  30
ATOM     30  C   UNL     1      25.246  35.697   8.901  1.00  0.00     0.119 C 
BRANCH  30  31
ATOM     31  N   UNL     1      25.066  36.889   8.088  1.00  0.00    -0.092 NA
ATOM     32  N   UNL     1      25.674  37.934   8.387  1.00  0.00     0.001 N 
ATOM     33  N   UNL     1      25.851  39.062   8.850  1.00  0.00    -0.003 NA
ENDBRANCH  30  31
ENDBRANCH  29  30
ENDBRANCH  28  29
ENDBRANCH  22  28
BRANCH  23  34
ATOM     34  O   UNL     1      24.070  37.044  13.633  1.00  0.00    -0.387 OA
ATOM     35  H   UNL     1      23.636  37.919  13.414  1.00  0.00     0.211 HD
ENDBRANCH  23  34
BRANCH  24  36
ATOM     36  O   UNL     1      26.703  38.021  11.586  1.00  0.00    -0.385 OA
ATOM     37  H   UNL     1      26.396  38.537  10.799  1.00  0.00     0.211 HD
ENDBRANCH  24  36
ENDBRANCH  18  19
ENDBRANCH  13  18
BRANCH  15  38
ATOM     38  O   UNL     1      25.161  36.685  18.668  1.00  0.00    -0.385 OA
ATOM     39  H   UNL     1      25.920  37.256  18.883  1.00  0.00     0.211 HD
ENDBRANCH  15  38
BRANCH  16  40
ATOM     40  O   UNL     1      22.810  37.281  16.146  1.00  0.00    -0.387 OA
ATOM     41  H   UNL     1      22.765  38.229  16.367  1.00  0.00     0.211 HD
ENDBRANCH  16  40
BRANCH  17  42
ATOM     42  O   UNL     1      22.725  34.930  15.512  1.00  0.00    -0.387 OA
ATOM     43  H   UNL     1      22.400  33.979  15.420  1.00  0.00     0.211 HD
ENDBRANCH  17  42
ENDBRANCH  11  12
ENDBRANCH  10  11
ENDBRANCH   5  10
BRANCH   5  44
ATOM     44  C   UNL     1      24.827  31.672  13.896  1.00  0.00     0.364 C 
ATOM     45  O   UNL     1      24.684  30.719  13.099  1.00  0.00    -0.246 OA
BRANCH  44  46
ATOM     46  O   UNL     1      25.080  32.926  13.398  1.00  0.00    -0.477 OA
ATOM     47  H   UNL     1      25.108  33.774  13.989  1.00  0.00     0.296 HD
ENDBRANCH  44  46
ENDBRANCH   5  44
BRANCH   8  48
ATOM     48  O   UNL     1      23.959  29.026  17.736  1.00  0.00    -0.391 OA
ATOM     49  H   UNL     1      23.823  29.885  18.196  1.00  0.00     0.211 HD
ENDBRANCH   8  48
BRANCH   9  50
ATOM     50  N   UNL     1      27.005  28.686  17.535  1.00  0.00    -0.348 N 
ATOM     51  C   UNL     1      27.026  28.351  18.910  1.00  0.00     0.217 C 
ATOM     52  H   UNL     1      27.588  28.148  16.879  1.00  0.00     0.163 HD
ATOM     53  C   UNL     1      27.876  27.238  19.409  1.00  0.00     0.114 C 
ATOM     54  O   UNL     1      26.332  28.973  19.766  1.00  0.00    -0.275 OA
ENDBRANCH   9  50
ENDBRANCH   3   4
BRANCH   3  55
ATOM     55  O   UNL     1      28.723  29.366  15.416  1.00  0.00    -0.388 OA
ATOM     56  H   UNL     1      28.214  28.998  14.659  1.00  0.00     0.211 HD
ENDBRANCH   3  55
ENDBRANCH   2   3
BRANCH   2  57
ATOM     57  O   UNL     1      28.529  32.482  17.220  1.00  0.00    -0.388 OA
ATOM     58  H   UNL     1      27.835  32.503  17.926  1.00  0.00     0.211 HD
ENDBRANCH   2  57
ENDBRANCH   1   2
BRANCH   1  59
ATOM     59  N   UNL     1      30.777  31.752  15.584  1.00  0.00    -0.319 N 
ATOM     60  C   UNL     1      31.386  33.039  15.732  1.00  0.00     0.407 C 
ATOM     61  H   UNL     1      30.671  31.362  14.635  1.00  0.00     0.167 HD
ATOM     62  O   UNL     1      31.533  33.547  16.872  1.00  0.00    -0.225 OA
BRANCH  60  63
ATOM     63  O   UNL     1      31.827  33.766  14.651  1.00  0.00    -0.443 OA
BRANCH  63  64
ATOM     64  C   UNL     1      32.569  34.932  14.730  1.00  0.00     0.294 C 
BRANCH  64  65
ATOM     65  C   UNL     1      32.282  35.969  13.732  1.00  0.00     0.120 A 
ATOM     66  C   UNL     1      31.448  37.049  13.864  1.00  0.00     0.138 A 
ATOM     67  N   UNL     1      32.797  36.020  12.483  1.00  0.00    -0.132 NA
ATOM     68  N   UNL     1      31.473  37.722  12.712  1.00  0.00    -0.252 N 
ATOM     69  N   UNL     1      32.292  37.077  11.906  1.00  0.00    -0.067 NA
BRANCH  68  70
ATOM     70  C   UNL     1      30.735  38.943  12.421  1.00  0.00     0.146 C 
BRANCH  70  71
ATOM     71  C   UNL     1      31.587  39.799  11.485  1.00  0.00     0.024 C 
BRANCH  71  72
ATOM     72  C   UNL     1      30.810  40.223  10.273  1.00  0.00     0.002 C 
BRANCH  72  73
ATOM     73  C   UNL     1      31.415  39.615   9.041  1.00  0.00     0.012 C 
BRANCH  73  74
ATOM     74  C   UNL     1      30.982  38.206   8.801  1.00  0.00     0.122 C 
BRANCH  74  75
ATOM     75  C   UNL     1      29.515  38.173   8.545  1.00  0.00     0.303 C 
ATOM     76  O   UNL     1      29.051  38.691   7.506  1.00  0.00    -0.252 OA
BRANCH  75  77
ATOM     77  O   UNL     1      28.643  37.570   9.446  1.00  0.00    -0.481 OA
ATOM     78  H   UNL     1      28.763  36.583   9.681  1.00  0.00     0.296 HD
ENDBRANCH  75  77
ENDBRANCH  74  75
ENDBRANCH  73  74
ENDBRANCH  72  73
ENDBRANCH  71  72
ENDBRANCH  70  71
ENDBRANCH  68  70
ENDBRANCH  64  65
ENDBRANCH  63  64
ENDBRANCH  60  63
ENDBRANCH   1  59
TORSDOF 36
BEGIN_RES LYS A 131
REMARK  4 active torsions:
REMARK  status: ('A' for Active; 'I' for Inactive)
REMARK    1  A    between atoms: CA   and  CB  
REMARK    2  A    between atoms: CB   and  CG  
REMARK    3  A    between atoms: CG   and  CD  
REMARK    4  A    between atoms: CD   and  CE  
ROOT
ATOM      1  CA  LYS A 131      29.867  25.555  16.977  1.00 20.52     0.186 C 
ENDROOT
BRANCH   1   2
ATOM      2  CB  LYS A 131      28.345  25.722  17.026  1.00 20.94     0.034 C 
BRANCH   2   3
ATOM      3  CG  LYS A 131      27.599  24.455  16.638  1.00 22.96     0.005 C 
BRANCH   3   4
ATOM      4  CD  LYS A 131      27.020  23.750  17.833  1.00 24.33     0.041 C 
BRANCH   4   5
ATOM      5  CE  LYS A 131      25.699  24.407  18.221  1.00 26.91     0.338 C 
ATOM      6  NZ  LYS A 131      25.517  24.375  19.692  1.00 27.40     0.618 N 
ENDBRANCH   4   5
ENDBRANCH   3   4
ENDBRANCH   2   3
ENDBRANCH   1   2
END_RES LYS A 131
BEGIN_RES LYS A 135
REMARK  4 active torsions:
REMARK  status: ('A' for Active; 'I' for Inactive)
REMARK    5  A    between atoms: CA   and  CB  
REMARK    6  A    between atoms: CB   and  CG  
REMARK    7  A    between atoms: CG   and  CD  
REMARK    8  A    between atoms: CD   and  CE  
ROOT
ATOM      7  CA  LYS A 135      33.193  34.663   9.290  1.00 25.02     0.186 C 
ENDROOT
BRANCH   7   8
ATOM      8  CB  LYS A 135      32.060  35.360  10.034  1.00 26.63     0.034 C 
BRANCH   8   9
ATOM      9  CG  LYS A 135      30.733  34.656   9.907  1.00 29.45     0.005 C 
BRANCH   9  10
ATOM     10  CD  LYS A 135      30.353  34.487   8.445  1.00 32.00     0.041 C 
BRANCH  10  11
ATOM     11  CE  LYS A 135      28.846  34.420   8.291  1.00 34.25     0.338 C 
ATOM     12  NZ  LYS A 135      28.219  33.719   9.446  1.00 35.99     0.618 N 
ENDBRANCH  10  11
ENDBRANCH   9  10
ENDBRANCH   8   9
ENDBRANCH   7   8
END_RES LYS A 135
