REMARK VINA RESULT:    -5.155      3.293      7.082
REMARK INTER + INTRA:         -22.757
REMARK INTER:                 -11.585
REMARK INTRA:                 -11.172
REMARK UNBOUND:               -10.068
REMARK SMILES CC(=O)N[C@@H]1[C@@H](O)C[C@](OC[C@H]2O[C@@H](O[C@H]3[C@H](O)[C@@H](O)[C@H](OCCN=[N+]=[N-])O[C@@H]3CO)[C@H](O)[C@@H](O)[C@H]2O)(C(=O)O)O[C@H]1C(O)[C@H](O)CNC(=O)OCc1cn(-c2cnc3ccccc3c2)nn1
REMARK SMILES IDX 9 1 8 2 6 3 5 4 42 5 41 6 10 7 11 8 12 9 14 10 13 11 32 12
REMARK SMILES IDX 34 13 36 14 15 15 16 16 29 17 28 18 21 19 17 20 19 21 30 22
REMARK SMILES IDX 31 23 22 25 23 26 24 27 25 28 26 29 27 30 18 31 20 33 33 35
REMARK SMILES IDX 35 37 37 39 38 41 39 42 40 43 7 45 43 47 44 48 45 50 46 51
REMARK SMILES IDX 47 53 48 54 49 55 50 57 51 58 52 59 53 60 54 61 67 62 55 63
REMARK SMILES IDX 66 64 56 65 57 66 65 67 58 68 64 69 59 70 63 71 60 72 62 73
REMARK SMILES IDX 61 74 4 75 2 76 1 78 3 79
REMARK H PARENT 31 24 18 32 20 34 33 36 35 38 37 40 40 44 7 46 44 49 46 52
REMARK H PARENT 48 56 4 77
REMARK Flexibility Score: inf
ROOT
ATOM      1  C   UNL     1      26.415  34.872  14.251  1.00  0.00     0.272 C 
ATOM      2  C   UNL     1      26.197  36.163  14.954  1.00  0.00     0.113 C 
ATOM      3  C   UNL     1      24.765  36.329  15.426  1.00  0.00     0.145 C 
ATOM      4  C   UNL     1      24.429  35.024  16.150  1.00  0.00     0.142 C 
ATOM      5  C   UNL     1      24.407  33.938  15.064  1.00  0.00     0.178 C 
ATOM      6  O   UNL     1      25.776  33.779  14.761  1.00  0.00    -0.332 OA
ENDROOT
BRANCH   1   7
ATOM      7  O   UNL     1      27.781  34.521  14.244  1.00  0.00    -0.338 OA
BRANCH   7   8
ATOM      8  C   UNL     1      28.638  35.573  14.413  1.00  0.00     0.199 C 
BRANCH   8   9
ATOM      9  C   UNL     1      29.833  35.096  15.210  1.00  0.00     0.179 C 
ATOM     10  C   UNL     1      30.516  33.982  17.096  1.00  0.00     0.282 C 
ATOM     11  O   UNL     1      29.530  34.117  16.133  1.00  0.00    -0.341 OA
ATOM     12  C   UNL     1      31.869  34.400  16.600  1.00  0.00     0.202 C 
ATOM     13  C   UNL     1      32.079  34.176  15.144  1.00  0.00     0.179 C 
ATOM     14  C   UNL     1      31.013  34.883  14.358  1.00  0.00     0.177 C 
BRANCH  10  15
ATOM     15  O   UNL     1      30.497  32.696  17.592  1.00  0.00    -0.341 OA
BRANCH  15  16
ATOM     16  C   UNL     1      29.300  32.030  17.326  1.00  0.00     0.184 C 
ATOM     17  C   UNL     1      28.529  31.683  18.576  1.00  0.00     0.178 C 
ATOM     18  O   UNL     1      28.078  30.402  18.656  1.00  0.00    -0.341 OA
ATOM     19  C   UNL     1      27.500  29.857  17.543  1.00  0.00     0.281 C 
ATOM     20  C   UNL     1      29.488  30.871  16.388  1.00  0.00     0.180 C 
ATOM     21  C   UNL     1      28.201  30.122  16.246  1.00  0.00     0.202 C 
BRANCH  17  22
ATOM     22  C   UNL     1      27.458  32.738  18.860  1.00  0.00     0.191 C 
BRANCH  22  23
ATOM     23  O   UNL     1      27.083  33.427  17.710  1.00  0.00    -0.394 OA
ATOM     24  H   UNL     1      27.620  34.229  17.553  1.00  0.00     0.210 HD
ENDBRANCH  22  23
ENDBRANCH  17  22
BRANCH  19  25
ATOM     25  O   UNL     1      26.130  30.114  17.452  1.00  0.00    -0.350 OA
BRANCH  25  26
ATOM     26  C   UNL     1      25.385  28.969  17.262  1.00  0.00     0.169 C 
BRANCH  26  27
ATOM     27  C   UNL     1      24.239  28.870  18.242  1.00  0.00     0.119 C 
BRANCH  27  28
ATOM     28  N   UNL     1      23.442  30.079  18.228  1.00  0.00    -0.092 NA
ATOM     29  N   UNL     1      23.205  30.724  19.249  1.00  0.00     0.001 N 
ATOM     30  N   UNL     1      23.307  31.554  20.153  1.00  0.00    -0.003 NA
ENDBRANCH  27  28
ENDBRANCH  26  27
ENDBRANCH  25  26
ENDBRANCH  19  25
BRANCH  20  31
ATOM     31  O   UNL     1      29.817  31.392  15.117  1.00  0.00    -0.387 OA
ATOM     32  H   UNL     1      29.021  31.362  14.520  1.00  0.00     0.211 HD
ENDBRANCH  20  31
BRANCH  21  33
ATOM     33  O   UNL     1      28.497  28.928  15.548  1.00  0.00    -0.385 OA
ATOM     34  H   UNL     1      28.811  28.232  16.198  1.00  0.00     0.211 HD
ENDBRANCH  21  33
ENDBRANCH  15  16
ENDBRANCH  10  15
BRANCH  12  35
ATOM     35  O   UNL     1      32.190  35.721  16.902  1.00  0.00    -0.385 OA
ATOM     36  H   UNL     1      31.388  36.255  17.115  1.00  0.00     0.211 HD
ENDBRANCH  12  35
BRANCH  13  37
ATOM     37  O   UNL     1      32.121  32.811  14.851  1.00  0.00    -0.387 OA
ATOM     38  H   UNL     1      31.423  32.590  14.212  1.00  0.00     0.211 HD
ENDBRANCH  13  37
BRANCH  14  39
ATOM     39  O   UNL     1      30.775  34.122  13.219  1.00  0.00    -0.387 OA
ATOM     40  H   UNL     1      29.922  33.649  13.241  1.00  0.00     0.211 HD
ENDBRANCH  14  39
ENDBRANCH   8   9
ENDBRANCH   7   8
ENDBRANCH   1   7
BRANCH   1  41
ATOM     41  C   UNL     1      25.946  35.025  12.830  1.00  0.00     0.364 C 
ATOM     42  O   UNL     1      25.750  34.002  12.097  1.00  0.00    -0.246 OA
BRANCH  41  43
ATOM     43  O   UNL     1      25.698  36.233  12.222  1.00  0.00    -0.477 OA
ATOM     44  H   UNL     1      25.603  37.117  12.744  1.00  0.00     0.296 HD
ENDBRANCH  41  43
ENDBRANCH   1  41
BRANCH   3  45
ATOM     45  O   UNL     1      24.601  37.424  16.240  1.00  0.00    -0.391 OA
ATOM     46  H   UNL     1      24.197  38.142  15.710  1.00  0.00     0.211 HD
ENDBRANCH   3  45
BRANCH   5  47
ATOM     47  C   UNL     1      23.966  32.612  15.620  1.00  0.00     0.176 C 
BRANCH  47  48
ATOM     48  O   UNL     1      24.775  32.350  16.757  1.00  0.00    -0.388 OA
ATOM     49  H   UNL     1      24.382  31.629  17.312  1.00  0.00     0.211 HD
ENDBRANCH  47  48
BRANCH  47  50
ATOM     50  C   UNL     1      24.182  31.429  14.686  1.00  0.00     0.165 C 
BRANCH  50  51
ATOM     51  O   UNL     1      24.168  32.058  13.391  1.00  0.00    -0.388 OA
ATOM     52  H   UNL     1      24.999  31.789  12.935  1.00  0.00     0.211 HD
ENDBRANCH  50  51
BRANCH  50  53
ATOM     53  C   UNL     1      22.943  30.561  14.641  1.00  0.00     0.154 C 
BRANCH  53  54
ATOM     54  N   UNL     1      21.731  31.205  14.299  1.00  0.00    -0.319 N 
ATOM     55  C   UNL     1      21.095  31.108  13.044  1.00  0.00     0.407 C 
ATOM     56  H   UNL     1      21.274  31.809  15.054  1.00  0.00     0.167 HD
ATOM     57  O   UNL     1      21.623  30.420  12.148  1.00  0.00    -0.225 OA
BRANCH  55  58
ATOM     58  O   UNL     1      19.910  31.784  12.862  1.00  0.00    -0.443 OA
BRANCH  58  59
ATOM     59  C   UNL     1      19.750  33.136  13.195  1.00  0.00     0.294 C 
BRANCH  59  60
ATOM     60  C   UNL     1      20.127  33.996  12.028  1.00  0.00     0.121 A 
ATOM     61  C   UNL     1      21.349  34.472  11.691  1.00  0.00     0.144 A 
ATOM     62  N   UNL     1      19.243  34.443  11.105  1.00  0.00    -0.131 NA
ATOM     63  N   UNL     1      21.177  35.198  10.570  1.00  0.00    -0.219 N 
ATOM     64  N   UNL     1      19.888  35.174  10.220  1.00  0.00    -0.062 NA
BRANCH  63  65
ATOM     65  C   UNL     1      22.224  35.878   9.883  1.00  0.00     0.085 A 
ATOM     66  C   UNL     1      22.048  37.164   9.484  1.00  0.00     0.140 A 
ATOM     67  C   UNL     1      23.411  35.203   9.645  1.00  0.00     0.040 A 
ATOM     68  N   UNL     1      23.052  37.795   8.842  1.00  0.00    -0.254 NA
ATOM     69  C   UNL     1      24.415  35.859   8.994  1.00  0.00     0.002 A 
ATOM     70  C   UNL     1      24.201  37.151   8.608  1.00  0.00     0.070 A 
ATOM     71  C   UNL     1      25.606  35.209   8.746  1.00  0.00     0.010 A 
ATOM     72  C   UNL     1      25.233  37.815   7.943  1.00  0.00     0.029 A 
ATOM     73  C   UNL     1      26.616  35.887   8.084  1.00  0.00     0.001 A 
ATOM     74  C   UNL     1      26.428  37.209   7.677  1.00  0.00     0.002 A 
ENDBRANCH  63  65
ENDBRANCH  59  60
ENDBRANCH  58  59
ENDBRANCH  55  58
ENDBRANCH  53  54
ENDBRANCH  50  53
ENDBRANCH  47  50
ENDBRANCH   5  47
BRANCH   4  75
ATOM     75  N   UNL     1      23.253  35.134  16.926  1.00  0.00    -0.348 N 
ATOM     76  C   UNL     1      23.285  34.888  18.349  1.00  0.00     0.217 C 
ATOM     77  H   UNL     1      22.320  35.404  16.553  1.00  0.00     0.163 HD
ATOM     78  C   UNL     1      22.076  34.996  19.167  1.00  0.00     0.114 C 
ATOM     79  O   UNL     1      24.409  34.574  18.846  1.00  0.00    -0.275 OA
ENDBRANCH   4  75
TORSDOF 30
BEGIN_RES LYS A 131
REMARK  4 active torsions:
REMARK  status: ('A' for Active; 'I' for Inactive)
REMARK    1  A    between atoms: CA   and  CB  
REMARK    2  A    between atoms: CB   and  CG  
REMARK    3  A    between atoms: CG   and  CD  
REMARK    4  A    between atoms: CD   and  CE  
ROOT
ATOM      1  CA  LYS A 131      29.867  25.555  16.977  1.00 20.52     0.186 C 
ENDROOT
BRANCH   1   2
ATOM      2  CB  LYS A 131      28.345  25.722  17.026  1.00 20.94     0.034 C 
BRANCH   2   3
ATOM      3  CG  LYS A 131      27.604  24.394  17.002  1.00 22.96     0.005 C 
BRANCH   3   4
ATOM      4  CD  LYS A 131      26.113  24.578  16.935  1.00 24.33     0.041 C 
BRANCH   4   5
ATOM      5  CE  LYS A 131      25.424  23.411  17.634  1.00 26.91     0.338 C 
ATOM      6  NZ  LYS A 131      25.856  23.325  19.049  1.00 27.40     0.618 N 
ENDBRANCH   4   5
ENDBRANCH   3   4
ENDBRANCH   2   3
ENDBRANCH   1   2
END_RES LYS A 131
BEGIN_RES LYS A 135
REMARK  4 active torsions:
REMARK  status: ('A' for Active; 'I' for Inactive)
REMARK    5  A    between atoms: CA   and  CB  
REMARK    6  A    between atoms: CB   and  CG  
REMARK    7  A    between atoms: CG   and  CD  
REMARK    8  A    between atoms: CD   and  CE  
ROOT
ATOM      7  CA  LYS A 135      33.193  34.663   9.290  1.00 25.02     0.186 C 
ENDROOT
BRANCH   7   8
ATOM      8  CB  LYS A 135      32.060  35.360  10.034  1.00 26.63     0.034 C 
BRANCH   8   9
ATOM      9  CG  LYS A 135      30.766  35.399   9.262  1.00 29.45     0.005 C 
BRANCH   9  10
ATOM     10  CD  LYS A 135      29.855  36.492   9.797  1.00 32.00     0.041 C 
BRANCH  10  11
ATOM     11  CE  LYS A 135      28.890  35.927  10.821  1.00 34.25     0.338 C 
ATOM     12  NZ  LYS A 135      28.687  34.466  10.618  1.00 35.99     0.618 N 
ENDBRANCH  10  11
ENDBRANCH   9  10
ENDBRANCH   8   9
ENDBRANCH   7   8
END_RES LYS A 135
