REMARK VINA RESULT:    -4.119      1.579      2.090
REMARK INTER + INTRA:         -23.200
REMARK INTER:                 -12.619
REMARK INTRA:                 -10.580
REMARK UNBOUND:               -11.857
REMARK SMILES CC[N+](C)(CC)CCCn1cc(COC(=O)NC[C@@H](O)C(O)[C@@H]2O[C@@](OC[C@H]3O[C@@H](O[C@H]4[C@H](O)[C@@H](O)[C@H](OCCN=[N+]=[N-])O[C@@H]4CO)[C@H](O)[C@@H](O)[C@H]3O)(C(=O)O)C[C@H](O)[C@H]2NC(C)=O)nn1
REMARK SMILES IDX 21 1 23 2 25 3 57 4 24 5 58 6 60 7 26 8 27 9 28 10 30 11
REMARK SMILES IDX 29 12 48 13 50 14 52 15 31 16 32 17 45 18 44 19 37 20 33 21
REMARK SMILES IDX 35 22 46 23 47 24 38 26 39 27 40 28 41 29 42 30 43 31 34 32
REMARK SMILES IDX 36 34 49 36 51 38 53 40 54 42 55 43 56 44 59 46 61 48 62 49
REMARK SMILES IDX 63 51 64 52 22 53 19 55 20 56 18 58 17 59 15 60 16 62 14 63
REMARK SMILES IDX 13 64 12 65 11 66 65 67 10 68 66 69 9 70 8 71 7 72 3 73 4 74
REMARK SMILES IDX 2 75 1 76 5 77 6 78
REMARK H PARENT 47 25 34 33 36 35 49 37 51 39 53 41 56 45 59 47 61 50 22 54
REMARK H PARENT 20 57 17 61
REMARK Flexibility Score: inf
ROOT
ATOM      1  C   UNL     1      32.191  28.951  21.303  1.00  0.00     0.176 C 
ENDROOT
BRANCH   1   2
ATOM      2  C   UNL     1      31.561  30.109  22.071  1.00  0.00     0.178 C 
ATOM      3  C   UNL     1      30.299  32.060  21.663  1.00  0.00     0.272 C 
ATOM      4  C   UNL     1      31.038  32.588  22.847  1.00  0.00     0.113 C 
ATOM      5  O   UNL     1      31.113  31.018  21.138  1.00  0.00    -0.332 OA
ATOM      6  C   UNL     1      32.494  32.199  22.842  1.00  0.00     0.145 C 
ATOM      7  C   UNL     1      32.574  30.684  23.007  1.00  0.00     0.142 C 
BRANCH   3   8
ATOM      8  O   UNL     1      30.218  32.946  20.609  1.00  0.00    -0.338 OA
BRANCH   8   9
ATOM      9  C   UNL     1      30.689  32.607  19.397  1.00  0.00     0.199 C 
BRANCH   9  10
ATOM     10  C   UNL     1      29.618  32.838  18.299  1.00  0.00     0.179 C 
ATOM     11  C   UNL     1      30.930  33.598  16.493  1.00  0.00     0.282 C 
ATOM     12  O   UNL     1      29.939  33.816  17.441  1.00  0.00    -0.341 OA
ATOM     13  C   UNL     1      31.014  32.198  16.018  1.00  0.00     0.202 C 
ATOM     14  C   UNL     1      29.573  31.654  16.124  1.00  0.00     0.179 C 
ATOM     15  C   UNL     1      29.340  31.502  17.611  1.00  0.00     0.177 C 
BRANCH  11  16
ATOM     16  O   UNL     1      32.135  34.187  16.902  1.00  0.00    -0.341 OA
BRANCH  16  17
ATOM     17  C   UNL     1      32.187  35.524  16.634  1.00  0.00     0.184 C 
ATOM     18  C   UNL     1      33.036  36.027  15.550  1.00  0.00     0.178 C 
ATOM     19  O   UNL     1      32.714  37.346  15.286  1.00  0.00    -0.341 OA
ATOM     20  C   UNL     1      32.073  38.075  16.220  1.00  0.00     0.281 C 
ATOM     21  C   UNL     1      32.625  36.306  17.894  1.00  0.00     0.180 C 
ATOM     22  C   UNL     1      32.374  37.773  17.667  1.00  0.00     0.202 C 
BRANCH  18  23
ATOM     23  C   UNL     1      32.975  35.271  14.237  1.00  0.00     0.191 C 
BRANCH  23  24
ATOM     24  O   UNL     1      33.609  34.037  14.281  1.00  0.00    -0.394 OA
ATOM     25  H   UNL     1      34.106  33.948  13.405  1.00  0.00     0.210 HD
ENDBRANCH  23  24
ENDBRANCH  18  23
BRANCH  20  26
ATOM     26  O   UNL     1      30.715  38.141  15.964  1.00  0.00    -0.350 OA
BRANCH  26  27
ATOM     27  C   UNL     1      30.362  38.448  14.692  1.00  0.00     0.169 C 
BRANCH  27  28
ATOM     28  C   UNL     1      29.162  37.674  14.185  1.00  0.00     0.119 C 
BRANCH  28  29
ATOM     29  N   UNL     1      29.216  36.314  14.694  1.00  0.00    -0.092 NA
ATOM     30  N   UNL     1      29.381  35.334  13.970  1.00  0.00     0.001 N 
ATOM     31  N   UNL     1      29.570  34.341  13.265  1.00  0.00    -0.003 NA
ENDBRANCH  28  29
ENDBRANCH  27  28
ENDBRANCH  26  27
ENDBRANCH  20  26
BRANCH  21  32
ATOM     32  O   UNL     1      31.954  35.751  18.958  1.00  0.00    -0.387 OA
ATOM     33  H   UNL     1      31.192  35.194  18.733  1.00  0.00     0.211 HD
ENDBRANCH  21  32
BRANCH  22  34
ATOM     34  O   UNL     1      33.452  38.492  18.158  1.00  0.00    -0.385 OA
ATOM     35  H   UNL     1      34.168  37.927  18.549  1.00  0.00     0.211 HD
ENDBRANCH  22  34
ENDBRANCH  16  17
ENDBRANCH  11  16
BRANCH  13  36
ATOM     36  O   UNL     1      31.364  32.080  14.663  1.00  0.00    -0.385 OA
ATOM     37  H   UNL     1      30.550  31.822  14.178  1.00  0.00     0.211 HD
ENDBRANCH  13  36
BRANCH  14  38
ATOM     38  O   UNL     1      29.497  30.415  15.487  1.00  0.00    -0.387 OA
ATOM     39  H   UNL     1      30.192  29.850  15.882  1.00  0.00     0.211 HD
ENDBRANCH  14  38
BRANCH  15  40
ATOM     40  O   UNL     1      30.310  30.607  18.060  1.00  0.00    -0.387 OA
ATOM     41  H   UNL     1      31.196  30.979  18.181  1.00  0.00     0.211 HD
ENDBRANCH  15  40
ENDBRANCH   9  10
ENDBRANCH   8   9
ENDBRANCH   3   8
BRANCH   3  42
ATOM     42  C   UNL     1      28.961  31.522  21.961  1.00  0.00     0.364 C 
ATOM     43  O   UNL     1      28.077  31.424  21.081  1.00  0.00    -0.246 OA
BRANCH  42  44
ATOM     44  O   UNL     1      28.633  31.106  23.229  1.00  0.00    -0.477 OA
ATOM     45  H   UNL     1      29.198  31.315  24.050  1.00  0.00     0.296 HD
ENDBRANCH  42  44
ENDBRANCH   3  42
BRANCH   6  46
ATOM     46  O   UNL     1      33.157  32.570  21.697  1.00  0.00    -0.391 OA
ATOM     47  H   UNL     1      32.845  33.463  21.354  1.00  0.00     0.211 HD
ENDBRANCH   6  46
BRANCH   7  48
ATOM     48  N   UNL     1      32.130  30.439  24.390  1.00  0.00    -0.348 N 
ATOM     49  C   UNL     1      32.710  29.410  25.183  1.00  0.00     0.217 C 
ATOM     50  H   UNL     1      31.379  30.989  24.855  1.00  0.00     0.163 HD
ATOM     51  C   UNL     1      32.297  29.129  26.581  1.00  0.00     0.114 C 
ATOM     52  O   UNL     1      33.609  28.715  24.679  1.00  0.00    -0.275 OA
ENDBRANCH   7  48
ENDBRANCH   1   2
BRANCH   1  53
ATOM     53  O   UNL     1      31.683  28.975  19.959  1.00  0.00    -0.388 OA
ATOM     54  H   UNL     1      31.036  28.224  19.897  1.00  0.00     0.211 HD
ENDBRANCH   1  53
BRANCH   1  55
ATOM     55  C   UNL     1      31.780  27.637  21.882  1.00  0.00     0.165 C 
BRANCH  55  56
ATOM     56  O   UNL     1      33.057  27.011  22.199  1.00  0.00    -0.388 OA
ATOM     57  H   UNL     1      32.978  26.045  21.930  1.00  0.00     0.211 HD
ENDBRANCH  55  56
BRANCH  55  58
ATOM     58  C   UNL     1      31.035  26.697  21.008  1.00  0.00     0.154 C 
BRANCH  58  59
ATOM     59  N   UNL     1      29.767  26.977  20.505  1.00  0.00    -0.319 N 
ATOM     60  C   UNL     1      28.679  27.603  21.158  1.00  0.00     0.407 C 
ATOM     61  H   UNL     1      29.566  26.677  19.465  1.00  0.00     0.167 HD
ATOM     62  O   UNL     1      28.718  28.008  22.330  1.00  0.00    -0.225 OA
BRANCH  60  63
ATOM     63  O   UNL     1      27.455  27.785  20.467  1.00  0.00    -0.443 OA
BRANCH  63  64
ATOM     64  C   UNL     1      27.417  27.350  19.095  1.00  0.00     0.294 C 
BRANCH  64  65
ATOM     65  C   UNL     1      26.866  28.557  18.374  1.00  0.00     0.120 A 
ATOM     66  C   UNL     1      26.911  28.802  17.023  1.00  0.00     0.138 A 
ATOM     67  N   UNL     1      26.190  29.592  18.885  1.00  0.00    -0.132 NA
ATOM     68  N   UNL     1      26.255  29.979  16.763  1.00  0.00    -0.252 N 
ATOM     69  N   UNL     1      25.833  30.428  17.931  1.00  0.00    -0.067 NA
BRANCH  68  70
ATOM     70  C   UNL     1      26.044  30.558  15.449  1.00  0.00     0.152 C 
BRANCH  70  71
ATOM     71  C   UNL     1      24.623  30.680  15.101  1.00  0.00     0.085 C 
BRANCH  71  72
ATOM     72  C   UNL     1      23.947  29.626  14.326  1.00  0.00     0.265 C 
BRANCH  72  73
ATOM     73  N   UNL     1      22.617  29.255  14.679  1.00  0.00    -0.326 N 
ATOM     74  C   UNL     1      22.294  29.746  15.991  1.00  0.00     0.334 C 
BRANCH  73  75
ATOM     75  C   UNL     1      22.307  27.859  14.558  1.00  0.00     0.260 C 
ATOM     76  C   UNL     1      22.325  27.132  15.882  1.00  0.00     0.071 C 
ENDBRANCH  73  75
BRANCH  73  77
ATOM     77  C   UNL     1      21.735  29.995  13.761  1.00  0.00     0.260 C 
ATOM     78  C   UNL     1      21.592  29.367  12.420  1.00  0.00     0.071 C 
ENDBRANCH  73  77
ENDBRANCH  72  73
ENDBRANCH  71  72
ENDBRANCH  70  71
ENDBRANCH  68  70
ENDBRANCH  64  65
ENDBRANCH  63  64
ENDBRANCH  60  63
ENDBRANCH  58  59
ENDBRANCH  55  58
ENDBRANCH   1  55
TORSDOF 35
BEGIN_RES LYS A 131
REMARK  4 active torsions:
REMARK  status: ('A' for Active; 'I' for Inactive)
REMARK    1  A    between atoms: CA   and  CB  
REMARK    2  A    between atoms: CB   and  CG  
REMARK    3  A    between atoms: CG   and  CD  
REMARK    4  A    between atoms: CD   and  CE  
ROOT
ATOM      1  CA  LYS A 131      29.867  25.555  16.977  1.00 20.52     0.186 C 
ENDROOT
BRANCH   1   2
ATOM      2  CB  LYS A 131      28.345  25.722  17.026  1.00 20.94     0.034 C 
BRANCH   2   3
ATOM      3  CG  LYS A 131      27.599  24.454  16.639  1.00 22.96     0.005 C 
BRANCH   3   4
ATOM      4  CD  LYS A 131      27.043  23.736  17.837  1.00 24.33     0.041 C 
BRANCH   4   5
ATOM      5  CE  LYS A 131      25.536  23.571  17.678  1.00 26.91     0.338 C 
ATOM      6  NZ  LYS A 131      24.912  24.854  17.278  1.00 27.40     0.618 N 
ENDBRANCH   4   5
ENDBRANCH   3   4
ENDBRANCH   2   3
ENDBRANCH   1   2
END_RES LYS A 131
BEGIN_RES LYS A 135
REMARK  4 active torsions:
REMARK  status: ('A' for Active; 'I' for Inactive)
REMARK    5  A    between atoms: CA   and  CB  
REMARK    6  A    between atoms: CB   and  CG  
REMARK    7  A    between atoms: CG   and  CD  
REMARK    8  A    between atoms: CD   and  CE  
ROOT
ATOM      7  CA  LYS A 135      33.193  34.663   9.290  1.00 25.02     0.186 C 
ENDROOT
BRANCH   7   8
ATOM      8  CB  LYS A 135      32.060  35.360  10.034  1.00 26.63     0.034 C 
BRANCH   8   9
ATOM      9  CG  LYS A 135      30.707  34.747   9.781  1.00 29.45     0.005 C 
BRANCH   9  10
ATOM     10  CD  LYS A 135      30.489  34.523   8.293  1.00 32.00     0.041 C 
BRANCH  10  11
ATOM     11  CE  LYS A 135      29.064  34.869   7.905  1.00 34.25     0.338 C 
ATOM     12  NZ  LYS A 135      28.088  34.267   8.855  1.00 35.99     0.618 N 
ENDBRANCH  10  11
ENDBRANCH   9  10
ENDBRANCH   8   9
ENDBRANCH   7   8
END_RES LYS A 135
