REMARK VINA RESULT:    -4.819      3.883      7.638
REMARK INTER + INTRA:         -23.895
REMARK INTER:                 -11.954
REMARK INTRA:                 -11.940
REMARK UNBOUND:               -11.187
REMARK SMILES CC(=O)N[C@@H]1[C@@H](O)C[C@](OC[C@H]2O[C@@H](O[C@H]3[C@H](O)[C@@H](O)[C@H](OCCN=[N+]=[N-])O[C@@H]3CO)[C@H](O)[C@@H](O)[C@H]2O)(C(=O)O)O[C@H]1C(O)[C@H](O)CNC(=O)OCc1cn(-c2ccc(S(=O)(=O)Nc3nccs3)cc2)nn1
REMARK SMILES IDX 43 1 42 2 9 3 8 4 41 5 6 6 5 7 10 8 11 9 12 10 14 11 13 12
REMARK SMILES IDX 32 13 34 14 36 15 15 16 16 17 29 18 28 19 21 20 17 21 19 22
REMARK SMILES IDX 30 23 31 24 22 26 23 27 24 28 25 29 26 30 27 31 18 32 20 34
REMARK SMILES IDX 33 36 35 38 37 40 38 42 39 43 40 44 7 46 4 48 2 49 1 51 3 52
REMARK SMILES IDX 44 53 45 55 46 56 47 58 48 59 49 60 50 62 51 63 52 64 53 65
REMARK SMILES IDX 54 66 72 67 55 68 71 69 56 70 57 71 70 72 58 73 69 74 59 75
REMARK SMILES IDX 60 76 61 77 62 78 63 79 64 81 65 82 68 83 66 84 67 85
REMARK H PARENT 31 25 18 33 20 35 33 37 35 39 37 41 40 45 7 47 4 50 44 54
REMARK H PARENT 46 57 48 61 63 80
REMARK Flexibility Score: inf
ROOT
ATOM      1  C   UNL     1      31.093  32.658  16.096  1.00  0.00     0.176 C 
ENDROOT
BRANCH   1   2
ATOM      2  C   UNL     1      30.282  33.824  16.551  1.00  0.00     0.178 C 
ATOM      3  C   UNL     1      28.039  34.450  16.341  1.00  0.00     0.272 C 
ATOM      4  C   UNL     1      28.625  35.582  17.213  1.00  0.00     0.113 C 
ATOM      5  O   UNL     1      29.046  33.668  15.849  1.00  0.00    -0.332 OA
ATOM      6  C   UNL     1      29.820  36.223  16.616  1.00  0.00     0.145 C 
ATOM      7  C   UNL     1      30.786  35.166  16.077  1.00  0.00     0.142 C 
BRANCH   3   8
ATOM      8  O   UNL     1      27.347  34.985  15.284  1.00  0.00    -0.338 OA
BRANCH   8   9
ATOM      9  C   UNL     1      27.215  34.158  14.197  1.00  0.00     0.199 C 
BRANCH   9  10
ATOM     10  C   UNL     1      26.836  34.890  12.930  1.00  0.00     0.179 C 
ATOM     11  C   UNL     1      25.470  36.326  11.905  1.00  0.00     0.282 C 
ATOM     12  O   UNL     1      26.011  35.984  13.167  1.00  0.00    -0.341 OA
ATOM     13  C   UNL     1      26.542  37.106  11.184  1.00  0.00     0.202 C 
ATOM     14  C   UNL     1      27.892  36.899  11.878  1.00  0.00     0.179 C 
ATOM     15  C   UNL     1      28.068  35.433  12.225  1.00  0.00     0.177 C 
BRANCH  11  16
ATOM     16  O   UNL     1      24.329  37.048  11.999  1.00  0.00    -0.341 OA
BRANCH  16  17
ATOM     17  C   UNL     1      23.351  36.756  11.066  1.00  0.00     0.184 C 
ATOM     18  C   UNL     1      22.009  37.329  11.279  1.00  0.00     0.178 C 
ATOM     19  O   UNL     1      21.060  36.450  10.686  1.00  0.00    -0.341 OA
ATOM     20  C   UNL     1      20.864  35.319  11.491  1.00  0.00     0.281 C 
ATOM     21  C   UNL     1      23.261  35.256  10.821  1.00  0.00     0.180 C 
ATOM     22  C   UNL     1      22.186  34.601  11.691  1.00  0.00     0.202 C 
BRANCH  18  23
ATOM     23  C   UNL     1      21.751  38.649  10.551  1.00  0.00     0.191 C 
BRANCH  23  24
ATOM     24  O   UNL     1      20.605  38.673   9.817  1.00  0.00    -0.394 OA
ATOM     25  H   UNL     1      19.912  38.122  10.247  1.00  0.00     0.210 HD
ENDBRANCH  23  24
ENDBRANCH  18  23
BRANCH  20  26
ATOM     26  O   UNL     1      19.956  34.501  10.858  1.00  0.00    -0.350 OA
BRANCH  26  27
ATOM     27  C   UNL     1      19.074  35.131  10.018  1.00  0.00     0.169 C 
BRANCH  27  28
ATOM     28  C   UNL     1      19.050  34.557   8.622  1.00  0.00     0.119 C 
BRANCH  28  29
ATOM     29  N   UNL     1      19.277  35.645   7.707  1.00  0.00    -0.092 NA
ATOM     30  N   UNL     1      20.427  36.008   7.472  1.00  0.00     0.001 N 
ATOM     31  N   UNL     1      21.454  36.691   7.487  1.00  0.00    -0.003 NA
ENDBRANCH  28  29
ENDBRANCH  27  28
ENDBRANCH  26  27
ENDBRANCH  20  26
BRANCH  21  32
ATOM     32  O   UNL     1      22.917  34.986   9.497  1.00  0.00    -0.387 OA
ATOM     33  H   UNL     1      23.399  35.578   8.874  1.00  0.00     0.211 HD
ENDBRANCH  21  32
BRANCH  22  34
ATOM     34  O   UNL     1      22.578  34.540  13.022  1.00  0.00    -0.385 OA
ATOM     35  H   UNL     1      22.861  33.615  13.196  1.00  0.00     0.211 HD
ENDBRANCH  22  34
ENDBRANCH  16  17
ENDBRANCH  11  16
BRANCH  13  36
ATOM     36  O   UNL     1      26.768  36.614   9.873  1.00  0.00    -0.385 OA
ATOM     37  H   UNL     1      27.630  36.889   9.528  1.00  0.00     0.211 HD
ENDBRANCH  13  36
BRANCH  14  38
ATOM     38  O   UNL     1      28.009  37.732  12.981  1.00  0.00    -0.387 OA
ATOM     39  H   UNL     1      28.267  37.234  13.799  1.00  0.00     0.211 HD
ENDBRANCH  14  38
BRANCH  15  40
ATOM     40  O   UNL     1      29.203  35.315  13.011  1.00  0.00    -0.387 OA
ATOM     41  H   UNL     1      29.985  35.780  12.670  1.00  0.00     0.211 HD
ENDBRANCH  15  40
ENDBRANCH   9  10
ENDBRANCH   8   9
ENDBRANCH   3   8
BRANCH   3  42
ATOM     42  C   UNL     1      27.161  33.691  17.234  1.00  0.00     0.364 C 
ATOM     43  O   UNL     1      26.422  34.260  18.100  1.00  0.00    -0.246 OA
BRANCH  42  44
ATOM     44  O   UNL     1      27.071  32.310  17.201  1.00  0.00    -0.477 OA
ATOM     45  H   UNL     1      27.893  31.741  17.443  1.00  0.00     0.296 HD
ENDBRANCH  42  44
ENDBRANCH   3  42
BRANCH   6  46
ATOM     46  O   UNL     1      29.507  37.157  15.628  1.00  0.00    -0.391 OA
ATOM     47  H   UNL     1      30.036  36.965  14.816  1.00  0.00     0.211 HD
ENDBRANCH   6  46
BRANCH   7  48
ATOM     48  N   UNL     1      32.120  35.494  16.437  1.00  0.00    -0.348 N 
ATOM     49  C   UNL     1      33.167  35.378  15.480  1.00  0.00     0.217 C 
ATOM     50  H   UNL     1      32.371  35.824  17.388  1.00  0.00     0.163 HD
ATOM     51  C   UNL     1      34.574  35.699  15.771  1.00  0.00     0.114 C 
ATOM     52  O   UNL     1      32.884  34.975  14.300  1.00  0.00    -0.275 OA
ENDBRANCH   7  48
ENDBRANCH   1   2
BRANCH   1  53
ATOM     53  O   UNL     1      30.997  32.576  14.671  1.00  0.00    -0.388 OA
ATOM     54  H   UNL     1      30.358  31.889  14.407  1.00  0.00     0.211 HD
ENDBRANCH   1  53
BRANCH   1  55
ATOM     55  C   UNL     1      30.739  31.319  16.678  1.00  0.00     0.165 C 
BRANCH  55  56
ATOM     56  O   UNL     1      29.511  30.978  16.014  1.00  0.00    -0.388 OA
ATOM     57  H   UNL     1      29.220  30.083  16.327  1.00  0.00     0.211 HD
ENDBRANCH  55  56
BRANCH  55  58
ATOM     58  C   UNL     1      30.316  31.433  18.137  1.00  0.00     0.154 C 
BRANCH  58  59
ATOM     59  N   UNL     1      29.694  30.184  18.491  1.00  0.00    -0.319 N 
ATOM     60  C   UNL     1      28.571  30.084  19.354  1.00  0.00     0.407 C 
ATOM     61  H   UNL     1      30.069  29.258  18.101  1.00  0.00     0.167 HD
ATOM     62  O   UNL     1      28.052  31.096  19.839  1.00  0.00    -0.225 OA
BRANCH  60  63
ATOM     63  O   UNL     1      28.022  28.851  19.685  1.00  0.00    -0.443 OA
BRANCH  63  64
ATOM     64  C   UNL     1      27.206  28.063  18.862  1.00  0.00     0.294 C 
BRANCH  64  65
ATOM     65  C   UNL     1      26.748  28.717  17.626  1.00  0.00     0.121 A 
ATOM     66  C   UNL     1      25.421  28.985  17.275  1.00  0.00     0.144 A 
ATOM     67  N   UNL     1      27.462  29.187  16.605  1.00  0.00    -0.131 NA
ATOM     68  N   UNL     1      25.378  29.604  16.067  1.00  0.00    -0.220 N 
ATOM     69  N   UNL     1      26.637  29.712  15.684  1.00  0.00    -0.062 NA
BRANCH  68  70
ATOM     70  C   UNL     1      24.179  30.032  15.398  1.00  0.00     0.066 A 
ATOM     71  C   UNL     1      24.072  30.069  14.037  1.00  0.00     0.030 A 
ATOM     72  C   UNL     1      23.104  30.429  16.174  1.00  0.00     0.030 A 
ATOM     73  C   UNL     1      22.892  30.505  13.437  1.00  0.00     0.024 A 
ATOM     74  C   UNL     1      21.920  30.866  15.630  1.00  0.00     0.024 A 
ATOM     75  C   UNL     1      21.847  30.892  14.243  1.00  0.00     0.088 A 
BRANCH  75  76
ATOM     76  S   UNL     1      20.357  31.449  13.522  1.00  0.00     0.263 S 
ATOM     77  O   UNL     1      20.588  31.572  12.029  1.00  0.00    -0.201 OA
ATOM     78  O   UNL     1      20.104  32.831  14.056  1.00  0.00    -0.201 OA
BRANCH  76  79
ATOM     79  N   UNL     1      19.090  30.375  13.895  1.00  0.00    -0.255 N 
ATOM     80  H   UNL     1      18.511  30.569  14.731  1.00  0.00     0.182 HD
BRANCH  79  81
ATOM     81  C   UNL     1      18.857  29.275  13.087  1.00  0.00     0.196 A 
ATOM     82  N   UNL     1      19.163  28.038  13.008  1.00  0.00    -0.228 NA
ATOM     83  S   UNL     1      17.790  29.413  11.573  1.00  0.00    -0.105 S 
ATOM     84  C   UNL     1      18.783  27.220  12.098  1.00  0.00     0.125 A 
ATOM     85  C   UNL     1      17.970  27.662  11.089  1.00  0.00     0.089 A 
ENDBRANCH  79  81
ENDBRANCH  76  79
ENDBRANCH  75  76
ENDBRANCH  68  70
ENDBRANCH  64  65
ENDBRANCH  63  64
ENDBRANCH  60  63
ENDBRANCH  58  59
ENDBRANCH  55  58
ENDBRANCH   1  55
TORSDOF 33
BEGIN_RES LYS A 131
REMARK  4 active torsions:
REMARK  status: ('A' for Active; 'I' for Inactive)
REMARK    1  A    between atoms: CA   and  CB  
REMARK    2  A    between atoms: CB   and  CG  
REMARK    3  A    between atoms: CG   and  CD  
REMARK    4  A    between atoms: CD   and  CE  
ROOT
ATOM      1  CA  LYS A 131      29.867  25.555  16.977  1.00 20.52     0.186 C 
ENDROOT
BRANCH   1   2
ATOM      2  CB  LYS A 131      28.345  25.722  17.026  1.00 20.94     0.034 C 
BRANCH   2   3
ATOM      3  CG  LYS A 131      27.599  24.440  16.690  1.00 22.96     0.005 C 
BRANCH   3   4
ATOM      4  CD  LYS A 131      26.701  23.996  17.811  1.00 24.33     0.041 C 
BRANCH   4   5
ATOM      5  CE  LYS A 131      25.249  24.034  17.347  1.00 26.91     0.338 C 
ATOM      6  NZ  LYS A 131      24.701  25.405  17.467  1.00 27.40     0.618 N 
ENDBRANCH   4   5
ENDBRANCH   3   4
ENDBRANCH   2   3
ENDBRANCH   1   2
END_RES LYS A 131
BEGIN_RES LYS A 135
REMARK  4 active torsions:
REMARK  status: ('A' for Active; 'I' for Inactive)
REMARK    5  A    between atoms: CA   and  CB  
REMARK    6  A    between atoms: CB   and  CG  
REMARK    7  A    between atoms: CG   and  CD  
REMARK    8  A    between atoms: CD   and  CE  
ROOT
ATOM      7  CA  LYS A 135      33.193  34.663   9.290  1.00 25.02     0.186 C 
ENDROOT
BRANCH   7   8
ATOM      8  CB  LYS A 135      32.060  35.360  10.034  1.00 26.63     0.034 C 
BRANCH   8   9
ATOM      9  CG  LYS A 135      30.810  35.525   9.209  1.00 29.45     0.005 C 
BRANCH   9  10
ATOM     10  CD  LYS A 135      30.071  34.202   9.083  1.00 32.00     0.041 C 
BRANCH  10  11
ATOM     11  CE  LYS A 135      28.748  34.396   8.367  1.00 34.25     0.338 C 
ATOM     12  NZ  LYS A 135      28.907  35.281   7.180  1.00 35.99     0.618 N 
ENDBRANCH  10  11
ENDBRANCH   9  10
ENDBRANCH   8   9
ENDBRANCH   7   8
END_RES LYS A 135
