REMARK VINA RESULT:    -4.264      5.268     10.461
REMARK INTER + INTRA:         -22.302
REMARK INTER:                 -11.279
REMARK INTRA:                 -11.024
REMARK UNBOUND:               -11.308
REMARK SMILES CC(=O)N[C@@H]1[C@@H](O)C[C@](OC[C@H]2O[C@@H](O[C@H]3[C@H](O)[C@@H](O)[C@H](OCCN=[N+]=[N-])O[C@@H]3CO)[C@H](O)[C@@H](O)[C@H]2O)(C(=O)O)O[C@H]1C(O)[C@H](O)CNC(=O)OCc1cn(CCN2CCCC2)nn1
REMARK SMILES IDX 9 1 8 2 6 3 5 4 42 5 41 6 10 7 11 8 12 9 14 10 13 11 32 12
REMARK SMILES IDX 34 13 36 14 15 15 16 16 29 17 28 18 21 19 17 20 19 21 30 22
REMARK SMILES IDX 31 23 22 25 23 26 24 27 25 28 26 29 27 30 18 31 20 33 33 35
REMARK SMILES IDX 35 37 37 39 38 41 39 42 40 43 7 45 43 47 44 48 45 50 46 51
REMARK SMILES IDX 47 53 48 54 49 55 50 57 51 58 52 59 53 60 54 61 64 62 55 63
REMARK SMILES IDX 63 64 56 65 57 66 58 67 59 68 62 69 60 70 61 71 4 72 2 73
REMARK SMILES IDX 1 75 3 76
REMARK H PARENT 31 24 18 32 20 34 33 36 35 38 37 40 40 44 7 46 44 49 46 52
REMARK H PARENT 48 56 4 74
REMARK Flexibility Score: inf
ROOT
ATOM      1  C   UNL     1      30.766  29.695  20.930  1.00  0.00     0.272 C 
ATOM      2  C   UNL     1      31.883  28.919  20.306  1.00  0.00     0.113 C 
ATOM      3  C   UNL     1      31.806  27.439  20.705  1.00  0.00     0.145 C 
ATOM      4  C   UNL     1      32.046  27.416  22.241  1.00  0.00     0.142 C 
ATOM      5  C   UNL     1      31.044  28.331  22.842  1.00  0.00     0.178 C 
ATOM      6  O   UNL     1      30.175  28.847  21.876  1.00  0.00    -0.332 OA
ENDROOT
BRANCH   1   7
ATOM      7  O   UNL     1      29.725  29.928  20.029  1.00  0.00    -0.338 OA
BRANCH   7   8
ATOM      8  C   UNL     1      28.462  29.877  20.495  1.00  0.00     0.199 C 
BRANCH   8   9
ATOM      9  C   UNL     1      27.423  29.702  19.391  1.00  0.00     0.179 C 
ATOM     10  C   UNL     1      26.689  30.568  17.398  1.00  0.00     0.282 C 
ATOM     11  O   UNL     1      27.768  30.335  18.209  1.00  0.00    -0.341 OA
ATOM     12  C   UNL     1      25.743  29.416  17.436  1.00  0.00     0.202 C 
ATOM     13  C   UNL     1      26.513  28.154  17.781  1.00  0.00     0.179 C 
ATOM     14  C   UNL     1      27.113  28.235  19.171  1.00  0.00     0.177 C 
BRANCH  10  15
ATOM     15  O   UNL     1      26.980  31.039  16.152  1.00  0.00    -0.341 OA
BRANCH  15  16
ATOM     16  C   UNL     1      27.947  31.921  15.925  1.00  0.00     0.184 C 
ATOM     17  C   UNL     1      27.598  33.152  15.114  1.00  0.00     0.178 C 
ATOM     18  O   UNL     1      28.528  34.139  15.458  1.00  0.00    -0.341 OA
ATOM     19  C   UNL     1      29.725  33.785  14.771  1.00  0.00     0.281 C 
ATOM     20  C   UNL     1      29.216  31.379  15.290  1.00  0.00     0.180 C 
ATOM     21  C   UNL     1      30.220  32.508  15.419  1.00  0.00     0.202 C 
BRANCH  17  22
ATOM     22  C   UNL     1      26.200  33.638  15.294  1.00  0.00     0.191 C 
BRANCH  22  23
ATOM     23  O   UNL     1      25.358  32.811  14.557  1.00  0.00    -0.394 OA
ATOM     24  H   UNL     1      25.328  33.114  13.608  1.00  0.00     0.210 HD
ENDBRANCH  22  23
ENDBRANCH  17  22
BRANCH  19  25
ATOM     25  O   UNL     1      30.615  34.770  15.060  1.00  0.00    -0.350 OA
BRANCH  25  26
ATOM     26  C   UNL     1      31.047  35.602  14.085  1.00  0.00     0.169 C 
BRANCH  26  27
ATOM     27  C   UNL     1      32.446  35.445  13.600  1.00  0.00     0.119 C 
BRANCH  27  28
ATOM     28  N   UNL     1      33.310  34.704  14.486  1.00  0.00    -0.092 NA
ATOM     29  N   UNL     1      33.837  35.276  15.429  1.00  0.00     0.001 N 
ATOM     30  N   UNL     1      34.236  35.946  16.387  1.00  0.00    -0.003 NA
ENDBRANCH  27  28
ENDBRANCH  26  27
ENDBRANCH  25  26
ENDBRANCH  19  25
BRANCH  20  31
ATOM     31  O   UNL     1      29.728  30.313  16.015  1.00  0.00    -0.387 OA
ATOM     32  H   UNL     1      29.087  29.599  16.192  1.00  0.00     0.211 HD
ENDBRANCH  20  31
BRANCH  21  33
ATOM     33  O   UNL     1      31.486  32.157  15.013  1.00  0.00    -0.385 OA
ATOM     34  H   UNL     1      31.673  31.206  14.940  1.00  0.00     0.211 HD
ENDBRANCH  21  33
ENDBRANCH  15  16
ENDBRANCH  10  15
BRANCH  12  35
ATOM     35  O   UNL     1      24.739  29.553  18.401  1.00  0.00    -0.385 OA
ATOM     36  H   UNL     1      25.137  29.547  19.319  1.00  0.00     0.211 HD
ENDBRANCH  12  35
BRANCH  13  37
ATOM     37  O   UNL     1      27.578  27.989  16.890  1.00  0.00    -0.387 OA
ATOM     38  H   UNL     1      28.279  27.392  17.302  1.00  0.00     0.211 HD
ENDBRANCH  13  37
BRANCH  14  39
ATOM     39  O   UNL     1      28.269  27.458  19.151  1.00  0.00    -0.387 OA
ATOM     40  H   UNL     1      28.959  28.007  19.628  1.00  0.00     0.211 HD
ENDBRANCH  14  39
ENDBRANCH   8   9
ENDBRANCH   7   8
ENDBRANCH   1   7
BRANCH   1  41
ATOM     41  C   UNL     1      31.196  30.958  21.584  1.00  0.00     0.364 C 
ATOM     42  O   UNL     1      32.440  31.204  21.631  1.00  0.00    -0.246 OA
BRANCH  41  43
ATOM     43  O   UNL     1      30.371  31.894  22.150  1.00  0.00    -0.477 OA
ATOM     44  H   UNL     1      29.402  31.816  22.356  1.00  0.00     0.296 HD
ENDBRANCH  41  43
ENDBRANCH   1  41
BRANCH   3  45
ATOM     45  O   UNL     1      30.548  26.928  20.502  1.00  0.00    -0.391 OA
ATOM     46  H   UNL     1      30.449  25.994  20.828  1.00  0.00     0.211 HD
ENDBRANCH   3  45
BRANCH   5  47
ATOM     47  C   UNL     1      30.127  27.580  23.779  1.00  0.00     0.176 C 
BRANCH  47  48
ATOM     48  O   UNL     1      30.776  26.784  24.704  1.00  0.00    -0.388 OA
ATOM     49  H   UNL     1      30.988  27.217  25.560  1.00  0.00     0.211 HD
ENDBRANCH  47  48
BRANCH  47  50
ATOM     50  C   UNL     1      28.985  28.297  24.386  1.00  0.00     0.165 C 
BRANCH  50  51
ATOM     51  O   UNL     1      29.127  28.696  25.694  1.00  0.00    -0.388 OA
ATOM     52  H   UNL     1      28.827  28.053  26.375  1.00  0.00     0.211 HD
ENDBRANCH  50  51
BRANCH  50  53
ATOM     53  C   UNL     1      27.618  27.901  23.932  1.00  0.00     0.154 C 
BRANCH  53  54
ATOM     54  N   UNL     1      26.654  28.931  24.040  1.00  0.00    -0.319 N 
ATOM     55  C   UNL     1      25.505  29.014  23.178  1.00  0.00     0.407 C 
ATOM     56  H   UNL     1      26.753  29.676  24.772  1.00  0.00     0.167 HD
ATOM     57  O   UNL     1      25.272  28.189  22.276  1.00  0.00    -0.225 OA
BRANCH  55  58
ATOM     58  O   UNL     1      24.585  30.050  23.334  1.00  0.00    -0.443 OA
BRANCH  58  59
ATOM     59  C   UNL     1      23.877  30.556  22.197  1.00  0.00     0.294 C 
BRANCH  59  60
ATOM     60  C   UNL     1      24.725  31.483  21.422  1.00  0.00     0.120 A 
ATOM     61  C   UNL     1      25.868  32.167  21.725  1.00  0.00     0.138 A 
ATOM     62  N   UNL     1      24.453  31.831  20.130  1.00  0.00    -0.132 NA
ATOM     63  N   UNL     1      26.254  32.882  20.668  1.00  0.00    -0.251 N 
ATOM     64  N   UNL     1      25.354  32.654  19.689  1.00  0.00    -0.067 NA
BRANCH  63  65
ATOM     65  C   UNL     1      27.377  33.749  20.499  1.00  0.00     0.161 C 
BRANCH  65  66
ATOM     66  C   UNL     1      27.573  34.244  19.114  1.00  0.00     0.108 C 
BRANCH  66  67
ATOM     67  N   UNL     1      28.864  34.289  18.568  1.00  0.00    -0.301 NA
ATOM     68  C   UNL     1      29.589  35.495  18.527  1.00  0.00     0.084 C 
ATOM     69  C   UNL     1      29.720  33.185  18.882  1.00  0.00     0.084 C 
ATOM     70  C   UNL     1      30.990  35.213  19.049  1.00  0.00     0.017 C 
ATOM     71  C   UNL     1      31.112  33.718  19.024  1.00  0.00     0.017 C 
ENDBRANCH  66  67
ENDBRANCH  65  66
ENDBRANCH  63  65
ENDBRANCH  59  60
ENDBRANCH  58  59
ENDBRANCH  55  58
ENDBRANCH  53  54
ENDBRANCH  50  53
ENDBRANCH  47  50
ENDBRANCH   5  47
BRANCH   4  72
ATOM     72  N   UNL     1      33.429  27.814  22.431  1.00  0.00    -0.348 N 
ATOM     73  C   UNL     1      34.235  27.381  23.523  1.00  0.00     0.217 C 
ATOM     74  H   UNL     1      33.891  28.448  21.755  1.00  0.00     0.163 HD
ATOM     75  C   UNL     1      35.655  27.865  23.626  1.00  0.00     0.114 C 
ATOM     76  O   UNL     1      33.756  26.618  24.364  1.00  0.00    -0.275 OA
ENDBRANCH   4  72
TORSDOF 32
BEGIN_RES LYS A 131
REMARK  4 active torsions:
REMARK  status: ('A' for Active; 'I' for Inactive)
REMARK    1  A    between atoms: CA   and  CB  
REMARK    2  A    between atoms: CB   and  CG  
REMARK    3  A    between atoms: CG   and  CD  
REMARK    4  A    between atoms: CD   and  CE  
ROOT
ATOM      1  CA  LYS A 131      29.867  25.555  16.977  1.00 20.52     0.186 C 
ENDROOT
BRANCH   1   2
ATOM      2  CB  LYS A 131      28.345  25.722  17.026  1.00 20.94     0.034 C 
BRANCH   2   3
ATOM      3  CG  LYS A 131      27.602  24.400  16.916  1.00 22.96     0.005 C 
BRANCH   3   4
ATOM      4  CD  LYS A 131      26.531  24.263  17.962  1.00 24.33     0.041 C 
BRANCH   4   5
ATOM      5  CE  LYS A 131      25.159  24.372  17.304  1.00 26.91     0.338 C 
ATOM      6  NZ  LYS A 131      24.086  24.277  18.323  1.00 27.40     0.618 N 
ENDBRANCH   4   5
ENDBRANCH   3   4
ENDBRANCH   2   3
ENDBRANCH   1   2
END_RES LYS A 131
BEGIN_RES LYS A 135
REMARK  4 active torsions:
REMARK  status: ('A' for Active; 'I' for Inactive)
REMARK    5  A    between atoms: CA   and  CB  
REMARK    6  A    between atoms: CB   and  CG  
REMARK    7  A    between atoms: CG   and  CD  
REMARK    8  A    between atoms: CD   and  CE  
ROOT
ATOM      7  CA  LYS A 135      33.193  34.663   9.290  1.00 25.02     0.186 C 
ENDROOT
BRANCH   7   8
ATOM      8  CB  LYS A 135      32.060  35.360  10.034  1.00 26.63     0.034 C 
BRANCH   8   9
ATOM      9  CG  LYS A 135      30.783  35.449   9.239  1.00 29.45     0.005 C 
BRANCH   9  10
ATOM     10  CD  LYS A 135      30.197  34.065   9.007  1.00 32.00     0.041 C 
BRANCH  10  11
ATOM     11  CE  LYS A 135      28.714  34.054   9.324  1.00 34.25     0.338 C 
ATOM     12  NZ  LYS A 135      28.467  34.412  10.748  1.00 35.99     0.618 N 
ENDBRANCH  10  11
ENDBRANCH   9  10
ENDBRANCH   8   9
ENDBRANCH   7   8
END_RES LYS A 135
