REMARK VINA RESULT:    -3.673      3.102      7.313
REMARK INTER + INTRA:         -22.079
REMARK INTER:                 -11.184
REMARK INTRA:                 -10.895
REMARK UNBOUND:               -13.037
REMARK SMILES CC(=O)N[C@@H]1[C@@H](O)C[C@](OC[C@H]2O[C@@H](O[C@H]3[C@H](O)[C@@H](O)[C@H](OCCN=[N+]=[N-])O[C@@H]3CO)[C@H](O)[C@@H](O)[C@H]2O)(C(=O)O)O[C@H]1C(O)[C@H](O)CNC(=O)OCc1cn([C@H]2C[C@H]3CC[C@@H](C2)N3C)nn1
REMARK SMILES IDX 9 1 8 2 6 3 5 4 42 5 41 6 10 7 11 8 12 9 14 10 13 11 32 12
REMARK SMILES IDX 34 13 36 14 15 15 16 16 29 17 28 18 21 19 17 20 19 21 30 22
REMARK SMILES IDX 31 23 22 25 23 26 24 27 25 28 26 29 27 30 18 31 20 33 33 35
REMARK SMILES IDX 35 37 37 39 38 41 39 42 40 43 7 45 43 47 44 48 45 50 46 51
REMARK SMILES IDX 47 53 48 54 49 55 50 57 51 58 52 59 53 60 54 61 66 62 55 63
REMARK SMILES IDX 65 64 56 65 62 66 57 67 61 68 58 69 63 70 60 71 59 72 64 73
REMARK SMILES IDX 4 74 2 75 1 77 3 78
REMARK H PARENT 31 24 18 32 20 34 33 36 35 38 37 40 40 44 7 46 44 49 46 52
REMARK H PARENT 48 56 4 76
REMARK Flexibility Score: inf
ROOT
ATOM      1  C   UNL     1      29.200  38.156  11.296  1.00  0.00     0.272 C 
ATOM      2  C   UNL     1      30.471  38.656  11.959  1.00  0.00     0.113 C 
ATOM      3  C   UNL     1      31.416  37.579  12.397  1.00  0.00     0.145 C 
ATOM      4  C   UNL     1      30.625  36.384  12.778  1.00  0.00     0.142 C 
ATOM      5  C   UNL     1      29.254  36.874  13.252  1.00  0.00     0.178 C 
ATOM      6  O   UNL     1      28.597  37.137  11.981  1.00  0.00    -0.332 OA
ENDROOT
BRANCH   1   7
ATOM      7  O   UNL     1      29.485  37.873   9.995  1.00  0.00    -0.338 OA
BRANCH   7   8
ATOM      8  C   UNL     1      29.742  38.867   9.123  1.00  0.00     0.199 C 
BRANCH   8   9
ATOM      9  C   UNL     1      29.036  38.891   7.820  1.00  0.00     0.179 C 
ATOM     10  C   UNL     1      26.966  38.487   7.014  1.00  0.00     0.282 C 
ATOM     11  O   UNL     1      27.644  39.116   8.065  1.00  0.00    -0.341 OA
ATOM     12  C   UNL     1      27.404  38.916   5.678  1.00  0.00     0.202 C 
ATOM     13  C   UNL     1      28.669  39.676   5.557  1.00  0.00     0.179 C 
ATOM     14  C   UNL     1      29.388  39.975   6.854  1.00  0.00     0.177 C 
BRANCH  10  15
ATOM     15  O   UNL     1      25.627  38.688   7.248  1.00  0.00    -0.341 OA
BRANCH  15  16
ATOM     16  C   UNL     1      25.212  38.159   8.474  1.00  0.00     0.184 C 
ATOM     17  C   UNL     1      24.603  36.799   8.393  1.00  0.00     0.178 C 
ATOM     18  O   UNL     1      23.324  36.714   7.945  1.00  0.00    -0.341 OA
ATOM     19  C   UNL     1      22.471  37.639   8.441  1.00  0.00     0.281 C 
ATOM     20  C   UNL     1      24.231  39.169   9.026  1.00  0.00     0.180 C 
ATOM     21  C   UNL     1      22.990  39.045   8.145  1.00  0.00     0.202 C 
BRANCH  17  22
ATOM     22  C   UNL     1      24.879  35.990   9.667  1.00  0.00     0.191 C 
BRANCH  22  23
ATOM     23  O   UNL     1      25.779  36.589  10.518  1.00  0.00    -0.394 OA
ATOM     24  H   UNL     1      26.106  35.986  11.218  1.00  0.00     0.210 HD
ENDBRANCH  22  23
ENDBRANCH  17  22
BRANCH  19  25
ATOM     25  O   UNL     1      22.050  37.499   9.730  1.00  0.00    -0.350 OA
BRANCH  25  26
ATOM     26  C   UNL     1      20.826  37.988  10.066  1.00  0.00     0.169 C 
BRANCH  26  27
ATOM     27  C   UNL     1      19.736  36.992   9.862  1.00  0.00     0.119 C 
BRANCH  27  28
ATOM     28  N   UNL     1      20.198  35.622  10.120  1.00  0.00    -0.092 NA
ATOM     29  N   UNL     1      19.378  34.688  10.163  1.00  0.00     0.001 N 
ATOM     30  N   UNL     1      18.583  33.858   9.679  1.00  0.00    -0.003 NA
ENDBRANCH  27  28
ENDBRANCH  26  27
ENDBRANCH  25  26
ENDBRANCH  19  25
BRANCH  20  31
ATOM     31  O   UNL     1      23.881  38.944  10.336  1.00  0.00    -0.387 OA
ATOM     32  H   UNL     1      24.564  38.481  10.846  1.00  0.00     0.211 HD
ENDBRANCH  20  31
BRANCH  21  33
ATOM     33  O   UNL     1      23.321  39.153   6.797  1.00  0.00    -0.385 OA
ATOM     34  H   UNL     1      24.048  38.496   6.627  1.00  0.00     0.211 HD
ENDBRANCH  21  33
ENDBRANCH  15  16
ENDBRANCH  10  15
BRANCH  12  35
ATOM     35  O   UNL     1      27.532  37.747   4.884  1.00  0.00    -0.385 OA
ATOM     36  H   UNL     1      26.731  37.182   4.921  1.00  0.00     0.211 HD
ENDBRANCH  12  35
BRANCH  13  37
ATOM     37  O   UNL     1      28.458  40.929   4.928  1.00  0.00    -0.387 OA
ATOM     38  H   UNL     1      27.458  41.070   4.889  1.00  0.00     0.211 HD
ENDBRANCH  13  37
BRANCH  14  39
ATOM     39  O   UNL     1      28.852  41.202   7.313  1.00  0.00    -0.387 OA
ATOM     40  H   UNL     1      28.085  41.369   6.680  1.00  0.00     0.211 HD
ENDBRANCH  14  39
ENDBRANCH   8   9
ENDBRANCH   7   8
ENDBRANCH   1   7
BRANCH   1  41
ATOM     41  C   UNL     1      28.272  39.329  11.373  1.00  0.00     0.364 C 
ATOM     42  O   UNL     1      28.668  40.452  11.670  1.00  0.00    -0.246 OA
BRANCH  41  43
ATOM     43  O   UNL     1      26.907  39.172  11.103  1.00  0.00    -0.477 OA
ATOM     44  H   UNL     1      26.597  38.231  10.827  1.00  0.00     0.296 HD
ENDBRANCH  41  43
ENDBRANCH   1  41
BRANCH   3  45
ATOM     45  O   UNL     1      32.273  37.331  11.299  1.00  0.00    -0.391 OA
ATOM     46  H   UNL     1      31.749  37.004  10.525  1.00  0.00     0.211 HD
ENDBRANCH   3  45
BRANCH   5  47
ATOM     47  C   UNL     1      28.437  35.855  13.942  1.00  0.00     0.176 C 
BRANCH  47  48
ATOM     48  O   UNL     1      27.539  35.308  12.927  1.00  0.00    -0.388 OA
ATOM     49  H   UNL     1      27.079  34.530  13.334  1.00  0.00     0.211 HD
ENDBRANCH  47  48
BRANCH  47  50
ATOM     50  C   UNL     1      27.386  36.389  14.904  1.00  0.00     0.165 C 
BRANCH  50  51
ATOM     51  O   UNL     1      26.388  35.386  14.969  1.00  0.00    -0.388 OA
ATOM     52  H   UNL     1      26.133  35.076  14.066  1.00  0.00     0.211 HD
ENDBRANCH  50  51
BRANCH  50  53
ATOM     53  C   UNL     1      26.775  37.696  14.597  1.00  0.00     0.154 C 
BRANCH  53  54
ATOM     54  N   UNL     1      25.823  37.469  13.491  1.00  0.00    -0.319 N 
ATOM     55  C   UNL     1      24.424  37.440  13.714  1.00  0.00     0.407 C 
ATOM     56  H   UNL     1      26.201  37.329  12.537  1.00  0.00     0.167 HD
ATOM     57  O   UNL     1      23.990  37.629  14.895  1.00  0.00    -0.225 OA
BRANCH  55  58
ATOM     58  O   UNL     1      23.546  37.214  12.667  1.00  0.00    -0.443 OA
BRANCH  58  59
ATOM     59  C   UNL     1      22.758  36.045  12.695  1.00  0.00     0.294 C 
BRANCH  59  60
ATOM     60  C   UNL     1      23.536  34.814  12.936  1.00  0.00     0.120 A 
ATOM     61  C   UNL     1      23.064  33.705  13.608  1.00  0.00     0.138 A 
ATOM     62  N   UNL     1      24.796  34.518  12.599  1.00  0.00    -0.132 NA
ATOM     63  N   UNL     1      24.027  32.777  13.668  1.00  0.00    -0.249 N 
ATOM     64  N   UNL     1      25.087  33.291  13.042  1.00  0.00    -0.067 NA
BRANCH  63  65
ATOM     65  C   UNL     1      23.881  31.482  14.316  1.00  0.00     0.112 C 
ATOM     66  C   UNL     1      24.333  30.448  13.341  1.00  0.00     0.046 C 
ATOM     67  C   UNL     1      22.473  31.355  14.797  1.00  0.00     0.046 C 
ATOM     68  C   UNL     1      23.460  29.238  13.256  1.00  0.00     0.058 C 
ATOM     69  C   UNL     1      21.849  30.006  14.611  1.00  0.00     0.058 C 
ATOM     70  N   UNL     1      22.822  28.939  14.500  1.00  0.00    -0.300 NA
ATOM     71  C   UNL     1      22.280  29.553  12.340  1.00  0.00     0.021 C 
ATOM     72  C   UNL     1      21.162  29.979  13.262  1.00  0.00     0.021 C 
ATOM     73  C   UNL     1      23.707  28.866  15.637  1.00  0.00     0.105 C 
ENDBRANCH  63  65
ENDBRANCH  59  60
ENDBRANCH  58  59
ENDBRANCH  55  58
ENDBRANCH  53  54
ENDBRANCH  50  53
ENDBRANCH  47  50
ENDBRANCH   5  47
BRANCH   4  74
ATOM     74  N   UNL     1      31.280  35.385  13.511  1.00  0.00    -0.348 N 
ATOM     75  C   UNL     1      31.969  35.651  14.743  1.00  0.00     0.217 C 
ATOM     76  H   UNL     1      31.262  34.386  13.206  1.00  0.00     0.163 HD
ATOM     77  C   UNL     1      32.628  34.511  15.463  1.00  0.00     0.114 C 
ATOM     78  O   UNL     1      32.029  36.792  15.216  1.00  0.00    -0.275 OA
ENDBRANCH   4  74
TORSDOF 30
BEGIN_RES LYS A 131
REMARK  4 active torsions:
REMARK  status: ('A' for Active; 'I' for Inactive)
REMARK    1  A    between atoms: CA   and  CB  
REMARK    2  A    between atoms: CB   and  CG  
REMARK    3  A    between atoms: CG   and  CD  
REMARK    4  A    between atoms: CD   and  CE  
ROOT
ATOM      1  CA  LYS A 131      29.867  25.555  16.977  1.00 20.52     0.186 C 
ENDROOT
BRANCH   1   2
ATOM      2  CB  LYS A 131      28.345  25.722  17.026  1.00 20.94     0.034 C 
BRANCH   2   3
ATOM      3  CG  LYS A 131      27.602  24.399  16.924  1.00 22.96     0.005 C 
BRANCH   3   4
ATOM      4  CD  LYS A 131      26.556  24.252  17.994  1.00 24.33     0.041 C 
BRANCH   4   5
ATOM      5  CE  LYS A 131      25.722  25.527  18.069  1.00 26.91     0.338 C 
ATOM      6  NZ  LYS A 131      24.457  25.363  17.315  1.00 27.40     0.618 N 
ENDBRANCH   4   5
ENDBRANCH   3   4
ENDBRANCH   2   3
ENDBRANCH   1   2
END_RES LYS A 131
BEGIN_RES LYS A 135
REMARK  4 active torsions:
REMARK  status: ('A' for Active; 'I' for Inactive)
REMARK    5  A    between atoms: CA   and  CB  
REMARK    6  A    between atoms: CB   and  CG  
REMARK    7  A    between atoms: CG   and  CD  
REMARK    8  A    between atoms: CD   and  CE  
ROOT
ATOM      7  CA  LYS A 135      33.193  34.663   9.290  1.00 25.02     0.186 C 
ENDROOT
BRANCH   7   8
ATOM      8  CB  LYS A 135      32.060  35.360  10.034  1.00 26.63     0.034 C 
BRANCH   8   9
ATOM      9  CG  LYS A 135      30.698  34.795   9.724  1.00 29.45     0.005 C 
BRANCH   9  10
ATOM     10  CD  LYS A 135      30.578  34.466   8.243  1.00 32.00     0.041 C 
BRANCH  10  11
ATOM     11  CE  LYS A 135      29.381  35.173   7.636  1.00 34.25     0.338 C 
ATOM     12  NZ  LYS A 135      28.123  34.798   8.339  1.00 35.99     0.618 N 
ENDBRANCH  10  11
ENDBRANCH   9  10
ENDBRANCH   8   9
ENDBRANCH   7   8
END_RES LYS A 135
