REMARK VINA RESULT:    -3.613      2.646      6.048
REMARK INTER + INTRA:         -23.409
REMARK INTER:                 -12.252
REMARK INTRA:                 -11.156
REMARK UNBOUND:               -13.881
REMARK SMILES CCOC(=O)c1cccc(-n2cc(COC(=O)NC[C@@H](O)C(O)[C@@H]3O[C@@](OC[C@H]4O[C@@H](O[C@H]5[C@H](O)[C@@H](O)[C@H](OCCN=[N+]=[N-])O[C@@H]5CO)[C@H](O)[C@@H](O)[C@H]4O)(C(=O)O)C[C@H](O)[C@H]3NC(C)=O)nn2)c1
REMARK SMILES IDX 22 1 24 2 26 3 58 4 25 5 59 6 61 7 27 8 28 9 29 10 31 11
REMARK SMILES IDX 30 12 49 13 51 14 53 15 32 16 33 17 46 18 45 19 38 20 34 21
REMARK SMILES IDX 36 22 47 23 48 24 39 26 40 27 41 28 42 29 43 30 44 31 35 32
REMARK SMILES IDX 37 34 50 36 52 38 54 40 55 42 56 43 57 44 60 46 62 48 63 49
REMARK SMILES IDX 64 51 65 52 23 53 20 55 21 56 19 58 18 59 16 60 17 62 15 63
REMARK SMILES IDX 14 64 13 65 12 66 66 67 11 68 67 69 10 70 68 71 9 72 6 73
REMARK SMILES IDX 8 74 7 75 4 76 5 77 3 78 2 79 1 80
REMARK H PARENT 48 25 35 33 37 35 50 37 52 39 54 41 57 45 60 47 62 50 23 54
REMARK H PARENT 21 57 18 61
REMARK Flexibility Score: inf
ROOT
ATOM      1  C   UNL     1      24.910  37.377  12.676  1.00  0.00     0.176 C 
ENDROOT
BRANCH   1   2
ATOM      2  C   UNL     1      26.151  38.078  13.041  1.00  0.00     0.178 C 
ATOM      3  C   UNL     1      28.410  37.961  12.355  1.00  0.00     0.272 C 
ATOM      4  C   UNL     1      28.458  39.067  13.359  1.00  0.00     0.113 C 
ATOM      5  O   UNL     1      27.223  37.236  12.733  1.00  0.00    -0.332 OA
ATOM      6  C   UNL     1      27.836  38.697  14.696  1.00  0.00     0.145 C 
ATOM      7  C   UNL     1      26.301  38.519  14.454  1.00  0.00     0.142 C 
BRANCH   3   8
ATOM      8  O   UNL     1      29.435  37.090  12.554  1.00  0.00    -0.338 OA
BRANCH   8   9
ATOM      9  C   UNL     1      30.680  37.387  12.832  1.00  0.00     0.199 C 
BRANCH   9  10
ATOM     10  C   UNL     1      31.554  36.761  13.833  1.00  0.00     0.179 C 
ATOM     11  C   UNL     1      31.600  35.280  15.643  1.00  0.00     0.282 C 
ATOM     12  O   UNL     1      30.886  36.231  14.878  1.00  0.00    -0.341 OA
ATOM     13  C   UNL     1      33.071  35.357  15.373  1.00  0.00     0.202 C 
ATOM     14  C   UNL     1      33.420  35.210  13.927  1.00  0.00     0.179 C 
ATOM     15  C   UNL     1      32.246  35.575  13.087  1.00  0.00     0.177 C 
BRANCH  11  16
ATOM     16  O   UNL     1      30.995  34.086  15.385  1.00  0.00    -0.341 OA
BRANCH  16  17
ATOM     17  C   UNL     1      29.751  33.852  15.860  1.00  0.00     0.184 C 
ATOM     18  C   UNL     1      29.762  32.546  16.609  1.00  0.00     0.178 C 
ATOM     19  O   UNL     1      28.515  32.270  17.172  1.00  0.00    -0.341 OA
ATOM     20  C   UNL     1      27.617  31.993  16.104  1.00  0.00     0.281 C 
ATOM     21  C   UNL     1      28.707  33.705  14.740  1.00  0.00     0.180 C 
ATOM     22  C   UNL     1      27.398  33.316  15.422  1.00  0.00     0.202 C 
BRANCH  18  23
ATOM     23  C   UNL     1      30.783  32.561  17.711  1.00  0.00     0.191 C 
BRANCH  23  24
ATOM     24  O   UNL     1      30.619  33.719  18.515  1.00  0.00    -0.394 OA
ATOM     25  H   UNL     1      29.825  33.620  19.099  1.00  0.00     0.210 HD
ENDBRANCH  23  24
ENDBRANCH  18  23
BRANCH  20  26
ATOM     26  O   UNL     1      26.491  31.437  16.639  1.00  0.00    -0.350 OA
BRANCH  26  27
ATOM     27  C   UNL     1      26.774  30.375  17.485  1.00  0.00     0.169 C 
BRANCH  27  28
ATOM     28  C   UNL     1      26.069  29.104  17.112  1.00  0.00     0.119 C 
BRANCH  28  29
ATOM     29  N   UNL     1      27.000  27.979  17.264  1.00  0.00    -0.092 NA
ATOM     30  N   UNL     1      27.407  27.724  18.405  1.00  0.00     0.001 N 
ATOM     31  N   UNL     1      27.703  27.198  19.497  1.00  0.00    -0.003 NA
ENDBRANCH  28  29
ENDBRANCH  27  28
ENDBRANCH  26  27
ENDBRANCH  20  26
BRANCH  21  32
ATOM     32  O   UNL     1      28.452  34.925  14.130  1.00  0.00    -0.387 OA
ATOM     33  H   UNL     1      27.854  35.433  14.729  1.00  0.00     0.211 HD
ENDBRANCH  21  32
BRANCH  22  34
ATOM     34  O   UNL     1      26.355  33.267  14.502  1.00  0.00    -0.385 OA
ATOM     35  H   UNL     1      26.457  33.932  13.757  1.00  0.00     0.211 HD
ENDBRANCH  22  34
ENDBRANCH  16  17
ENDBRANCH  11  16
BRANCH  13  36
ATOM     36  O   UNL     1      33.578  36.547  15.930  1.00  0.00    -0.385 OA
ATOM     37  H   UNL     1      32.927  36.990  16.520  1.00  0.00     0.211 HD
ENDBRANCH  13  36
BRANCH  14  38
ATOM     38  O   UNL     1      34.022  34.010  13.621  1.00  0.00    -0.387 OA
ATOM     39  H   UNL     1      33.799  33.806  12.673  1.00  0.00     0.211 HD
ENDBRANCH  14  38
BRANCH  15  40
ATOM     40  O   UNL     1      31.392  34.538  12.877  1.00  0.00    -0.387 OA
ATOM     41  H   UNL     1      30.972  34.628  11.985  1.00  0.00     0.211 HD
ENDBRANCH  15  40
ENDBRANCH   9  10
ENDBRANCH   8   9
ENDBRANCH   3   8
BRANCH   3  42
ATOM     42  C   UNL     1      28.235  38.362  10.966  1.00  0.00     0.364 C 
ATOM     43  O   UNL     1      28.475  37.602  10.016  1.00  0.00    -0.246 OA
BRANCH  42  44
ATOM     44  O   UNL     1      27.783  39.644  10.651  1.00  0.00    -0.477 OA
ATOM     45  H   UNL     1      28.246  40.255  10.012  1.00  0.00     0.296 HD
ENDBRANCH  42  44
ENDBRANCH   3  42
BRANCH   6  46
ATOM     46  O   UNL     1      28.305  37.462  15.069  1.00  0.00    -0.391 OA
ATOM     47  H   UNL     1      28.869  37.092  14.347  1.00  0.00     0.211 HD
ENDBRANCH   6  46
BRANCH   7  48
ATOM     48  N   UNL     1      25.708  39.810  14.718  1.00  0.00    -0.348 N 
ATOM     49  C   UNL     1      24.423  39.988  15.327  1.00  0.00     0.217 C 
ATOM     50  H   UNL     1      26.206  40.718  14.472  1.00  0.00     0.163 HD
ATOM     51  C   UNL     1      23.844  41.333  15.584  1.00  0.00     0.114 C 
ATOM     52  O   UNL     1      23.754  38.990  15.660  1.00  0.00    -0.275 OA
ENDBRANCH   7  48
ENDBRANCH   1   2
BRANCH   1  53
ATOM     53  O   UNL     1      23.907  38.142  12.145  1.00  0.00    -0.388 OA
ATOM     54  H   UNL     1      24.174  38.602  11.316  1.00  0.00     0.211 HD
ENDBRANCH   1  53
BRANCH   1  55
ATOM     55  C   UNL     1      25.055  36.072  11.936  1.00  0.00     0.165 C 
BRANCH  55  56
ATOM     56  O   UNL     1      25.771  36.256  10.749  1.00  0.00    -0.388 OA
ATOM     57  H   UNL     1      26.684  36.591  10.947  1.00  0.00     0.211 HD
ENDBRANCH  55  56
BRANCH  55  58
ATOM     58  C   UNL     1      23.789  35.284  11.795  1.00  0.00     0.154 C 
BRANCH  58  59
ATOM     59  N   UNL     1      23.073  35.611  10.583  1.00  0.00    -0.319 N 
ATOM     60  C   UNL     1      21.870  36.351  10.614  1.00  0.00     0.407 C 
ATOM     61  H   UNL     1      23.446  35.297   9.634  1.00  0.00     0.167 HD
ATOM     62  O   UNL     1      21.320  36.792  11.647  1.00  0.00    -0.225 OA
BRANCH  60  63
ATOM     63  O   UNL     1      21.186  36.638   9.416  1.00  0.00    -0.443 OA
BRANCH  63  64
ATOM     64  C   UNL     1      21.654  37.485   8.413  1.00  0.00     0.294 C 
BRANCH  64  65
ATOM     65  C   UNL     1      23.089  37.797   8.451  1.00  0.00     0.121 A 
ATOM     66  C   UNL     1      24.058  37.311   7.580  1.00  0.00     0.144 A 
ATOM     67  N   UNL     1      23.725  38.587   9.308  1.00  0.00    -0.131 NA
ATOM     68  N   UNL     1      25.229  37.827   7.951  1.00  0.00    -0.220 N 
ATOM     69  N   UNL     1      25.020  38.597   8.994  1.00  0.00    -0.062 NA
BRANCH  68  70
ATOM     70  C   UNL     1      26.470  37.587   7.324  1.00  0.00     0.067 A 
ATOM     71  C   UNL     1      27.418  38.596   7.171  1.00  0.00     0.044 A 
ATOM     72  C   UNL     1      26.811  36.350   6.845  1.00  0.00     0.028 A 
ATOM     73  C   UNL     1      28.639  38.408   6.581  1.00  0.00     0.062 A 
ATOM     74  C   UNL     1      28.038  36.119   6.241  1.00  0.00     0.003 A 
ATOM     75  C   UNL     1      28.951  37.139   6.106  1.00  0.00     0.016 A 
BRANCH  73  76
ATOM     76  C   UNL     1      29.577  39.503   6.452  1.00  0.00     0.338 C 
ATOM     77  O   UNL     1      29.695  40.086   5.356  1.00  0.00    -0.246 OA
BRANCH  76  78
ATOM     78  O   UNL     1      30.329  39.896   7.528  1.00  0.00    -0.462 OA
BRANCH  78  79
ATOM     79  C   UNL     1      31.248  39.065   8.199  1.00  0.00     0.230 C 
ATOM     80  C   UNL     1      31.465  39.569   9.609  1.00  0.00     0.049 C 
ENDBRANCH  78  79
ENDBRANCH  76  78
ENDBRANCH  73  76
ENDBRANCH  68  70
ENDBRANCH  64  65
ENDBRANCH  63  64
ENDBRANCH  60  63
ENDBRANCH  58  59
ENDBRANCH  55  58
ENDBRANCH   1  55
TORSDOF 33
BEGIN_RES LYS A 131
REMARK  4 active torsions:
REMARK  status: ('A' for Active; 'I' for Inactive)
REMARK    1  A    between atoms: CA   and  CB  
REMARK    2  A    between atoms: CB   and  CG  
REMARK    3  A    between atoms: CG   and  CD  
REMARK    4  A    between atoms: CD   and  CE  
ROOT
ATOM      1  CA  LYS A 131      29.867  25.555  16.977  1.00 20.52     0.186 C 
ENDROOT
BRANCH   1   2
ATOM      2  CB  LYS A 131      28.345  25.722  17.026  1.00 20.94     0.034 C 
BRANCH   2   3
ATOM      3  CG  LYS A 131      27.599  24.421  16.772  1.00 22.96     0.005 C 
BRANCH   3   4
ATOM      4  CD  LYS A 131      26.942  23.892  18.016  1.00 24.33     0.041 C 
BRANCH   4   5
ATOM      5  CE  LYS A 131      25.555  24.510  18.161  1.00 26.91     0.338 C 
ATOM      6  NZ  LYS A 131      24.804  24.405  16.888  1.00 27.40     0.618 N 
ENDBRANCH   4   5
ENDBRANCH   3   4
ENDBRANCH   2   3
ENDBRANCH   1   2
END_RES LYS A 131
BEGIN_RES LYS A 135
REMARK  4 active torsions:
REMARK  status: ('A' for Active; 'I' for Inactive)
REMARK    5  A    between atoms: CA   and  CB  
REMARK    6  A    between atoms: CB   and  CG  
REMARK    7  A    between atoms: CG   and  CD  
REMARK    8  A    between atoms: CD   and  CE  
ROOT
ATOM      7  CA  LYS A 135      33.193  34.663   9.290  1.00 25.02     0.186 C 
ENDROOT
BRANCH   7   8
ATOM      8  CB  LYS A 135      32.060  35.360  10.034  1.00 26.63     0.034 C 
BRANCH   8   9
ATOM      9  CG  LYS A 135      30.794  35.484   9.225  1.00 29.45     0.005 C 
BRANCH   9  10
ATOM     10  CD  LYS A 135      30.214  34.111   8.924  1.00 32.00     0.041 C 
BRANCH  10  11
ATOM     11  CE  LYS A 135      28.738  34.068   9.271  1.00 34.25     0.338 C 
ATOM     12  NZ  LYS A 135      28.520  34.328  10.721  1.00 35.99     0.618 N 
ENDBRANCH  10  11
ENDBRANCH   9  10
ENDBRANCH   8   9
ENDBRANCH   7   8
END_RES LYS A 135
