REMARK VINA RESULT:    -5.508      3.027      8.170
REMARK INTER + INTRA:         -23.324
REMARK INTER:                 -14.158
REMARK INTRA:                  -9.166
REMARK UNBOUND:                -9.445
REMARK SMILES CC(=O)N[C@@H]1[C@@H](O)C[C@](OC[C@H]2O[C@@H](O[C@H]3[C@H](O)[C@@H](O)[C@H](OCCN=[N+]=[N-])O[C@@H]3CO)[C@H](O)[C@@H](O)[C@H]2O)(C(=O)O)O[C@H]1C(O)[C@H](O)CNC(=O)OCc1cn(Cc2cccc(Br)c2)nn1
REMARK SMILES IDX 9 1 8 2 6 3 5 4 42 5 41 6 10 7 11 8 12 9 14 10 13 11 32 12
REMARK SMILES IDX 34 13 36 14 15 15 16 16 29 17 28 18 21 19 17 20 19 21 30 22
REMARK SMILES IDX 31 23 22 25 23 26 24 27 25 28 26 29 27 30 18 31 20 33 33 35
REMARK SMILES IDX 35 37 37 39 38 41 39 42 40 43 7 45 43 47 44 48 45 50 46 51
REMARK SMILES IDX 47 53 48 54 49 55 50 57 51 58 52 59 53 60 54 61 65 62 55 63
REMARK SMILES IDX 64 64 56 65 57 66 58 67 63 68 59 69 61 70 60 71 62 72 4 73
REMARK SMILES IDX 2 74 1 76 3 77
REMARK H PARENT 31 24 18 32 20 34 33 36 35 38 37 40 40 44 7 46 44 49 46 52
REMARK H PARENT 48 56 4 75
REMARK Flexibility Score: inf
ROOT
ATOM      1  C   UNL     1      25.245  38.555   8.888  1.00  0.00     0.272 C 
ATOM      2  C   UNL     1      25.402  39.863   8.211  1.00  0.00     0.113 C 
ATOM      3  C   UNL     1      26.191  39.829   6.941  1.00  0.00     0.145 C 
ATOM      4  C   UNL     1      27.282  38.783   6.953  1.00  0.00     0.142 C 
ATOM      5  C   UNL     1      27.001  37.613   7.786  1.00  0.00     0.178 C 
ATOM      6  O   UNL     1      25.725  37.458   8.229  1.00  0.00    -0.332 OA
ENDROOT
BRANCH   1   7
ATOM      7  O   UNL     1      23.860  38.358   9.189  1.00  0.00    -0.338 OA
BRANCH   7   8
ATOM      8  C   UNL     1      23.054  38.551   8.106  1.00  0.00     0.199 C 
BRANCH   8   9
ATOM      9  C   UNL     1      21.940  37.483   8.064  1.00  0.00     0.179 C 
ATOM     10  C   UNL     1      21.375  35.559   9.274  1.00  0.00     0.282 C 
ATOM     11  O   UNL     1      22.374  36.464   8.846  1.00  0.00    -0.341 OA
ATOM     12  C   UNL     1      20.114  35.720   8.520  1.00  0.00     0.202 C 
ATOM     13  C   UNL     1      19.582  37.141   8.544  1.00  0.00     0.179 C 
ATOM     14  C   UNL     1      20.725  38.129   8.695  1.00  0.00     0.177 C 
BRANCH  10  15
ATOM     15  O   UNL     1      21.334  35.730  10.636  1.00  0.00    -0.341 OA
BRANCH  15  16
ATOM     16  C   UNL     1      21.972  34.817  11.395  1.00  0.00     0.184 C 
ATOM     17  C   UNL     1      21.188  34.589  12.661  1.00  0.00     0.178 C 
ATOM     18  O   UNL     1      21.757  33.525  13.355  1.00  0.00    -0.341 OA
ATOM     19  C   UNL     1      23.047  33.792  13.818  1.00  0.00     0.281 C 
ATOM     20  C   UNL     1      23.345  35.268  11.885  1.00  0.00     0.180 C 
ATOM     21  C   UNL     1      23.914  34.037  12.606  1.00  0.00     0.202 C 
BRANCH  17  22
ATOM     22  C   UNL     1      19.787  34.213  12.314  1.00  0.00     0.191 C 
BRANCH  22  23
ATOM     23  O   UNL     1      19.763  33.240  11.331  1.00  0.00    -0.394 OA
ATOM     24  H   UNL     1      19.703  32.358  11.782  1.00  0.00     0.210 HD
ENDBRANCH  22  23
ENDBRANCH  17  22
BRANCH  19  25
ATOM     25  O   UNL     1      23.430  32.685  14.544  1.00  0.00    -0.350 OA
BRANCH  25  26
ATOM     26  C   UNL     1      23.502  31.516  13.840  1.00  0.00     0.169 C 
BRANCH  26  27
ATOM     27  C   UNL     1      24.804  30.766  14.003  1.00  0.00     0.119 C 
BRANCH  27  28
ATOM     28  N   UNL     1      25.412  31.229  15.230  1.00  0.00    -0.092 NA
ATOM     29  N   UNL     1      26.292  32.076  15.285  1.00  0.00     0.001 N 
ATOM     30  N   UNL     1      27.069  33.027  15.246  1.00  0.00    -0.003 NA
ENDBRANCH  27  28
ENDBRANCH  26  27
ENDBRANCH  25  26
ENDBRANCH  19  25
BRANCH  20  31
ATOM     31  O   UNL     1      24.213  35.597  10.884  1.00  0.00    -0.387 OA
ATOM     32  H   UNL     1      23.885  35.434   9.972  1.00  0.00     0.211 HD
ENDBRANCH  20  31
BRANCH  21  33
ATOM     33  O   UNL     1      25.225  34.311  12.893  1.00  0.00    -0.385 OA
ATOM     34  H   UNL     1      25.867  33.746  12.354  1.00  0.00     0.211 HD
ENDBRANCH  21  33
ENDBRANCH  15  16
ENDBRANCH  10  15
BRANCH  12  35
ATOM     35  O   UNL     1      20.384  35.380   7.170  1.00  0.00    -0.385 OA
ATOM     36  H   UNL     1      21.293  35.700   6.931  1.00  0.00     0.211 HD
ENDBRANCH  12  35
BRANCH  13  37
ATOM     37  O   UNL     1      18.586  37.321   9.500  1.00  0.00    -0.387 OA
ATOM     38  H   UNL     1      18.599  38.289   9.793  1.00  0.00     0.211 HD
ENDBRANCH  13  37
BRANCH  14  39
ATOM     39  O   UNL     1      21.026  38.436  10.001  1.00  0.00    -0.387 OA
ATOM     40  H   UNL     1      20.349  38.027  10.623  1.00  0.00     0.211 HD
ENDBRANCH  14  39
ENDBRANCH   8   9
ENDBRANCH   7   8
ENDBRANCH   1   7
BRANCH   1  41
ATOM     41  C   UNL     1      25.887  38.624  10.235  1.00  0.00     0.364 C 
ATOM     42  O   UNL     1      26.355  39.745  10.642  1.00  0.00    -0.246 OA
BRANCH  41  43
ATOM     43  O   UNL     1      26.035  37.582  11.108  1.00  0.00    -0.477 OA
ATOM     44  H   UNL     1      25.361  36.807  11.047  1.00  0.00     0.296 HD
ENDBRANCH  41  43
ENDBRANCH   1  41
BRANCH   3  45
ATOM     45  O   UNL     1      25.368  39.743   5.828  1.00  0.00    -0.391 OA
ATOM     46  H   UNL     1      25.850  39.758   4.973  1.00  0.00     0.211 HD
ENDBRANCH   3  45
BRANCH   5  47
ATOM     47  C   UNL     1      27.472  36.299   7.141  1.00  0.00     0.176 C 
BRANCH  47  48
ATOM     48  O   UNL     1      27.645  36.618   5.734  1.00  0.00    -0.388 OA
ATOM     49  H   UNL     1      28.602  36.851   5.626  1.00  0.00     0.211 HD
ENDBRANCH  47  48
BRANCH  47  50
ATOM     50  C   UNL     1      28.786  35.799   7.618  1.00  0.00     0.165 C 
BRANCH  50  51
ATOM     51  O   UNL     1      29.521  35.512   6.407  1.00  0.00    -0.388 OA
ATOM     52  H   UNL     1      28.929  35.762   5.635  1.00  0.00     0.211 HD
ENDBRANCH  50  51
BRANCH  50  53
ATOM     53  C   UNL     1      28.816  34.503   8.356  1.00  0.00     0.154 C 
BRANCH  53  54
ATOM     54  N   UNL     1      28.999  34.647   9.792  1.00  0.00    -0.319 N 
ATOM     55  C   UNL     1      27.858  34.652  10.633  1.00  0.00     0.407 C 
ATOM     56  H   UNL     1      29.938  34.744  10.215  1.00  0.00     0.167 HD
ATOM     57  O   UNL     1      26.703  34.538  10.136  1.00  0.00    -0.225 OA
BRANCH  55  58
ATOM     58  O   UNL     1      27.982  34.779  12.016  1.00  0.00    -0.443 OA
BRANCH  58  59
ATOM     59  C   UNL     1      28.580  35.975  12.536  1.00  0.00     0.294 C 
BRANCH  59  60
ATOM     60  C   UNL     1      29.607  35.585  13.530  1.00  0.00     0.120 A 
ATOM     61  C   UNL     1      30.172  34.351  13.736  1.00  0.00     0.138 A 
ATOM     62  N   UNL     1      30.162  36.424  14.415  1.00  0.00    -0.132 NA
ATOM     63  N   UNL     1      31.055  34.483  14.745  1.00  0.00    -0.248 N 
ATOM     64  N   UNL     1      31.030  35.747  15.140  1.00  0.00    -0.067 NA
BRANCH  63  65
ATOM     65  C   UNL     1      31.877  33.405  15.284  1.00  0.00     0.181 C 
BRANCH  65  66
ATOM     66  C   UNL     1      31.167  32.673  16.365  1.00  0.00    -0.025 A 
ATOM     67  C   UNL     1      30.451  31.528  16.085  1.00  0.00     0.006 A 
ATOM     68  C   UNL     1      31.177  33.087  17.675  1.00  0.00     0.021 A 
ATOM     69  C   UNL     1      29.769  30.807  17.040  1.00  0.00     0.002 A 
ATOM     70  C   UNL     1      30.506  32.391  18.654  1.00  0.00     0.018 A 
ATOM     71  C   UNL     1      29.797  31.253  18.369  1.00  0.00     0.016 A 
ATOM     72  Br  UNL     1      30.519  32.963  20.481  1.00  0.00    -0.051 Br
ENDBRANCH  65  66
ENDBRANCH  63  65
ENDBRANCH  59  60
ENDBRANCH  58  59
ENDBRANCH  55  58
ENDBRANCH  53  54
ENDBRANCH  50  53
ENDBRANCH  47  50
ENDBRANCH   5  47
BRANCH   4  73
ATOM     73  N   UNL     1      28.559  39.419   7.368  1.00  0.00    -0.348 N 
ATOM     74  C   UNL     1      29.729  39.261   6.586  1.00  0.00     0.217 C 
ATOM     75  H   UNL     1      28.616  39.995   8.246  1.00  0.00     0.163 HD
ATOM     76  C   UNL     1      31.034  39.895   6.985  1.00  0.00     0.114 C 
ATOM     77  O   UNL     1      29.662  38.571   5.533  1.00  0.00    -0.275 OA
ENDBRANCH   4  73
TORSDOF 31
BEGIN_RES LYS A 131
REMARK  4 active torsions:
REMARK  status: ('A' for Active; 'I' for Inactive)
REMARK    1  A    between atoms: CA   and  CB  
REMARK    2  A    between atoms: CB   and  CG  
REMARK    3  A    between atoms: CG   and  CD  
REMARK    4  A    between atoms: CD   and  CE  
ROOT
ATOM      1  CA  LYS A 131      29.867  25.555  16.977  1.00 20.52     0.186 C 
ENDROOT
BRANCH   1   2
ATOM      2  CB  LYS A 131      28.345  25.722  17.026  1.00 20.94     0.034 C 
BRANCH   2   3
ATOM      3  CG  LYS A 131      27.601  24.401  16.898  1.00 22.96     0.005 C 
BRANCH   3   4
ATOM      4  CD  LYS A 131      26.700  24.143  18.073  1.00 24.33     0.041 C 
BRANCH   4   5
ATOM      5  CE  LYS A 131      25.778  25.340  18.280  1.00 26.91     0.338 C 
ATOM      6  NZ  LYS A 131      25.844  25.809  19.685  1.00 27.40     0.618 N 
ENDBRANCH   4   5
ENDBRANCH   3   4
ENDBRANCH   2   3
ENDBRANCH   1   2
END_RES LYS A 131
BEGIN_RES LYS A 135
REMARK  4 active torsions:
REMARK  status: ('A' for Active; 'I' for Inactive)
REMARK    5  A    between atoms: CA   and  CB  
REMARK    6  A    between atoms: CB   and  CG  
REMARK    7  A    between atoms: CG   and  CD  
REMARK    8  A    between atoms: CD   and  CE  
ROOT
ATOM      7  CA  LYS A 135      33.193  34.663   9.290  1.00 25.02     0.186 C 
ENDROOT
BRANCH   7   8
ATOM      8  CB  LYS A 135      32.060  35.360  10.034  1.00 26.63     0.034 C 
BRANCH   8   9
ATOM      9  CG  LYS A 135      32.511  36.085  11.275  1.00 29.45     0.005 C 
BRANCH   9  10
ATOM     10  CD  LYS A 135      31.919  37.485  11.324  1.00 32.00     0.041 C 
BRANCH  10  11
ATOM     11  CE  LYS A 135      31.197  37.803  10.029  1.00 34.25     0.338 C 
ATOM     12  NZ  LYS A 135      29.813  38.289  10.291  1.00 35.99     0.618 N 
ENDBRANCH  10  11
ENDBRANCH   9  10
ENDBRANCH   8   9
ENDBRANCH   7   8
END_RES LYS A 135
