REMARK VINA RESULT:    -3.870      3.544      6.425
REMARK INTER + INTRA:         -22.452
REMARK INTER:                  -8.768
REMARK INTRA:                 -13.684
REMARK UNBOUND:               -12.699
REMARK SMILES CC(=O)N[C@@H]1[C@@H](O)C[C@](OC[C@H]2O[C@@H](O[C@H]3[C@H](O)[C@@H](O)[C@H](OCCN=[N+]=[N-])O[C@@H]3CO)[C@H](O)[C@@H](O)[C@H]2O)(C(=O)O)O[C@H]1C(O)[C@H](O)CNC(=O)OCc1cn(Cc2ccc(Br)cc2)nn1
REMARK SMILES IDX 9 1 8 2 6 3 5 4 42 5 41 6 10 7 11 8 12 9 14 10 13 11 32 12
REMARK SMILES IDX 34 13 36 14 15 15 16 16 29 17 28 18 21 19 17 20 19 21 30 22
REMARK SMILES IDX 31 23 22 25 23 26 24 27 25 28 26 29 27 30 18 31 20 33 33 35
REMARK SMILES IDX 35 37 37 39 38 41 39 42 40 43 7 45 43 47 44 48 45 50 46 51
REMARK SMILES IDX 47 53 48 54 49 55 50 57 51 58 52 59 53 60 54 61 65 62 55 63
REMARK SMILES IDX 64 64 56 65 57 66 58 67 63 68 59 69 62 70 60 71 61 72 4 73
REMARK SMILES IDX 2 74 1 76 3 77
REMARK H PARENT 31 24 18 32 20 34 33 36 35 38 37 40 40 44 7 46 44 49 46 52
REMARK H PARENT 48 56 4 75
REMARK Flexibility Score: inf
ROOT
ATOM      1  C   UNL     1      29.975  32.459  17.665  1.00  0.00     0.272 C 
ATOM      2  C   UNL     1      29.607  31.036  17.883  1.00  0.00     0.113 C 
ATOM      3  C   UNL     1      28.357  30.526  17.282  1.00  0.00     0.145 C 
ATOM      4  C   UNL     1      27.340  31.638  16.908  1.00  0.00     0.142 C 
ATOM      5  C   UNL     1      27.649  32.706  17.921  1.00  0.00     0.178 C 
ATOM      6  O   UNL     1      28.855  33.271  17.418  1.00  0.00    -0.332 OA
ENDROOT
BRANCH   1   7
ATOM      7  O   UNL     1      31.032  32.784  16.929  1.00  0.00    -0.338 OA
BRANCH   7   8
ATOM      8  C   UNL     1      31.509  32.484  15.781  1.00  0.00     0.199 C 
BRANCH   8   9
ATOM      9  C   UNL     1      31.672  33.619  14.799  1.00  0.00     0.179 C 
ATOM     10  C   UNL     1      30.637  34.918  13.253  1.00  0.00     0.282 C 
ATOM     11  O   UNL     1      30.585  33.782  13.982  1.00  0.00    -0.341 OA
ATOM     12  C   UNL     1      31.970  35.644  13.218  1.00  0.00     0.202 C 
ATOM     13  C   UNL     1      32.536  35.838  14.608  1.00  0.00     0.179 C 
ATOM     14  C   UNL     1      31.817  34.928  15.593  1.00  0.00     0.177 C 
BRANCH  10  15
ATOM     15  O   UNL     1      29.680  35.854  13.464  1.00  0.00    -0.341 OA
BRANCH  15  16
ATOM     16  C   UNL     1      28.423  35.764  13.010  1.00  0.00     0.184 C 
ATOM     17  C   UNL     1      27.904  36.920  12.219  1.00  0.00     0.178 C 
ATOM     18  O   UNL     1      26.864  37.581  12.812  1.00  0.00    -0.341 OA
ATOM     19  C   UNL     1      25.732  36.805  13.019  1.00  0.00     0.281 C 
ATOM     20  C   UNL     1      27.487  35.509  14.173  1.00  0.00     0.180 C 
ATOM     21  C   UNL     1      26.079  35.464  13.633  1.00  0.00     0.202 C 
BRANCH  17  22
ATOM     22  C   UNL     1      27.558  36.455  10.824  1.00  0.00     0.191 C 
BRANCH  22  23
ATOM     23  O   UNL     1      27.458  35.050  10.761  1.00  0.00    -0.394 OA
ATOM     24  H   UNL     1      28.300  34.648  10.481  1.00  0.00     0.210 HD
ENDBRANCH  22  23
ENDBRANCH  17  22
BRANCH  19  25
ATOM     25  O   UNL     1      24.938  36.651  11.895  1.00  0.00    -0.350 OA
BRANCH  25  26
ATOM     26  C   UNL     1      23.819  37.440  11.846  1.00  0.00     0.169 C 
BRANCH  26  27
ATOM     27  C   UNL     1      22.883  37.246  13.003  1.00  0.00     0.119 C 
BRANCH  27  28
ATOM     28  N   UNL     1      22.392  35.874  13.023  1.00  0.00    -0.092 NA
ATOM     29  N   UNL     1      21.820  35.441  14.022  1.00  0.00     0.001 N 
ATOM     30  N   UNL     1      21.426  34.812  15.030  1.00  0.00    -0.003 NA
ENDBRANCH  27  28
ENDBRANCH  26  27
ENDBRANCH  25  26
ENDBRANCH  19  25
BRANCH  20  31
ATOM     31  O   UNL     1      27.785  34.217  14.651  1.00  0.00    -0.387 OA
ATOM     32  H   UNL     1      27.565  34.158  15.622  1.00  0.00     0.211 HD
ENDBRANCH  20  31
BRANCH  21  33
ATOM     33  O   UNL     1      25.156  35.083  14.601  1.00  0.00    -0.385 OA
ATOM     34  H   UNL     1      25.650  34.990  15.455  1.00  0.00     0.211 HD
ENDBRANCH  21  33
ENDBRANCH  15  16
ENDBRANCH  10  15
BRANCH  12  35
ATOM     35  O   UNL     1      32.918  35.026  12.423  1.00  0.00    -0.385 OA
ATOM     36  H   UNL     1      32.585  34.714  11.550  1.00  0.00     0.211 HD
ENDBRANCH  12  35
BRANCH  13  37
ATOM     37  O   UNL     1      32.493  37.160  15.035  1.00  0.00    -0.387 OA
ATOM     38  H   UNL     1      31.546  37.372  15.224  1.00  0.00     0.211 HD
ENDBRANCH  13  37
BRANCH  14  39
ATOM     39  O   UNL     1      30.514  35.373  15.845  1.00  0.00    -0.387 OA
ATOM     40  H   UNL     1      30.540  36.155  16.430  1.00  0.00     0.211 HD
ENDBRANCH  14  39
ENDBRANCH   8   9
ENDBRANCH   7   8
ENDBRANCH   1   7
BRANCH   1  41
ATOM     41  C   UNL     1      30.403  32.966  19.052  1.00  0.00     0.364 C 
ATOM     42  O   UNL     1      30.929  32.164  19.822  1.00  0.00    -0.246 OA
BRANCH  41  43
ATOM     43  O   UNL     1      30.223  34.263  19.453  1.00  0.00    -0.477 OA
ATOM     44  H   UNL     1      29.350  34.529  19.935  1.00  0.00     0.296 HD
ENDBRANCH  41  43
ENDBRANCH   1  41
BRANCH   3  45
ATOM     45  O   UNL     1      28.495  29.616  16.246  1.00  0.00    -0.391 OA
ATOM     46  H   UNL     1      28.266  28.723  16.584  1.00  0.00     0.211 HD
ENDBRANCH   3  45
BRANCH   5  47
ATOM     47  C   UNL     1      26.647  33.780  18.120  1.00  0.00     0.176 C 
BRANCH  47  48
ATOM     48  O   UNL     1      26.045  34.174  16.971  1.00  0.00    -0.388 OA
ATOM     49  H   UNL     1      25.845  35.117  16.950  1.00  0.00     0.211 HD
ENDBRANCH  47  48
BRANCH  47  50
ATOM     50  C   UNL     1      25.759  33.740  19.293  1.00  0.00     0.165 C 
BRANCH  50  51
ATOM     51  O   UNL     1      24.579  33.018  19.052  1.00  0.00    -0.388 OA
ATOM     52  H   UNL     1      24.609  32.087  19.319  1.00  0.00     0.211 HD
ENDBRANCH  50  51
BRANCH  50  53
ATOM     53  C   UNL     1      25.489  34.970  20.060  1.00  0.00     0.154 C 
BRANCH  53  54
ATOM     54  N   UNL     1      25.609  36.209  19.311  1.00  0.00    -0.319 N 
ATOM     55  C   UNL     1      26.820  36.948  19.277  1.00  0.00     0.407 C 
ATOM     56  H   UNL     1      24.813  36.617  18.759  1.00  0.00     0.167 HD
ATOM     57  O   UNL     1      27.841  36.519  19.904  1.00  0.00    -0.225 OA
BRANCH  55  58
ATOM     58  O   UNL     1      26.970  38.146  18.586  1.00  0.00    -0.443 OA
BRANCH  58  59
ATOM     59  C   UNL     1      26.776  38.184  17.159  1.00  0.00     0.294 C 
BRANCH  59  60
ATOM     60  C   UNL     1      28.025  38.462  16.431  1.00  0.00     0.120 A 
ATOM     61  C   UNL     1      28.233  39.534  15.586  1.00  0.00     0.138 A 
ATOM     62  N   UNL     1      29.155  37.754  16.442  1.00  0.00    -0.132 NA
ATOM     63  N   UNL     1      29.480  39.445  15.109  1.00  0.00    -0.248 N 
ATOM     64  N   UNL     1      30.010  38.363  15.642  1.00  0.00    -0.067 NA
BRANCH  63  65
ATOM     65  C   UNL     1      30.168  40.346  14.205  1.00  0.00     0.181 C 
BRANCH  65  66
ATOM     66  C   UNL     1      30.195  39.876  12.801  1.00  0.00    -0.026 A 
ATOM     67  C   UNL     1      29.247  40.400  11.917  1.00  0.00     0.007 A 
ATOM     68  C   UNL     1      31.095  38.975  12.307  1.00  0.00     0.007 A 
ATOM     69  C   UNL     1      29.239  40.005  10.590  1.00  0.00     0.016 A 
ATOM     70  C   UNL     1      31.098  38.569  10.972  1.00  0.00     0.016 A 
ATOM     71  C   UNL     1      30.164  39.091  10.118  1.00  0.00     0.017 A 
ATOM     72  Br  UNL     1      30.125  38.569   8.267  1.00  0.00    -0.051 Br
ENDBRANCH  65  66
ENDBRANCH  63  65
ENDBRANCH  59  60
ENDBRANCH  58  59
ENDBRANCH  55  58
ENDBRANCH  53  54
ENDBRANCH  50  53
ENDBRANCH  47  50
ENDBRANCH   5  47
BRANCH   4  73
ATOM     73  N   UNL     1      26.028  31.102  16.911  1.00  0.00    -0.348 N 
ATOM     74  C   UNL     1      25.145  31.354  15.833  1.00  0.00     0.217 C 
ATOM     75  H   UNL     1      25.706  30.506  17.692  1.00  0.00     0.163 HD
ATOM     76  C   UNL     1      23.774  30.848  15.727  1.00  0.00     0.114 C 
ATOM     77  O   UNL     1      25.571  32.081  14.866  1.00  0.00    -0.275 OA
ENDBRANCH   4  73
TORSDOF 31
BEGIN_RES LYS A 131
REMARK  4 active torsions:
REMARK  status: ('A' for Active; 'I' for Inactive)
REMARK    1  A    between atoms: CA   and  CB  
REMARK    2  A    between atoms: CB   and  CG  
REMARK    3  A    between atoms: CG   and  CD  
REMARK    4  A    between atoms: CD   and  CE  
ROOT
ATOM      1  CA  LYS A 131      29.867  25.555  16.977  1.00 20.52     0.186 C 
ENDROOT
BRANCH   1   2
ATOM      2  CB  LYS A 131      28.345  25.722  17.026  1.00 20.94     0.034 C 
BRANCH   2   3
ATOM      3  CG  LYS A 131      27.599  24.425  16.753  1.00 22.96     0.005 C 
BRANCH   3   4
ATOM      4  CD  LYS A 131      26.939  23.880  17.989  1.00 24.33     0.041 C 
BRANCH   4   5
ATOM      5  CE  LYS A 131      25.965  24.915  18.544  1.00 26.91     0.338 C 
ATOM      6  NZ  LYS A 131      24.899  25.207  17.557  1.00 27.40     0.618 N 
ENDBRANCH   4   5
ENDBRANCH   3   4
ENDBRANCH   2   3
ENDBRANCH   1   2
END_RES LYS A 131
BEGIN_RES LYS A 135
REMARK  4 active torsions:
REMARK  status: ('A' for Active; 'I' for Inactive)
REMARK    5  A    between atoms: CA   and  CB  
REMARK    6  A    between atoms: CB   and  CG  
REMARK    7  A    between atoms: CG   and  CD  
REMARK    8  A    between atoms: CD   and  CE  
ROOT
ATOM      7  CA  LYS A 135      33.193  34.663   9.290  1.00 25.02     0.186 C 
ENDROOT
BRANCH   7   8
ATOM      8  CB  LYS A 135      32.060  35.360  10.034  1.00 26.63     0.034 C 
BRANCH   8   9
ATOM      9  CG  LYS A 135      30.692  34.845   9.667  1.00 29.45     0.005 C 
BRANCH   9  10
ATOM     10  CD  LYS A 135      30.544  34.743   8.157  1.00 32.00     0.041 C 
BRANCH  10  11
ATOM     11  CE  LYS A 135      29.085  34.850   7.756  1.00 34.25     0.338 C 
ATOM     12  NZ  LYS A 135      28.937  35.557   6.454  1.00 35.99     0.618 N 
ENDBRANCH  10  11
ENDBRANCH   9  10
ENDBRANCH   8   9
ENDBRANCH   7   8
END_RES LYS A 135
