REMARK VINA RESULT:    -3.091      2.937      7.542
REMARK INTER + INTRA:         -22.423
REMARK INTER:                 -10.611
REMARK INTRA:                 -11.812
REMARK UNBOUND:               -13.729
REMARK SMILES CCOC(CCn1cc(COC(=O)NC[C@@H](O)C(O)[C@@H]2O[C@@](OC[C@H]3O[C@@H](O[C@H]4[C@H](O)[C@@H](O)[C@H](OCCN=[N+]=[N-])O[C@@H]4CO)[C@H](O)[C@@H](O)[C@H]3O)(C(=O)O)C[C@H](O)[C@H]2NC(C)=O)nn1)OCC
REMARK SMILES IDX 18 1 20 2 22 3 54 4 21 5 55 6 57 7 23 8 24 9 25 10 27 11
REMARK SMILES IDX 26 12 45 13 47 14 49 15 28 16 29 17 42 18 41 19 34 20 30 21
REMARK SMILES IDX 32 22 43 23 44 24 35 26 36 27 37 28 38 29 39 30 40 31 31 32
REMARK SMILES IDX 33 34 46 36 48 38 50 40 51 42 52 43 53 44 56 46 58 48 59 49
REMARK SMILES IDX 60 51 61 52 19 53 16 55 17 56 15 58 14 59 12 60 13 62 11 63
REMARK SMILES IDX 10 64 9 65 8 66 62 67 7 68 63 69 6 70 5 71 4 72 3 73 2 74
REMARK SMILES IDX 1 75 64 76 65 77 66 78
REMARK H PARENT 44 25 31 33 33 35 46 37 48 39 50 41 53 45 56 47 58 50 19 54
REMARK H PARENT 17 57 14 61
REMARK Flexibility Score: inf
ROOT
ATOM      1  C   UNL     1      28.883  29.531  20.453  1.00  0.00     0.176 C 
ENDROOT
BRANCH   1   2
ATOM      2  C   UNL     1      27.770  30.040  19.586  1.00  0.00     0.178 C 
ATOM      3  C   UNL     1      26.705  29.772  17.550  1.00  0.00     0.272 C 
ATOM      4  C   UNL     1      25.827  30.794  18.180  1.00  0.00     0.113 C 
ATOM      5  O   UNL     1      27.793  29.385  18.365  1.00  0.00    -0.332 OA
ATOM      6  C   UNL     1      26.517  31.935  18.843  1.00  0.00     0.145 C 
ATOM      7  C   UNL     1      27.942  31.522  19.237  1.00  0.00     0.142 C 
BRANCH   3   8
ATOM      8  O   UNL     1      27.176  30.001  16.320  1.00  0.00    -0.338 OA
BRANCH   8   9
ATOM      9  C   UNL     1      28.493  29.998  16.047  1.00  0.00     0.199 C 
BRANCH   9  10
ATOM     10  C   UNL     1      28.945  31.339  15.513  1.00  0.00     0.179 C 
ATOM     11  C   UNL     1      28.399  33.475  15.088  1.00  0.00     0.282 C 
ATOM     12  O   UNL     1      28.226  32.409  16.011  1.00  0.00    -0.341 OA
ATOM     13  C   UNL     1      29.793  33.967  15.210  1.00  0.00     0.202 C 
ATOM     14  C   UNL     1      30.757  32.831  14.965  1.00  0.00     0.179 C 
ATOM     15  C   UNL     1      30.436  31.576  15.732  1.00  0.00     0.177 C 
BRANCH  11  16
ATOM     16  O   UNL     1      27.406  34.434  15.318  1.00  0.00    -0.341 OA
BRANCH  16  17
ATOM     17  C   UNL     1      26.543  34.440  14.268  1.00  0.00     0.184 C 
ATOM     18  C   UNL     1      26.012  35.734  13.785  1.00  0.00     0.178 C 
ATOM     19  O   UNL     1      25.489  35.534  12.500  1.00  0.00    -0.341 OA
ATOM     20  C   UNL     1      24.346  34.722  12.560  1.00  0.00     0.281 C 
ATOM     21  C   UNL     1      25.267  33.605  14.605  1.00  0.00     0.180 C 
ATOM     22  C   UNL     1      24.619  33.392  13.230  1.00  0.00     0.202 C 
BRANCH  18  23
ATOM     23  C   UNL     1      27.090  36.772  13.695  1.00  0.00     0.191 C 
BRANCH  23  24
ATOM     24  O   UNL     1      28.174  36.346  12.927  1.00  0.00    -0.394 OA
ATOM     25  H   UNL     1      28.758  37.075  12.655  1.00  0.00     0.210 HD
ENDBRANCH  23  24
ENDBRANCH  18  23
BRANCH  20  26
ATOM     26  O   UNL     1      23.972  34.471  11.252  1.00  0.00    -0.350 OA
BRANCH  26  27
ATOM     27  C   UNL     1      23.222  35.428  10.636  1.00  0.00     0.169 C 
BRANCH  27  28
ATOM     28  C   UNL     1      23.764  35.714   9.260  1.00  0.00     0.119 C 
BRANCH  28  29
ATOM     29  N   UNL     1      22.740  36.401   8.476  1.00  0.00    -0.092 NA
ATOM     30  N   UNL     1      23.157  37.378   7.819  1.00  0.00     0.001 N 
ATOM     31  N   UNL     1      23.259  38.543   7.428  1.00  0.00    -0.003 NA
ENDBRANCH  28  29
ENDBRANCH  27  28
ENDBRANCH  26  27
ENDBRANCH  20  26
BRANCH  21  32
ATOM     32  O   UNL     1      25.595  32.405  15.177  1.00  0.00    -0.387 OA
ATOM     33  H   UNL     1      26.532  32.366  15.488  1.00  0.00     0.211 HD
ENDBRANCH  21  32
BRANCH  22  34
ATOM     34  O   UNL     1      23.448  32.692  13.336  1.00  0.00    -0.385 OA
ATOM     35  H   UNL     1      23.136  32.785  14.290  1.00  0.00     0.211 HD
ENDBRANCH  22  34
ENDBRANCH  16  17
ENDBRANCH  11  16
BRANCH  13  36
ATOM     36  O   UNL     1      30.084  34.931  14.233  1.00  0.00    -0.385 OA
ATOM     37  H   UNL     1      31.039  35.164  14.225  1.00  0.00     0.211 HD
ENDBRANCH  13  36
BRANCH  14  38
ATOM     38  O   UNL     1      32.080  33.228  15.126  1.00  0.00    -0.387 OA
ATOM     39  H   UNL     1      32.504  33.437  14.251  1.00  0.00     0.211 HD
ENDBRANCH  14  38
BRANCH  15  40
ATOM     40  O   UNL     1      30.687  31.702  17.090  1.00  0.00    -0.387 OA
ATOM     41  H   UNL     1      31.649  31.800  17.264  1.00  0.00     0.211 HD
ENDBRANCH  15  40
ENDBRANCH   9  10
ENDBRANCH   8   9
ENDBRANCH   3   8
BRANCH   3  42
ATOM     42  C   UNL     1      25.891  28.518  17.461  1.00  0.00     0.364 C 
ATOM     43  O   UNL     1      26.407  27.392  17.586  1.00  0.00    -0.246 OA
BRANCH  42  44
ATOM     44  O   UNL     1      24.519  28.560  17.236  1.00  0.00    -0.477 OA
ATOM     45  H   UNL     1      23.901  28.591  18.039  1.00  0.00     0.296 HD
ENDBRANCH  42  44
ENDBRANCH   3  42
BRANCH   6  46
ATOM     46  O   UNL     1      26.526  33.105  18.124  1.00  0.00    -0.391 OA
ATOM     47  H   UNL     1      26.208  33.895  18.627  1.00  0.00     0.211 HD
ENDBRANCH   6  46
BRANCH   7  48
ATOM     48  N   UNL     1      28.457  32.303  20.313  1.00  0.00    -0.348 N 
ATOM     49  C   UNL     1      29.270  33.429  19.999  1.00  0.00     0.217 C 
ATOM     50  H   UNL     1      28.268  32.096  21.313  1.00  0.00     0.163 HD
ATOM     51  C   UNL     1      29.823  34.262  21.098  1.00  0.00     0.114 C 
ATOM     52  O   UNL     1      29.535  33.738  18.789  1.00  0.00    -0.275 OA
ENDBRANCH   7  48
ENDBRANCH   1   2
BRANCH   1  53
ATOM     53  O   UNL     1      28.738  30.165  21.701  1.00  0.00    -0.388 OA
ATOM     54  H   UNL     1      27.934  30.762  21.697  1.00  0.00     0.211 HD
ENDBRANCH   1  53
BRANCH   1  55
ATOM     55  C   UNL     1      28.651  28.051  20.686  1.00  0.00     0.165 C 
BRANCH  55  56
ATOM     56  O   UNL     1      28.871  27.331  19.549  1.00  0.00    -0.388 OA
ATOM     57  H   UNL     1      28.095  26.801  19.237  1.00  0.00     0.211 HD
ENDBRANCH  55  56
BRANCH  55  58
ATOM     58  C   UNL     1      27.260  27.815  21.205  1.00  0.00     0.154 C 
BRANCH  58  59
ATOM     59  N   UNL     1      26.451  26.920  20.430  1.00  0.00    -0.319 N 
ATOM     60  C   UNL     1      25.131  26.553  20.735  1.00  0.00     0.407 C 
ATOM     61  H   UNL     1      26.917  26.518  19.560  1.00  0.00     0.167 HD
ATOM     62  O   UNL     1      24.516  26.983  21.725  1.00  0.00    -0.225 OA
BRANCH  60  63
ATOM     63  O   UNL     1      24.429  25.652  19.902  1.00  0.00    -0.443 OA
BRANCH  63  64
ATOM     64  C   UNL     1      23.000  25.577  20.011  1.00  0.00     0.294 C 
BRANCH  64  65
ATOM     65  C   UNL     1      22.404  26.523  19.033  1.00  0.00     0.120 A 
ATOM     66  C   UNL     1      22.055  26.268  17.728  1.00  0.00     0.138 A 
ATOM     67  N   UNL     1      22.112  27.806  19.260  1.00  0.00    -0.132 NA
ATOM     68  N   UNL     1      21.563  27.418  17.221  1.00  0.00    -0.252 N 
ATOM     69  N   UNL     1      21.611  28.329  18.176  1.00  0.00    -0.067 NA
BRANCH  68  70
ATOM     70  C   UNL     1      21.085  27.565  15.878  1.00  0.00     0.151 C 
BRANCH  70  71
ATOM     71  C   UNL     1      22.129  27.979  14.880  1.00  0.00     0.086 C 
BRANCH  71  72
ATOM     72  C   UNL     1      22.118  29.502  14.750  1.00  0.00     0.251 C 
BRANCH  72  73
ATOM     73  O   UNL     1      22.493  29.788  13.451  1.00  0.00    -0.353 OA
BRANCH  73  74
ATOM     74  C   UNL     1      21.602  29.276  12.518  1.00  0.00     0.160 C 
ATOM     75  C   UNL     1      20.489  30.259  12.213  1.00  0.00     0.035 C 
ENDBRANCH  73  74
ENDBRANCH  72  73
BRANCH  72  76
ATOM     76  O   UNL     1      22.844  30.109  15.731  1.00  0.00    -0.353 OA
BRANCH  76  77
ATOM     77  C   UNL     1      22.387  31.311  16.199  1.00  0.00     0.160 C 
ATOM     78  C   UNL     1      20.876  31.293  16.222  1.00  0.00     0.035 C 
ENDBRANCH  76  77
ENDBRANCH  72  76
ENDBRANCH  71  72
ENDBRANCH  70  71
ENDBRANCH  68  70
ENDBRANCH  64  65
ENDBRANCH  63  64
ENDBRANCH  60  63
ENDBRANCH  58  59
ENDBRANCH  55  58
ENDBRANCH   1  55
TORSDOF 36
BEGIN_RES LYS A 131
REMARK  4 active torsions:
REMARK  status: ('A' for Active; 'I' for Inactive)
REMARK    1  A    between atoms: CA   and  CB  
REMARK    2  A    between atoms: CB   and  CG  
REMARK    3  A    between atoms: CG   and  CD  
REMARK    4  A    between atoms: CD   and  CE  
ROOT
ATOM      1  CA  LYS A 131      29.867  25.555  16.977  1.00 20.52     0.186 C 
ENDROOT
BRANCH   1   2
ATOM      2  CB  LYS A 131      28.345  25.722  17.026  1.00 20.94     0.034 C 
BRANCH   2   3
ATOM      3  CG  LYS A 131      27.599  24.427  16.742  1.00 22.96     0.005 C 
BRANCH   3   4
ATOM      4  CD  LYS A 131      26.985  23.844  17.984  1.00 24.33     0.041 C 
BRANCH   4   5
ATOM      5  CE  LYS A 131      25.647  23.198  17.636  1.00 26.91     0.338 C 
ATOM      6  NZ  LYS A 131      24.800  24.142  16.870  1.00 27.40     0.618 N 
ENDBRANCH   4   5
ENDBRANCH   3   4
ENDBRANCH   2   3
ENDBRANCH   1   2
END_RES LYS A 131
BEGIN_RES LYS A 135
REMARK  4 active torsions:
REMARK  status: ('A' for Active; 'I' for Inactive)
REMARK    5  A    between atoms: CA   and  CB  
REMARK    6  A    between atoms: CB   and  CG  
REMARK    7  A    between atoms: CG   and  CD  
REMARK    8  A    between atoms: CD   and  CE  
ROOT
ATOM      7  CA  LYS A 135      33.193  34.663   9.290  1.00 25.02     0.186 C 
ENDROOT
BRANCH   7   8
ATOM      8  CB  LYS A 135      32.060  35.360  10.034  1.00 26.63     0.034 C 
BRANCH   8   9
ATOM      9  CG  LYS A 135      30.715  34.714   9.825  1.00 29.45     0.005 C 
BRANCH   9  10
ATOM     10  CD  LYS A 135      30.386  34.626   8.343  1.00 32.00     0.041 C 
BRANCH  10  11
ATOM     11  CE  LYS A 135      29.397  35.707   7.951  1.00 34.25     0.338 C 
ATOM     12  NZ  LYS A 135      28.866  35.477   6.579  1.00 35.99     0.618 N 
ENDBRANCH  10  11
ENDBRANCH   9  10
ENDBRANCH   8   9
ENDBRANCH   7   8
END_RES LYS A 135
