REMARK VINA RESULT:    -4.223      4.552     10.685
REMARK INTER + INTRA:         -22.195
REMARK INTER:                 -10.714
REMARK INTRA:                 -11.481
REMARK UNBOUND:               -11.308
REMARK SMILES CC(=O)N[C@@H]1[C@@H](O)C[C@](OC[C@H]2O[C@@H](O[C@H]3[C@H](O)[C@@H](O)[C@H](OCCN=[N+]=[N-])O[C@@H]3CO)[C@H](O)[C@@H](O)[C@H]2O)(C(=O)O)O[C@H]1C(O)[C@H](O)CNC(=O)OCc1cn(CCN2CCCC2)nn1
REMARK SMILES IDX 9 1 8 2 6 3 5 4 42 5 41 6 10 7 11 8 12 9 14 10 13 11 32 12
REMARK SMILES IDX 34 13 36 14 15 15 16 16 29 17 28 18 21 19 17 20 19 21 30 22
REMARK SMILES IDX 31 23 22 25 23 26 24 27 25 28 26 29 27 30 18 31 20 33 33 35
REMARK SMILES IDX 35 37 37 39 38 41 39 42 40 43 7 45 43 47 44 48 45 50 46 51
REMARK SMILES IDX 47 53 48 54 49 55 50 57 51 58 52 59 53 60 54 61 64 62 55 63
REMARK SMILES IDX 63 64 56 65 57 66 58 67 59 68 62 69 60 70 61 71 4 72 2 73
REMARK SMILES IDX 1 75 3 76
REMARK H PARENT 31 24 18 32 20 34 33 36 35 38 37 40 40 44 7 46 44 49 46 52
REMARK H PARENT 48 56 4 74
REMARK Flexibility Score: inf
ROOT
ATOM      1  C   UNL     1      32.348  34.893  14.963  1.00  0.00     0.272 C 
ATOM      2  C   UNL     1      32.832  35.213  16.342  1.00  0.00     0.113 C 
ATOM      3  C   UNL     1      31.994  36.337  16.965  1.00  0.00     0.145 C 
ATOM      4  C   UNL     1      32.273  37.590  16.088  1.00  0.00     0.142 C 
ATOM      5  C   UNL     1      31.958  37.208  14.688  1.00  0.00     0.178 C 
ATOM      6  O   UNL     1      31.449  35.908  14.613  1.00  0.00    -0.332 OA
ENDROOT
BRANCH   1   7
ATOM      7  O   UNL     1      31.546  33.749  14.944  1.00  0.00    -0.338 OA
BRANCH   7   8
ATOM      8  C   UNL     1      31.587  32.931  16.014  1.00  0.00     0.199 C 
BRANCH   8   9
ATOM      9  C   UNL     1      30.348  32.048  16.139  1.00  0.00     0.179 C 
ATOM     10  C   UNL     1      29.244  30.611  17.545  1.00  0.00     0.282 C 
ATOM     11  O   UNL     1      30.035  31.725  17.448  1.00  0.00    -0.341 OA
ATOM     12  C   UNL     1      28.225  30.593  16.457  1.00  0.00     0.202 C 
ATOM     13  C   UNL     1      27.940  32.019  16.021  1.00  0.00     0.179 C 
ATOM     14  C   UNL     1      29.169  32.669  15.417  1.00  0.00     0.177 C 
BRANCH  10  15
ATOM     15  O   UNL     1      28.766  30.335  18.791  1.00  0.00    -0.341 OA
BRANCH  15  16
ATOM     16  C   UNL     1      29.472  29.673  19.702  1.00  0.00     0.184 C 
ATOM     17  C   UNL     1      28.742  28.655  20.553  1.00  0.00     0.178 C 
ATOM     18  O   UNL     1      29.701  27.742  21.003  1.00  0.00    -0.341 OA
ATOM     19  C   UNL     1      30.396  28.411  22.052  1.00  0.00     0.281 C 
ATOM     20  C   UNL     1      30.258  30.519  20.689  1.00  0.00     0.180 C 
ATOM     21  C   UNL     1      31.171  29.534  21.394  1.00  0.00     0.202 C 
BRANCH  17  22
ATOM     22  C   UNL     1      27.616  27.962  19.862  1.00  0.00     0.191 C 
BRANCH  22  23
ATOM     23  O   UNL     1      28.121  27.359  18.714  1.00  0.00    -0.394 OA
ATOM     24  H   UNL     1      27.551  27.589  17.929  1.00  0.00     0.210 HD
ENDBRANCH  22  23
ENDBRANCH  17  22
BRANCH  19  25
ATOM     25  O   UNL     1      31.293  27.509  22.528  1.00  0.00    -0.350 OA
BRANCH  25  26
ATOM     26  C   UNL     1      31.228  27.102  23.816  1.00  0.00     0.169 C 
BRANCH  26  27
ATOM     27  C   UNL     1      32.495  27.037  24.595  1.00  0.00     0.119 C 
BRANCH  27  28
ATOM     28  N   UNL     1      33.689  26.925  23.793  1.00  0.00    -0.092 NA
ATOM     29  N   UNL     1      34.274  27.939  23.440  1.00  0.00     0.001 N 
ATOM     30  N   UNL     1      34.815  29.028  23.224  1.00  0.00    -0.003 NA
ENDBRANCH  27  28
ENDBRANCH  26  27
ENDBRANCH  25  26
ENDBRANCH  19  25
BRANCH  20  31
ATOM     31  O   UNL     1      31.084  31.422  20.036  1.00  0.00    -0.387 OA
ATOM     32  H   UNL     1      31.149  31.286  19.071  1.00  0.00     0.211 HD
ENDBRANCH  20  31
BRANCH  21  33
ATOM     33  O   UNL     1      32.066  30.138  22.245  1.00  0.00    -0.385 OA
ATOM     34  H   UNL     1      32.147  29.757  23.135  1.00  0.00     0.211 HD
ENDBRANCH  21  33
ENDBRANCH  15  16
ENDBRANCH  10  15
BRANCH  12  35
ATOM     35  O   UNL     1      28.643  29.898  15.316  1.00  0.00    -0.385 OA
ATOM     36  H   UNL     1      29.181  30.498  14.722  1.00  0.00     0.211 HD
ENDBRANCH  12  35
BRANCH  13  37
ATOM     37  O   UNL     1      27.577  32.789  17.130  1.00  0.00    -0.387 OA
ATOM     38  H   UNL     1      27.790  33.760  16.955  1.00  0.00     0.211 HD
ENDBRANCH  13  37
BRANCH  14  39
ATOM     39  O   UNL     1      29.064  34.034  15.676  1.00  0.00    -0.387 OA
ATOM     40  H   UNL     1      28.079  34.217  15.716  1.00  0.00     0.211 HD
ENDBRANCH  14  39
ENDBRANCH   8   9
ENDBRANCH   7   8
ENDBRANCH   1   7
BRANCH   1  41
ATOM     41  C   UNL     1      33.428  34.801  13.946  1.00  0.00     0.364 C 
ATOM     42  O   UNL     1      34.622  34.698  14.362  1.00  0.00    -0.246 OA
BRANCH  41  43
ATOM     43  O   UNL     1      33.259  34.819  12.587  1.00  0.00    -0.477 OA
ATOM     44  H   UNL     1      33.930  34.621  11.881  1.00  0.00     0.296 HD
ENDBRANCH  41  43
ENDBRANCH   1  41
BRANCH   3  45
ATOM     45  O   UNL     1      30.650  36.080  16.858  1.00  0.00    -0.391 OA
ATOM     46  H   UNL     1      30.189  36.675  16.207  1.00  0.00     0.211 HD
ENDBRANCH   3  45
BRANCH   5  47
ATOM     47  C   UNL     1      30.837  38.060  14.140  1.00  0.00     0.176 C 
BRANCH  47  48
ATOM     48  O   UNL     1      31.241  39.047  13.261  1.00  0.00    -0.388 OA
ATOM     49  H   UNL     1      31.232  39.962  13.618  1.00  0.00     0.211 HD
ENDBRANCH  47  48
BRANCH  47  50
ATOM     50  C   UNL     1      29.598  37.397  13.680  1.00  0.00     0.165 C 
BRANCH  50  51
ATOM     51  O   UNL     1      29.437  37.257  12.321  1.00  0.00    -0.388 OA
ATOM     52  H   UNL     1      28.670  36.715  12.032  1.00  0.00     0.211 HD
ENDBRANCH  50  51
BRANCH  50  53
ATOM     53  C   UNL     1      28.368  37.616  14.499  1.00  0.00     0.154 C 
BRANCH  53  54
ATOM     54  N   UNL     1      28.233  36.717  15.584  1.00  0.00    -0.319 N 
ATOM     55  C   UNL     1      26.990  36.527  16.284  1.00  0.00     0.407 C 
ATOM     56  H   UNL     1      29.053  36.150  15.910  1.00  0.00     0.167 HD
ATOM     57  O   UNL     1      25.945  37.136  15.990  1.00  0.00    -0.225 OA
BRANCH  55  58
ATOM     58  O   UNL     1      26.914  35.624  17.345  1.00  0.00    -0.443 OA
BRANCH  58  59
ATOM     59  C   UNL     1      27.093  36.082  18.689  1.00  0.00     0.294 C 
BRANCH  59  60
ATOM     60  C   UNL     1      28.411  35.671  19.212  1.00  0.00     0.120 A 
ATOM     61  C   UNL     1      29.269  36.237  20.111  1.00  0.00     0.138 A 
ATOM     62  N   UNL     1      29.037  34.522  18.822  1.00  0.00    -0.132 NA
ATOM     63  N   UNL     1      30.346  35.464  20.250  1.00  0.00    -0.251 N 
ATOM     64  N   UNL     1      30.175  34.402  19.434  1.00  0.00    -0.067 NA
BRANCH  63  65
ATOM     65  C   UNL     1      31.506  35.631  21.066  1.00  0.00     0.161 C 
BRANCH  65  66
ATOM     66  C   UNL     1      32.458  34.494  21.030  1.00  0.00     0.108 C 
BRANCH  66  67
ATOM     67  N   UNL     1      33.719  34.661  20.439  1.00  0.00    -0.301 NA
ATOM     68  C   UNL     1      34.071  35.877  19.822  1.00  0.00     0.084 C 
ATOM     69  C   UNL     1      34.829  34.108  21.154  1.00  0.00     0.084 C 
ATOM     70  C   UNL     1      35.453  36.270  20.324  1.00  0.00     0.017 C 
ATOM     71  C   UNL     1      35.997  35.022  20.956  1.00  0.00     0.017 C 
ENDBRANCH  66  67
ENDBRANCH  65  66
ENDBRANCH  63  65
ENDBRANCH  59  60
ENDBRANCH  58  59
ENDBRANCH  55  58
ENDBRANCH  53  54
ENDBRANCH  50  53
ENDBRANCH  47  50
ENDBRANCH   5  47
BRANCH   4  72
ATOM     72  N   UNL     1      33.660  37.941  16.328  1.00  0.00    -0.348 N 
ATOM     73  C   UNL     1      34.084  38.844  17.345  1.00  0.00     0.217 C 
ATOM     74  H   UNL     1      34.414  37.530  15.749  1.00  0.00     0.163 HD
ATOM     75  C   UNL     1      35.550  39.143  17.499  1.00  0.00     0.114 C 
ATOM     76  O   UNL     1      33.244  39.365  18.080  1.00  0.00    -0.275 OA
ENDBRANCH   4  72
TORSDOF 32
BEGIN_RES LYS A 131
REMARK  4 active torsions:
REMARK  status: ('A' for Active; 'I' for Inactive)
REMARK    1  A    between atoms: CA   and  CB  
REMARK    2  A    between atoms: CB   and  CG  
REMARK    3  A    between atoms: CG   and  CD  
REMARK    4  A    between atoms: CD   and  CE  
ROOT
ATOM      1  CA  LYS A 131      29.867  25.555  16.977  1.00 20.52     0.186 C 
ENDROOT
BRANCH   1   2
ATOM      2  CB  LYS A 131      28.345  25.722  17.026  1.00 20.94     0.034 C 
BRANCH   2   3
ATOM      3  CG  LYS A 131      27.601  24.402  16.895  1.00 22.96     0.005 C 
BRANCH   3   4
ATOM      4  CD  LYS A 131      26.151  24.529  17.270  1.00 24.33     0.041 C 
BRANCH   4   5
ATOM      5  CE  LYS A 131      26.012  24.493  18.788  1.00 26.91     0.338 C 
ATOM      6  NZ  LYS A 131      25.529  23.165  19.234  1.00 27.40     0.618 N 
ENDBRANCH   4   5
ENDBRANCH   3   4
ENDBRANCH   2   3
ENDBRANCH   1   2
END_RES LYS A 131
BEGIN_RES LYS A 135
REMARK  4 active torsions:
REMARK  status: ('A' for Active; 'I' for Inactive)
REMARK    5  A    between atoms: CA   and  CB  
REMARK    6  A    between atoms: CB   and  CG  
REMARK    7  A    between atoms: CG   and  CD  
REMARK    8  A    between atoms: CD   and  CE  
ROOT
ATOM      7  CA  LYS A 135      33.193  34.663   9.290  1.00 25.02     0.186 C 
ENDROOT
BRANCH   7   8
ATOM      8  CB  LYS A 135      32.060  35.360  10.034  1.00 26.63     0.034 C 
BRANCH   8   9
ATOM      9  CG  LYS A 135      30.750  35.344   9.289  1.00 29.45     0.005 C 
BRANCH   9  10
ATOM     10  CD  LYS A 135      29.712  34.531  10.046  1.00 32.00     0.041 C 
BRANCH  10  11
ATOM     11  CE  LYS A 135      28.584  34.115   9.122  1.00 34.25     0.338 C 
ATOM     12  NZ  LYS A 135      28.650  34.851   7.829  1.00 35.99     0.618 N 
ENDBRANCH  10  11
ENDBRANCH   9  10
ENDBRANCH   8   9
ENDBRANCH   7   8
END_RES LYS A 135
