REMARK VINA RESULT:    -4.231      2.419      4.883
REMARK INTER + INTRA:         -24.156
REMARK INTER:                 -12.278
REMARK INTRA:                 -11.878
REMARK UNBOUND:               -13.000
REMARK SMILES CC(=O)N[C@@H]1[C@@H](O)C[C@](OC[C@H]2O[C@@H](O[C@H]3[C@H](O)[C@@H](O)[C@H](OCCN=[N+]=[N-])O[C@@H]3CO)[C@H](O)[C@@H](O)[C@H]2O)(C(=O)O)O[C@H]1C(O)[C@H](O)CNC(=O)OCc1cn(C(C)CC(=O)c2ccccc2)nn1
REMARK SMILES IDX 43 1 42 2 9 3 8 4 41 5 6 6 5 7 10 8 11 9 12 10 14 11 13 12
REMARK SMILES IDX 32 13 34 14 36 15 15 16 16 17 29 18 28 19 21 20 17 21 19 22
REMARK SMILES IDX 30 23 31 24 22 26 23 27 24 28 25 29 26 30 27 31 18 32 20 34
REMARK SMILES IDX 33 36 35 38 37 40 38 42 39 43 40 44 7 46 4 48 2 49 1 51 3 52
REMARK SMILES IDX 44 53 45 55 46 56 47 58 48 59 49 60 50 62 51 63 52 64 53 65
REMARK SMILES IDX 54 66 68 67 55 68 67 69 56 70 57 71 58 72 59 73 60 74 61 75
REMARK SMILES IDX 62 76 66 77 63 78 65 79 64 80
REMARK H PARENT 31 25 18 33 20 35 33 37 35 39 37 41 40 45 7 47 4 50 44 54
REMARK H PARENT 46 57 48 61
REMARK Flexibility Score: inf
ROOT
ATOM      1  C   UNL     1      20.562  35.539  11.781  1.00  0.00     0.176 C 
ENDROOT
BRANCH   1   2
ATOM      2  C   UNL     1      21.241  35.198  10.529  1.00  0.00     0.178 C 
ATOM      3  C   UNL     1      23.415  36.043  10.173  1.00  0.00     0.272 C 
ATOM      4  C   UNL     1      23.240  36.143   8.696  1.00  0.00     0.113 C 
ATOM      5  O   UNL     1      22.556  34.949  10.560  1.00  0.00    -0.332 OA
ATOM      6  C   UNL     1      21.803  35.882   8.287  1.00  0.00     0.145 C 
ATOM      7  C   UNL     1      20.861  36.176   9.393  1.00  0.00     0.142 C 
BRANCH   3   8
ATOM      8  O   UNL     1      23.160  37.031  10.979  1.00  0.00    -0.338 OA
BRANCH   8   9
ATOM      9  C   UNL     1      23.565  38.227  11.222  1.00  0.00     0.199 C 
BRANCH   9  10
ATOM     10  C   UNL     1      23.463  39.432  10.343  1.00  0.00     0.179 C 
ATOM     11  C   UNL     1      24.238  40.018   8.184  1.00  0.00     0.282 C 
ATOM     12  O   UNL     1      24.306  39.293   9.314  1.00  0.00    -0.341 OA
ATOM     13  C   UNL     1      22.866  39.990   7.597  1.00  0.00     0.202 C 
ATOM     14  C   UNL     1      21.803  40.129   8.589  1.00  0.00     0.179 C 
ATOM     15  C   UNL     1      22.113  39.946  10.036  1.00  0.00     0.177 C 
BRANCH  11  16
ATOM     16  O   UNL     1      25.172  39.412   7.302  1.00  0.00    -0.341 OA
BRANCH  16  17
ATOM     17  C   UNL     1      26.033  38.621   8.024  1.00  0.00     0.184 C 
ATOM     18  C   UNL     1      27.100  39.437   8.693  1.00  0.00     0.178 C 
ATOM     19  O   UNL     1      27.936  40.047   7.771  1.00  0.00    -0.341 OA
ATOM     20  C   UNL     1      28.532  39.247   6.846  1.00  0.00     0.281 C 
ATOM     21  C   UNL     1      26.698  37.617   7.060  1.00  0.00     0.180 C 
ATOM     22  C   UNL     1      27.632  38.300   6.130  1.00  0.00     0.202 C 
BRANCH  18  23
ATOM     23  C   UNL     1      27.879  38.619   9.703  1.00  0.00     0.191 C 
BRANCH  23  24
ATOM     24  O   UNL     1      27.053  37.884  10.545  1.00  0.00    -0.394 OA
ATOM     25  H   UNL     1      26.105  38.086  10.326  1.00  0.00     0.210 HD
ENDBRANCH  23  24
ENDBRANCH  18  23
BRANCH  20  26
ATOM     26  O   UNL     1      29.672  38.614   7.274  1.00  0.00    -0.350 OA
BRANCH  26  27
ATOM     27  C   UNL     1      30.773  39.415   7.408  1.00  0.00     0.169 C 
BRANCH  27  28
ATOM     28  C   UNL     1      30.936  40.383   6.267  1.00  0.00     0.119 C 
BRANCH  28  29
ATOM     29  N   UNL     1      31.831  39.793   5.288  1.00  0.00    -0.092 NA
ATOM     30  N   UNL     1      33.036  39.740   5.524  1.00  0.00     0.001 N 
ATOM     31  N   UNL     1      34.200  39.514   5.859  1.00  0.00    -0.003 NA
ENDBRANCH  28  29
ENDBRANCH  27  28
ENDBRANCH  26  27
ENDBRANCH  20  26
BRANCH  21  32
ATOM     32  O   UNL     1      27.279  36.570   7.764  1.00  0.00    -0.387 OA
ATOM     33  H   UNL     1      28.095  36.845   8.248  1.00  0.00     0.211 HD
ENDBRANCH  21  32
BRANCH  22  34
ATOM     34  O   UNL     1      26.971  38.881   5.046  1.00  0.00    -0.385 OA
ATOM     35  H   UNL     1      26.229  39.407   5.439  1.00  0.00     0.211 HD
ENDBRANCH  22  34
ENDBRANCH  16  17
ENDBRANCH  11  16
BRANCH  13  36
ATOM     36  O   UNL     1      22.731  41.042   6.644  1.00  0.00    -0.385 OA
ATOM     37  H   UNL     1      23.555  41.587   6.755  1.00  0.00     0.211 HD
ENDBRANCH  13  36
BRANCH  14  38
ATOM     38  O   UNL     1      20.746  39.250   8.215  1.00  0.00    -0.387 OA
ATOM     39  H   UNL     1      19.888  39.730   8.138  1.00  0.00     0.211 HD
ENDBRANCH  14  38
BRANCH  15  40
ATOM     40  O   UNL     1      21.061  39.267  10.617  1.00  0.00    -0.387 OA
ATOM     41  H   UNL     1      20.672  38.531  10.139  1.00  0.00     0.211 HD
ENDBRANCH  15  40
ENDBRANCH   9  10
ENDBRANCH   8   9
ENDBRANCH   3   8
BRANCH   3  42
ATOM     42  C   UNL     1      24.800  35.444  10.418  1.00  0.00     0.364 C 
ATOM     43  O   UNL     1      25.578  35.294   9.469  1.00  0.00    -0.246 OA
BRANCH  42  44
ATOM     44  O   UNL     1      25.192  35.072  11.684  1.00  0.00    -0.477 OA
ATOM     45  H   UNL     1      24.792  34.223  12.065  1.00  0.00     0.296 HD
ENDBRANCH  42  44
ENDBRANCH   3  42
BRANCH   6  46
ATOM     46  O   UNL     1      21.485  36.540   7.104  1.00  0.00    -0.391 OA
ATOM     47  H   UNL     1      21.219  35.836   6.424  1.00  0.00     0.211 HD
ENDBRANCH   6  46
BRANCH   7  48
ATOM     48  N   UNL     1      19.496  35.835   9.004  1.00  0.00    -0.348 N 
ATOM     49  C   UNL     1      18.396  36.718   9.179  1.00  0.00     0.217 C 
ATOM     50  H   UNL     1      19.316  34.908   8.579  1.00  0.00     0.163 HD
ATOM     51  C   UNL     1      17.028  36.371   8.788  1.00  0.00     0.114 C 
ATOM     52  O   UNL     1      18.610  37.865   9.703  1.00  0.00    -0.275 OA
ENDBRANCH   7  48
ENDBRANCH   1   2
BRANCH   1  53
ATOM     53  O   UNL     1      20.560  36.922  12.085  1.00  0.00    -0.388 OA
ATOM     54  H   UNL     1      20.006  37.360  11.369  1.00  0.00     0.211 HD
ENDBRANCH   1  53
BRANCH   1  55
ATOM     55  C   UNL     1      21.021  34.839  13.042  1.00  0.00     0.165 C 
BRANCH  55  56
ATOM     56  O   UNL     1      20.049  34.163  13.706  1.00  0.00    -0.388 OA
ATOM     57  H   UNL     1      20.420  33.763  14.527  1.00  0.00     0.211 HD
ENDBRANCH  55  56
BRANCH  55  58
ATOM     58  C   UNL     1      21.614  35.929  13.946  1.00  0.00     0.154 C 
BRANCH  58  59
ATOM     59  N   UNL     1      23.051  35.981  13.800  1.00  0.00    -0.319 N 
ATOM     60  C   UNL     1      23.917  36.897  14.436  1.00  0.00     0.407 C 
ATOM     61  H   UNL     1      23.546  35.276  13.169  1.00  0.00     0.167 HD
ATOM     62  O   UNL     1      23.479  37.738  15.245  1.00  0.00    -0.225 OA
BRANCH  60  63
ATOM     63  O   UNL     1      25.303  36.896  14.177  1.00  0.00    -0.443 OA
BRANCH  63  64
ATOM     64  C   UNL     1      26.147  37.751  14.978  1.00  0.00     0.294 C 
BRANCH  64  65
ATOM     65  C   UNL     1      27.419  37.843  14.170  1.00  0.00     0.120 A 
ATOM     66  C   UNL     1      28.448  36.884  14.256  1.00  0.00     0.138 A 
ATOM     67  N   UNL     1      27.859  38.755  13.325  1.00  0.00    -0.132 NA
ATOM     68  N   UNL     1      29.461  37.266  13.464  1.00  0.00    -0.249 N 
ATOM     69  N   UNL     1      29.090  38.393  12.909  1.00  0.00    -0.067 NA
BRANCH  68  70
ATOM     70  C   UNL     1      30.711  36.516  13.328  1.00  0.00     0.114 C 
ATOM     71  C   UNL     1      31.651  37.296  12.464  1.00  0.00     0.034 C 
BRANCH  70  72
ATOM     72  C   UNL     1      31.238  36.122  14.669  1.00  0.00     0.108 C 
BRANCH  72  73
ATOM     73  C   UNL     1      31.831  34.764  14.544  1.00  0.00     0.164 C 
ATOM     74  O   UNL     1      32.952  34.593  14.059  1.00  0.00    -0.294 OA
BRANCH  73  75
ATOM     75  C   UNL     1      31.028  33.630  15.025  1.00  0.00     0.018 A 
ATOM     76  C   UNL     1      31.541  32.641  15.782  1.00  0.00     0.012 A 
ATOM     77  C   UNL     1      29.671  33.619  14.663  1.00  0.00     0.012 A 
ATOM     78  C   UNL     1      30.721  31.587  16.220  1.00  0.00     0.001 A 
ATOM     79  C   UNL     1      28.892  32.586  15.098  1.00  0.00     0.001 A 
ATOM     80  C   UNL     1      29.391  31.571  15.870  1.00  0.00     0.000 A 
ENDBRANCH  73  75
ENDBRANCH  72  73
ENDBRANCH  70  72
ENDBRANCH  68  70
ENDBRANCH  64  65
ENDBRANCH  63  64
ENDBRANCH  60  63
ENDBRANCH  58  59
ENDBRANCH  55  58
ENDBRANCH   1  55
TORSDOF 33
BEGIN_RES LYS A 131
REMARK  4 active torsions:
REMARK  status: ('A' for Active; 'I' for Inactive)
REMARK    1  A    between atoms: CA   and  CB  
REMARK    2  A    between atoms: CB   and  CG  
REMARK    3  A    between atoms: CG   and  CD  
REMARK    4  A    between atoms: CD   and  CE  
ROOT
ATOM      1  CA  LYS A 131      29.867  25.555  16.977  1.00 20.52     0.186 C 
ENDROOT
BRANCH   1   2
ATOM      2  CB  LYS A 131      28.345  25.722  17.026  1.00 20.94     0.034 C 
BRANCH   2   3
ATOM      3  CG  LYS A 131      27.602  24.400  16.913  1.00 22.96     0.005 C 
BRANCH   3   4
ATOM      4  CD  LYS A 131      26.633  24.196  18.045  1.00 24.33     0.041 C 
BRANCH   4   5
ATOM      5  CE  LYS A 131      26.424  25.516  18.780  1.00 26.91     0.338 C 
ATOM      6  NZ  LYS A 131      25.514  25.328  19.935  1.00 27.40     0.618 N 
ENDBRANCH   4   5
ENDBRANCH   3   4
ENDBRANCH   2   3
ENDBRANCH   1   2
END_RES LYS A 131
BEGIN_RES LYS A 135
REMARK  4 active torsions:
REMARK  status: ('A' for Active; 'I' for Inactive)
REMARK    5  A    between atoms: CA   and  CB  
REMARK    6  A    between atoms: CB   and  CG  
REMARK    7  A    between atoms: CG   and  CD  
REMARK    8  A    between atoms: CD   and  CE  
ROOT
ATOM      7  CA  LYS A 135      33.193  34.663   9.290  1.00 25.02     0.186 C 
ENDROOT
BRANCH   7   8
ATOM      8  CB  LYS A 135      32.060  35.360  10.034  1.00 26.63     0.034 C 
BRANCH   8   9
ATOM      9  CG  LYS A 135      30.781  35.445   9.241  1.00 29.45     0.005 C 
BRANCH   9  10
ATOM     10  CD  LYS A 135      30.177  34.063   9.046  1.00 32.00     0.041 C 
BRANCH  10  11
ATOM     11  CE  LYS A 135      28.747  34.032   9.550  1.00 34.25     0.338 C 
ATOM     12  NZ  LYS A 135      28.647  34.605  10.920  1.00 35.99     0.618 N 
ENDBRANCH  10  11
ENDBRANCH   9  10
ENDBRANCH   8   9
ENDBRANCH   7   8
END_RES LYS A 135
