REMARK VINA RESULT:    -4.075      4.137      8.186
REMARK INTER + INTRA:         -23.734
REMARK INTER:                 -10.899
REMARK INTRA:                 -12.836
REMARK UNBOUND:               -13.108
REMARK SMILES CC(=O)N[C@@H]1[C@@H](O)C[C@](OC[C@H]2O[C@@H](O[C@H]3[C@H](O)[C@@H](O)[C@H](OCCN=[N+]=[N-])O[C@@H]3CO)[C@H](O)[C@@H](O)[C@H]2O)(C(=O)O)O[C@H]1C(O)[C@H](O)CNC(=O)OCc1cn(-c2cccc(C=CC(=O)O)c2)nn1
REMARK SMILES IDX 43 1 42 2 9 3 8 4 41 5 6 6 5 7 10 8 11 9 12 10 14 11 13 12
REMARK SMILES IDX 32 13 34 14 36 15 15 16 16 17 29 18 28 19 21 20 17 21 19 22
REMARK SMILES IDX 30 23 31 24 22 26 23 27 24 28 25 29 26 30 27 31 18 32 20 34
REMARK SMILES IDX 33 36 35 38 37 40 38 42 39 43 40 44 7 46 4 48 2 49 1 51 3 52
REMARK SMILES IDX 44 53 45 55 46 56 47 58 48 59 49 60 50 62 51 63 52 64 53 65
REMARK SMILES IDX 54 66 68 67 55 68 67 69 56 70 66 71 57 72 60 73 58 74 59 75
REMARK SMILES IDX 61 76 62 77 63 78 64 79 65 80
REMARK H PARENT 31 25 18 33 20 35 33 37 35 39 37 41 40 45 7 47 4 50 44 54
REMARK H PARENT 46 57 48 61 65 81
REMARK Flexibility Score: inf
ROOT
ATOM      1  C   UNL     1      30.951  34.833  13.884  1.00  0.00     0.176 C 
ENDROOT
BRANCH   1   2
ATOM      2  C   UNL     1      31.123  36.141  14.630  1.00  0.00     0.178 C 
ATOM      3  C   UNL     1      30.411  37.089  16.668  1.00  0.00     0.272 C 
ATOM      4  C   UNL     1      31.274  38.242  15.962  1.00  0.00     0.113 C 
ATOM      5  O   UNL     1      30.347  36.059  15.753  1.00  0.00    -0.332 OA
ATOM      6  C   UNL     1      30.580  38.516  14.676  1.00  0.00     0.145 C 
ATOM      7  C   UNL     1      30.675  37.297  13.779  1.00  0.00     0.142 C 
BRANCH   3   8
ATOM      8  O   UNL     1      29.207  37.664  16.778  1.00  0.00    -0.338 OA
BRANCH   8   9
ATOM      9  C   UNL     1      28.397  37.609  17.819  1.00  0.00     0.199 C 
BRANCH   9  10
ATOM     10  C   UNL     1      26.910  37.431  17.596  1.00  0.00     0.179 C 
ATOM     11  C   UNL     1      25.743  37.048  15.574  1.00  0.00     0.282 C 
ATOM     12  O   UNL     1      26.634  37.785  16.329  1.00  0.00    -0.341 OA
ATOM     13  C   UNL     1      24.702  36.468  16.448  1.00  0.00     0.202 C 
ATOM     14  C   UNL     1      25.205  35.625  17.579  1.00  0.00     0.179 C 
ATOM     15  C   UNL     1      26.657  35.946  17.815  1.00  0.00     0.177 C 
BRANCH  11  16
ATOM     16  O   UNL     1      26.501  36.188  14.810  1.00  0.00    -0.341 OA
BRANCH  16  17
ATOM     17  C   UNL     1      26.182  36.113  13.499  1.00  0.00     0.184 C 
ATOM     18  C   UNL     1      26.103  34.692  13.033  1.00  0.00     0.178 C 
ATOM     19  O   UNL     1      25.404  34.749  11.803  1.00  0.00    -0.341 OA
ATOM     20  C   UNL     1      26.234  35.291  10.818  1.00  0.00     0.281 C 
ATOM     21  C   UNL     1      27.233  36.764  12.596  1.00  0.00     0.180 C 
ATOM     22  C   UNL     1      26.749  36.649  11.166  1.00  0.00     0.202 C 
BRANCH  18  23
ATOM     23  C   UNL     1      25.397  33.761  13.953  1.00  0.00     0.191 C 
BRANCH  23  24
ATOM     24  O   UNL     1      26.254  33.408  14.992  1.00  0.00    -0.394 OA
ATOM     25  H   UNL     1      26.517  32.440  14.910  1.00  0.00     0.210 HD
ENDBRANCH  23  24
ENDBRANCH  18  23
BRANCH  20  26
ATOM     26  O   UNL     1      25.486  35.380   9.648  1.00  0.00    -0.350 OA
BRANCH  26  27
ATOM     27  C   UNL     1      24.142  35.632   9.908  1.00  0.00     0.169 C 
BRANCH  27  28
ATOM     28  C   UNL     1      23.678  36.714   8.958  1.00  0.00     0.119 C 
BRANCH  28  29
ATOM     29  N   UNL     1      22.352  36.399   8.484  1.00  0.00    -0.092 NA
ATOM     30  N   UNL     1      21.465  36.047   9.282  1.00  0.00     0.001 N 
ATOM     31  N   UNL     1      20.717  35.329   9.963  1.00  0.00    -0.003 NA
ENDBRANCH  28  29
ENDBRANCH  27  28
ENDBRANCH  26  27
ENDBRANCH  20  26
BRANCH  21  32
ATOM     32  O   UNL     1      27.391  38.119  12.861  1.00  0.00    -0.387 OA
ATOM     33  H   UNL     1      27.596  38.537  11.987  1.00  0.00     0.211 HD
ENDBRANCH  21  32
BRANCH  22  34
ATOM     34  O   UNL     1      27.885  36.880  10.357  1.00  0.00    -0.385 OA
ATOM     35  H   UNL     1      27.674  37.433   9.572  1.00  0.00     0.211 HD
ENDBRANCH  22  34
ENDBRANCH  16  17
ENDBRANCH  11  16
BRANCH  13  36
ATOM     36  O   UNL     1      23.942  37.525  17.029  1.00  0.00    -0.385 OA
ATOM     37  H   UNL     1      24.447  38.380  16.934  1.00  0.00     0.211 HD
ENDBRANCH  13  36
BRANCH  14  38
ATOM     38  O   UNL     1      25.002  34.255  17.397  1.00  0.00    -0.387 OA
ATOM     39  H   UNL     1      24.113  33.966  17.725  1.00  0.00     0.211 HD
ENDBRANCH  14  38
BRANCH  15  40
ATOM     40  O   UNL     1      27.434  35.183  16.967  1.00  0.00    -0.387 OA
ATOM     41  H   UNL     1      28.080  35.744  16.435  1.00  0.00     0.211 HD
ENDBRANCH  15  40
ENDBRANCH   9  10
ENDBRANCH   8   9
ENDBRANCH   3   8
BRANCH   3  42
ATOM     42  C   UNL     1      31.182  36.705  17.839  1.00  0.00     0.364 C 
ATOM     43  O   UNL     1      31.179  35.626  18.457  1.00  0.00    -0.246 OA
BRANCH  42  44
ATOM     44  O   UNL     1      32.069  37.671  18.374  1.00  0.00    -0.477 OA
ATOM     45  H   UNL     1      32.207  37.672  19.396  1.00  0.00     0.296 HD
ENDBRANCH  42  44
ENDBRANCH   3  42
BRANCH   6  46
ATOM     46  O   UNL     1      29.199  38.718  15.011  1.00  0.00    -0.391 OA
ATOM     47  H   UNL     1      28.633  38.485  14.224  1.00  0.00     0.211 HD
ENDBRANCH   6  46
BRANCH   7  48
ATOM     48  N   UNL     1      31.382  37.488  12.565  1.00  0.00    -0.348 N 
ATOM     49  C   UNL     1      30.981  38.192  11.426  1.00  0.00     0.217 C 
ATOM     50  H   UNL     1      32.354  37.015  12.469  1.00  0.00     0.163 HD
ATOM     51  C   UNL     1      31.911  38.243  10.229  1.00  0.00     0.114 C 
ATOM     52  O   UNL     1      29.883  38.801  11.317  1.00  0.00    -0.275 OA
ENDBRANCH   7  48
ENDBRANCH   1   2
BRANCH   1  53
ATOM     53  O   UNL     1      32.071  34.595  13.109  1.00  0.00    -0.388 OA
ATOM     54  H   UNL     1      31.970  33.894  12.441  1.00  0.00     0.211 HD
ENDBRANCH   1  53
BRANCH   1  55
ATOM     55  C   UNL     1      30.837  33.645  14.840  1.00  0.00     0.165 C 
BRANCH  55  56
ATOM     56  O   UNL     1      31.890  32.776  14.768  1.00  0.00    -0.388 OA
ATOM     57  H   UNL     1      31.657  31.869  14.464  1.00  0.00     0.211 HD
ENDBRANCH  55  56
BRANCH  55  58
ATOM     58  C   UNL     1      29.523  32.947  14.681  1.00  0.00     0.154 C 
BRANCH  58  59
ATOM     59  N   UNL     1      28.913  32.663  15.930  1.00  0.00    -0.319 N 
ATOM     60  C   UNL     1      28.807  31.353  16.449  1.00  0.00     0.407 C 
ATOM     61  H   UNL     1      28.510  33.437  16.523  1.00  0.00     0.167 HD
ATOM     62  O   UNL     1      29.257  30.362  15.811  1.00  0.00    -0.225 OA
BRANCH  60  63
ATOM     63  O   UNL     1      28.211  31.082  17.679  1.00  0.00    -0.443 OA
BRANCH  63  64
ATOM     64  C   UNL     1      27.278  29.996  17.710  1.00  0.00     0.294 C 
BRANCH  64  65
ATOM     65  C   UNL     1      26.067  30.447  17.000  1.00  0.00     0.121 A 
ATOM     66  C   UNL     1      25.511  29.914  15.840  1.00  0.00     0.144 A 
ATOM     67  N   UNL     1      25.269  31.464  17.361  1.00  0.00    -0.131 NA
ATOM     68  N   UNL     1      24.399  30.628  15.547  1.00  0.00    -0.220 N 
ATOM     69  N   UNL     1      24.282  31.552  16.479  1.00  0.00    -0.062 NA
BRANCH  68  70
ATOM     70  C   UNL     1      23.565  30.360  14.432  1.00  0.00     0.067 A 
ATOM     71  C   UNL     1      22.617  31.304  14.035  1.00  0.00     0.036 A 
ATOM     72  C   UNL     1      23.664  29.203  13.736  1.00  0.00     0.028 A 
ATOM     73  C   UNL     1      21.795  31.094  12.972  1.00  0.00    -0.023 A 
ATOM     74  C   UNL     1      22.844  28.943  12.640  1.00  0.00     0.003 A 
ATOM     75  C   UNL     1      21.924  29.903  12.284  1.00  0.00     0.008 A 
BRANCH  73  76
ATOM     76  C   UNL     1      20.809  32.070  12.560  1.00  0.00     0.015 C 
ATOM     77  C   UNL     1      19.682  31.703  12.005  1.00  0.00     0.094 C 
BRANCH  77  78
ATOM     78  C   UNL     1      18.713  32.725  11.603  1.00  0.00     0.328 C 
ATOM     79  O   UNL     1      17.689  32.432  10.975  1.00  0.00    -0.247 OA
BRANCH  78  80
ATOM     80  O   UNL     1      18.930  34.063  11.924  1.00  0.00    -0.478 OA
ATOM     81  H   UNL     1      18.650  34.761  11.232  1.00  0.00     0.297 HD
ENDBRANCH  78  80
ENDBRANCH  77  78
ENDBRANCH  73  76
ENDBRANCH  68  70
ENDBRANCH  64  65
ENDBRANCH  63  64
ENDBRANCH  60  63
ENDBRANCH  58  59
ENDBRANCH  55  58
ENDBRANCH   1  55
TORSDOF 33
BEGIN_RES LYS A 131
REMARK  4 active torsions:
REMARK  status: ('A' for Active; 'I' for Inactive)
REMARK    1  A    between atoms: CA   and  CB  
REMARK    2  A    between atoms: CB   and  CG  
REMARK    3  A    between atoms: CG   and  CD  
REMARK    4  A    between atoms: CD   and  CE  
ROOT
ATOM      1  CA  LYS A 131      29.867  25.555  16.977  1.00 20.52     0.186 C 
ENDROOT
BRANCH   1   2
ATOM      2  CB  LYS A 131      28.345  25.722  17.026  1.00 20.94     0.034 C 
BRANCH   2   3
ATOM      3  CG  LYS A 131      27.601  24.403  16.886  1.00 22.96     0.005 C 
BRANCH   3   4
ATOM      4  CD  LYS A 131      26.183  24.497  17.378  1.00 24.33     0.041 C 
BRANCH   4   5
ATOM      5  CE  LYS A 131      26.018  25.762  18.215  1.00 26.91     0.338 C 
ATOM      6  NZ  LYS A 131      24.881  26.570  17.714  1.00 27.40     0.618 N 
ENDBRANCH   4   5
ENDBRANCH   3   4
ENDBRANCH   2   3
ENDBRANCH   1   2
END_RES LYS A 131
BEGIN_RES LYS A 135
REMARK  4 active torsions:
REMARK  status: ('A' for Active; 'I' for Inactive)
REMARK    5  A    between atoms: CA   and  CB  
REMARK    6  A    between atoms: CB   and  CG  
REMARK    7  A    between atoms: CG   and  CD  
REMARK    8  A    between atoms: CD   and  CE  
ROOT
ATOM      7  CA  LYS A 135      33.193  34.663   9.290  1.00 25.02     0.186 C 
ENDROOT
BRANCH   7   8
ATOM      8  CB  LYS A 135      32.060  35.360  10.034  1.00 26.63     0.034 C 
BRANCH   8   9
ATOM      9  CG  LYS A 135      30.705  34.756   9.770  1.00 29.45     0.005 C 
BRANCH   9  10
ATOM     10  CD  LYS A 135      30.523  34.472   8.287  1.00 32.00     0.041 C 
BRANCH  10  11
ATOM     11  CE  LYS A 135      29.565  35.471   7.667  1.00 34.25     0.338 C 
ATOM     12  NZ  LYS A 135      28.185  34.915   7.593  1.00 35.99     0.618 N 
ENDBRANCH  10  11
ENDBRANCH   9  10
ENDBRANCH   8   9
ENDBRANCH   7   8
END_RES LYS A 135
