REMARK VINA RESULT:    -5.041      3.106      7.221
REMARK INTER + INTRA:         -23.605
REMARK INTER:                 -12.343
REMARK INTRA:                 -11.262
REMARK UNBOUND:               -11.198
REMARK SMILES CC(=O)N[C@@H]1[C@@H](O)C[C@](OC[C@H]2O[C@@H](O[C@H]3[C@H](O)[C@@H](O)[C@H](OCCN=[N+]=[N-])O[C@@H]3CO)[C@H](O)[C@@H](O)[C@H]2O)(C(=O)O)O[C@H]1C(O)[C@H](O)CNC(=O)OCc1cn(C23CC4CC(CC(C4)C2)C3)nn1
REMARK SMILES IDX 9 1 8 2 6 3 5 4 42 5 41 6 10 7 11 8 12 9 14 10 13 11 32 12
REMARK SMILES IDX 34 13 36 14 15 15 16 16 29 17 28 18 21 19 17 20 19 21 30 22
REMARK SMILES IDX 31 23 22 25 23 26 24 27 25 28 26 29 27 30 18 31 20 33 33 35
REMARK SMILES IDX 35 37 37 39 38 41 39 42 40 43 7 45 43 47 44 48 45 50 46 51
REMARK SMILES IDX 47 53 48 54 49 55 50 57 51 58 52 59 53 60 54 61 67 62 55 63
REMARK SMILES IDX 66 64 56 65 65 66 64 67 57 68 60 69 62 70 58 71 59 72 61 73
REMARK SMILES IDX 63 74 4 75 2 76 1 78 3 79
REMARK H PARENT 31 24 18 32 20 34 33 36 35 38 37 40 40 44 7 46 44 49 46 52
REMARK H PARENT 48 56 4 77
REMARK Flexibility Score: inf
ROOT
ATOM      1  C   UNL     1      25.134  37.200   9.997  1.00  0.00     0.272 C 
ATOM      2  C   UNL     1      24.910  38.672   9.943  1.00  0.00     0.113 C 
ATOM      3  C   UNL     1      23.591  39.037  10.593  1.00  0.00     0.145 C 
ATOM      4  C   UNL     1      22.516  38.582   9.595  1.00  0.00     0.142 C 
ATOM      5  C   UNL     1      22.919  37.199   9.179  1.00  0.00     0.178 C 
ATOM      6  O   UNL     1      23.833  36.578   9.993  1.00  0.00    -0.332 OA
ENDROOT
BRANCH   1   7
ATOM      7  O   UNL     1      25.723  36.703  11.076  1.00  0.00    -0.338 OA
BRANCH   7   8
ATOM      8  C   UNL     1      25.855  35.464  11.476  1.00  0.00     0.199 C 
BRANCH   8   9
ATOM      9  C   UNL     1      26.000  35.058  12.905  1.00  0.00     0.179 C 
ATOM     10  C   UNL     1      26.967  35.484  14.887  1.00  0.00     0.282 C 
ATOM     11  O   UNL     1      26.900  35.970  13.565  1.00  0.00    -0.341 OA
ATOM     12  C   UNL     1      25.854  36.158  15.620  1.00  0.00     0.202 C 
ATOM     13  C   UNL     1      24.679  36.261  14.666  1.00  0.00     0.179 C 
ATOM     14  C   UNL     1      24.677  35.136  13.660  1.00  0.00     0.177 C 
BRANCH  10  15
ATOM     15  O   UNL     1      28.230  35.692  15.432  1.00  0.00    -0.341 OA
BRANCH  15  16
ATOM     16  C   UNL     1      28.759  34.499  15.826  1.00  0.00     0.184 C 
ATOM     17  C   UNL     1      29.321  34.420  17.199  1.00  0.00     0.178 C 
ATOM     18  O   UNL     1      29.389  33.043  17.514  1.00  0.00    -0.341 OA
ATOM     19  C   UNL     1      30.412  32.409  16.772  1.00  0.00     0.281 C 
ATOM     20  C   UNL     1      29.892  34.038  14.903  1.00  0.00     0.180 C 
ATOM     21  C   UNL     1      30.268  32.655  15.307  1.00  0.00     0.202 C 
BRANCH  17  22
ATOM     22  C   UNL     1      28.619  35.186  18.256  1.00  0.00     0.191 C 
BRANCH  22  23
ATOM     23  O   UNL     1      27.463  34.467  18.603  1.00  0.00    -0.394 OA
ATOM     24  H   UNL     1      27.677  33.534  18.862  1.00  0.00     0.210 HD
ENDBRANCH  22  23
ENDBRANCH  17  22
BRANCH  19  25
ATOM     25  O   UNL     1      30.241  31.065  17.013  1.00  0.00    -0.350 OA
BRANCH  25  26
ATOM     26  C   UNL     1      29.044  30.678  17.493  1.00  0.00     0.169 C 
BRANCH  26  27
ATOM     27  C   UNL     1      28.247  29.888  16.504  1.00  0.00     0.119 C 
BRANCH  27  28
ATOM     28  N   UNL     1      27.312  30.762  15.785  1.00  0.00    -0.092 NA
ATOM     29  N   UNL     1      26.778  31.661  16.422  1.00  0.00     0.001 N 
ATOM     30  N   UNL     1      25.957  32.445  16.944  1.00  0.00    -0.003 NA
ENDBRANCH  27  28
ENDBRANCH  26  27
ENDBRANCH  25  26
ENDBRANCH  19  25
BRANCH  20  31
ATOM     31  O   UNL     1      29.484  34.019  13.570  1.00  0.00    -0.387 OA
ATOM     32  H   UNL     1      29.436  34.943  13.239  1.00  0.00     0.211 HD
ENDBRANCH  20  31
BRANCH  21  33
ATOM     33  O   UNL     1      31.475  32.360  14.677  1.00  0.00    -0.385 OA
ATOM     34  H   UNL     1      31.370  32.362  13.706  1.00  0.00     0.211 HD
ENDBRANCH  21  33
ENDBRANCH  15  16
ENDBRANCH  10  15
BRANCH  12  35
ATOM     35  O   UNL     1      25.498  35.587  16.816  1.00  0.00    -0.385 OA
ATOM     36  H   UNL     1      24.780  36.110  17.246  1.00  0.00     0.211 HD
ENDBRANCH  12  35
BRANCH  13  37
ATOM     37  O   UNL     1      24.605  37.501  14.042  1.00  0.00    -0.387 OA
ATOM     38  H   UNL     1      24.995  37.421  13.113  1.00  0.00     0.211 HD
ENDBRANCH  13  37
BRANCH  14  39
ATOM     39  O   UNL     1      23.678  35.394  12.733  1.00  0.00    -0.387 OA
ATOM     40  H   UNL     1      24.049  35.725  11.873  1.00  0.00     0.211 HD
ENDBRANCH  14  39
ENDBRANCH   8   9
ENDBRANCH   7   8
ENDBRANCH   1   7
BRANCH   1  41
ATOM     41  C   UNL     1      25.700  36.729   8.722  1.00  0.00     0.364 C 
ATOM     42  O   UNL     1      25.682  35.568   8.294  1.00  0.00    -0.246 OA
BRANCH  41  43
ATOM     43  O   UNL     1      26.326  37.739   7.933  1.00  0.00    -0.477 OA
ATOM     44  H   UNL     1      25.868  38.038   7.099  1.00  0.00     0.296 HD
ENDBRANCH  41  43
ENDBRANCH   1  41
BRANCH   3  45
ATOM     45  O   UNL     1      23.422  38.286  11.749  1.00  0.00    -0.391 OA
ATOM     46  H   UNL     1      24.097  38.600  12.403  1.00  0.00     0.211 HD
ENDBRANCH   3  45
BRANCH   5  47
ATOM     47  C   UNL     1      21.681  36.224   9.222  1.00  0.00     0.176 C 
BRANCH  47  48
ATOM     48  O   UNL     1      22.243  35.116   9.889  1.00  0.00    -0.388 OA
ATOM     49  H   UNL     1      21.553  34.410   9.844  1.00  0.00     0.211 HD
ENDBRANCH  47  48
BRANCH  47  50
ATOM     50  C   UNL     1      21.289  35.846   7.865  1.00  0.00     0.165 C 
BRANCH  50  51
ATOM     51  O   UNL     1      21.732  36.705   6.843  1.00  0.00    -0.388 OA
ATOM     52  H   UNL     1      21.154  36.570   6.034  1.00  0.00     0.211 HD
ENDBRANCH  50  51
BRANCH  50  53
ATOM     53  C   UNL     1      19.867  35.513   7.621  1.00  0.00     0.154 C 
BRANCH  53  54
ATOM     54  N   UNL     1      19.067  35.409   8.785  1.00  0.00    -0.319 N 
ATOM     55  C   UNL     1      18.161  34.395   9.127  1.00  0.00     0.407 C 
ATOM     56  H   UNL     1      19.180  36.233   9.500  1.00  0.00     0.167 HD
ATOM     57  O   UNL     1      17.956  33.436   8.366  1.00  0.00    -0.225 OA
BRANCH  55  58
ATOM     58  O   UNL     1      17.480  34.486  10.365  1.00  0.00    -0.443 OA
BRANCH  58  59
ATOM     59  C   UNL     1      17.561  33.390  11.241  1.00  0.00     0.294 C 
BRANCH  59  60
ATOM     60  C   UNL     1      18.947  33.232  11.708  1.00  0.00     0.120 A 
ATOM     61  C   UNL     1      19.500  32.067  12.172  1.00  0.00     0.138 A 
ATOM     62  N   UNL     1      19.917  34.162  11.770  1.00  0.00    -0.132 NA
ATOM     63  N   UNL     1      20.770  32.325  12.496  1.00  0.00    -0.246 N 
ATOM     64  N   UNL     1      20.993  33.600  12.243  1.00  0.00    -0.066 NA
BRANCH  63  65
ATOM     65  C   UNL     1      21.676  31.325  13.026  1.00  0.00     0.065 C 
ATOM     66  C   UNL     1      21.434  31.188  14.496  1.00  0.00     0.034 C 
ATOM     67  C   UNL     1      21.512  30.022  12.270  1.00  0.00     0.034 C 
ATOM     68  C   UNL     1      23.111  31.780  12.825  1.00  0.00     0.034 C 
ATOM     69  C   UNL     1      22.334  30.131  15.084  1.00  0.00    -0.008 C 
ATOM     70  C   UNL     1      22.367  28.970  12.911  1.00  0.00    -0.008 C 
ATOM     71  C   UNL     1      24.010  30.705  13.388  1.00  0.00    -0.008 C 
ATOM     72  C   UNL     1      23.770  30.536  14.862  1.00  0.00     0.007 C 
ATOM     73  C   UNL     1      22.048  28.831  14.368  1.00  0.00     0.007 C 
ATOM     74  C   UNL     1      23.822  29.373  12.718  1.00  0.00     0.007 C 
ENDBRANCH  63  65
ENDBRANCH  59  60
ENDBRANCH  58  59
ENDBRANCH  55  58
ENDBRANCH  53  54
ENDBRANCH  50  53
ENDBRANCH  47  50
ENDBRANCH   5  47
BRANCH   4  75
ATOM     75  N   UNL     1      22.563  39.489   8.443  1.00  0.00    -0.348 N 
ATOM     76  C   UNL     1      21.679  40.598   8.341  1.00  0.00     0.217 C 
ATOM     77  H   UNL     1      23.257  39.324   7.671  1.00  0.00     0.163 HD
ATOM     78  C   UNL     1      21.738  41.514   7.145  1.00  0.00     0.114 C 
ATOM     79  O   UNL     1      20.857  40.787   9.264  1.00  0.00    -0.275 OA
ENDBRANCH   4  75
TORSDOF 30
BEGIN_RES LYS A 131
REMARK  4 active torsions:
REMARK  status: ('A' for Active; 'I' for Inactive)
REMARK    1  A    between atoms: CA   and  CB  
REMARK    2  A    between atoms: CB   and  CG  
REMARK    3  A    between atoms: CG   and  CD  
REMARK    4  A    between atoms: CD   and  CE  
ROOT
ATOM      1  CA  LYS A 131      29.867  25.555  16.977  1.00 20.52     0.186 C 
ENDROOT
BRANCH   1   2
ATOM      2  CB  LYS A 131      28.345  25.722  17.026  1.00 20.94     0.034 C 
BRANCH   2   3
ATOM      3  CG  LYS A 131      27.601  24.403  16.880  1.00 22.96     0.005 C 
BRANCH   3   4
ATOM      4  CD  LYS A 131      26.146  24.532  17.236  1.00 24.33     0.041 C 
BRANCH   4   5
ATOM      5  CE  LYS A 131      25.572  23.152  17.540  1.00 26.91     0.338 C 
ATOM      6  NZ  LYS A 131      24.157  23.071  17.107  1.00 27.40     0.618 N 
ENDBRANCH   4   5
ENDBRANCH   3   4
ENDBRANCH   2   3
ENDBRANCH   1   2
END_RES LYS A 131
BEGIN_RES LYS A 135
REMARK  4 active torsions:
REMARK  status: ('A' for Active; 'I' for Inactive)
REMARK    5  A    between atoms: CA   and  CB  
REMARK    6  A    between atoms: CB   and  CG  
REMARK    7  A    between atoms: CG   and  CD  
REMARK    8  A    between atoms: CD   and  CE  
ROOT
ATOM      7  CA  LYS A 135      33.193  34.663   9.290  1.00 25.02     0.186 C 
ENDROOT
BRANCH   7   8
ATOM      8  CB  LYS A 135      32.060  35.360  10.034  1.00 26.63     0.034 C 
BRANCH   8   9
ATOM      9  CG  LYS A 135      30.712  34.723   9.812  1.00 29.45     0.005 C 
BRANCH   9  10
ATOM     10  CD  LYS A 135      30.482  34.456   8.333  1.00 32.00     0.041 C 
BRANCH  10  11
ATOM     11  CE  LYS A 135      29.039  34.738   7.959  1.00 34.25     0.338 C 
ATOM     12  NZ  LYS A 135      28.954  35.771   6.890  1.00 35.99     0.618 N 
ENDBRANCH  10  11
ENDBRANCH   9  10
ENDBRANCH   8   9
ENDBRANCH   7   8
END_RES LYS A 135
