REMARK VINA RESULT:    -3.486      4.876      9.720
REMARK INTER + INTRA:         -22.291
REMARK INTER:                 -13.215
REMARK INTRA:                  -9.075
REMARK UNBOUND:               -13.100
REMARK SMILES CC(=O)N[C@@H]1[C@@H](O)C[C@](OC[C@H]2O[C@@H](O[C@H]3[C@H](O)[C@@H](O)[C@H](OCCN=[N+]=[N-])O[C@@H]3CO)[C@H](O)[C@@H](O)[C@H]2O)(C(=O)O)O[C@H]1C(O)[C@H](O)CNC(=O)OCc1cn(CCNS(C)(=O)=O)nn1
REMARK SMILES IDX 43 1 42 2 9 3 8 4 41 5 6 6 5 7 10 8 11 9 12 10 14 11 13 12
REMARK SMILES IDX 32 13 34 14 36 15 15 16 16 17 29 18 28 19 21 20 17 21 19 22
REMARK SMILES IDX 30 23 31 24 22 26 23 27 24 28 25 29 26 30 27 31 18 32 20 34
REMARK SMILES IDX 33 36 35 38 37 40 38 42 39 43 40 44 7 46 4 48 2 49 1 51 3 52
REMARK SMILES IDX 44 53 45 55 46 56 47 58 48 59 49 60 50 62 51 63 52 64 53 65
REMARK SMILES IDX 54 66 64 67 55 68 63 69 56 70 57 71 58 72 59 74 61 75 62 76
REMARK SMILES IDX 60 77
REMARK H PARENT 31 25 18 33 20 35 33 37 35 39 37 41 40 45 7 47 4 50 44 54
REMARK H PARENT 46 57 48 61 58 73
REMARK Flexibility Score: inf
ROOT
ATOM      1  C   UNL     1      29.353  34.525  14.923  1.00  0.00     0.176 C 
ENDROOT
BRANCH   1   2
ATOM      2  C   UNL     1      29.241  36.023  14.586  1.00  0.00     0.178 C 
ATOM      3  C   UNL     1      28.941  37.330  12.667  1.00  0.00     0.272 C 
ATOM      4  C   UNL     1      30.244  38.017  12.773  1.00  0.00     0.113 C 
ATOM      5  O   UNL     1      28.958  36.076  13.264  1.00  0.00    -0.332 OA
ATOM      6  C   UNL     1      31.126  37.563  13.903  1.00  0.00     0.145 C 
ATOM      7  C   UNL     1      30.490  36.723  14.955  1.00  0.00     0.142 C 
BRANCH   3   8
ATOM      8  O   UNL     1      28.481  37.081  11.370  1.00  0.00    -0.338 OA
BRANCH   8   9
ATOM      9  C   UNL     1      28.820  38.086  10.480  1.00  0.00     0.199 C 
BRANCH   9  10
ATOM     10  C   UNL     1      28.500  37.673   9.086  1.00  0.00     0.179 C 
ATOM     11  C   UNL     1      26.827  37.218   7.565  1.00  0.00     0.282 C 
ATOM     12  O   UNL     1      27.155  37.818   8.792  1.00  0.00    -0.341 OA
ATOM     13  C   UNL     1      27.533  37.870   6.427  1.00  0.00     0.202 C 
ATOM     14  C   UNL     1      29.018  37.674   6.649  1.00  0.00     0.179 C 
ATOM     15  C   UNL     1      29.403  38.161   8.004  1.00  0.00     0.177 C 
BRANCH  11  16
ATOM     16  O   UNL     1      25.472  37.288   7.439  1.00  0.00    -0.341 OA
BRANCH  16  17
ATOM     17  C   UNL     1      24.759  37.326   8.588  1.00  0.00     0.184 C 
ATOM     18  C   UNL     1      24.077  36.116   9.091  1.00  0.00     0.178 C 
ATOM     19  O   UNL     1      23.003  36.515   9.887  1.00  0.00    -0.341 OA
ATOM     20  C   UNL     1      21.949  36.973   9.150  1.00  0.00     0.281 C 
ATOM     21  C   UNL     1      23.730  38.490   8.571  1.00  0.00     0.180 C 
ATOM     22  C   UNL     1      22.470  37.849   8.029  1.00  0.00     0.202 C 
BRANCH  18  23
ATOM     23  C   UNL     1      24.987  35.345  10.041  1.00  0.00     0.191 C 
BRANCH  23  24
ATOM     24  O   UNL     1      25.727  36.254  10.831  1.00  0.00    -0.394 OA
ATOM     25  H   UNL     1      25.140  36.839  11.358  1.00  0.00     0.210 HD
ENDBRANCH  23  24
ENDBRANCH  18  23
BRANCH  20  26
ATOM     26  O   UNL     1      21.024  37.665   9.946  1.00  0.00    -0.350 OA
BRANCH  26  27
ATOM     27  C   UNL     1      20.447  36.909  10.934  1.00  0.00     0.169 C 
BRANCH  27  28
ATOM     28  C   UNL     1      19.040  36.598  10.532  1.00  0.00     0.119 C 
BRANCH  28  29
ATOM     29  N   UNL     1      18.886  35.216  10.095  1.00  0.00    -0.092 NA
ATOM     30  N   UNL     1      19.018  35.037   8.872  1.00  0.00     0.001 N 
ATOM     31  N   UNL     1      19.029  34.568   7.740  1.00  0.00    -0.003 NA
ENDBRANCH  28  29
ENDBRANCH  27  28
ENDBRANCH  26  27
ENDBRANCH  20  26
BRANCH  21  32
ATOM     32  O   UNL     1      23.467  38.904   9.880  1.00  0.00    -0.387 OA
ATOM     33  H   UNL     1      22.626  38.474  10.189  1.00  0.00     0.211 HD
ENDBRANCH  21  32
BRANCH  22  34
ATOM     34  O   UNL     1      22.652  37.158   6.853  1.00  0.00    -0.385 OA
ATOM     35  H   UNL     1      22.519  36.179   6.933  1.00  0.00     0.211 HD
ENDBRANCH  22  34
ENDBRANCH  16  17
ENDBRANCH  11  16
BRANCH  13  36
ATOM     36  O   UNL     1      27.254  37.215   5.218  1.00  0.00    -0.385 OA
ATOM     37  H   UNL     1      26.322  37.368   4.919  1.00  0.00     0.211 HD
ENDBRANCH  13  36
BRANCH  14  38
ATOM     38  O   UNL     1      29.771  38.178   5.617  1.00  0.00    -0.387 OA
ATOM     39  H   UNL     1      30.722  37.843   5.641  1.00  0.00     0.211 HD
ENDBRANCH  14  38
BRANCH  15  40
ATOM     40  O   UNL     1      29.376  39.552   8.001  1.00  0.00    -0.387 OA
ATOM     41  H   UNL     1      28.552  39.925   8.409  1.00  0.00     0.211 HD
ENDBRANCH  15  40
ENDBRANCH   9  10
ENDBRANCH   8   9
ENDBRANCH   3   8
BRANCH   3  42
ATOM     42  C   UNL     1      27.861  38.134  13.287  1.00  0.00     0.364 C 
ATOM     43  O   UNL     1      28.110  39.159  14.003  1.00  0.00    -0.246 OA
BRANCH  42  44
ATOM     44  O   UNL     1      26.514  37.858  13.155  1.00  0.00    -0.477 OA
ATOM     45  H   UNL     1      25.923  37.568  13.930  1.00  0.00     0.296 HD
ENDBRANCH  42  44
ENDBRANCH   3  42
BRANCH   6  46
ATOM     46  O   UNL     1      32.266  36.932  13.426  1.00  0.00    -0.391 OA
ATOM     47  H   UNL     1      32.240  36.663  12.486  1.00  0.00     0.211 HD
ENDBRANCH   6  46
BRANCH   7  48
ATOM     48  N   UNL     1      30.248  37.580  16.128  1.00  0.00    -0.348 N 
ATOM     49  C   UNL     1      30.898  37.492  17.363  1.00  0.00     0.217 C 
ATOM     50  H   UNL     1      29.528  38.380  16.036  1.00  0.00     0.163 HD
ATOM     51  C   UNL     1      30.552  38.421  18.496  1.00  0.00     0.114 C 
ATOM     52  O   UNL     1      31.795  36.634  17.585  1.00  0.00    -0.275 OA
ENDBRANCH   7  48
ENDBRANCH   1   2
BRANCH   1  53
ATOM     53  O   UNL     1      28.384  33.828  14.179  1.00  0.00    -0.388 OA
ATOM     54  H   UNL     1      27.521  34.227  14.389  1.00  0.00     0.211 HD
ENDBRANCH   1  53
BRANCH   1  55
ATOM     55  C   UNL     1      30.693  34.012  14.544  1.00  0.00     0.165 C 
BRANCH  55  56
ATOM     56  O   UNL     1      31.002  34.061  13.207  1.00  0.00    -0.388 OA
ATOM     57  H   UNL     1      30.736  34.912  12.768  1.00  0.00     0.211 HD
ENDBRANCH  55  56
BRANCH  55  58
ATOM     58  C   UNL     1      31.079  32.697  15.147  1.00  0.00     0.154 C 
BRANCH  58  59
ATOM     59  N   UNL     1      29.995  31.752  15.132  1.00  0.00    -0.319 N 
ATOM     60  C   UNL     1      29.626  31.136  16.388  1.00  0.00     0.407 C 
ATOM     61  H   UNL     1      29.466  31.484  14.287  1.00  0.00     0.167 HD
ATOM     62  O   UNL     1      30.273  31.498  17.404  1.00  0.00    -0.225 OA
BRANCH  60  63
ATOM     63  O   UNL     1      28.621  30.206  16.448  1.00  0.00    -0.443 OA
BRANCH  63  64
ATOM     64  C   UNL     1      27.367  30.548  16.989  1.00  0.00     0.294 C 
BRANCH  64  65
ATOM     65  C   UNL     1      26.520  31.213  15.983  1.00  0.00     0.120 A 
ATOM     66  C   UNL     1      25.728  30.612  15.019  1.00  0.00     0.138 A 
ATOM     67  N   UNL     1      26.328  32.516  15.832  1.00  0.00    -0.132 NA
ATOM     68  N   UNL     1      25.085  31.549  14.321  1.00  0.00    -0.251 N 
ATOM     69  N   UNL     1      25.463  32.722  14.830  1.00  0.00    -0.067 NA
BRANCH  68  70
ATOM     70  C   UNL     1      24.165  31.330  13.217  1.00  0.00     0.162 C 
BRANCH  70  71
ATOM     71  C   UNL     1      22.930  32.212  13.394  1.00  0.00     0.122 C 
BRANCH  71  72
ATOM     72  N   UNL     1      21.972  31.962  12.356  1.00  0.00    -0.214 NA
ATOM     73  H   UNL     1      22.485  31.675  11.479  1.00  0.00     0.141 HD
BRANCH  72  74
ATOM     74  S   UNL     1      20.886  30.684  12.739  1.00  0.00     0.208 S 
ATOM     75  O   UNL     1      19.528  30.952  12.113  1.00  0.00    -0.213 OA
ATOM     76  O   UNL     1      21.465  29.432  12.108  1.00  0.00    -0.213 OA
ATOM     77  C   UNL     1      20.742  30.473  14.487  1.00  0.00     0.176 C 
ENDBRANCH  72  74
ENDBRANCH  71  72
ENDBRANCH  70  71
ENDBRANCH  68  70
ENDBRANCH  64  65
ENDBRANCH  63  64
ENDBRANCH  60  63
ENDBRANCH  58  59
ENDBRANCH  55  58
ENDBRANCH   1  55
TORSDOF 33
BEGIN_RES LYS A 131
REMARK  4 active torsions:
REMARK  status: ('A' for Active; 'I' for Inactive)
REMARK    1  A    between atoms: CA   and  CB  
REMARK    2  A    between atoms: CB   and  CG  
REMARK    3  A    between atoms: CG   and  CD  
REMARK    4  A    between atoms: CD   and  CE  
ROOT
ATOM      1  CA  LYS A 131      29.867  25.555  16.977  1.00 20.52     0.186 C 
ENDROOT
BRANCH   1   2
ATOM      2  CB  LYS A 131      28.345  25.722  17.026  1.00 20.94     0.034 C 
BRANCH   2   3
ATOM      3  CG  LYS A 131      27.601  24.401  16.899  1.00 22.96     0.005 C 
BRANCH   3   4
ATOM      4  CD  LYS A 131      26.148  24.532  17.263  1.00 24.33     0.041 C 
BRANCH   4   5
ATOM      5  CE  LYS A 131      25.965  24.221  18.745  1.00 26.91     0.338 C 
ATOM      6  NZ  LYS A 131      25.443  25.407  19.464  1.00 27.40     0.618 N 
ENDBRANCH   4   5
ENDBRANCH   3   4
ENDBRANCH   2   3
ENDBRANCH   1   2
END_RES LYS A 131
BEGIN_RES LYS A 135
REMARK  4 active torsions:
REMARK  status: ('A' for Active; 'I' for Inactive)
REMARK    5  A    between atoms: CA   and  CB  
REMARK    6  A    between atoms: CB   and  CG  
REMARK    7  A    between atoms: CG   and  CD  
REMARK    8  A    between atoms: CD   and  CE  
ROOT
ATOM      7  CA  LYS A 135      33.193  34.663   9.290  1.00 25.02     0.186 C 
ENDROOT
BRANCH   7   8
ATOM      8  CB  LYS A 135      32.060  35.360  10.034  1.00 26.63     0.034 C 
BRANCH   8   9
ATOM      9  CG  LYS A 135      30.743  34.633   9.944  1.00 29.45     0.005 C 
BRANCH   9  10
ATOM     10  CD  LYS A 135      30.345  34.422   8.492  1.00 32.00     0.041 C 
BRANCH  10  11
ATOM     11  CE  LYS A 135      28.836  34.348   8.359  1.00 34.25     0.338 C 
ATOM     12  NZ  LYS A 135      28.222  33.709   9.556  1.00 35.99     0.618 N 
ENDBRANCH  10  11
ENDBRANCH   9  10
ENDBRANCH   8   9
ENDBRANCH   7   8
END_RES LYS A 135
