REMARK VINA RESULT:    -4.509      4.333      9.759
REMARK INTER + INTRA:         -22.043
REMARK INTER:                 -10.723
REMARK INTRA:                 -11.320
REMARK UNBOUND:               -10.943
REMARK SMILES CC(=O)N[C@@H]1[C@@H](O)C[C@](OC[C@H]2O[C@@H](O[C@H]3[C@H](O)[C@@H](O)[C@H](OCCN=[N+]=[N-])O[C@@H]3CO)[C@H](O)[C@@H](O)[C@H]2O)(C(=O)O)O[C@H]1C(O)[C@H](O)CNC(=O)OCc1cn([C@@H]2C[C@H]3CC[C@@H](C2)N3C)nn1
REMARK SMILES IDX 9 1 8 2 6 3 5 4 42 5 41 6 10 7 11 8 12 9 14 10 13 11 32 12
REMARK SMILES IDX 34 13 36 14 15 15 16 16 29 17 28 18 21 19 17 20 19 21 30 22
REMARK SMILES IDX 31 23 22 25 23 26 24 27 25 28 26 29 27 30 18 31 20 33 33 35
REMARK SMILES IDX 35 37 37 39 38 41 39 42 40 43 7 45 43 47 44 48 45 50 46 51
REMARK SMILES IDX 47 53 48 54 49 55 50 57 51 58 52 59 53 60 54 61 66 62 55 63
REMARK SMILES IDX 65 64 56 65 62 66 57 67 61 68 58 69 63 70 60 71 59 72 64 73
REMARK SMILES IDX 4 74 2 75 1 77 3 78
REMARK H PARENT 31 24 18 32 20 34 33 36 35 38 37 40 40 44 7 46 44 49 46 52
REMARK H PARENT 48 56 4 76
REMARK Flexibility Score: inf
ROOT
ATOM      1  C   UNL     1      22.528  40.564   8.924  1.00  0.00     0.272 C 
ATOM      2  C   UNL     1      22.006  40.475  10.301  1.00  0.00     0.113 C 
ATOM      3  C   UNL     1      22.251  39.102  10.912  1.00  0.00     0.145 C 
ATOM      4  C   UNL     1      21.690  38.017   9.964  1.00  0.00     0.142 C 
ATOM      5  C   UNL     1      22.003  38.318   8.553  1.00  0.00     0.178 C 
ATOM      6  O   UNL     1      22.990  39.282   8.518  1.00  0.00    -0.332 OA
ENDROOT
BRANCH   1   7
ATOM      7  O   UNL     1      23.449  41.482   8.564  1.00  0.00    -0.338 OA
BRANCH   7   8
ATOM      8  C   UNL     1      24.741  41.469   8.625  1.00  0.00     0.199 C 
BRANCH   8   9
ATOM      9  C   UNL     1      25.506  41.975   7.411  1.00  0.00     0.179 C 
ATOM     10  C   UNL     1      27.638  41.117   6.917  1.00  0.00     0.282 C 
ATOM     11  O   UNL     1      26.871  41.902   7.726  1.00  0.00    -0.341 OA
ATOM     12  C   UNL     1      27.551  41.461   5.468  1.00  0.00     0.202 C 
ATOM     13  C   UNL     1      26.115  41.471   5.072  1.00  0.00     0.179 C 
ATOM     14  C   UNL     1      25.172  41.183   6.187  1.00  0.00     0.177 C 
BRANCH  10  15
ATOM     15  O   UNL     1      27.525  39.763   7.185  1.00  0.00    -0.341 OA
BRANCH  15  16
ATOM     16  C   UNL     1      28.195  39.348   8.317  1.00  0.00     0.184 C 
ATOM     17  C   UNL     1      29.289  38.406   8.008  1.00  0.00     0.178 C 
ATOM     18  O   UNL     1      30.070  38.115   9.131  1.00  0.00    -0.341 OA
ATOM     19  C   UNL     1      29.468  38.488  10.333  1.00  0.00     0.281 C 
ATOM     20  C   UNL     1      27.204  38.508   9.192  1.00  0.00     0.180 C 
ATOM     21  C   UNL     1      27.993  38.149  10.409  1.00  0.00     0.202 C 
BRANCH  17  22
ATOM     22  C   UNL     1      30.169  38.730   6.852  1.00  0.00     0.191 C 
BRANCH  22  23
ATOM     23  O   UNL     1      31.465  38.999   7.284  1.00  0.00    -0.394 OA
ATOM     24  H   UNL     1      31.587  38.618   8.188  1.00  0.00     0.210 HD
ENDBRANCH  22  23
ENDBRANCH  17  22
BRANCH  19  25
ATOM     25  O   UNL     1      29.777  39.769  10.697  1.00  0.00    -0.350 OA
BRANCH  25  26
ATOM     26  C   UNL     1      29.402  40.238  11.906  1.00  0.00     0.169 C 
BRANCH  26  27
ATOM     27  C   UNL     1      28.936  41.646  11.932  1.00  0.00     0.119 C 
BRANCH  27  28
ATOM     28  N   UNL     1      27.642  41.858  12.484  1.00  0.00    -0.092 NA
ATOM     29  N   UNL     1      26.712  41.051  12.387  1.00  0.00     0.001 N 
ATOM     30  N   UNL     1      25.574  40.680  12.083  1.00  0.00    -0.003 NA
ENDBRANCH  27  28
ENDBRANCH  26  27
ENDBRANCH  25  26
ENDBRANCH  19  25
BRANCH  20  31
ATOM     31  O   UNL     1      26.106  39.251   9.546  1.00  0.00    -0.387 OA
ATOM     32  H   UNL     1      25.643  38.842  10.325  1.00  0.00     0.211 HD
ENDBRANCH  20  31
BRANCH  21  33
ATOM     33  O   UNL     1      27.866  36.786  10.695  1.00  0.00    -0.385 OA
ATOM     34  H   UNL     1      27.838  36.299   9.859  1.00  0.00     0.211 HD
ENDBRANCH  21  33
ENDBRANCH  15  16
ENDBRANCH  10  15
BRANCH  12  35
ATOM     35  O   UNL     1      28.111  42.739   5.261  1.00  0.00    -0.385 OA
ATOM     36  H   UNL     1      28.246  43.150   6.155  1.00  0.00     0.211 HD
ENDBRANCH  12  35
BRANCH  13  37
ATOM     37  O   UNL     1      25.873  40.536   4.037  1.00  0.00    -0.387 OA
ATOM     38  H   UNL     1      26.192  40.895   3.174  1.00  0.00     0.211 HD
ENDBRANCH  13  37
BRANCH  14  39
ATOM     39  O   UNL     1      25.096  39.802   6.407  1.00  0.00    -0.387 OA
ATOM     40  H   UNL     1      24.452  39.684   7.164  1.00  0.00     0.211 HD
ENDBRANCH  14  39
ENDBRANCH   8   9
ENDBRANCH   7   8
ENDBRANCH   1   7
BRANCH   1  41
ATOM     41  C   UNL     1      21.351  40.871   8.021  1.00  0.00     0.364 C 
ATOM     42  O   UNL     1      20.161  40.851   8.376  1.00  0.00    -0.246 OA
BRANCH  41  43
ATOM     43  O   UNL     1      21.578  41.205   6.683  1.00  0.00    -0.477 OA
ATOM     44  H   UNL     1      21.335  42.141   6.337  1.00  0.00     0.296 HD
ENDBRANCH  41  43
ENDBRANCH   1  41
BRANCH   3  45
ATOM     45  O   UNL     1      23.561  38.859  11.257  1.00  0.00    -0.391 OA
ATOM     46  H   UNL     1      23.572  38.456  12.178  1.00  0.00     0.211 HD
ENDBRANCH   3  45
BRANCH   5  47
ATOM     47  C   UNL     1      22.744  37.105   7.875  1.00  0.00     0.176 C 
BRANCH  47  48
ATOM     48  O   UNL     1      22.189  35.959   8.592  1.00  0.00    -0.388 OA
ATOM     49  H   UNL     1      21.221  35.938   8.322  1.00  0.00     0.211 HD
ENDBRANCH  47  48
BRANCH  47  50
ATOM     50  C   UNL     1      24.186  37.039   8.252  1.00  0.00     0.165 C 
BRANCH  50  51
ATOM     51  O   UNL     1      24.986  37.248   7.152  1.00  0.00    -0.388 OA
ATOM     52  H   UNL     1      25.471  38.089   7.130  1.00  0.00     0.211 HD
ENDBRANCH  50  51
BRANCH  50  53
ATOM     53  C   UNL     1      24.585  35.886   9.094  1.00  0.00     0.154 C 
BRANCH  53  54
ATOM     54  N   UNL     1      24.825  36.312  10.472  1.00  0.00    -0.319 N 
ATOM     55  C   UNL     1      24.144  35.722  11.542  1.00  0.00     0.407 C 
ATOM     56  H   UNL     1      25.516  37.060  10.631  1.00  0.00     0.167 HD
ATOM     57  O   UNL     1      23.306  34.805  11.296  1.00  0.00    -0.225 OA
BRANCH  55  58
ATOM     58  O   UNL     1      24.343  36.096  12.867  1.00  0.00    -0.443 OA
BRANCH  58  59
ATOM     59  C   UNL     1      24.894  35.180  13.805  1.00  0.00     0.294 C 
BRANCH  59  60
ATOM     60  C   UNL     1      26.380  35.127  13.640  1.00  0.00     0.120 A 
ATOM     61  C   UNL     1      27.337  35.490  14.564  1.00  0.00     0.138 A 
ATOM     62  N   UNL     1      27.054  34.724  12.568  1.00  0.00    -0.132 NA
ATOM     63  N   UNL     1      28.555  35.302  14.039  1.00  0.00    -0.249 N 
ATOM     64  N   UNL     1      28.338  34.826  12.799  1.00  0.00    -0.067 NA
BRANCH  63  65
ATOM     65  C   UNL     1      29.866  35.529  14.601  1.00  0.00     0.112 C 
ATOM     66  C   UNL     1      29.915  35.394  16.094  1.00  0.00     0.046 C 
ATOM     67  C   UNL     1      30.808  34.453  14.039  1.00  0.00     0.046 C 
ATOM     68  C   UNL     1      29.745  33.956  16.506  1.00  0.00     0.058 C 
ATOM     69  C   UNL     1      30.348  33.083  14.498  1.00  0.00     0.058 C 
ATOM     70  N   UNL     1      29.191  33.245  15.361  1.00  0.00    -0.300 NA
ATOM     71  C   UNL     1      31.065  33.269  16.736  1.00  0.00     0.021 C 
ATOM     72  C   UNL     1      31.356  32.506  15.473  1.00  0.00     0.021 C 
ATOM     73  C   UNL     1      28.675  31.994  15.826  1.00  0.00     0.105 C 
ENDBRANCH  63  65
ENDBRANCH  59  60
ENDBRANCH  58  59
ENDBRANCH  55  58
ENDBRANCH  53  54
ENDBRANCH  50  53
ENDBRANCH  47  50
ENDBRANCH   5  47
BRANCH   4  74
ATOM     74  N   UNL     1      20.263  37.875  10.281  1.00  0.00    -0.348 N 
ATOM     75  C   UNL     1      19.720  36.591  10.669  1.00  0.00     0.217 C 
ATOM     76  H   UNL     1      19.574  38.649  10.250  1.00  0.00     0.163 HD
ATOM     77  C   UNL     1      18.310  36.365  11.002  1.00  0.00     0.114 C 
ATOM     78  O   UNL     1      20.527  35.639  10.715  1.00  0.00    -0.275 OA
ENDBRANCH   4  74
TORSDOF 30
BEGIN_RES LYS A 131
REMARK  4 active torsions:
REMARK  status: ('A' for Active; 'I' for Inactive)
REMARK    1  A    between atoms: CA   and  CB  
REMARK    2  A    between atoms: CB   and  CG  
REMARK    3  A    between atoms: CG   and  CD  
REMARK    4  A    between atoms: CD   and  CE  
ROOT
ATOM      1  CA  LYS A 131      29.867  25.555  16.977  1.00 20.52     0.186 C 
ENDROOT
BRANCH   1   2
ATOM      2  CB  LYS A 131      28.345  25.722  17.026  1.00 20.94     0.034 C 
BRANCH   2   3
ATOM      3  CG  LYS A 131      27.599  24.431  16.727  1.00 22.96     0.005 C 
BRANCH   3   4
ATOM      4  CD  LYS A 131      26.859  23.912  17.929  1.00 24.33     0.041 C 
BRANCH   4   5
ATOM      5  CE  LYS A 131      25.556  23.259  17.482  1.00 26.91     0.338 C 
ATOM      6  NZ  LYS A 131      24.551  24.291  17.132  1.00 27.40     0.618 N 
ENDBRANCH   4   5
ENDBRANCH   3   4
ENDBRANCH   2   3
ENDBRANCH   1   2
END_RES LYS A 131
BEGIN_RES LYS A 135
REMARK  4 active torsions:
REMARK  status: ('A' for Active; 'I' for Inactive)
REMARK    5  A    between atoms: CA   and  CB  
REMARK    6  A    between atoms: CB   and  CG  
REMARK    7  A    between atoms: CG   and  CD  
REMARK    8  A    between atoms: CD   and  CE  
ROOT
ATOM      7  CA  LYS A 135      33.193  34.663   9.290  1.00 25.02     0.186 C 
ENDROOT
BRANCH   7   8
ATOM      8  CB  LYS A 135      32.060  35.360  10.034  1.00 26.63     0.034 C 
BRANCH   8   9
ATOM      9  CG  LYS A 135      30.729  34.669   9.888  1.00 29.45     0.005 C 
BRANCH   9  10
ATOM     10  CD  LYS A 135      30.349  34.540   8.421  1.00 32.00     0.041 C 
BRANCH  10  11
ATOM     11  CE  LYS A 135      28.841  34.546   8.259  1.00 34.25     0.338 C 
ATOM     12  NZ  LYS A 135      28.181  33.780   9.352  1.00 35.99     0.618 N 
ENDBRANCH  10  11
ENDBRANCH   9  10
ENDBRANCH   8   9
ENDBRANCH   7   8
END_RES LYS A 135
