REMARK VINA RESULT:    -5.025      2.974      8.309
REMARK INTER + INTRA:         -22.832
REMARK INTER:                 -12.516
REMARK INTRA:                 -10.316
REMARK UNBOUND:               -10.464
REMARK SMILES CC(=O)N[C@@H]1[C@@H](O)C[C@](OC[C@H]2O[C@@H](O[C@H]3[C@H](O)[C@@H](O)[C@H](OCCN=[N+]=[N-])O[C@@H]3CO)[C@H](O)[C@@H](O)[C@H]2O)(C(=O)O)O[C@H]1C(O)[C@H](O)CNC(=O)OCc1cn(-c2c3ccccc3nc3ccccc23)nn1
REMARK SMILES IDX 9 1 8 2 6 3 5 4 42 5 41 6 10 7 11 8 12 9 14 10 13 11 32 12
REMARK SMILES IDX 34 13 36 14 15 15 16 16 29 17 28 18 21 19 17 20 19 21 30 22
REMARK SMILES IDX 31 23 22 25 23 26 24 27 25 28 26 29 27 30 18 31 20 33 33 35
REMARK SMILES IDX 35 37 37 39 38 41 39 42 40 43 7 45 43 47 44 48 45 50 46 51
REMARK SMILES IDX 47 53 48 54 49 55 50 57 51 58 52 59 53 60 54 61 71 62 55 63
REMARK SMILES IDX 70 64 56 65 57 66 69 67 58 68 62 69 64 70 68 71 59 72 61 73
REMARK SMILES IDX 63 74 65 75 67 76 60 77 66 78 4 79 2 80 1 82 3 83
REMARK H PARENT 31 24 18 32 20 34 33 36 35 38 37 40 40 44 7 46 44 49 46 52
REMARK H PARENT 48 56 4 81
REMARK Flexibility Score: inf
ROOT
ATOM      1  C   UNL     1      30.809  35.873  13.925  1.00  0.00     0.272 C 
ATOM      2  C   UNL     1      30.878  34.306  13.573  1.00  0.00     0.113 C 
ATOM      3  C   UNL     1      30.895  33.652  14.906  1.00  0.00     0.145 C 
ATOM      4  C   UNL     1      29.748  34.036  15.817  1.00  0.00     0.142 C 
ATOM      5  C   UNL     1      29.186  35.372  15.562  1.00  0.00     0.178 C 
ATOM      6  O   UNL     1      29.591  36.017  14.443  1.00  0.00    -0.332 OA
ENDROOT
BRANCH   1   7
ATOM      7  O   UNL     1      30.826  36.382  12.625  1.00  0.00    -0.338 OA
BRANCH   7   8
ATOM      8  C   UNL     1      31.451  37.568  12.437  1.00  0.00     0.199 C 
BRANCH   8   9
ATOM      9  C   UNL     1      30.612  38.656  11.887  1.00  0.00     0.179 C 
ATOM     10  C   UNL     1      28.945  39.227  10.356  1.00  0.00     0.282 C 
ATOM     11  O   UNL     1      29.807  38.231  10.865  1.00  0.00    -0.341 OA
ATOM     12  C   UNL     1      29.218  40.582  10.858  1.00  0.00     0.202 C 
ATOM     13  C   UNL     1      29.278  40.629  12.368  1.00  0.00     0.179 C 
ATOM     14  C   UNL     1      29.788  39.361  12.968  1.00  0.00     0.177 C 
BRANCH  10  15
ATOM     15  O   UNL     1      27.625  38.829  10.521  1.00  0.00    -0.341 OA
BRANCH  15  16
ATOM     16  C   UNL     1      27.375  37.546   9.983  1.00  0.00     0.184 C 
ATOM     17  C   UNL     1      26.429  37.651   8.855  1.00  0.00     0.178 C 
ATOM     18  O   UNL     1      25.761  36.435   8.557  1.00  0.00    -0.341 OA
ATOM     19  C   UNL     1      24.981  36.131   9.665  1.00  0.00     0.281 C 
ATOM     20  C   UNL     1      26.766  36.770  11.162  1.00  0.00     0.180 C 
ATOM     21  C   UNL     1      25.972  35.579  10.701  1.00  0.00     0.202 C 
BRANCH  17  22
ATOM     22  C   UNL     1      27.130  38.072   7.572  1.00  0.00     0.191 C 
BRANCH  22  23
ATOM     23  O   UNL     1      26.596  37.504   6.445  1.00  0.00    -0.394 OA
ATOM     24  H   UNL     1      27.129  37.787   5.657  1.00  0.00     0.210 HD
ENDBRANCH  22  23
ENDBRANCH  17  22
BRANCH  19  25
ATOM     25  O   UNL     1      24.043  35.205   9.283  1.00  0.00    -0.350 OA
BRANCH  25  26
ATOM     26  C   UNL     1      22.772  35.728   9.067  1.00  0.00     0.169 C 
BRANCH  26  27
ATOM     27  C   UNL     1      22.135  36.227  10.346  1.00  0.00     0.119 C 
BRANCH  27  28
ATOM     28  N   UNL     1      21.460  35.088  10.960  1.00  0.00    -0.092 NA
ATOM     29  N   UNL     1      22.077  34.319  11.706  1.00  0.00     0.001 N 
ATOM     30  N   UNL     1      22.624  33.561  12.509  1.00  0.00    -0.003 NA
ENDBRANCH  27  28
ENDBRANCH  26  27
ENDBRANCH  25  26
ENDBRANCH  19  25
BRANCH  20  31
ATOM     31  O   UNL     1      27.760  36.437  12.068  1.00  0.00    -0.387 OA
ATOM     32  H   UNL     1      27.475  35.751  12.722  1.00  0.00     0.211 HD
ENDBRANCH  20  31
BRANCH  21  33
ATOM     33  O   UNL     1      25.313  35.023  11.774  1.00  0.00    -0.385 OA
ATOM     34  H   UNL     1      25.763  34.148  11.976  1.00  0.00     0.211 HD
ENDBRANCH  21  33
ENDBRANCH  15  16
ENDBRANCH  10  15
BRANCH  12  35
ATOM     35  O   UNL     1      30.372  41.115  10.264  1.00  0.00    -0.385 OA
ATOM     36  H   UNL     1      30.431  40.678   9.363  1.00  0.00     0.211 HD
ENDBRANCH  12  35
BRANCH  13  37
ATOM     37  O   UNL     1      27.985  40.937  12.833  1.00  0.00    -0.387 OA
ATOM     38  H   UNL     1      27.676  41.707  12.256  1.00  0.00     0.211 HD
ENDBRANCH  13  37
BRANCH  14  39
ATOM     39  O   UNL     1      28.793  38.554  13.481  1.00  0.00    -0.387 OA
ATOM     40  H   UNL     1      28.070  38.366  12.831  1.00  0.00     0.211 HD
ENDBRANCH  14  39
ENDBRANCH   8   9
ENDBRANCH   7   8
ENDBRANCH   1   7
BRANCH   1  41
ATOM     41  C   UNL     1      32.015  36.086  14.653  1.00  0.00     0.364 C 
ATOM     42  O   UNL     1      32.051  36.888  15.641  1.00  0.00    -0.246 OA
BRANCH  41  43
ATOM     43  O   UNL     1      33.250  35.478  14.398  1.00  0.00    -0.477 OA
ATOM     44  H   UNL     1      33.957  36.004  13.901  1.00  0.00     0.296 HD
ENDBRANCH  41  43
ENDBRANCH   1  41
BRANCH   3  45
ATOM     45  O   UNL     1      30.882  32.256  14.669  1.00  0.00    -0.391 OA
ATOM     46  H   UNL     1      31.120  31.785  15.510  1.00  0.00     0.211 HD
ENDBRANCH   3  45
BRANCH   5  47
ATOM     47  C   UNL     1      27.637  35.330  15.454  1.00  0.00     0.176 C 
BRANCH  47  48
ATOM     48  O   UNL     1      27.142  36.568  15.170  1.00  0.00    -0.388 OA
ATOM     49  H   UNL     1      27.278  37.247  15.902  1.00  0.00     0.211 HD
ENDBRANCH  47  48
BRANCH  47  50
ATOM     50  C   UNL     1      27.129  34.166  14.734  1.00  0.00     0.165 C 
BRANCH  50  51
ATOM     51  O   UNL     1      27.450  34.068  13.378  1.00  0.00    -0.388 OA
ATOM     52  H   UNL     1      26.837  34.605  12.816  1.00  0.00     0.211 HD
ENDBRANCH  50  51
BRANCH  50  53
ATOM     53  C   UNL     1      25.786  33.641  15.069  1.00  0.00     0.154 C 
BRANCH  53  54
ATOM     54  N   UNL     1      25.112  32.779  14.172  1.00  0.00    -0.319 N 
ATOM     55  C   UNL     1      24.887  31.401  14.371  1.00  0.00     0.407 C 
ATOM     56  H   UNL     1      24.728  33.210  13.249  1.00  0.00     0.167 HD
ATOM     57  O   UNL     1      25.278  30.755  15.355  1.00  0.00    -0.225 OA
BRANCH  55  58
ATOM     58  O   UNL     1      24.171  30.647  13.421  1.00  0.00    -0.443 OA
BRANCH  58  59
ATOM     59  C   UNL     1      23.676  29.346  13.686  1.00  0.00     0.294 C 
BRANCH  59  60
ATOM     60  C   UNL     1      22.195  29.335  13.513  1.00  0.00     0.121 A 
ATOM     61  C   UNL     1      21.465  29.597  12.374  1.00  0.00     0.144 A 
ATOM     62  N   UNL     1      21.282  29.076  14.460  1.00  0.00    -0.131 NA
ATOM     63  N   UNL     1      20.142  29.496  12.636  1.00  0.00    -0.219 N 
ATOM     64  N   UNL     1      20.063  29.178  13.917  1.00  0.00    -0.062 NA
BRANCH  63  65
ATOM     65  C   UNL     1      19.064  29.701  11.704  1.00  0.00     0.085 A 
ATOM     66  C   UNL     1      18.553  30.974  11.502  1.00  0.00     0.027 A 
ATOM     67  C   UNL     1      18.505  28.664  10.993  1.00  0.00     0.027 A 
ATOM     68  C   UNL     1      19.072  32.054  12.184  1.00  0.00     0.012 A 
ATOM     69  C   UNL     1      17.509  31.223  10.616  1.00  0.00     0.073 A 
ATOM     70  C   UNL     1      17.474  28.953  10.127  1.00  0.00     0.073 A 
ATOM     71  C   UNL     1      18.959  27.386  11.141  1.00  0.00     0.012 A 
ATOM     72  C   UNL     1      18.566  33.320  11.983  1.00  0.00     0.001 A 
ATOM     73  C   UNL     1      17.006  32.490  10.418  1.00  0.00     0.029 A 
ATOM     74  N   UNL     1      16.986  30.192   9.940  1.00  0.00    -0.248 NA
ATOM     75  C   UNL     1      16.888  27.940   9.397  1.00  0.00     0.029 A 
ATOM     76  C   UNL     1      18.351  26.386  10.394  1.00  0.00     0.001 A 
ATOM     77  C   UNL     1      17.521  33.568  11.096  1.00  0.00     0.002 A 
ATOM     78  C   UNL     1      17.317  26.630   9.515  1.00  0.00     0.002 A 
ENDBRANCH  63  65
ENDBRANCH  59  60
ENDBRANCH  58  59
ENDBRANCH  55  58
ENDBRANCH  53  54
ENDBRANCH  50  53
ENDBRANCH  47  50
ENDBRANCH   5  47
BRANCH   4  79
ATOM     79  N   UNL     1      30.145  33.816  17.190  1.00  0.00    -0.348 N 
ATOM     80  C   UNL     1      29.943  32.597  17.902  1.00  0.00     0.217 C 
ATOM     81  H   UNL     1      30.610  34.575  17.740  1.00  0.00     0.163 HD
ATOM     82  C   UNL     1      30.397  32.495  19.330  1.00  0.00     0.114 C 
ATOM     83  O   UNL     1      29.395  31.659  17.303  1.00  0.00    -0.275 OA
ENDBRANCH   4  79
TORSDOF 30
BEGIN_RES LYS A 131
REMARK  4 active torsions:
REMARK  status: ('A' for Active; 'I' for Inactive)
REMARK    1  A    between atoms: CA   and  CB  
REMARK    2  A    between atoms: CB   and  CG  
REMARK    3  A    between atoms: CG   and  CD  
REMARK    4  A    between atoms: CD   and  CE  
ROOT
ATOM      1  CA  LYS A 131      29.867  25.555  16.977  1.00 20.52     0.186 C 
ENDROOT
BRANCH   1   2
ATOM      2  CB  LYS A 131      28.345  25.722  17.026  1.00 20.94     0.034 C 
BRANCH   2   3
ATOM      3  CG  LYS A 131      27.599  24.435  16.708  1.00 22.96     0.005 C 
BRANCH   3   4
ATOM      4  CD  LYS A 131      26.994  23.813  17.936  1.00 24.33     0.041 C 
BRANCH   4   5
ATOM      5  CE  LYS A 131      25.765  24.611  18.358  1.00 26.91     0.338 C 
ATOM      6  NZ  LYS A 131      24.775  24.662  17.256  1.00 27.40     0.618 N 
ENDBRANCH   4   5
ENDBRANCH   3   4
ENDBRANCH   2   3
ENDBRANCH   1   2
END_RES LYS A 131
BEGIN_RES LYS A 135
REMARK  4 active torsions:
REMARK  status: ('A' for Active; 'I' for Inactive)
REMARK    5  A    between atoms: CA   and  CB  
REMARK    6  A    between atoms: CB   and  CG  
REMARK    7  A    between atoms: CG   and  CD  
REMARK    8  A    between atoms: CD   and  CE  
ROOT
ATOM      7  CA  LYS A 135      33.193  34.663   9.290  1.00 25.02     0.186 C 
ENDROOT
BRANCH   7   8
ATOM      8  CB  LYS A 135      32.060  35.360  10.034  1.00 26.63     0.034 C 
BRANCH   8   9
ATOM      9  CG  LYS A 135      30.758  35.371   9.275  1.00 29.45     0.005 C 
BRANCH   9  10
ATOM     10  CD  LYS A 135      29.742  34.455   9.939  1.00 32.00     0.041 C 
BRANCH  10  11
ATOM     11  CE  LYS A 135      28.629  34.104   8.971  1.00 34.25     0.338 C 
ATOM     12  NZ  LYS A 135      28.748  34.887   7.709  1.00 35.99     0.618 N 
ENDBRANCH  10  11
ENDBRANCH   9  10
ENDBRANCH   8   9
ENDBRANCH   7   8
END_RES LYS A 135
