REMARK VINA RESULT:    -3.015      4.335      9.487
REMARK INTER + INTRA:         -21.190
REMARK INTER:                  -9.653
REMARK INTRA:                 -11.536
REMARK UNBOUND:               -13.239
REMARK SMILES CCOC(=O)Cn1cc(COC(=O)NC[C@@H](O)C(O)[C@@H]2O[C@@](OC[C@H]3O[C@@H](O[C@H]4[C@H](O)[C@@H](O)[C@H](OCCN=[N+]=[N-])O[C@@H]4CO)[C@H](O)[C@@H](O)[C@H]3O)(C(=O)O)C[C@H](O)[C@H]2NC(C)=O)nn1
REMARK SMILES IDX 18 1 20 2 22 3 54 4 21 5 55 6 57 7 23 8 24 9 25 10 27 11
REMARK SMILES IDX 26 12 45 13 47 14 49 15 28 16 29 17 42 18 41 19 34 20 30 21
REMARK SMILES IDX 32 22 43 23 44 24 35 26 36 27 37 28 38 29 39 30 40 31 31 32
REMARK SMILES IDX 33 34 46 36 48 38 50 40 51 42 52 43 53 44 56 46 58 48 59 49
REMARK SMILES IDX 60 51 61 52 19 53 16 55 17 56 15 58 14 59 12 60 13 62 11 63
REMARK SMILES IDX 10 64 9 65 8 66 62 67 7 68 63 69 6 70 4 71 5 72 3 73 2 74
REMARK SMILES IDX 1 75
REMARK H PARENT 44 25 31 33 33 35 46 37 48 39 50 41 53 45 56 47 58 50 19 54
REMARK H PARENT 17 57 14 61
REMARK Flexibility Score: inf
ROOT
ATOM      1  C   UNL     1      23.736  38.234   7.788  1.00  0.00     0.176 C 
ENDROOT
BRANCH   1   2
ATOM      2  C   UNL     1      23.995  39.665   7.408  1.00  0.00     0.178 C 
ATOM      3  C   UNL     1      25.612  41.022   6.401  1.00  0.00     0.272 C 
ATOM      4  C   UNL     1      24.772  42.108   6.980  1.00  0.00     0.113 C 
ATOM      5  O   UNL     1      24.960  39.770   6.442  1.00  0.00    -0.332 OA
ATOM      6  C   UNL     1      24.343  41.864   8.391  1.00  0.00     0.145 C 
ATOM      7  C   UNL     1      24.457  40.374   8.669  1.00  0.00     0.142 C 
BRANCH   3   8
ATOM      8  O   UNL     1      26.867  40.882   6.953  1.00  0.00    -0.338 OA
BRANCH   8   9
ATOM      9  C   UNL     1      27.731  41.919   6.863  1.00  0.00     0.199 C 
BRANCH   9  10
ATOM     10  C   UNL     1      29.126  41.422   7.287  1.00  0.00     0.179 C 
ATOM     11  C   UNL     1      30.209  39.886   8.647  1.00  0.00     0.282 C 
ATOM     12  O   UNL     1      29.057  40.581   8.351  1.00  0.00    -0.341 OA
ATOM     13  C   UNL     1      30.805  39.171   7.472  1.00  0.00     0.202 C 
ATOM     14  C   UNL     1      31.159  40.223   6.452  1.00  0.00     0.179 C 
ATOM     15  C   UNL     1      29.897  40.934   6.097  1.00  0.00     0.177 C 
BRANCH  11  16
ATOM     16  O   UNL     1      30.042  38.972   9.673  1.00  0.00    -0.341 OA
BRANCH  16  17
ATOM     17  C   UNL     1      29.426  39.456  10.799  1.00  0.00     0.184 C 
ATOM     18  C   UNL     1      30.336  40.299  11.667  1.00  0.00     0.178 C 
ATOM     19  O   UNL     1      30.645  39.657  12.858  1.00  0.00    -0.341 OA
ATOM     20  C   UNL     1      29.507  39.491  13.681  1.00  0.00     0.281 C 
ATOM     21  C   UNL     1      28.909  38.287  11.637  1.00  0.00     0.180 C 
ATOM     22  C   UNL     1      28.365  38.893  12.922  1.00  0.00     0.202 C 
BRANCH  18  23
ATOM     23  C   UNL     1      29.746  41.673  11.853  1.00  0.00     0.191 C 
BRANCH  23  24
ATOM     24  O   UNL     1      30.639  42.512  12.546  1.00  0.00    -0.394 OA
ATOM     25  H   UNL     1      31.272  42.939  11.936  1.00  0.00     0.210 HD
ENDBRANCH  23  24
ENDBRANCH  18  23
BRANCH  20  26
ATOM     26  O   UNL     1      29.175  40.672  14.292  1.00  0.00    -0.350 OA
BRANCH  26  27
ATOM     27  C   UNL     1      28.342  40.675  15.359  1.00  0.00     0.169 C 
BRANCH  27  28
ATOM     28  C   UNL     1      27.022  41.341  15.257  1.00  0.00     0.119 C 
BRANCH  28  29
ATOM     29  N   UNL     1      26.950  42.547  14.504  1.00  0.00    -0.092 NA
ATOM     30  N   UNL     1      26.535  42.551  13.326  1.00  0.00     0.001 N 
ATOM     31  N   UNL     1      25.915  42.365  12.264  1.00  0.00    -0.003 NA
ENDBRANCH  28  29
ENDBRANCH  27  28
ENDBRANCH  26  27
ENDBRANCH  20  26
BRANCH  21  32
ATOM     32  O   UNL     1      27.880  37.645  10.943  1.00  0.00    -0.387 OA
ATOM     33  H   UNL     1      28.055  37.801   9.964  1.00  0.00     0.211 HD
ENDBRANCH  21  32
BRANCH  22  34
ATOM     34  O   UNL     1      27.684  37.908  13.643  1.00  0.00    -0.385 OA
ATOM     35  H   UNL     1      26.797  38.200  13.967  1.00  0.00     0.211 HD
ENDBRANCH  22  34
ENDBRANCH  16  17
ENDBRANCH  11  16
BRANCH  13  36
ATOM     36  O   UNL     1      31.948  38.502   7.892  1.00  0.00    -0.385 OA
ATOM     37  H   UNL     1      32.490  38.970   8.545  1.00  0.00     0.211 HD
ENDBRANCH  13  36
BRANCH  14  38
ATOM     38  O   UNL     1      31.655  39.559   5.307  1.00  0.00    -0.387 OA
ATOM     39  H   UNL     1      32.575  39.234   5.472  1.00  0.00     0.211 HD
ENDBRANCH  14  38
BRANCH  15  40
ATOM     40  O   UNL     1      29.123  40.050   5.310  1.00  0.00    -0.387 OA
ATOM     41  H   UNL     1      29.471  39.145   5.544  1.00  0.00     0.211 HD
ENDBRANCH  15  40
ENDBRANCH   9  10
ENDBRANCH   8   9
ENDBRANCH   3   8
BRANCH   3  42
ATOM     42  C   UNL     1      25.750  41.290   4.949  1.00  0.00     0.364 C 
ATOM     43  O   UNL     1      25.195  42.296   4.453  1.00  0.00    -0.246 OA
BRANCH  42  44
ATOM     44  O   UNL     1      26.474  40.453   4.148  1.00  0.00    -0.477 OA
ATOM     45  H   UNL     1      26.403  40.475   3.133  1.00  0.00     0.296 HD
ENDBRANCH  42  44
ENDBRANCH   3  42
BRANCH   6  46
ATOM     46  O   UNL     1      24.992  42.621   9.337  1.00  0.00    -0.391 OA
ATOM     47  H   UNL     1      25.577  42.020   9.878  1.00  0.00     0.211 HD
ENDBRANCH   6  46
BRANCH   7  48
ATOM     48  N   UNL     1      23.639  40.000   9.815  1.00  0.00    -0.348 N 
ATOM     49  C   UNL     1      24.196  39.426  10.983  1.00  0.00     0.217 C 
ATOM     50  H   UNL     1      22.619  40.166   9.774  1.00  0.00     0.163 HD
ATOM     51  C   UNL     1      23.369  39.039  12.164  1.00  0.00     0.114 C 
ATOM     52  O   UNL     1      25.443  39.239  11.015  1.00  0.00    -0.275 OA
ENDBRANCH   7  48
ENDBRANCH   1   2
BRANCH   1  53
ATOM     53  O   UNL     1      22.973  37.604   6.825  1.00  0.00    -0.388 OA
ATOM     54  H   UNL     1      22.214  37.074   7.205  1.00  0.00     0.211 HD
ENDBRANCH   1  53
BRANCH   1  55
ATOM     55  C   UNL     1      25.011  37.435   7.999  1.00  0.00     0.165 C 
BRANCH  55  56
ATOM     56  O   UNL     1      25.608  37.053   6.822  1.00  0.00    -0.388 OA
ATOM     57  H   UNL     1      26.440  36.540   6.940  1.00  0.00     0.211 HD
ENDBRANCH  55  56
BRANCH  55  58
ATOM     58  C   UNL     1      24.694  36.259   8.863  1.00  0.00     0.154 C 
BRANCH  58  59
ATOM     59  N   UNL     1      25.426  36.196  10.077  1.00  0.00    -0.319 N 
ATOM     60  C   UNL     1      24.926  35.717  11.317  1.00  0.00     0.407 C 
ATOM     61  H   UNL     1      26.452  36.531  10.106  1.00  0.00     0.167 HD
ATOM     62  O   UNL     1      23.764  35.294  11.440  1.00  0.00    -0.225 OA
BRANCH  60  63
ATOM     63  O   UNL     1      25.770  35.717  12.442  1.00  0.00    -0.443 OA
BRANCH  63  64
ATOM     64  C   UNL     1      26.474  34.576  12.805  1.00  0.00     0.294 C 
BRANCH  64  65
ATOM     65  C   UNL     1      27.834  34.841  13.313  1.00  0.00     0.120 A 
ATOM     66  C   UNL     1      29.008  34.770  12.589  1.00  0.00     0.139 A 
ATOM     67  N   UNL     1      28.201  35.186  14.554  1.00  0.00    -0.132 NA
ATOM     68  N   UNL     1      30.052  35.068  13.400  1.00  0.00    -0.241 N 
ATOM     69  N   UNL     1      29.525  35.316  14.579  1.00  0.00    -0.066 NA
BRANCH  68  70
ATOM     70  C   UNL     1      31.448  35.086  12.980  1.00  0.00     0.268 C 
BRANCH  70  71
ATOM     71  C   UNL     1      32.222  35.825  14.040  1.00  0.00     0.327 C 
ATOM     72  O   UNL     1      32.242  37.070  14.100  1.00  0.00    -0.250 OA
BRANCH  71  73
ATOM     73  O   UNL     1      32.949  35.143  15.000  1.00  0.00    -0.465 OA
BRANCH  73  74
ATOM     74  C   UNL     1      33.185  35.604  16.299  1.00  0.00     0.229 C 
ATOM     75  C   UNL     1      34.620  36.013  16.527  1.00  0.00     0.049 C 
ENDBRANCH  73  74
ENDBRANCH  71  73
ENDBRANCH  70  71
ENDBRANCH  68  70
ENDBRANCH  64  65
ENDBRANCH  63  64
ENDBRANCH  60  63
ENDBRANCH  58  59
ENDBRANCH  55  58
ENDBRANCH   1  55
TORSDOF 33
BEGIN_RES LYS A 131
REMARK  4 active torsions:
REMARK  status: ('A' for Active; 'I' for Inactive)
REMARK    1  A    between atoms: CA   and  CB  
REMARK    2  A    between atoms: CB   and  CG  
REMARK    3  A    between atoms: CG   and  CD  
REMARK    4  A    between atoms: CD   and  CE  
ROOT
ATOM      1  CA  LYS A 131      29.867  25.555  16.977  1.00 20.52     0.186 C 
ENDROOT
BRANCH   1   2
ATOM      2  CB  LYS A 131      28.345  25.722  17.026  1.00 20.94     0.034 C 
BRANCH   2   3
ATOM      3  CG  LYS A 131      27.602  24.400  16.917  1.00 22.96     0.005 C 
BRANCH   3   4
ATOM      4  CD  LYS A 131      26.150  24.534  17.284  1.00 24.33     0.041 C 
BRANCH   4   5
ATOM      5  CE  LYS A 131      26.007  24.538  18.802  1.00 26.91     0.338 C 
ATOM      6  NZ  LYS A 131      25.515  23.224  19.281  1.00 27.40     0.618 N 
ENDBRANCH   4   5
ENDBRANCH   3   4
ENDBRANCH   2   3
ENDBRANCH   1   2
END_RES LYS A 131
BEGIN_RES LYS A 135
REMARK  4 active torsions:
REMARK  status: ('A' for Active; 'I' for Inactive)
REMARK    5  A    between atoms: CA   and  CB  
REMARK    6  A    between atoms: CB   and  CG  
REMARK    7  A    between atoms: CG   and  CD  
REMARK    8  A    between atoms: CD   and  CE  
ROOT
ATOM      7  CA  LYS A 135      33.193  34.663   9.290  1.00 25.02     0.186 C 
ENDROOT
BRANCH   7   8
ATOM      8  CB  LYS A 135      32.060  35.360  10.034  1.00 26.63     0.034 C 
BRANCH   8   9
ATOM      9  CG  LYS A 135      30.818  35.548   9.201  1.00 29.45     0.005 C 
BRANCH   9  10
ATOM     10  CD  LYS A 135      30.101  34.222   8.999  1.00 32.00     0.041 C 
BRANCH  10  11
ATOM     11  CE  LYS A 135      28.660  34.453   8.588  1.00 34.25     0.338 C 
ATOM     12  NZ  LYS A 135      27.726  33.673   9.446  1.00 35.99     0.618 N 
ENDBRANCH  10  11
ENDBRANCH   9  10
ENDBRANCH   8   9
ENDBRANCH   7   8
END_RES LYS A 135
