REMARK VINA RESULT:    -4.841      1.667      2.437
REMARK INTER + INTRA:         -23.992
REMARK INTER:                 -11.610
REMARK INTRA:                 -12.382
REMARK UNBOUND:               -10.521
REMARK SMILES CC(=O)N[C@@H]1[C@@H](O)C[C@](OC[C@H]2O[C@@H](O[C@H]3[C@H](O)[C@@H](O)[C@H](OCCN=[N+]=[N-])O[C@@H]3CO)[C@H](O)[C@@H](O)[C@H]2O)(C(=O)O)O[C@H]1C(O)[C@H](O)CNC(=O)OCc1cn(CCCCCC(=O)O)nn1
REMARK SMILES IDX 47 1 45 2 43 3 42 4 9 5 8 6 41 7 6 8 5 9 10 10 11 11 12 12
REMARK SMILES IDX 14 13 13 14 32 15 34 16 36 17 15 18 16 19 29 20 28 21 21 22
REMARK SMILES IDX 17 23 19 24 30 25 31 26 22 28 23 29 24 30 25 31 26 32 27 33
REMARK SMILES IDX 18 34 20 36 33 38 35 40 37 42 38 44 39 45 40 46 7 48 4 50
REMARK SMILES IDX 2 51 1 53 3 54 44 55 46 57 48 59 49 60 50 62 51 63 52 64
REMARK SMILES IDX 53 65 54 66 65 67 55 68 64 69 56 70 57 71 58 72 59 73 60 74
REMARK SMILES IDX 61 75 62 76 63 77
REMARK H PARENT 31 27 18 35 20 37 33 39 35 41 37 43 40 47 7 49 4 52 44 56
REMARK H PARENT 46 58 48 61 63 78
REMARK Flexibility Score: inf
ROOT
ATOM      1  C   UNL     1      30.457  26.847  22.612  1.00  0.00     0.154 C 
ENDROOT
BRANCH   1   2
ATOM      2  C   UNL     1      30.828  26.826  21.149  1.00  0.00     0.165 C 
BRANCH   2   3
ATOM      3  C   UNL     1      31.793  27.947  20.931  1.00  0.00     0.176 C 
BRANCH   3   4
ATOM      4  C   UNL     1      31.297  29.312  21.261  1.00  0.00     0.178 C 
ATOM      5  C   UNL     1      29.793  30.914  20.763  1.00  0.00     0.272 C 
ATOM      6  C   UNL     1      30.147  31.408  22.129  1.00  0.00     0.113 C 
ATOM      7  O   UNL     1      30.658  29.972  20.224  1.00  0.00    -0.332 OA
ATOM      8  C   UNL     1      31.565  31.319  22.548  1.00  0.00     0.145 C 
ATOM      9  C   UNL     1      32.357  30.273  21.754  1.00  0.00     0.142 C 
BRANCH   5  10
ATOM     10  O   UNL     1      29.535  31.949  19.867  1.00  0.00    -0.338 OA
BRANCH  10  11
ATOM     11  C   UNL     1      30.594  32.483  19.208  1.00  0.00     0.199 C 
BRANCH  11  12
ATOM     12  C   UNL     1      30.335  32.278  17.727  1.00  0.00     0.179 C 
ATOM     13  C   UNL     1      29.502  30.986  16.102  1.00  0.00     0.282 C 
ATOM     14  O   UNL     1      29.300  31.398  17.453  1.00  0.00    -0.341 OA
ATOM     15  C   UNL     1      30.022  32.024  15.214  1.00  0.00     0.202 C 
ATOM     16  C   UNL     1      29.883  33.451  15.665  1.00  0.00     0.179 C 
ATOM     17  C   UNL     1      29.883  33.612  17.162  1.00  0.00     0.177 C 
BRANCH  13  18
ATOM     18  O   UNL     1      28.413  30.229  15.679  1.00  0.00    -0.341 OA
BRANCH  18  19
ATOM     19  C   UNL     1      27.247  30.482  16.300  1.00  0.00     0.184 C 
ATOM     20  C   UNL     1      26.440  29.248  16.572  1.00  0.00     0.178 C 
ATOM     21  O   UNL     1      25.495  29.629  17.547  1.00  0.00    -0.341 OA
ATOM     22  C   UNL     1      24.578  30.481  17.031  1.00  0.00     0.281 C 
ATOM     23  C   UNL     1      26.299  31.300  15.358  1.00  0.00     0.180 C 
ATOM     24  C   UNL     1      24.869  30.918  15.645  1.00  0.00     0.202 C 
BRANCH  20  25
ATOM     25  C   UNL     1      27.238  28.112  17.155  1.00  0.00     0.191 C 
BRANCH  25  26
ATOM     26  O   UNL     1      28.019  28.546  18.205  1.00  0.00    -0.394 OA
ATOM     27  H   UNL     1      28.323  29.468  17.992  1.00  0.00     0.210 HD
ENDBRANCH  25  26
ENDBRANCH  20  25
BRANCH  22  28
ATOM     28  O   UNL     1      24.315  31.584  17.853  1.00  0.00    -0.350 OA
BRANCH  28  29
ATOM     29  C   UNL     1      23.140  32.216  17.534  1.00  0.00     0.169 C 
BRANCH  29  30
ATOM     30  C   UNL     1      23.251  33.698  17.864  1.00  0.00     0.119 C 
BRANCH  30  31
ATOM     31  N   UNL     1      24.166  34.364  16.950  1.00  0.00    -0.092 NA
ATOM     32  N   UNL     1      23.860  34.473  15.748  1.00  0.00     0.001 N 
ATOM     33  N   UNL     1      23.858  34.226  14.541  1.00  0.00    -0.003 NA
ENDBRANCH  30  31
ENDBRANCH  29  30
ENDBRANCH  28  29
ENDBRANCH  22  28
BRANCH  23  34
ATOM     34  O   UNL     1      26.442  32.654  15.661  1.00  0.00    -0.387 OA
ATOM     35  H   UNL     1      25.656  32.945  16.209  1.00  0.00     0.211 HD
ENDBRANCH  23  34
BRANCH  24  36
ATOM     36  O   UNL     1      24.319  30.091  14.657  1.00  0.00    -0.385 OA
ATOM     37  H   UNL     1      23.383  30.330  14.444  1.00  0.00     0.211 HD
ENDBRANCH  24  36
ENDBRANCH  18  19
ENDBRANCH  13  18
BRANCH  15  38
ATOM     38  O   UNL     1      31.413  31.852  14.957  1.00  0.00    -0.385 OA
ATOM     39  H   UNL     1      31.828  32.709  14.751  1.00  0.00     0.211 HD
ENDBRANCH  15  38
BRANCH  16  40
ATOM     40  O   UNL     1      28.705  34.055  15.191  1.00  0.00    -0.387 OA
ATOM     41  H   UNL     1      28.117  34.357  15.907  1.00  0.00     0.211 HD
ENDBRANCH  16  40
BRANCH  17  42
ATOM     42  O   UNL     1      28.549  33.789  17.607  1.00  0.00    -0.387 OA
ATOM     43  H   UNL     1      28.564  33.512  18.577  1.00  0.00     0.211 HD
ENDBRANCH  17  42
ENDBRANCH  11  12
ENDBRANCH  10  11
ENDBRANCH   5  10
BRANCH   5  44
ATOM     44  C   UNL     1      28.492  30.201  20.899  1.00  0.00     0.364 C 
ATOM     45  O   UNL     1      27.553  30.426  20.104  1.00  0.00    -0.246 OA
BRANCH  44  46
ATOM     46  O   UNL     1      28.309  29.284  21.904  1.00  0.00    -0.477 OA
ATOM     47  H   UNL     1      29.074  28.701  22.285  1.00  0.00     0.296 HD
ENDBRANCH  44  46
ENDBRANCH   5  44
BRANCH   8  48
ATOM     48  O   UNL     1      32.241  32.533  22.632  1.00  0.00    -0.391 OA
ATOM     49  H   UNL     1      31.636  33.185  23.051  1.00  0.00     0.211 HD
ENDBRANCH   8  48
BRANCH   9  50
ATOM     50  N   UNL     1      33.386  29.684  22.537  1.00  0.00    -0.348 N 
ATOM     51  C   UNL     1      34.692  30.229  22.503  1.00  0.00     0.217 C 
ATOM     52  H   UNL     1      33.200  28.866  23.134  1.00  0.00     0.163 HD
ATOM     53  C   UNL     1      35.785  29.635  23.316  1.00  0.00     0.114 C 
ATOM     54  O   UNL     1      34.985  31.234  21.791  1.00  0.00    -0.275 OA
ENDBRANCH   9  50
ENDBRANCH   3   4
BRANCH   3  55
ATOM     55  O   UNL     1      32.278  27.950  19.604  1.00  0.00    -0.388 OA
ATOM     56  H   UNL     1      33.230  27.700  19.596  1.00  0.00     0.211 HD
ENDBRANCH   3  55
ENDBRANCH   2   3
BRANCH   2  57
ATOM     57  O   UNL     1      29.668  27.024  20.409  1.00  0.00    -0.388 OA
ATOM     58  H   UNL     1      29.887  27.680  19.699  1.00  0.00     0.211 HD
ENDBRANCH   2  57
ENDBRANCH   1   2
BRANCH   1  59
ATOM     59  N   UNL     1      29.210  26.219  22.912  1.00  0.00    -0.319 N 
ATOM     60  C   UNL     1      28.381  26.806  23.920  1.00  0.00     0.407 C 
ATOM     61  H   UNL     1      28.882  25.363  22.437  1.00  0.00     0.167 HD
ATOM     62  O   UNL     1      28.747  27.847  24.519  1.00  0.00    -0.225 OA
BRANCH  60  63
ATOM     63  O   UNL     1      27.167  26.262  24.272  1.00  0.00    -0.443 OA
BRANCH  63  64
ATOM     64  C   UNL     1      26.306  25.618  23.401  1.00  0.00     0.294 C 
BRANCH  64  65
ATOM     65  C   UNL     1      25.904  26.357  22.197  1.00  0.00     0.120 A 
ATOM     66  C   UNL     1      24.632  26.587  21.742  1.00  0.00     0.138 A 
ATOM     67  N   UNL     1      26.749  26.932  21.312  1.00  0.00    -0.132 NA
ATOM     68  N   UNL     1      24.728  27.284  20.609  1.00  0.00    -0.252 N 
ATOM     69  N   UNL     1      26.012  27.474  20.381  1.00  0.00    -0.067 NA
BRANCH  68  70
ATOM     70  C   UNL     1      23.612  27.749  19.796  1.00  0.00     0.146 C 
BRANCH  70  71
ATOM     71  C   UNL     1      23.520  26.852  18.563  1.00  0.00     0.024 C 
BRANCH  71  72
ATOM     72  C   UNL     1      22.154  26.912  17.945  1.00  0.00     0.002 C 
BRANCH  72  73
ATOM     73  C   UNL     1      22.235  27.545  16.586  1.00  0.00     0.012 C 
BRANCH  73  74
ATOM     74  C   UNL     1      21.169  28.560  16.339  1.00  0.00     0.122 C 
BRANCH  74  75
ATOM     75  C   UNL     1      21.404  29.219  15.024  1.00  0.00     0.303 C 
ATOM     76  O   UNL     1      21.258  30.456  14.911  1.00  0.00    -0.252 OA
BRANCH  75  77
ATOM     77  O   UNL     1      21.786  28.480  13.909  1.00  0.00    -0.481 OA
ATOM     78  H   UNL     1      21.461  27.516  13.808  1.00  0.00     0.296 HD
ENDBRANCH  75  77
ENDBRANCH  74  75
ENDBRANCH  73  74
ENDBRANCH  72  73
ENDBRANCH  71  72
ENDBRANCH  70  71
ENDBRANCH  68  70
ENDBRANCH  64  65
ENDBRANCH  63  64
ENDBRANCH  60  63
ENDBRANCH   1  59
TORSDOF 36
BEGIN_RES LYS A 131
REMARK  4 active torsions:
REMARK  status: ('A' for Active; 'I' for Inactive)
REMARK    1  A    between atoms: CA   and  CB  
REMARK    2  A    between atoms: CB   and  CG  
REMARK    3  A    between atoms: CG   and  CD  
REMARK    4  A    between atoms: CD   and  CE  
ROOT
ATOM      1  CA  LYS A 131      29.867  25.555  16.977  1.00 20.52     0.186 C 
ENDROOT
BRANCH   1   2
ATOM      2  CB  LYS A 131      28.345  25.722  17.026  1.00 20.94     0.034 C 
BRANCH   2   3
ATOM      3  CG  LYS A 131      27.608  24.395  17.124  1.00 22.96     0.005 C 
BRANCH   3   4
ATOM      4  CD  LYS A 131      26.408  24.479  18.026  1.00 24.33     0.041 C 
BRANCH   4   5
ATOM      5  CE  LYS A 131      25.225  23.777  17.368  1.00 26.91     0.338 C 
ATOM      6  NZ  LYS A 131      25.382  22.306  17.453  1.00 27.40     0.618 N 
ENDBRANCH   4   5
ENDBRANCH   3   4
ENDBRANCH   2   3
ENDBRANCH   1   2
END_RES LYS A 131
BEGIN_RES LYS A 135
REMARK  4 active torsions:
REMARK  status: ('A' for Active; 'I' for Inactive)
REMARK    5  A    between atoms: CA   and  CB  
REMARK    6  A    between atoms: CB   and  CG  
REMARK    7  A    between atoms: CG   and  CD  
REMARK    8  A    between atoms: CD   and  CE  
ROOT
ATOM      7  CA  LYS A 135      33.193  34.663   9.290  1.00 25.02     0.186 C 
ENDROOT
BRANCH   7   8
ATOM      8  CB  LYS A 135      32.060  35.360  10.034  1.00 26.63     0.034 C 
BRANCH   8   9
ATOM      9  CG  LYS A 135      30.801  35.501   9.218  1.00 29.45     0.005 C 
BRANCH   9  10
ATOM     10  CD  LYS A 135      29.991  34.214   9.255  1.00 32.00     0.041 C 
BRANCH  10  11
ATOM     11  CE  LYS A 135      28.755  34.388  10.117  1.00 34.25     0.338 C 
ATOM     12  NZ  LYS A 135      27.569  33.741   9.490  1.00 35.99     0.618 N 
ENDBRANCH  10  11
ENDBRANCH   9  10
ENDBRANCH   8   9
ENDBRANCH   7   8
END_RES LYS A 135
