REMARK VINA RESULT:    -3.969      5.194      9.863
REMARK INTER + INTRA:         -20.715
REMARK INTER:                  -9.770
REMARK INTRA:                 -10.944
REMARK UNBOUND:               -10.944
REMARK SMILES CC(=O)N[C@@H]1[C@@H](O)C[C@](OC[C@H]2O[C@@H](O[C@H]3[C@H](O)[C@@H](O)[C@H](OCCN=[N+]=[N-])O[C@@H]3CO)[C@H](O)[C@@H](O)[C@H]2O)(C(=O)O)O[C@H]1C(O)[C@H](O)CNC(=O)OCc1cn(-c2cccnc2)nn1
REMARK SMILES IDX 9 1 8 2 6 3 5 4 42 5 41 6 10 7 11 8 12 9 14 10 13 11 32 12
REMARK SMILES IDX 34 13 36 14 15 15 16 16 29 17 28 18 21 19 17 20 19 21 30 22
REMARK SMILES IDX 31 23 22 25 23 26 24 27 25 28 26 29 27 30 18 31 20 33 33 35
REMARK SMILES IDX 35 37 37 39 38 41 39 42 40 43 7 45 43 47 44 48 45 50 46 51
REMARK SMILES IDX 47 53 48 54 49 55 50 57 51 58 52 59 53 60 54 61 63 62 55 63
REMARK SMILES IDX 62 64 56 65 57 66 61 67 58 68 60 69 59 70 4 71 2 72 1 74
REMARK SMILES IDX 3 75
REMARK H PARENT 31 24 18 32 20 34 33 36 35 38 37 40 40 44 7 46 44 49 46 52
REMARK H PARENT 48 56 4 73
REMARK Flexibility Score: inf
ROOT
ATOM      1  C   UNL     1      31.282  37.256  14.815  1.00  0.00     0.272 C 
ATOM      2  C   UNL     1      31.879  36.739  13.570  1.00  0.00     0.113 C 
ATOM      3  C   UNL     1      31.912  35.251  13.536  1.00  0.00     0.145 C 
ATOM      4  C   UNL     1      30.676  34.593  14.096  1.00  0.00     0.142 C 
ATOM      5  C   UNL     1      29.653  35.562  14.571  1.00  0.00     0.178 C 
ATOM      6  O   UNL     1      30.189  36.588  15.337  1.00  0.00    -0.332 OA
ENDROOT
BRANCH   1   7
ATOM      7  O   UNL     1      30.852  38.575  14.689  1.00  0.00    -0.338 OA
BRANCH   7   8
ATOM      8  C   UNL     1      30.298  38.932  13.501  1.00  0.00     0.199 C 
BRANCH   8   9
ATOM      9  C   UNL     1      29.574  40.273  13.728  1.00  0.00     0.179 C 
ATOM     10  C   UNL     1      28.451  40.304  11.672  1.00  0.00     0.282 C 
ATOM     11  O   UNL     1      29.338  40.881  12.555  1.00  0.00    -0.341 OA
ATOM     12  C   UNL     1      27.252  39.796  12.397  1.00  0.00     0.202 C 
ATOM     13  C   UNL     1      27.172  40.541  13.738  1.00  0.00     0.179 C 
ATOM     14  C   UNL     1      28.344  40.095  14.599  1.00  0.00     0.177 C 
BRANCH  10  15
ATOM     15  O   UNL     1      29.164  39.326  10.982  1.00  0.00    -0.341 OA
BRANCH  15  16
ATOM     16  C   UNL     1      29.859  39.783   9.911  1.00  0.00     0.184 C 
ATOM     17  C   UNL     1      29.450  39.236   8.578  1.00  0.00     0.178 C 
ATOM     18  O   UNL     1      29.819  40.173   7.613  1.00  0.00    -0.341 OA
ATOM     19  C   UNL     1      31.095  40.693   7.799  1.00  0.00     0.281 C 
ATOM     20  C   UNL     1      31.356  39.500   9.994  1.00  0.00     0.180 C 
ATOM     21  C   UNL     1      31.987  39.796   8.626  1.00  0.00     0.202 C 
BRANCH  17  22
ATOM     22  C   UNL     1      28.016  38.893   8.412  1.00  0.00     0.191 C 
BRANCH  22  23
ATOM     23  O   UNL     1      27.651  37.779   9.122  1.00  0.00    -0.394 OA
ATOM     24  H   UNL     1      27.427  37.066   8.471  1.00  0.00     0.210 HD
ENDBRANCH  22  23
ENDBRANCH  17  22
BRANCH  19  25
ATOM     25  O   UNL     1      31.102  41.947   8.336  1.00  0.00    -0.350 OA
BRANCH  25  26
ATOM     26  C   UNL     1      32.217  42.704   8.271  1.00  0.00     0.169 C 
BRANCH  26  27
ATOM     27  C   UNL     1      32.596  43.516   9.459  1.00  0.00     0.119 C 
BRANCH  27  28
ATOM     28  N   UNL     1      31.902  43.250  10.672  1.00  0.00    -0.092 NA
ATOM     29  N   UNL     1      30.744  43.664  10.891  1.00  0.00     0.001 N 
ATOM     30  N   UNL     1      29.901  44.517  11.219  1.00  0.00    -0.003 NA
ENDBRANCH  27  28
ENDBRANCH  26  27
ENDBRANCH  25  26
ENDBRANCH  19  25
BRANCH  20  31
ATOM     31  O   UNL     1      31.938  40.370  10.905  1.00  0.00    -0.387 OA
ATOM     32  H   UNL     1      31.445  40.413  11.766  1.00  0.00     0.211 HD
ENDBRANCH  20  31
BRANCH  21  33
ATOM     33  O   UNL     1      32.284  38.625   7.933  1.00  0.00    -0.385 OA
ATOM     34  H   UNL     1      31.730  37.896   8.307  1.00  0.00     0.211 HD
ENDBRANCH  21  33
ENDBRANCH  15  16
ENDBRANCH  10  15
BRANCH  12  35
ATOM     35  O   UNL     1      26.087  40.202  11.720  1.00  0.00    -0.385 OA
ATOM     36  H   UNL     1      25.918  41.168  11.943  1.00  0.00     0.211 HD
ENDBRANCH  12  35
BRANCH  13  37
ATOM     37  O   UNL     1      25.963  40.383  14.364  1.00  0.00    -0.387 OA
ATOM     38  H   UNL     1      25.888  39.465  14.726  1.00  0.00     0.211 HD
ENDBRANCH  13  37
BRANCH  14  39
ATOM     39  O   UNL     1      28.178  38.798  15.043  1.00  0.00    -0.387 OA
ATOM     40  H   UNL     1      27.531  38.819  15.798  1.00  0.00     0.211 HD
ENDBRANCH  14  39
ENDBRANCH   8   9
ENDBRANCH   7   8
ENDBRANCH   1   7
BRANCH   1  41
ATOM     41  C   UNL     1      32.380  37.258  15.861  1.00  0.00     0.364 C 
ATOM     42  O   UNL     1      32.551  36.234  16.542  1.00  0.00    -0.246 OA
BRANCH  41  43
ATOM     43  O   UNL     1      33.191  38.343  16.088  1.00  0.00    -0.477 OA
ATOM     44  H   UNL     1      34.158  38.296  16.385  1.00  0.00     0.296 HD
ENDBRANCH  41  43
ENDBRANCH   1  41
BRANCH   3  45
ATOM     45  O   UNL     1      32.082  34.890  12.179  1.00  0.00    -0.391 OA
ATOM     46  H   UNL     1      32.930  34.433  12.021  1.00  0.00     0.211 HD
ENDBRANCH   3  45
BRANCH   5  47
ATOM     47  C   UNL     1      28.707  36.068  13.535  1.00  0.00     0.176 C 
BRANCH  47  48
ATOM     48  O   UNL     1      27.400  36.013  14.084  1.00  0.00    -0.388 OA
ATOM     49  H   UNL     1      27.477  35.855  15.065  1.00  0.00     0.211 HD
ENDBRANCH  47  48
BRANCH  47  50
ATOM     50  C   UNL     1      28.643  35.307  12.249  1.00  0.00     0.165 C 
BRANCH  50  51
ATOM     51  O   UNL     1      28.549  36.386  11.269  1.00  0.00    -0.388 OA
ATOM     52  H   UNL     1      28.940  37.169  11.727  1.00  0.00     0.211 HD
ENDBRANCH  50  51
BRANCH  50  53
ATOM     53  C   UNL     1      27.377  34.551  12.004  1.00  0.00     0.154 C 
BRANCH  53  54
ATOM     54  N   UNL     1      26.379  35.195  11.212  1.00  0.00    -0.319 N 
ATOM     55  C   UNL     1      24.997  34.864  11.471  1.00  0.00     0.407 C 
ATOM     56  H   UNL     1      26.532  35.886  10.484  1.00  0.00     0.167 HD
ATOM     57  O   UNL     1      24.751  34.038  12.374  1.00  0.00    -0.225 OA
BRANCH  55  58
ATOM     58  O   UNL     1      23.974  35.432  10.755  1.00  0.00    -0.443 OA
BRANCH  58  59
ATOM     59  C   UNL     1      24.099  35.605   9.365  1.00  0.00     0.294 C 
BRANCH  59  60
ATOM     60  C   UNL     1      24.287  37.043   9.078  1.00  0.00     0.121 A 
ATOM     61  C   UNL     1      24.060  37.736   7.911  1.00  0.00     0.144 A 
ATOM     62  N   UNL     1      24.741  37.981   9.962  1.00  0.00    -0.131 NA
ATOM     63  N   UNL     1      24.365  39.030   8.099  1.00  0.00    -0.219 N 
ATOM     64  N   UNL     1      24.774  39.145   9.349  1.00  0.00    -0.062 NA
BRANCH  63  65
ATOM     65  C   UNL     1      24.300  40.142   7.211  1.00  0.00     0.085 A 
ATOM     66  C   UNL     1      25.332  40.474   6.358  1.00  0.00     0.031 A 
ATOM     67  C   UNL     1      23.184  40.955   7.170  1.00  0.00     0.139 A 
ATOM     68  C   UNL     1      25.249  41.558   5.514  1.00  0.00     0.022 A 
ATOM     69  N   UNL     1      23.114  42.020   6.334  1.00  0.00    -0.262 NA
ATOM     70  C   UNL     1      24.120  42.345   5.503  1.00  0.00     0.111 A 
ENDBRANCH  63  65
ENDBRANCH  59  60
ENDBRANCH  58  59
ENDBRANCH  55  58
ENDBRANCH  53  54
ENDBRANCH  50  53
ENDBRANCH  47  50
ENDBRANCH   5  47
BRANCH   4  71
ATOM     71  N   UNL     1      31.026  33.674  15.175  1.00  0.00    -0.348 N 
ATOM     72  C   UNL     1      30.223  32.578  15.573  1.00  0.00     0.217 C 
ATOM     73  H   UNL     1      31.926  33.804  15.713  1.00  0.00     0.163 HD
ATOM     74  C   UNL     1      30.622  31.666  16.690  1.00  0.00     0.114 C 
ATOM     75  O   UNL     1      29.134  32.343  14.982  1.00  0.00    -0.275 OA
ENDBRANCH   4  71
TORSDOF 30
BEGIN_RES LYS A 131
REMARK  4 active torsions:
REMARK  status: ('A' for Active; 'I' for Inactive)
REMARK    1  A    between atoms: CA   and  CB  
REMARK    2  A    between atoms: CB   and  CG  
REMARK    3  A    between atoms: CG   and  CD  
REMARK    4  A    between atoms: CD   and  CE  
ROOT
ATOM      1  CA  LYS A 131      29.867  25.555  16.977  1.00 20.52     0.186 C 
ENDROOT
BRANCH   1   2
ATOM      2  CB  LYS A 131      28.345  25.722  17.026  1.00 20.94     0.034 C 
BRANCH   2   3
ATOM      3  CG  LYS A 131      27.602  24.400  16.914  1.00 22.96     0.005 C 
BRANCH   3   4
ATOM      4  CD  LYS A 131      26.588  24.226  18.011  1.00 24.33     0.041 C 
BRANCH   4   5
ATOM      5  CE  LYS A 131      26.004  25.584  18.385  1.00 26.91     0.338 C 
ATOM      6  NZ  LYS A 131      25.830  25.688  19.853  1.00 27.40     0.618 N 
ENDBRANCH   4   5
ENDBRANCH   3   4
ENDBRANCH   2   3
ENDBRANCH   1   2
END_RES LYS A 131
BEGIN_RES LYS A 135
REMARK  4 active torsions:
REMARK  status: ('A' for Active; 'I' for Inactive)
REMARK    5  A    between atoms: CA   and  CB  
REMARK    6  A    between atoms: CB   and  CG  
REMARK    7  A    between atoms: CG   and  CD  
REMARK    8  A    between atoms: CD   and  CE  
ROOT
ATOM      7  CA  LYS A 135      33.193  34.663   9.290  1.00 25.02     0.186 C 
ENDROOT
BRANCH   7   8
ATOM      8  CB  LYS A 135      32.060  35.360  10.034  1.00 26.63     0.034 C 
BRANCH   8   9
ATOM      9  CG  LYS A 135      30.848  35.622   9.177  1.00 29.45     0.005 C 
BRANCH   9  10
ATOM     10  CD  LYS A 135      30.177  34.316   8.782  1.00 32.00     0.041 C 
BRANCH  10  11
ATOM     11  CE  LYS A 135      28.795  34.577   8.215  1.00 34.25     0.338 C 
ATOM     12  NZ  LYS A 135      28.869  35.426   6.994  1.00 35.99     0.618 N 
ENDBRANCH  10  11
ENDBRANCH   9  10
ENDBRANCH   8   9
ENDBRANCH   7   8
END_RES LYS A 135
