REMARK VINA RESULT:    -7.345      4.317     10.224
REMARK INTER + INTRA:         -21.002
REMARK INTER:                 -10.622
REMARK INTRA:                 -10.381
REMARK UNBOUND:                -1.206
REMARK SMILES CC(=O)N[C@@H]1[C@@H](O)C[C@](OC[C@H]2O[C@@H](O[C@H]3[C@H](O)[C@@H](O)[C@H](OCCN=[N+]=[N-])O[C@@H]3CO)[C@H](O)[C@@H](O)[C@H]2O)(C(=O)O)O[C@H]1C(O)[C@H](O)CNC(=O)OCc1cn(C2CCc3ccccc3NC2=O)nn1
REMARK SMILES IDX 43 1 42 2 9 3 8 4 41 5 6 6 5 7 10 8 11 9 12 10 14 11 13 12
REMARK SMILES IDX 32 13 34 14 36 15 15 16 16 17 29 18 28 19 21 20 17 21 19 22
REMARK SMILES IDX 30 23 31 24 22 26 23 27 24 28 25 29 26 30 27 31 18 32 20 34
REMARK SMILES IDX 33 36 35 38 37 40 38 42 39 43 40 44 7 46 4 48 2 49 1 51 3 52
REMARK SMILES IDX 44 53 45 55 46 56 47 58 48 59 49 60 50 62 51 63 52 64 53 65
REMARK SMILES IDX 54 66 69 67 55 68 68 69 56 70 57 71 66 73 65 74 67 75 64 77
REMARK SMILES IDX 59 78 63 79 60 80 62 81 61 82 58 83
REMARK H PARENT 31 25 18 33 20 35 33 37 35 39 37 41 40 45 7 47 4 50 44 54
REMARK H PARENT 46 57 48 61 65 76
REMARK Flexibility Score: 90.00
ROOT
ATOM      1  C   UNL     1      27.963  36.982  11.480  1.00  0.00     0.176 C 
ENDROOT
BRANCH   1   2
ATOM      2  C   UNL     1      29.290  37.216  12.231  1.00  0.00     0.178 C 
ATOM      3  C   UNL     1      30.268  35.577  13.661  1.00  0.00     0.272 C 
ATOM      4  C   UNL     1      30.013  36.426  14.840  1.00  0.00     0.113 C 
ATOM      5  O   UNL     1      30.014  36.127  12.402  1.00  0.00    -0.332 OA
ATOM      6  C   UNL     1      28.818  37.303  14.675  1.00  0.00     0.145 C 
ATOM      7  C   UNL     1      29.025  38.118  13.406  1.00  0.00     0.142 C 
BRANCH   3   8
ATOM      8  O   UNL     1      29.653  34.375  13.650  1.00  0.00    -0.338 OA
BRANCH   8   9
ATOM      9  C   UNL     1      30.055  33.302  14.312  1.00  0.00     0.199 C 
BRANCH   9  10
ATOM     10  C   UNL     1      29.217  32.443  15.154  1.00  0.00     0.179 C 
ATOM     11  C   UNL     1      29.025  31.822  17.374  1.00  0.00     0.282 C 
ATOM     12  O   UNL     1      29.559  32.775  16.508  1.00  0.00    -0.341 OA
ATOM     13  C   UNL     1      27.938  30.983  16.831  1.00  0.00     0.202 C 
ATOM     14  C   UNL     1      27.056  31.587  15.792  1.00  0.00     0.179 C 
ATOM     15  C   UNL     1      27.724  32.769  15.136  1.00  0.00     0.177 C 
BRANCH  11  16
ATOM     16  O   UNL     1      28.710  32.461  18.591  1.00  0.00    -0.341 OA
BRANCH  16  17
ATOM     17  C   UNL     1      28.011  31.649  19.445  1.00  0.00     0.184 C 
ATOM     18  C   UNL     1      26.924  32.325  20.239  1.00  0.00     0.178 C 
ATOM     19  O   UNL     1      26.257  31.304  20.919  1.00  0.00    -0.341 OA
ATOM     20  C   UNL     1      26.979  30.864  22.019  1.00  0.00     0.281 C 
ATOM     21  C   UNL     1      28.936  30.986  20.454  1.00  0.00     0.180 C 
ATOM     22  C   UNL     1      28.458  31.053  21.859  1.00  0.00     0.202 C 
BRANCH  18  23
ATOM     23  C   UNL     1      25.898  32.990  19.344  1.00  0.00     0.191 C 
BRANCH  23  24
ATOM     24  O   UNL     1      26.463  34.002  18.571  1.00  0.00    -0.394 OA
ATOM     25  H   UNL     1      26.224  33.942  17.621  1.00  0.00     0.210 HD
ENDBRANCH  23  24
ENDBRANCH  18  23
BRANCH  20  26
ATOM     26  O   UNL     1      26.638  29.547  22.269  1.00  0.00    -0.350 OA
BRANCH  26  27
ATOM     27  C   UNL     1      27.083  29.128  23.511  1.00  0.00     0.169 C 
BRANCH  27  28
ATOM     28  C   UNL     1      27.975  27.928  23.490  1.00  0.00     0.119 C 
BRANCH  28  29
ATOM     29  N   UNL     1      27.265  26.798  24.066  1.00  0.00    -0.092 NA
ATOM     30  N   UNL     1      26.315  26.250  23.476  1.00  0.00     0.001 N 
ATOM     31  N   UNL     1      25.773  25.546  22.613  1.00  0.00    -0.003 NA
ENDBRANCH  28  29
ENDBRANCH  27  28
ENDBRANCH  26  27
ENDBRANCH  20  26
BRANCH  21  32
ATOM     32  O   UNL     1      29.270  29.681  20.060  1.00  0.00    -0.387 OA
ATOM     33  H   UNL     1      30.185  29.479  20.387  1.00  0.00     0.211 HD
ENDBRANCH  21  32
BRANCH  22  34
ATOM     34  O   UNL     1      28.844  32.251  22.506  1.00  0.00    -0.385 OA
ATOM     35  H   UNL     1      29.595  32.116  23.115  1.00  0.00     0.211 HD
ENDBRANCH  22  34
ENDBRANCH  16  17
ENDBRANCH  11  16
BRANCH  13  36
ATOM     36  O   UNL     1      28.443  29.735  16.452  1.00  0.00    -0.385 OA
ATOM     37  H   UNL     1      29.018  29.839  15.650  1.00  0.00     0.211 HD
ENDBRANCH  13  36
BRANCH  14  38
ATOM     38  O   UNL     1      25.780  31.889  16.264  1.00  0.00    -0.387 OA
ATOM     39  H   UNL     1      25.760  32.874  16.392  1.00  0.00     0.211 HD
ENDBRANCH  14  38
BRANCH  15  40
ATOM     40  O   UNL     1      27.502  33.935  15.911  1.00  0.00    -0.387 OA
ATOM     41  H   UNL     1      28.389  34.215  16.225  1.00  0.00     0.211 HD
ENDBRANCH  15  40
ENDBRANCH   9  10
ENDBRANCH   8   9
ENDBRANCH   3   8
BRANCH   3  42
ATOM     42  C   UNL     1      31.771  35.420  13.581  1.00  0.00     0.364 C 
ATOM     43  O   UNL     1      32.499  35.753  14.487  1.00  0.00    -0.246 OA
BRANCH  42  44
ATOM     44  O   UNL     1      32.347  34.876  12.429  1.00  0.00    -0.477 OA
ATOM     45  H   UNL     1      31.798  34.584  11.637  1.00  0.00     0.296 HD
ENDBRANCH  42  44
ENDBRANCH   3  42
BRANCH   6  46
ATOM     46  O   UNL     1      27.700  36.465  14.527  1.00  0.00    -0.391 OA
ATOM     47  H   UNL     1      27.874  35.693  13.963  1.00  0.00     0.211 HD
ENDBRANCH   6  46
BRANCH   7  48
ATOM     48  N   UNL     1      30.031  39.092  13.663  1.00  0.00    -0.348 N 
ATOM     49  C   UNL     1      29.746  40.481  13.539  1.00  0.00     0.217 C 
ATOM     50  H   UNL     1      31.000  38.814  13.945  1.00  0.00     0.163 HD
ATOM     51  C   UNL     1      30.763  41.536  13.794  1.00  0.00     0.114 C 
ATOM     52  O   UNL     1      28.600  40.806  13.205  1.00  0.00    -0.275 OA
ENDBRANCH   7  48
ENDBRANCH   1   2
BRANCH   1  53
ATOM     53  O   UNL     1      27.388  35.785  11.919  1.00  0.00    -0.388 OA
ATOM     54  H   UNL     1      26.503  35.612  11.529  1.00  0.00     0.211 HD
ENDBRANCH   1  53
BRANCH   1  55
ATOM     55  C   UNL     1      26.976  38.073  11.682  1.00  0.00     0.165 C 
BRANCH  55  56
ATOM     56  O   UNL     1      25.722  37.659  12.116  1.00  0.00    -0.388 OA
ATOM     57  H   UNL     1      25.317  37.115  11.390  1.00  0.00     0.211 HD
ENDBRANCH  55  56
BRANCH  55  58
ATOM     58  C   UNL     1      26.770  39.002  10.530  1.00  0.00     0.154 C 
BRANCH  58  59
ATOM     59  N   UNL     1      26.026  38.467   9.430  1.00  0.00    -0.319 N 
ATOM     60  C   UNL     1      24.658  38.730   9.190  1.00  0.00     0.407 C 
ATOM     61  H   UNL     1      26.523  37.843   8.762  1.00  0.00     0.167 HD
ATOM     62  O   UNL     1      23.998  39.474   9.955  1.00  0.00    -0.225 OA
BRANCH  60  63
ATOM     63  O   UNL     1      24.049  38.159   8.097  1.00  0.00    -0.443 OA
BRANCH  63  64
ATOM     64  C   UNL     1      23.458  36.906   8.108  1.00  0.00     0.294 C 
BRANCH  64  65
ATOM     65  C   UNL     1      23.833  36.165   9.314  1.00  0.00     0.120 A 
ATOM     66  C   UNL     1      23.044  35.942  10.416  1.00  0.00     0.139 A 
ATOM     67  N   UNL     1      25.012  35.559   9.596  1.00  0.00    -0.132 NA
ATOM     68  N   UNL     1      23.741  35.220  11.329  1.00  0.00    -0.240 N 
ATOM     69  N   UNL     1      24.927  35.008  10.797  1.00  0.00    -0.066 NA
BRANCH  68  70
ATOM     70  C   UNL     1      23.264  34.765  12.645  1.00  0.00     0.198 C 
BRANCH  70  71
ATOM     71  C   UNL     1      22.062  33.935  12.390  1.00  0.00     0.042 CG0
ATOM     72  G   UNL     1      21.651  32.991  13.466  1.00  0.00     0.000 G0
ENDBRANCH  70  71
BRANCH  70  73
ATOM     73  C   UNL     1      24.405  34.089  13.270  1.00  0.00     0.249 C 
ATOM     74  N   UNL     1      24.737  32.710  13.322  1.00  0.00    -0.324 N 
ATOM     75  O   UNL     1      25.217  34.857  13.853  1.00  0.00    -0.272 OA
ATOM     76  H   UNL     1      25.733  32.439  13.471  1.00  0.00     0.170 HD
BRANCH  74  77
ATOM     77  C   UNL     1      23.773  31.645  13.178  1.00  0.00     0.044 A 
ATOM     78  C   UNL     1      22.385  31.707  13.223  1.00  0.00    -0.024 A 
ATOM     79  C   UNL     1      24.387  30.429  12.972  1.00  0.00     0.026 A 
ATOM     80  C   UNL     1      21.607  30.584  13.065  1.00  0.00     0.006 A 
ATOM     81  C   UNL     1      23.629  29.285  12.810  1.00  0.00     0.002 A 
ATOM     82  C   UNL     1      22.234  29.380  12.859  1.00  0.00     0.000 A 
BRANCH  78  83
ATOM     83  C   UNL     1      21.627  32.972  13.440  1.00  0.00     0.040 CG0
ATOM     84  G   UNL     1      22.070  33.929  12.388  1.00  0.00     0.000 G0
ENDBRANCH  78  83
ENDBRANCH  74  77
ENDBRANCH  70  73
ENDBRANCH  68  70
ENDBRANCH  64  65
ENDBRANCH  63  64
ENDBRANCH  60  63
ENDBRANCH  58  59
ENDBRANCH  55  58
ENDBRANCH   1  55
TORSDOF 30
BEGIN_RES LYS A 131
REMARK  4 active torsions:
REMARK  status: ('A' for Active; 'I' for Inactive)
REMARK    1  A    between atoms: CA   and  CB  
REMARK    2  A    between atoms: CB   and  CG  
REMARK    3  A    between atoms: CG   and  CD  
REMARK    4  A    between atoms: CD   and  CE  
ROOT
ATOM      1  CA  LYS A 131      29.867  25.555  16.977  1.00 20.52     0.186 C 
ENDROOT
BRANCH   1   2
ATOM      2  CB  LYS A 131      28.345  25.722  17.026  1.00 20.94     0.034 C 
BRANCH   2   3
ATOM      3  CG  LYS A 131      27.601  24.402  16.896  1.00 22.96     0.005 C 
BRANCH   3   4
ATOM      4  CD  LYS A 131      26.152  24.529  17.275  1.00 24.33     0.041 C 
BRANCH   4   5
ATOM      5  CE  LYS A 131      26.043  25.020  18.715  1.00 26.91     0.338 C 
ATOM      6  NZ  LYS A 131      25.493  23.954  19.586  1.00 27.40     0.618 N 
ENDBRANCH   4   5
ENDBRANCH   3   4
ENDBRANCH   2   3
ENDBRANCH   1   2
END_RES LYS A 131
BEGIN_RES LYS A 135
REMARK  4 active torsions:
REMARK  status: ('A' for Active; 'I' for Inactive)
REMARK    5  A    between atoms: CA   and  CB  
REMARK    6  A    between atoms: CB   and  CG  
REMARK    7  A    between atoms: CG   and  CD  
REMARK    8  A    between atoms: CD   and  CE  
ROOT
ATOM      7  CA  LYS A 135      33.193  34.663   9.290  1.00 25.02     0.186 C 
ENDROOT
BRANCH   7   8
ATOM      8  CB  LYS A 135      32.060  35.360  10.034  1.00 26.63     0.034 C 
BRANCH   8   9
ATOM      9  CG  LYS A 135      30.896  35.729   9.151  1.00 29.45     0.005 C 
BRANCH   9  10
ATOM     10  CD  LYS A 135      30.385  34.509   8.399  1.00 32.00     0.041 C 
BRANCH  10  11
ATOM     11  CE  LYS A 135      28.871  34.528   8.320  1.00 34.25     0.338 C 
ATOM     12  NZ  LYS A 135      28.265  33.750   9.436  1.00 35.99     0.618 N 
ENDBRANCH  10  11
ENDBRANCH   9  10
ENDBRANCH   8   9
ENDBRANCH   7   8
END_RES LYS A 135
