REMARK VINA RESULT:    -4.670      4.308      9.971
REMARK INTER + INTRA:         -23.204
REMARK INTER:                 -13.837
REMARK INTRA:                  -9.366
REMARK UNBOUND:               -10.207
REMARK SMILES CC(=O)N[C@@H]1[C@@H](O)C[C@](OC[C@H]2O[C@@H](O[C@H]3[C@H](O)[C@@H](O)[C@H](OCCN=[N+]=[N-])O[C@@H]3CO)[C@H](O)[C@@H](O)[C@H]2O)(C(=O)O)O[C@H]1C(O)[C@H](O)CNC(=O)OCc1cn(C[C@H](CC(=O)O)CC(C)C)nn1
REMARK SMILES IDX 43 1 42 2 9 3 8 4 41 5 6 6 5 7 10 8 11 9 12 10 14 11 13 12
REMARK SMILES IDX 32 13 34 14 36 15 15 16 16 17 29 18 28 19 21 20 17 21 19 22
REMARK SMILES IDX 30 23 31 24 22 26 23 27 24 28 25 29 26 30 27 31 18 32 20 34
REMARK SMILES IDX 33 36 35 38 37 40 38 42 39 43 40 44 7 46 4 48 2 49 1 51 3 52
REMARK SMILES IDX 44 53 45 55 46 56 47 58 48 59 49 60 50 62 51 63 52 64 53 65
REMARK SMILES IDX 54 66 67 67 55 68 66 69 56 70 57 71 58 72 59 73 60 74 61 75
REMARK SMILES IDX 62 77 63 78 64 79 65 80
REMARK H PARENT 31 25 18 33 20 35 33 37 35 39 37 41 40 45 7 47 4 50 44 54
REMARK H PARENT 46 57 48 61 61 76
REMARK Flexibility Score: inf
ROOT
ATOM      1  C   UNL     1      30.754  34.038  14.506  1.00  0.00     0.176 C 
ENDROOT
BRANCH   1   2
ATOM      2  C   UNL     1      30.800  35.528  14.697  1.00  0.00     0.178 C 
ATOM      3  C   UNL     1      29.979  36.972  12.950  1.00  0.00     0.272 C 
ATOM      4  C   UNL     1      31.363  37.205  12.461  1.00  0.00     0.113 C 
ATOM      5  O   UNL     1      29.851  36.038  13.870  1.00  0.00    -0.332 OA
ATOM      6  C   UNL     1      32.435  36.349  13.003  1.00  0.00     0.145 C 
ATOM      7  C   UNL     1      32.203  35.973  14.468  1.00  0.00     0.142 C 
BRANCH   3   8
ATOM      8  O   UNL     1      29.143  36.641  11.848  1.00  0.00    -0.338 OA
BRANCH   8   9
ATOM      9  C   UNL     1      28.247  35.647  12.090  1.00  0.00     0.199 C 
BRANCH   9  10
ATOM     10  C   UNL     1      26.817  36.128  11.763  1.00  0.00     0.179 C 
ATOM     11  C   UNL     1      25.671  37.814  10.652  1.00  0.00     0.282 C 
ATOM     12  O   UNL     1      26.834  37.065  10.749  1.00  0.00    -0.341 OA
ATOM     13  C   UNL     1      24.514  36.874  11.026  1.00  0.00     0.202 C 
ATOM     14  C   UNL     1      24.808  35.468  10.545  1.00  0.00     0.179 C 
ATOM     15  C   UNL     1      26.007  34.929  11.248  1.00  0.00     0.177 C 
BRANCH  11  16
ATOM     16  O   UNL     1      25.460  38.131   9.333  1.00  0.00    -0.341 OA
BRANCH  16  17
ATOM     17  C   UNL     1      26.564  38.490   8.605  1.00  0.00     0.184 C 
ATOM     18  C   UNL     1      26.955  39.933   8.731  1.00  0.00     0.178 C 
ATOM     19  O   UNL     1      26.860  40.668   7.586  1.00  0.00    -0.341 OA
ATOM     20  C   UNL     1      27.562  40.176   6.503  1.00  0.00     0.281 C 
ATOM     21  C   UNL     1      26.247  38.228   7.148  1.00  0.00     0.180 C 
ATOM     22  C   UNL     1      27.448  38.703   6.317  1.00  0.00     0.202 C 
BRANCH  18  23
ATOM     23  C   UNL     1      28.335  39.984   9.361  1.00  0.00     0.191 C 
BRANCH  23  24
ATOM     24  O   UNL     1      28.806  38.708   9.656  1.00  0.00    -0.394 OA
ATOM     25  H   UNL     1      28.078  38.098   9.960  1.00  0.00     0.210 HD
ENDBRANCH  23  24
ENDBRANCH  18  23
BRANCH  20  26
ATOM     26  O   UNL     1      28.864  40.645   6.597  1.00  0.00    -0.350 OA
BRANCH  26  27
ATOM     27  C   UNL     1      29.804  39.744   6.124  1.00  0.00     0.169 C 
BRANCH  27  28
ATOM     28  C   UNL     1      31.086  40.530   5.883  1.00  0.00     0.119 C 
BRANCH  28  29
ATOM     29  N   UNL     1      32.138  39.792   6.569  1.00  0.00    -0.092 NA
ATOM     30  N   UNL     1      33.213  39.679   6.028  1.00  0.00     0.001 N 
ATOM     31  N   UNL     1      34.327  39.285   5.656  1.00  0.00    -0.003 NA
ENDBRANCH  28  29
ENDBRANCH  27  28
ENDBRANCH  26  27
ENDBRANCH  20  26
BRANCH  21  32
ATOM     32  O   UNL     1      25.987  36.885   6.948  1.00  0.00    -0.387 OA
ATOM     33  H   UNL     1      26.771  36.377   7.329  1.00  0.00     0.211 HD
ENDBRANCH  21  32
BRANCH  22  34
ATOM     34  O   UNL     1      27.130  38.343   4.991  1.00  0.00    -0.385 OA
ATOM     35  H   UNL     1      27.712  38.869   4.402  1.00  0.00     0.211 HD
ENDBRANCH  22  34
ENDBRANCH  16  17
ENDBRANCH  11  16
BRANCH  13  36
ATOM     36  O   UNL     1      24.169  36.952  12.352  1.00  0.00    -0.385 OA
ATOM     37  H   UNL     1      23.321  36.534  12.580  1.00  0.00     0.211 HD
ENDBRANCH  13  36
BRANCH  14  38
ATOM     38  O   UNL     1      25.102  35.594   9.172  1.00  0.00    -0.387 OA
ATOM     39  H   UNL     1      25.227  34.735   8.740  1.00  0.00     0.211 HD
ENDBRANCH  14  38
BRANCH  15  40
ATOM     40  O   UNL     1      26.771  34.220  10.297  1.00  0.00    -0.387 OA
ATOM     41  H   UNL     1      26.205  33.657   9.746  1.00  0.00     0.211 HD
ENDBRANCH  15  40
ENDBRANCH   9  10
ENDBRANCH   8   9
ENDBRANCH   3   8
BRANCH   3  42
ATOM     42  C   UNL     1      29.382  38.285  13.422  1.00  0.00     0.364 C 
ATOM     43  O   UNL     1      29.716  38.769  14.511  1.00  0.00    -0.246 OA
BRANCH  42  44
ATOM     44  O   UNL     1      28.471  38.947  12.652  1.00  0.00    -0.477 OA
ATOM     45  H   UNL     1      28.564  39.053  11.643  1.00  0.00     0.296 HD
ENDBRANCH  42  44
ENDBRANCH   3  42
BRANCH   6  46
ATOM     46  O   UNL     1      32.753  35.216  12.285  1.00  0.00    -0.391 OA
ATOM     47  H   UNL     1      31.897  34.797  12.020  1.00  0.00     0.211 HD
ENDBRANCH   6  46
BRANCH   7  48
ATOM     48  N   UNL     1      32.639  37.114  15.229  1.00  0.00    -0.348 N 
ATOM     49  C   UNL     1      33.637  36.907  16.253  1.00  0.00     0.217 C 
ATOM     50  H   UNL     1      32.297  38.093  15.118  1.00  0.00     0.163 HD
ATOM     51  C   UNL     1      34.096  38.102  17.044  1.00  0.00     0.114 C 
ATOM     52  O   UNL     1      34.124  35.776  16.498  1.00  0.00    -0.275 OA
ENDBRANCH   7  48
ENDBRANCH   1   2
BRANCH   1  53
ATOM     53  O   UNL     1      29.436  33.589  14.818  1.00  0.00    -0.388 OA
ATOM     54  H   UNL     1      29.047  33.149  14.018  1.00  0.00     0.211 HD
ENDBRANCH   1  53
BRANCH   1  55
ATOM     55  C   UNL     1      31.634  33.201  15.406  1.00  0.00     0.165 C 
BRANCH  55  56
ATOM     56  O   UNL     1      31.289  31.856  14.947  1.00  0.00    -0.388 OA
ATOM     57  H   UNL     1      30.280  31.906  14.935  1.00  0.00     0.211 HD
ENDBRANCH  55  56
BRANCH  55  58
ATOM     58  C   UNL     1      31.168  33.185  16.821  1.00  0.00     0.154 C 
BRANCH  58  59
ATOM     59  N   UNL     1      31.967  33.996  17.669  1.00  0.00    -0.319 N 
ATOM     60  C   UNL     1      31.279  35.050  18.379  1.00  0.00     0.407 C 
ATOM     61  H   UNL     1      32.986  33.937  17.845  1.00  0.00     0.167 HD
ATOM     62  O   UNL     1      30.034  35.197  18.224  1.00  0.00    -0.225 OA
BRANCH  60  63
ATOM     63  O   UNL     1      31.910  35.929  19.230  1.00  0.00    -0.443 OA
BRANCH  63  64
ATOM     64  C   UNL     1      32.346  35.637  20.541  1.00  0.00     0.294 C 
BRANCH  64  65
ATOM     65  C   UNL     1      33.739  35.109  20.589  1.00  0.00     0.120 A 
ATOM     66  C   UNL     1      34.886  35.660  20.066  1.00  0.00     0.138 A 
ATOM     67  N   UNL     1      34.096  33.966  21.181  1.00  0.00    -0.132 NA
ATOM     68  N   UNL     1      35.931  34.825  20.355  1.00  0.00    -0.252 N 
ATOM     69  N   UNL     1      35.400  33.828  21.024  1.00  0.00    -0.067 NA
BRANCH  68  70
ATOM     70  C   UNL     1      37.289  34.989  19.987  1.00  0.00     0.150 C 
BRANCH  70  71
ATOM     71  C   UNL     1      37.738  34.205  18.828  1.00  0.00     0.022 C 
BRANCH  71  72
ATOM     72  C   UNL     1      38.404  32.908  19.102  1.00  0.00     0.128 C 
BRANCH  72  73
ATOM     73  C   UNL     1      38.767  32.624  20.496  1.00  0.00     0.303 C 
ATOM     74  O   UNL     1      39.877  33.023  20.936  1.00  0.00    -0.252 OA
BRANCH  73  75
ATOM     75  O   UNL     1      37.949  31.931  21.379  1.00  0.00    -0.481 OA
ATOM     76  H   UNL     1      38.200  31.856  22.354  1.00  0.00     0.296 HD
ENDBRANCH  73  75
ENDBRANCH  72  73
ENDBRANCH  71  72
BRANCH  71  77
ATOM     77  C   UNL     1      38.425  35.002  17.755  1.00  0.00     0.009 C 
BRANCH  77  78
ATOM     78  C   UNL     1      37.685  35.384  16.554  1.00  0.00    -0.017 C 
ATOM     79  C   UNL     1      37.547  36.826  16.219  1.00  0.00     0.007 C 
ATOM     80  C   UNL     1      38.107  34.648  15.296  1.00  0.00     0.007 C 
ENDBRANCH  77  78
ENDBRANCH  71  77
ENDBRANCH  70  71
ENDBRANCH  68  70
ENDBRANCH  64  65
ENDBRANCH  63  64
ENDBRANCH  60  63
ENDBRANCH  58  59
ENDBRANCH  55  58
ENDBRANCH   1  55
TORSDOF 36
BEGIN_RES LYS A 131
REMARK  4 active torsions:
REMARK  status: ('A' for Active; 'I' for Inactive)
REMARK    1  A    between atoms: CA   and  CB  
REMARK    2  A    between atoms: CB   and  CG  
REMARK    3  A    between atoms: CG   and  CD  
REMARK    4  A    between atoms: CD   and  CE  
ROOT
ATOM      1  CA  LYS A 131      29.867  25.555  16.977  1.00 20.52     0.186 C 
ENDROOT
BRANCH   1   2
ATOM      2  CB  LYS A 131      28.345  25.722  17.026  1.00 20.94     0.034 C 
BRANCH   2   3
ATOM      3  CG  LYS A 131      27.599  24.476  16.575  1.00 22.96     0.005 C 
BRANCH   3   4
ATOM      4  CD  LYS A 131      27.000  23.724  17.731  1.00 24.33     0.041 C 
BRANCH   4   5
ATOM      5  CE  LYS A 131      25.499  23.566  17.513  1.00 26.91     0.338 C 
ATOM      6  NZ  LYS A 131      24.768  24.727  18.074  1.00 27.40     0.618 N 
ENDBRANCH   4   5
ENDBRANCH   3   4
ENDBRANCH   2   3
ENDBRANCH   1   2
END_RES LYS A 131
BEGIN_RES LYS A 135
REMARK  4 active torsions:
REMARK  status: ('A' for Active; 'I' for Inactive)
REMARK    5  A    between atoms: CA   and  CB  
REMARK    6  A    between atoms: CB   and  CG  
REMARK    7  A    between atoms: CG   and  CD  
REMARK    8  A    between atoms: CD   and  CE  
ROOT
ATOM      7  CA  LYS A 135      33.193  34.663   9.290  1.00 25.02     0.186 C 
ENDROOT
BRANCH   7   8
ATOM      8  CB  LYS A 135      32.060  35.360  10.034  1.00 26.63     0.034 C 
BRANCH   8   9
ATOM      9  CG  LYS A 135      30.690  34.878   9.633  1.00 29.45     0.005 C 
BRANCH   9  10
ATOM     10  CD  LYS A 135      30.133  35.725   8.500  1.00 32.00     0.041 C 
BRANCH  10  11
ATOM     11  CE  LYS A 135      29.248  34.889   7.595  1.00 34.25     0.338 C 
ATOM     12  NZ  LYS A 135      28.997  35.583   6.301  1.00 35.99     0.618 N 
ENDBRANCH  10  11
ENDBRANCH   9  10
ENDBRANCH   8   9
ENDBRANCH   7   8
END_RES LYS A 135
