REMARK VINA RESULT:    -4.535      2.318      4.273
REMARK INTER + INTRA:         -21.703
REMARK INTER:                 -10.748
REMARK INTRA:                 -10.955
REMARK UNBOUND:               -10.541
REMARK SMILES CC(=O)N[C@@H]1[C@@H](O)C[C@](OC[C@H]2O[C@@H](O[C@H]3[C@H](O)[C@@H](O)[C@H](OCCN=[N+]=[N-])O[C@@H]3CO)[C@H](O)[C@@H](O)[C@H]2O)(C(=O)O)O[C@H]1C(O)[C@H](O)CNC(=O)OCc1cn(-c2ccccc2)nn1
REMARK SMILES IDX 9 1 8 2 6 3 5 4 42 5 41 6 10 7 11 8 12 9 14 10 13 11 32 12
REMARK SMILES IDX 34 13 36 14 15 15 16 16 29 17 28 18 21 19 17 20 19 21 30 22
REMARK SMILES IDX 31 23 22 25 23 26 24 27 25 28 26 29 27 30 18 31 20 33 33 35
REMARK SMILES IDX 35 37 37 39 38 41 39 42 40 43 7 45 43 47 44 48 45 50 46 51
REMARK SMILES IDX 47 53 48 54 49 55 50 57 51 58 52 59 53 60 54 61 63 62 55 63
REMARK SMILES IDX 62 64 56 65 57 66 61 67 58 68 60 69 59 70 4 71 2 72 1 74
REMARK SMILES IDX 3 75
REMARK H PARENT 31 24 18 32 20 34 33 36 35 38 37 40 40 44 7 46 44 49 46 52
REMARK H PARENT 48 56 4 73
REMARK Flexibility Score: inf
ROOT
ATOM      1  C   UNL     1      30.203  32.228  18.333  1.00  0.00     0.272 C 
ATOM      2  C   UNL     1      30.392  30.903  18.972  1.00  0.00     0.113 C 
ATOM      3  C   UNL     1      29.146  30.227  19.409  1.00  0.00     0.145 C 
ATOM      4  C   UNL     1      28.057  30.393  18.366  1.00  0.00     0.142 C 
ATOM      5  C   UNL     1      27.870  31.883  18.188  1.00  0.00     0.178 C 
ATOM      6  O   UNL     1      29.006  32.324  17.559  1.00  0.00    -0.332 OA
ENDROOT
BRANCH   1   7
ATOM      7  O   UNL     1      31.153  32.578  17.419  1.00  0.00    -0.338 OA
BRANCH   7   8
ATOM      8  C   UNL     1      31.063  32.361  16.120  1.00  0.00     0.199 C 
BRANCH   8   9
ATOM      9  C   UNL     1      31.226  33.423  15.103  1.00  0.00     0.179 C 
ATOM     10  C   UNL     1      29.959  34.494  13.462  1.00  0.00     0.282 C 
ATOM     11  O   UNL     1      30.019  33.385  14.334  1.00  0.00    -0.341 OA
ATOM     12  C   UNL     1      31.211  35.305  13.412  1.00  0.00     0.202 C 
ATOM     13  C   UNL     1      31.581  35.829  14.783  1.00  0.00     0.179 C 
ATOM     14  C   UNL     1      31.211  34.789  15.800  1.00  0.00     0.177 C 
BRANCH  10  15
ATOM     15  O   UNL     1      28.940  35.277  13.864  1.00  0.00    -0.341 OA
BRANCH  15  16
ATOM     16  C   UNL     1      28.421  36.240  13.079  1.00  0.00     0.184 C 
ATOM     17  C   UNL     1      27.218  36.958  13.647  1.00  0.00     0.178 C 
ATOM     18  O   UNL     1      26.521  37.466  12.533  1.00  0.00    -0.341 OA
ATOM     19  C   UNL     1      25.739  36.387  12.068  1.00  0.00     0.281 C 
ATOM     20  C   UNL     1      28.059  35.741  11.680  1.00  0.00     0.180 C 
ATOM     21  C   UNL     1      26.633  35.232  11.662  1.00  0.00     0.202 C 
BRANCH  17  22
ATOM     22  C   UNL     1      27.605  38.147  14.500  1.00  0.00     0.191 C 
BRANCH  22  23
ATOM     23  O   UNL     1      28.252  37.675  15.645  1.00  0.00    -0.394 OA
ATOM     24  H   UNL     1      28.995  37.036  15.409  1.00  0.00     0.210 HD
ENDBRANCH  22  23
ENDBRANCH  17  22
BRANCH  19  25
ATOM     25  O   UNL     1      24.960  36.733  11.007  1.00  0.00    -0.350 OA
BRANCH  25  26
ATOM     26  C   UNL     1      24.848  35.839   9.978  1.00  0.00     0.169 C 
BRANCH  26  27
ATOM     27  C   UNL     1      25.241  36.360   8.632  1.00  0.00     0.119 C 
BRANCH  27  28
ATOM     28  N   UNL     1      26.211  37.389   8.721  1.00  0.00    -0.092 NA
ATOM     29  N   UNL     1      26.297  38.291   7.867  1.00  0.00     0.001 N 
ATOM     30  N   UNL     1      26.453  38.885   6.788  1.00  0.00    -0.003 NA
ENDBRANCH  27  28
ENDBRANCH  26  27
ENDBRANCH  25  26
ENDBRANCH  19  25
BRANCH  20  31
ATOM     31  O   UNL     1      28.153  36.729  10.710  1.00  0.00    -0.387 OA
ATOM     32  H   UNL     1      28.792  37.435  10.970  1.00  0.00     0.211 HD
ENDBRANCH  20  31
BRANCH  21  33
ATOM     33  O   UNL     1      26.446  34.147  12.494  1.00  0.00    -0.385 OA
ATOM     34  H   UNL     1      25.617  34.194  13.024  1.00  0.00     0.211 HD
ENDBRANCH  21  33
ENDBRANCH  15  16
ENDBRANCH  10  15
BRANCH  12  35
ATOM     35  O   UNL     1      32.268  34.705  12.740  1.00  0.00    -0.385 OA
ATOM     36  H   UNL     1      31.980  33.789  12.493  1.00  0.00     0.211 HD
ENDBRANCH  12  35
BRANCH  13  37
ATOM     37  O   UNL     1      30.848  36.974  15.032  1.00  0.00    -0.387 OA
ATOM     38  H   UNL     1      29.944  36.807  15.398  1.00  0.00     0.211 HD
ENDBRANCH  13  37
BRANCH  14  39
ATOM     39  O   UNL     1      29.881  34.969  16.247  1.00  0.00    -0.387 OA
ATOM     40  H   UNL     1      29.288  34.279  15.886  1.00  0.00     0.211 HD
ENDBRANCH  14  39
ENDBRANCH   8   9
ENDBRANCH   7   8
ENDBRANCH   1   7
BRANCH   1  41
ATOM     41  C   UNL     1      29.976  33.259  19.371  1.00  0.00     0.364 C 
ATOM     42  O   UNL     1      30.229  33.055  20.557  1.00  0.00    -0.246 OA
BRANCH  41  43
ATOM     43  O   UNL     1      29.452  34.519  19.014  1.00  0.00    -0.477 OA
ATOM     44  H   UNL     1      29.785  34.950  18.153  1.00  0.00     0.296 HD
ENDBRANCH  41  43
ENDBRANCH   1  41
BRANCH   3  45
ATOM     45  O   UNL     1      29.407  28.883  19.666  1.00  0.00    -0.391 OA
ATOM     46  H   UNL     1      30.283  28.684  19.292  1.00  0.00     0.211 HD
ENDBRANCH   3  45
BRANCH   5  47
ATOM     47  C   UNL     1      26.710  32.183  17.245  1.00  0.00     0.176 C 
BRANCH  47  48
ATOM     48  O   UNL     1      26.221  33.421  17.563  1.00  0.00    -0.388 OA
ATOM     49  H   UNL     1      26.591  34.158  17.029  1.00  0.00     0.211 HD
ENDBRANCH  47  48
BRANCH  47  50
ATOM     50  C   UNL     1      26.994  32.032  15.809  1.00  0.00     0.165 C 
BRANCH  50  51
ATOM     51  O   UNL     1      27.307  33.341  15.326  1.00  0.00    -0.388 OA
ATOM     52  H   UNL     1      28.009  33.682  15.910  1.00  0.00     0.211 HD
ENDBRANCH  50  51
BRANCH  50  53
ATOM     53  C   UNL     1      25.735  31.656  15.010  1.00  0.00     0.154 C 
BRANCH  53  54
ATOM     54  N   UNL     1      24.867  32.789  14.807  1.00  0.00    -0.319 N 
ATOM     55  C   UNL     1      23.524  32.810  15.321  1.00  0.00     0.407 C 
ATOM     56  H   UNL     1      25.156  33.644  14.289  1.00  0.00     0.167 HD
ATOM     57  O   UNL     1      23.071  31.843  15.974  1.00  0.00    -0.225 OA
BRANCH  55  58
ATOM     58  O   UNL     1      22.699  33.900  15.109  1.00  0.00    -0.443 OA
BRANCH  58  59
ATOM     59  C   UNL     1      22.986  34.860  14.098  1.00  0.00     0.294 C 
BRANCH  59  60
ATOM     60  C   UNL     1      21.994  34.606  13.012  1.00  0.00     0.121 A 
ATOM     61  C   UNL     1      21.808  35.461  11.934  1.00  0.00     0.144 A 
ATOM     62  N   UNL     1      21.133  33.602  12.828  1.00  0.00    -0.131 NA
ATOM     63  N   UNL     1      20.840  34.951  11.128  1.00  0.00    -0.220 N 
ATOM     64  N   UNL     1      20.457  33.831  11.698  1.00  0.00    -0.062 NA
BRANCH  63  65
ATOM     65  C   UNL     1      20.348  35.520   9.926  1.00  0.00     0.066 A 
ATOM     66  C   UNL     1      21.139  35.648   8.808  1.00  0.00     0.028 A 
ATOM     67  C   UNL     1      19.043  35.954   9.853  1.00  0.00     0.028 A 
ATOM     68  C   UNL     1      20.666  36.194   7.633  1.00  0.00     0.002 A 
ATOM     69  C   UNL     1      18.571  36.502   8.670  1.00  0.00     0.002 A 
ATOM     70  C   UNL     1      19.347  36.639   7.544  1.00  0.00     0.000 A 
ENDBRANCH  63  65
ENDBRANCH  59  60
ENDBRANCH  58  59
ENDBRANCH  55  58
ENDBRANCH  53  54
ENDBRANCH  50  53
ENDBRANCH  47  50
ENDBRANCH   5  47
BRANCH   4  71
ATOM     71  N   UNL     1      26.894  29.644  18.685  1.00  0.00    -0.348 N 
ATOM     72  C   UNL     1      26.527  28.550  17.858  1.00  0.00     0.217 C 
ATOM     73  H   UNL     1      26.304  29.854  19.511  1.00  0.00     0.163 HD
ATOM     74  C   UNL     1      25.308  27.744  18.171  1.00  0.00     0.114 C 
ATOM     75  O   UNL     1      27.201  28.212  16.838  1.00  0.00    -0.275 OA
ENDBRANCH   4  71
TORSDOF 30
BEGIN_RES LYS A 131
REMARK  4 active torsions:
REMARK  status: ('A' for Active; 'I' for Inactive)
REMARK    1  A    between atoms: CA   and  CB  
REMARK    2  A    between atoms: CB   and  CG  
REMARK    3  A    between atoms: CG   and  CD  
REMARK    4  A    between atoms: CD   and  CE  
ROOT
ATOM      1  CA  LYS A 131      29.867  25.555  16.977  1.00 20.52     0.186 C 
ENDROOT
BRANCH   1   2
ATOM      2  CB  LYS A 131      28.345  25.722  17.026  1.00 20.94     0.034 C 
BRANCH   2   3
ATOM      3  CG  LYS A 131      27.601  24.403  16.886  1.00 22.96     0.005 C 
BRANCH   3   4
ATOM      4  CD  LYS A 131      26.550  24.230  17.947  1.00 24.33     0.041 C 
BRANCH   4   5
ATOM      5  CE  LYS A 131      25.187  24.043  17.288  1.00 26.91     0.338 C 
ATOM      6  NZ  LYS A 131      24.744  22.634  17.403  1.00 27.40     0.618 N 
ENDBRANCH   4   5
ENDBRANCH   3   4
ENDBRANCH   2   3
ENDBRANCH   1   2
END_RES LYS A 131
BEGIN_RES LYS A 135
REMARK  4 active torsions:
REMARK  status: ('A' for Active; 'I' for Inactive)
REMARK    5  A    between atoms: CA   and  CB  
REMARK    6  A    between atoms: CB   and  CG  
REMARK    7  A    between atoms: CG   and  CD  
REMARK    8  A    between atoms: CD   and  CE  
ROOT
ATOM      7  CA  LYS A 135      33.193  34.663   9.290  1.00 25.02     0.186 C 
ENDROOT
BRANCH   7   8
ATOM      8  CB  LYS A 135      32.060  35.360  10.034  1.00 26.63     0.034 C 
BRANCH   8   9
ATOM      9  CG  LYS A 135      30.705  34.755   9.772  1.00 29.45     0.005 C 
BRANCH   9  10
ATOM     10  CD  LYS A 135      30.470  34.592   8.278  1.00 32.00     0.041 C 
BRANCH  10  11
ATOM     11  CE  LYS A 135      29.005  34.801   7.944  1.00 34.25     0.338 C 
ATOM     12  NZ  LYS A 135      28.848  35.632   6.718  1.00 35.99     0.618 N 
ENDBRANCH  10  11
ENDBRANCH   9  10
ENDBRANCH   8   9
ENDBRANCH   7   8
END_RES LYS A 135
