REMARK VINA RESULT:    -5.184      2.939      8.228
REMARK INTER + INTRA:         -22.829
REMARK INTER:                 -14.221
REMARK INTRA:                  -8.608
REMARK UNBOUND:               -10.068
REMARK SMILES CC(=O)N[C@@H]1[C@@H](O)C[C@](OC[C@H]2O[C@@H](O[C@H]3[C@H](O)[C@@H](O)[C@H](OCCN=[N+]=[N-])O[C@@H]3CO)[C@H](O)[C@@H](O)[C@H]2O)(C(=O)O)O[C@H]1C(O)[C@H](O)CNC(=O)OCc1cn(-c2cnc3ccccc3c2)nn1
REMARK SMILES IDX 9 1 8 2 6 3 5 4 42 5 41 6 10 7 11 8 12 9 14 10 13 11 32 12
REMARK SMILES IDX 34 13 36 14 15 15 16 16 29 17 28 18 21 19 17 20 19 21 30 22
REMARK SMILES IDX 31 23 22 25 23 26 24 27 25 28 26 29 27 30 18 31 20 33 33 35
REMARK SMILES IDX 35 37 37 39 38 41 39 42 40 43 7 45 43 47 44 48 45 50 46 51
REMARK SMILES IDX 47 53 48 54 49 55 50 57 51 58 52 59 53 60 54 61 67 62 55 63
REMARK SMILES IDX 66 64 56 65 57 66 65 67 58 68 64 69 59 70 63 71 60 72 62 73
REMARK SMILES IDX 61 74 4 75 2 76 1 78 3 79
REMARK H PARENT 31 24 18 32 20 34 33 36 35 38 37 40 40 44 7 46 44 49 46 52
REMARK H PARENT 48 56 4 77
REMARK Flexibility Score: inf
ROOT
ATOM      1  C   UNL     1      30.291  30.846  20.990  1.00  0.00     0.272 C 
ATOM      2  C   UNL     1      31.457  31.751  21.159  1.00  0.00     0.113 C 
ATOM      3  C   UNL     1      32.550  31.131  22.008  1.00  0.00     0.145 C 
ATOM      4  C   UNL     1      32.772  29.737  21.418  1.00  0.00     0.142 C 
ATOM      5  C   UNL     1      31.488  28.948  21.717  1.00  0.00     0.178 C 
ATOM      6  O   UNL     1      30.561  29.520  20.819  1.00  0.00    -0.332 OA
ENDROOT
BRANCH   1   7
ATOM      7  O   UNL     1      29.526  31.207  19.860  1.00  0.00    -0.338 OA
BRANCH   7   8
ATOM      8  C   UNL     1      29.889  32.393  19.285  1.00  0.00     0.199 C 
BRANCH   8   9
ATOM      9  C   UNL     1      29.221  32.496  17.931  1.00  0.00     0.179 C 
ATOM     10  C   UNL     1      28.781  33.872  16.148  1.00  0.00     0.282 C 
ATOM     11  O   UNL     1      29.656  33.567  17.178  1.00  0.00    -0.341 OA
ATOM     12  C   UNL     1      27.985  32.683  15.695  1.00  0.00     0.202 C 
ATOM     13  C   UNL     1      28.696  31.384  15.837  1.00  0.00     0.179 C 
ATOM     14  C   UNL     1      29.127  31.189  17.262  1.00  0.00     0.177 C 
BRANCH  10  15
ATOM     15  O   UNL     1      29.476  34.478  15.124  1.00  0.00    -0.341 OA
BRANCH  15  16
ATOM     16  C   UNL     1      30.719  34.967  15.526  1.00  0.00     0.184 C 
ATOM     17  C   UNL     1      30.758  36.473  15.617  1.00  0.00     0.178 C 
ATOM     18  O   UNL     1      31.820  37.074  15.016  1.00  0.00    -0.341 OA
ATOM     19  C   UNL     1      33.058  36.529  15.210  1.00  0.00     0.281 C 
ATOM     20  C   UNL     1      31.850  34.378  14.731  1.00  0.00     0.180 C 
ATOM     21  C   UNL     1      33.136  35.036  15.119  1.00  0.00     0.202 C 
BRANCH  17  22
ATOM     22  C   UNL     1      30.514  36.934  17.055  1.00  0.00     0.191 C 
BRANCH  22  23
ATOM     23  O   UNL     1      30.877  35.963  17.985  1.00  0.00    -0.394 OA
ATOM     24  H   UNL     1      31.838  35.782  17.992  1.00  0.00     0.210 HD
ENDBRANCH  22  23
ENDBRANCH  17  22
BRANCH  19  25
ATOM     25  O   UNL     1      33.698  37.011  16.355  1.00  0.00    -0.350 OA
BRANCH  25  26
ATOM     26  C   UNL     1      34.242  36.003  17.124  1.00  0.00     0.169 C 
BRANCH  26  27
ATOM     27  C   UNL     1      35.488  36.455  17.849  1.00  0.00     0.119 C 
BRANCH  27  28
ATOM     28  N   UNL     1      36.602  36.581  16.931  1.00  0.00    -0.092 NA
ATOM     29  N   UNL     1      36.929  35.675  16.165  1.00  0.00     0.001 N 
ATOM     30  N   UNL     1      36.997  34.966  15.160  1.00  0.00    -0.003 NA
ENDBRANCH  27  28
ENDBRANCH  26  27
ENDBRANCH  25  26
ENDBRANCH  19  25
BRANCH  20  31
ATOM     31  O   UNL     1      31.953  33.012  15.072  1.00  0.00    -0.387 OA
ATOM     32  H   UNL     1      31.401  32.820  15.878  1.00  0.00     0.211 HD
ENDBRANCH  20  31
BRANCH  21  33
ATOM     33  O   UNL     1      34.110  34.611  14.185  1.00  0.00    -0.385 OA
ATOM     34  H   UNL     1      34.074  33.613  14.098  1.00  0.00     0.211 HD
ENDBRANCH  21  33
ENDBRANCH  15  16
ENDBRANCH  10  15
BRANCH  12  35
ATOM     35  O   UNL     1      26.738  32.582  16.307  1.00  0.00    -0.385 OA
ATOM     36  H   UNL     1      26.399  33.460  16.601  1.00  0.00     0.211 HD
ENDBRANCH  12  35
BRANCH  13  37
ATOM     37  O   UNL     1      29.776  31.308  14.954  1.00  0.00    -0.387 OA
ATOM     38  H   UNL     1      29.715  30.493  14.429  1.00  0.00     0.211 HD
ENDBRANCH  13  37
BRANCH  14  39
ATOM     39  O   UNL     1      30.316  30.468  17.233  1.00  0.00    -0.387 OA
ATOM     40  H   UNL     1      30.663  30.257  18.120  1.00  0.00     0.211 HD
ENDBRANCH  14  39
ENDBRANCH   8   9
ENDBRANCH   7   8
ENDBRANCH   1   7
BRANCH   1  41
ATOM     41  C   UNL     1      29.426  30.958  22.216  1.00  0.00     0.364 C 
ATOM     42  O   UNL     1      28.226  30.532  22.205  1.00  0.00    -0.246 OA
BRANCH  41  43
ATOM     43  O   UNL     1      29.837  31.510  23.406  1.00  0.00    -0.477 OA
ATOM     44  H   UNL     1      30.830  31.646  23.649  1.00  0.00     0.296 HD
ENDBRANCH  41  43
ENDBRANCH   1  41
BRANCH   3  45
ATOM     45  O   UNL     1      33.704  31.876  22.009  1.00  0.00    -0.391 OA
ATOM     46  H   UNL     1      33.875  32.179  21.093  1.00  0.00     0.211 HD
ENDBRANCH   3  45
BRANCH   5  47
ATOM     47  C   UNL     1      31.615  27.510  21.297  1.00  0.00     0.176 C 
BRANCH  47  48
ATOM     48  O   UNL     1      31.907  27.508  19.908  1.00  0.00    -0.388 OA
ATOM     49  H   UNL     1      32.441  28.304  19.658  1.00  0.00     0.211 HD
ENDBRANCH  47  48
BRANCH  47  50
ATOM     50  C   UNL     1      30.340  26.691  21.444  1.00  0.00     0.165 C 
BRANCH  50  51
ATOM     51  O   UNL     1      29.636  27.005  20.227  1.00  0.00    -0.388 OA
ATOM     52  H   UNL     1      30.305  27.359  19.596  1.00  0.00     0.211 HD
ENDBRANCH  50  51
BRANCH  50  53
ATOM     53  C   UNL     1      29.445  27.298  22.504  1.00  0.00     0.154 C 
BRANCH  53  54
ATOM     54  N   UNL     1      28.130  27.633  22.106  1.00  0.00    -0.319 N 
ATOM     55  C   UNL     1      26.956  27.096  22.675  1.00  0.00     0.407 C 
ATOM     56  H   UNL     1      28.030  28.345  21.314  1.00  0.00     0.167 HD
ATOM     57  O   UNL     1      27.055  26.254  23.589  1.00  0.00    -0.225 OA
BRANCH  55  58
ATOM     58  O   UNL     1      25.743  27.529  22.190  1.00  0.00    -0.443 OA
BRANCH  58  59
ATOM     59  C   UNL     1      25.009  26.811  21.235  1.00  0.00     0.294 C 
BRANCH  59  60
ATOM     60  C   UNL     1      25.350  27.298  19.860  1.00  0.00     0.121 A 
ATOM     61  C   UNL     1      24.531  27.851  18.934  1.00  0.00     0.144 A 
ATOM     62  N   UNL     1      26.593  27.239  19.327  1.00  0.00    -0.131 NA
ATOM     63  N   UNL     1      25.299  28.115  17.859  1.00  0.00    -0.219 N 
ATOM     64  N   UNL     1      26.556  27.739  18.110  1.00  0.00    -0.062 NA
BRANCH  63  65
ATOM     65  C   UNL     1      24.819  28.705  16.654  1.00  0.00     0.085 A 
ATOM     66  C   UNL     1      25.519  29.708  16.065  1.00  0.00     0.140 A 
ATOM     67  C   UNL     1      23.641  28.227  16.104  1.00  0.00     0.040 A 
ATOM     68  N   UNL     1      25.055  30.250  14.922  1.00  0.00    -0.254 NA
ATOM     69  C   UNL     1      23.187  28.788  14.945  1.00  0.00     0.002 A 
ATOM     70  C   UNL     1      23.918  29.795  14.384  1.00  0.00     0.070 A 
ATOM     71  C   UNL     1      22.016  28.329  14.378  1.00  0.00     0.010 A 
ATOM     72  C   UNL     1      23.447  30.363  13.199  1.00  0.00     0.029 A 
ATOM     73  C   UNL     1      21.568  28.907  13.202  1.00  0.00     0.001 A 
ATOM     74  C   UNL     1      22.293  29.939  12.604  1.00  0.00     0.002 A 
ENDBRANCH  63  65
ENDBRANCH  59  60
ENDBRANCH  58  59
ENDBRANCH  55  58
ENDBRANCH  53  54
ENDBRANCH  50  53
ENDBRANCH  47  50
ENDBRANCH   5  47
BRANCH   4  75
ATOM     75  N   UNL     1      33.970  29.148  21.881  1.00  0.00    -0.348 N 
ATOM     76  C   UNL     1      34.222  29.007  23.297  1.00  0.00     0.217 C 
ATOM     77  H   UNL     1      34.722  28.773  21.267  1.00  0.00     0.163 HD
ATOM     78  C   UNL     1      35.458  28.401  23.793  1.00  0.00     0.114 C 
ATOM     79  O   UNL     1      33.320  29.436  24.079  1.00  0.00    -0.275 OA
ENDBRANCH   4  75
TORSDOF 30
BEGIN_RES LYS A 131
REMARK  4 active torsions:
REMARK  status: ('A' for Active; 'I' for Inactive)
REMARK    1  A    between atoms: CA   and  CB  
REMARK    2  A    between atoms: CB   and  CG  
REMARK    3  A    between atoms: CG   and  CD  
REMARK    4  A    between atoms: CD   and  CE  
ROOT
ATOM      1  CA  LYS A 131      29.867  25.555  16.977  1.00 20.52     0.186 C 
ENDROOT
BRANCH   1   2
ATOM      2  CB  LYS A 131      28.345  25.722  17.026  1.00 20.94     0.034 C 
BRANCH   2   3
ATOM      3  CG  LYS A 131      27.599  24.457  16.629  1.00 22.96     0.005 C 
BRANCH   3   4
ATOM      4  CD  LYS A 131      27.002  23.756  17.818  1.00 24.33     0.041 C 
BRANCH   4   5
ATOM      5  CE  LYS A 131      25.537  24.157  17.963  1.00 26.91     0.338 C 
ATOM      6  NZ  LYS A 131      24.913  23.438  19.098  1.00 27.40     0.618 N 
ENDBRANCH   4   5
ENDBRANCH   3   4
ENDBRANCH   2   3
ENDBRANCH   1   2
END_RES LYS A 131
BEGIN_RES LYS A 135
REMARK  4 active torsions:
REMARK  status: ('A' for Active; 'I' for Inactive)
REMARK    5  A    between atoms: CA   and  CB  
REMARK    6  A    between atoms: CB   and  CG  
REMARK    7  A    between atoms: CG   and  CD  
REMARK    8  A    between atoms: CD   and  CE  
ROOT
ATOM      7  CA  LYS A 135      33.193  34.663   9.290  1.00 25.02     0.186 C 
ENDROOT
BRANCH   7   8
ATOM      8  CB  LYS A 135      32.060  35.360  10.034  1.00 26.63     0.034 C 
BRANCH   8   9
ATOM      9  CG  LYS A 135      30.780  35.441   9.243  1.00 29.45     0.005 C 
BRANCH   9  10
ATOM     10  CD  LYS A 135      30.222  34.051   8.980  1.00 32.00     0.041 C 
BRANCH  10  11
ATOM     11  CE  LYS A 135      28.730  34.015   9.250  1.00 34.25     0.338 C 
ATOM     12  NZ  LYS A 135      28.266  35.290   9.864  1.00 35.99     0.618 N 
ENDBRANCH  10  11
ENDBRANCH   9  10
ENDBRANCH   8   9
ENDBRANCH   7   8
END_RES LYS A 135
