REMARK VINA RESULT:    -5.031      3.048      8.368
REMARK INTER + INTRA:         -22.695
REMARK INTER:                 -10.298
REMARK INTRA:                 -12.397
REMARK UNBOUND:               -10.018
REMARK SMILES COc1ccc(-n2cc(COC(=O)NC[C@@H](O)C(O)[C@@H]3O[C@@](OC[C@H]4O[C@@H](O[C@H]5[C@H](O)[C@@H](O)[C@H](OCCN=[N+]=[N-])O[C@@H]5CO)[C@H](O)[C@@H](O)[C@H]4O)(C(=O)O)C[C@H](O)[C@H]3NC(C)=O)nn2)cc1
REMARK SMILES IDX 22 1 54 2 55 3 57 4 20 5 21 6 23 7 24 8 25 9 27 10 26 11
REMARK SMILES IDX 45 12 47 13 49 14 28 15 29 16 42 17 41 18 34 19 30 20 32 21
REMARK SMILES IDX 43 22 44 23 35 25 36 26 37 27 38 28 39 29 40 30 31 31 33 33
REMARK SMILES IDX 46 35 48 37 50 39 51 41 52 42 53 43 56 45 18 47 19 48 16 50
REMARK SMILES IDX 17 51 15 53 14 54 12 55 13 57 11 58 10 59 9 60 8 61 62 62
REMARK SMILES IDX 7 63 63 64 6 65 5 66 64 67 4 68 65 69 3 70 2 71 1 72 58 73
REMARK SMILES IDX 59 74 60 76 61 77
REMARK H PARENT 44 24 31 32 33 34 46 36 48 38 50 40 53 44 56 46 19 49 17 52
REMARK H PARENT 14 56 58 75
REMARK Flexibility Score: inf
ROOT
ATOM      1  C   UNL     1      28.576  35.930   7.962  1.00  0.00     0.272 C 
ATOM      2  C   UNL     1      28.266  35.680   6.533  1.00  0.00     0.113 C 
ATOM      3  C   UNL     1      27.809  36.833   5.730  1.00  0.00     0.145 C 
ATOM      4  C   UNL     1      27.227  37.885   6.697  1.00  0.00     0.142 C 
ATOM      5  C   UNL     1      26.535  37.141   7.783  1.00  0.00     0.178 C 
ATOM      6  O   UNL     1      27.522  36.603   8.607  1.00  0.00    -0.332 OA
ENDROOT
BRANCH   1   7
ATOM      7  O   UNL     1      29.700  36.391   8.411  1.00  0.00    -0.338 OA
BRANCH   7   8
ATOM      8  C   UNL     1      30.277  37.479   8.763  1.00  0.00     0.199 C 
BRANCH   8   9
ATOM      9  C   UNL     1      29.688  38.487   9.708  1.00  0.00     0.179 C 
ATOM     10  C   UNL     1      28.291  38.888  11.471  1.00  0.00     0.282 C 
ATOM     11  O   UNL     1      28.957  37.923  10.697  1.00  0.00    -0.341 OA
ATOM     12  C   UNL     1      29.205  39.864  12.141  1.00  0.00     0.202 C 
ATOM     13  C   UNL     1      30.571  39.963  11.574  1.00  0.00     0.179 C 
ATOM     14  C   UNL     1      30.716  39.484  10.186  1.00  0.00     0.177 C 
BRANCH  10  15
ATOM     15  O   UNL     1      27.565  38.202  12.439  1.00  0.00    -0.341 OA
BRANCH  15  16
ATOM     16  C   UNL     1      26.288  37.908  12.047  1.00  0.00     0.184 C 
ATOM     17  C   UNL     1      25.258  38.564  12.892  1.00  0.00     0.178 C 
ATOM     18  O   UNL     1      23.954  38.150  12.510  1.00  0.00    -0.341 OA
ATOM     19  C   UNL     1      23.857  36.798  12.932  1.00  0.00     0.281 C 
ATOM     20  C   UNL     1      26.109  36.381  12.118  1.00  0.00     0.180 C 
ATOM     21  C   UNL     1      24.664  36.034  11.878  1.00  0.00     0.202 C 
BRANCH  17  22
ATOM     22  C   UNL     1      25.335  40.067  12.814  1.00  0.00     0.191 C 
BRANCH  22  23
ATOM     23  O   UNL     1      25.538  40.441  11.497  1.00  0.00    -0.394 OA
ATOM     24  H   UNL     1      26.107  39.810  11.002  1.00  0.00     0.210 HD
ENDBRANCH  22  23
ENDBRANCH  17  22
BRANCH  19  25
ATOM     25  O   UNL     1      22.572  36.387  12.989  1.00  0.00    -0.350 OA
BRANCH  25  26
ATOM     26  C   UNL     1      21.633  36.979  12.204  1.00  0.00     0.169 C 
BRANCH  26  27
ATOM     27  C   UNL     1      20.897  36.115  11.237  1.00  0.00     0.119 C 
BRANCH  27  28
ATOM     28  N   UNL     1      21.708  35.356  10.334  1.00  0.00    -0.092 NA
ATOM     29  N   UNL     1      21.640  35.522   9.121  1.00  0.00     0.001 N 
ATOM     30  N   UNL     1      21.383  35.707   7.927  1.00  0.00    -0.003 NA
ENDBRANCH  27  28
ENDBRANCH  26  27
ENDBRANCH  25  26
ENDBRANCH  19  25
BRANCH  20  31
ATOM     31  O   UNL     1      26.948  35.793  11.189  1.00  0.00    -0.387 OA
ATOM     32  H   UNL     1      27.145  34.863  11.522  1.00  0.00     0.211 HD
ENDBRANCH  20  31
BRANCH  21  33
ATOM     33  O   UNL     1      24.452  34.688  12.075  1.00  0.00    -0.385 OA
ATOM     34  H   UNL     1      24.498  34.186  11.224  1.00  0.00     0.211 HD
ENDBRANCH  21  33
ENDBRANCH  15  16
ENDBRANCH  10  15
BRANCH  12  35
ATOM     35  O   UNL     1      28.668  41.162  12.132  1.00  0.00    -0.385 OA
ATOM     36  H   UNL     1      28.315  41.399  11.245  1.00  0.00     0.211 HD
ENDBRANCH  12  35
BRANCH  13  37
ATOM     37  O   UNL     1      31.502  39.404  12.458  1.00  0.00    -0.387 OA
ATOM     38  H   UNL     1      32.143  40.056  12.807  1.00  0.00     0.211 HD
ENDBRANCH  13  37
BRANCH  14  39
ATOM     39  O   UNL     1      32.017  39.008  10.007  1.00  0.00    -0.387 OA
ATOM     40  H   UNL     1      32.609  39.580  10.558  1.00  0.00     0.211 HD
ENDBRANCH  14  39
ENDBRANCH   8   9
ENDBRANCH   7   8
ENDBRANCH   1   7
BRANCH   1  41
ATOM     41  C   UNL     1      28.417  34.510   8.591  1.00  0.00     0.364 C 
ATOM     42  O   UNL     1      29.410  33.818   8.827  1.00  0.00    -0.246 OA
BRANCH  41  43
ATOM     43  O   UNL     1      27.132  34.104   8.854  1.00  0.00    -0.477 OA
ATOM     44  H   UNL     1      26.541  33.674   8.128  1.00  0.00     0.296 HD
ENDBRANCH  41  43
ENDBRANCH   1  41
BRANCH   3  45
ATOM     45  O   UNL     1      28.703  37.372   4.852  1.00  0.00    -0.391 OA
ATOM     46  H   UNL     1      28.881  38.334   4.950  1.00  0.00     0.211 HD
ENDBRANCH   3  45
BRANCH   5  47
ATOM     47  C   UNL     1      25.701  38.052   8.714  1.00  0.00     0.176 C 
BRANCH  47  48
ATOM     48  O   UNL     1      26.267  39.286   8.822  1.00  0.00    -0.388 OA
ATOM     49  H   UNL     1      26.687  39.532   7.965  1.00  0.00     0.211 HD
ENDBRANCH  47  48
BRANCH  47  50
ATOM     50  C   UNL     1      24.281  37.861   8.554  1.00  0.00     0.165 C 
BRANCH  50  51
ATOM     51  O   UNL     1      23.832  37.585   7.233  1.00  0.00    -0.388 OA
ATOM     52  H   UNL     1      23.217  36.831   7.320  1.00  0.00     0.211 HD
ENDBRANCH  50  51
BRANCH  50  53
ATOM     53  C   UNL     1      23.249  38.749   9.113  1.00  0.00     0.154 C 
BRANCH  53  54
ATOM     54  N   UNL     1      23.455  40.126   9.110  1.00  0.00    -0.319 N 
ATOM     55  C   UNL     1      23.394  40.984   8.001  1.00  0.00     0.407 C 
ATOM     56  H   UNL     1      23.687  40.600  10.049  1.00  0.00     0.167 HD
ATOM     57  O   UNL     1      23.116  40.572   6.863  1.00  0.00    -0.225 OA
BRANCH  55  58
ATOM     58  O   UNL     1      23.655  42.362   8.181  1.00  0.00    -0.443 OA
BRANCH  58  59
ATOM     59  C   UNL     1      24.694  42.925   7.420  1.00  0.00     0.294 C 
BRANCH  59  60
ATOM     60  C   UNL     1      25.995  42.678   8.086  1.00  0.00     0.121 A 
ATOM     61  C   UNL     1      27.278  42.955   7.653  1.00  0.00     0.144 A 
ATOM     62  N   UNL     1      26.124  42.123   9.307  1.00  0.00    -0.131 NA
ATOM     63  N   UNL     1      28.121  42.561   8.615  1.00  0.00    -0.220 N 
ATOM     64  N   UNL     1      27.391  42.056   9.615  1.00  0.00    -0.062 NA
BRANCH  63  65
ATOM     65  C   UNL     1      29.536  42.611   8.710  1.00  0.00     0.067 A 
ATOM     66  C   UNL     1      30.217  43.188   9.747  1.00  0.00     0.032 A 
ATOM     67  C   UNL     1      30.295  42.051   7.683  1.00  0.00     0.032 A 
ATOM     68  C   UNL     1      31.604  43.211   9.771  1.00  0.00     0.048 A 
ATOM     69  C   UNL     1      31.676  42.075   7.707  1.00  0.00     0.048 A 
ATOM     70  C   UNL     1      32.360  42.656   8.754  1.00  0.00     0.119 A 
BRANCH  70  71
ATOM     71  O   UNL     1      33.767  42.689   8.791  1.00  0.00    -0.497 OA
ATOM     72  C   UNL     1      34.453  41.472   8.460  1.00  0.00     0.278 C 
ENDBRANCH  70  71
ENDBRANCH  63  65
ENDBRANCH  59  60
ENDBRANCH  58  59
ENDBRANCH  55  58
ENDBRANCH  53  54
ENDBRANCH  50  53
ENDBRANCH  47  50
ENDBRANCH   5  47
BRANCH   4  73
ATOM     73  N   UNL     1      26.463  38.832   5.935  1.00  0.00    -0.348 N 
ATOM     74  C   UNL     1      27.061  40.004   5.404  1.00  0.00     0.217 C 
ATOM     75  H   UNL     1      25.464  38.643   5.744  1.00  0.00     0.163 HD
ATOM     76  C   UNL     1      26.246  40.970   4.620  1.00  0.00     0.114 C 
ATOM     77  O   UNL     1      28.279  40.280   5.565  1.00  0.00    -0.275 OA
ENDBRANCH   4  73
TORSDOF 31
BEGIN_RES LYS A 131
REMARK  4 active torsions:
REMARK  status: ('A' for Active; 'I' for Inactive)
REMARK    1  A    between atoms: CA   and  CB  
REMARK    2  A    between atoms: CB   and  CG  
REMARK    3  A    between atoms: CG   and  CD  
REMARK    4  A    between atoms: CD   and  CE  
ROOT
ATOM      1  CA  LYS A 131      29.867  25.555  16.977  1.00 20.52     0.186 C 
ENDROOT
BRANCH   1   2
ATOM      2  CB  LYS A 131      28.345  25.722  17.026  1.00 20.94     0.034 C 
BRANCH   2   3
ATOM      3  CG  LYS A 131      27.601  24.402  16.891  1.00 22.96     0.005 C 
BRANCH   3   4
ATOM      4  CD  LYS A 131      26.533  24.245  17.937  1.00 24.33     0.041 C 
BRANCH   4   5
ATOM      5  CE  LYS A 131      25.176  24.081  17.258  1.00 26.91     0.338 C 
ATOM      6  NZ  LYS A 131      24.423  25.357  17.290  1.00 27.40     0.618 N 
ENDBRANCH   4   5
ENDBRANCH   3   4
ENDBRANCH   2   3
ENDBRANCH   1   2
END_RES LYS A 131
BEGIN_RES LYS A 135
REMARK  4 active torsions:
REMARK  status: ('A' for Active; 'I' for Inactive)
REMARK    5  A    between atoms: CA   and  CB  
REMARK    6  A    between atoms: CB   and  CG  
REMARK    7  A    between atoms: CG   and  CD  
REMARK    8  A    between atoms: CD   and  CE  
ROOT
ATOM      7  CA  LYS A 135      33.193  34.663   9.290  1.00 25.02     0.186 C 
ENDROOT
BRANCH   7   8
ATOM      8  CB  LYS A 135      32.060  35.360  10.034  1.00 26.63     0.034 C 
BRANCH   8   9
ATOM      9  CG  LYS A 135      32.476  35.935  11.364  1.00 29.45     0.005 C 
BRANCH   9  10
ATOM     10  CD  LYS A 135      31.302  35.955  12.330  1.00 32.00     0.041 C 
BRANCH  10  11
ATOM     11  CE  LYS A 135      30.300  34.873  11.974  1.00 34.25     0.338 C 
ATOM     12  NZ  LYS A 135      29.501  34.470  13.164  1.00 35.99     0.618 N 
ENDBRANCH  10  11
ENDBRANCH   9  10
ENDBRANCH   8   9
ENDBRANCH   7   8
END_RES LYS A 135
