REMARK VINA RESULT:    -4.128      5.266     11.001
REMARK INTER + INTRA:         -21.555
REMARK INTER:                 -12.049
REMARK INTRA:                  -9.506
REMARK UNBOUND:               -10.427
REMARK SMILES CCN(CC)CCn1cc(COC(=O)NC[C@@H](O)C(O)[C@@H]2O[C@@](OC[C@H]3O[C@@H](O[C@H]4[C@H](O)[C@@H](O)[C@H](OCCN=[N+]=[N-])O[C@@H]4CO)[C@H](O)[C@@H](O)[C@H]3O)(C(=O)O)C[C@H](O)[C@H]2NC(C)=O)nn1
REMARK SMILES IDX 19 1 21 2 23 3 55 4 22 5 56 6 58 7 24 8 25 9 26 10 28 11
REMARK SMILES IDX 27 12 46 13 48 14 50 15 29 16 30 17 43 18 42 19 35 20 31 21
REMARK SMILES IDX 33 22 44 23 45 24 36 26 37 27 38 28 39 29 40 30 41 31 32 32
REMARK SMILES IDX 34 34 47 36 49 38 51 40 52 42 53 43 54 44 57 46 59 48 60 49
REMARK SMILES IDX 61 51 62 52 20 53 17 55 18 56 16 58 15 59 13 60 14 62 12 63
REMARK SMILES IDX 11 64 10 65 9 66 63 67 8 68 64 69 7 70 6 71 3 72 2 73 1 74
REMARK SMILES IDX 4 75 5 76
REMARK H PARENT 45 25 32 33 34 35 47 37 49 39 51 41 54 45 57 47 59 50 20 54
REMARK H PARENT 18 57 15 61
REMARK Flexibility Score: inf
ROOT
ATOM      1  C   UNL     1      30.404  38.043   8.535  1.00  0.00     0.176 C 
ENDROOT
BRANCH   1   2
ATOM      2  C   UNL     1      29.253  38.175   7.573  1.00  0.00     0.178 C 
ATOM      3  C   UNL     1      28.017  39.682   6.350  1.00  0.00     0.272 C 
ATOM      4  C   UNL     1      27.478  38.342   5.827  1.00  0.00     0.113 C 
ATOM      5  O   UNL     1      29.086  39.486   7.195  1.00  0.00    -0.332 OA
ATOM      6  C   UNL     1      27.066  37.400   6.911  1.00  0.00     0.145 C 
ATOM      7  C   UNL     1      27.931  37.711   8.143  1.00  0.00     0.142 C 
BRANCH   3   8
ATOM      8  O   UNL     1      26.950  40.338   6.917  1.00  0.00    -0.338 OA
BRANCH   8   9
ATOM      9  C   UNL     1      27.234  41.518   7.558  1.00  0.00     0.199 C 
BRANCH   9  10
ATOM     10  C   UNL     1      26.253  41.773   8.717  1.00  0.00     0.179 C 
ATOM     11  C   UNL     1      24.181  40.783   9.227  1.00  0.00     0.282 C 
ATOM     12  O   UNL     1      25.049  41.333   8.296  1.00  0.00    -0.341 OA
ATOM     13  C   UNL     1      24.414  41.296  10.591  1.00  0.00     0.202 C 
ATOM     14  C   UNL     1      25.828  41.132  11.076  1.00  0.00     0.179 C 
ATOM     15  C   UNL     1      26.757  40.990   9.891  1.00  0.00     0.177 C 
BRANCH  11  16
ATOM     16  O   UNL     1      24.265  39.413   9.023  1.00  0.00    -0.341 OA
BRANCH  16  17
ATOM     17  C   UNL     1      23.113  38.737   9.222  1.00  0.00     0.184 C 
ATOM     18  C   UNL     1      23.331  37.331   9.716  1.00  0.00     0.178 C 
ATOM     19  O   UNL     1      22.054  36.765   9.994  1.00  0.00    -0.341 OA
ATOM     20  C   UNL     1      21.506  36.346   8.801  1.00  0.00     0.281 C 
ATOM     21  C   UNL     1      22.248  38.628   7.971  1.00  0.00     0.180 C 
ATOM     22  C   UNL     1      21.822  37.226   7.672  1.00  0.00     0.202 C 
BRANCH  18  23
ATOM     23  C   UNL     1      24.252  37.183  10.872  1.00  0.00     0.191 C 
BRANCH  23  24
ATOM     24  O   UNL     1      25.547  37.409  10.422  1.00  0.00    -0.394 OA
ATOM     25  H   UNL     1      26.244  37.196  11.091  1.00  0.00     0.210 HD
ENDBRANCH  23  24
ENDBRANCH  18  23
BRANCH  20  26
ATOM     26  O   UNL     1      20.158  36.026   8.932  1.00  0.00    -0.350 OA
BRANCH  26  27
ATOM     27  C   UNL     1      19.502  35.808   7.758  1.00  0.00     0.169 C 
BRANCH  27  28
ATOM     28  C   UNL     1      18.875  34.428   7.676  1.00  0.00     0.119 C 
BRANCH  28  29
ATOM     29  N   UNL     1      18.433  33.973   8.980  1.00  0.00    -0.092 NA
ATOM     30  N   UNL     1      17.579  33.090   9.128  1.00  0.00     0.001 N 
ATOM     31  N   UNL     1      16.460  32.593   9.261  1.00  0.00    -0.003 NA
ENDBRANCH  28  29
ENDBRANCH  27  28
ENDBRANCH  26  27
ENDBRANCH  20  26
BRANCH  21  32
ATOM     32  O   UNL     1      21.130  39.421   8.143  1.00  0.00    -0.387 OA
ATOM     33  H   UNL     1      20.664  39.648   7.313  1.00  0.00     0.211 HD
ENDBRANCH  21  32
BRANCH  22  34
ATOM     34  O   UNL     1      22.751  36.580   6.818  1.00  0.00    -0.385 OA
ATOM     35  H   UNL     1      23.648  36.816   7.169  1.00  0.00     0.211 HD
ENDBRANCH  22  34
ENDBRANCH  16  17
ENDBRANCH  11  16
BRANCH  13  36
ATOM     36  O   UNL     1      24.150  42.698  10.589  1.00  0.00    -0.385 OA
ATOM     37  H   UNL     1      24.786  43.173  10.025  1.00  0.00     0.211 HD
ENDBRANCH  13  36
BRANCH  14  38
ATOM     38  O   UNL     1      25.996  40.104  11.990  1.00  0.00    -0.387 OA
ATOM     39  H   UNL     1      26.533  39.369  11.650  1.00  0.00     0.211 HD
ENDBRANCH  14  38
BRANCH  15  40
ATOM     40  O   UNL     1      26.803  39.646   9.545  1.00  0.00    -0.387 OA
ATOM     41  H   UNL     1      27.692  39.422   9.146  1.00  0.00     0.211 HD
ENDBRANCH  15  40
ENDBRANCH   9  10
ENDBRANCH   8   9
ENDBRANCH   3   8
BRANCH   3  42
ATOM     42  C   UNL     1      28.488  40.387   5.132  1.00  0.00     0.364 C 
ATOM     43  O   UNL     1      27.714  40.536   4.126  1.00  0.00    -0.246 OA
BRANCH  42  44
ATOM     44  O   UNL     1      29.751  40.922   4.976  1.00  0.00    -0.477 OA
ATOM     45  H   UNL     1      30.489  40.367   4.556  1.00  0.00     0.296 HD
ENDBRANCH  42  44
ENDBRANCH   3  42
BRANCH   6  46
ATOM     46  O   UNL     1      25.722  37.379   7.192  1.00  0.00    -0.391 OA
ATOM     47  H   UNL     1      25.495  36.458   7.481  1.00  0.00     0.211 HD
ENDBRANCH   6  46
BRANCH   7  48
ATOM     48  N   UNL     1      28.016  36.593   9.020  1.00  0.00    -0.348 N 
ATOM     49  C   UNL     1      28.061  35.273   8.439  1.00  0.00     0.217 C 
ATOM     50  H   UNL     1      28.054  36.633  10.054  1.00  0.00     0.163 HD
ATOM     51  C   UNL     1      28.149  34.061   9.291  1.00  0.00     0.114 C 
ATOM     52  O   UNL     1      28.027  35.104   7.191  1.00  0.00    -0.275 OA
ENDBRANCH   7  48
ENDBRANCH   1   2
BRANCH   1  53
ATOM     53  O   UNL     1      31.054  36.843   8.277  1.00  0.00    -0.388 OA
ATOM     54  H   UNL     1      30.588  36.101   8.777  1.00  0.00     0.211 HD
ENDBRANCH   1  53
BRANCH   1  55
ATOM     55  C   UNL     1      31.345  39.184   8.248  1.00  0.00     0.165 C 
BRANCH  55  56
ATOM     56  O   UNL     1      32.102  38.877   7.111  1.00  0.00    -0.388 OA
ATOM     57  H   UNL     1      32.913  38.395   7.405  1.00  0.00     0.211 HD
ENDBRANCH  55  56
BRANCH  55  58
ATOM     58  C   UNL     1      32.251  39.565   9.360  1.00  0.00     0.154 C 
BRANCH  58  59
ATOM     59  N   UNL     1      31.903  39.003  10.620  1.00  0.00    -0.319 N 
ATOM     60  C   UNL     1      31.418  39.863  11.663  1.00  0.00     0.407 C 
ATOM     61  H   UNL     1      31.996  38.004  10.810  1.00  0.00     0.167 HD
ATOM     62  O   UNL     1      31.303  41.091  11.481  1.00  0.00    -0.225 OA
BRANCH  60  63
ATOM     63  O   UNL     1      31.081  39.292  12.879  1.00  0.00    -0.443 OA
BRANCH  63  64
ATOM     64  C   UNL     1      29.724  39.417  13.338  1.00  0.00     0.294 C 
BRANCH  64  65
ATOM     65  C   UNL     1      29.000  38.212  12.912  1.00  0.00     0.120 A 
ATOM     66  C   UNL     1      29.040  36.997  13.604  1.00  0.00     0.138 A 
ATOM     67  N   UNL     1      28.203  37.994  11.869  1.00  0.00    -0.132 NA
ATOM     68  N   UNL     1      28.271  36.106  12.954  1.00  0.00    -0.251 N 
ATOM     69  N   UNL     1      27.780  36.729  11.916  1.00  0.00    -0.067 NA
BRANCH  68  70
ATOM     70  C   UNL     1      28.025  34.723  13.317  1.00  0.00     0.161 C 
BRANCH  70  71
ATOM     71  C   UNL     1      29.316  34.153  13.863  1.00  0.00     0.108 C 
BRANCH  71  72
ATOM     72  N   UNL     1      29.169  33.538  15.149  1.00  0.00    -0.302 NA
BRANCH  72  73
ATOM     73  C   UNL     1      29.797  32.246  15.211  1.00  0.00     0.081 C 
ATOM     74  C   UNL     1      31.273  32.442  15.535  1.00  0.00     0.021 C 
ENDBRANCH  72  73
BRANCH  72  75
ATOM     75  C   UNL     1      27.820  33.538  15.624  1.00  0.00     0.081 C 
ATOM     76  C   UNL     1      27.777  33.614  17.137  1.00  0.00     0.021 C 
ENDBRANCH  72  75
ENDBRANCH  71  72
ENDBRANCH  70  71
ENDBRANCH  68  70
ENDBRANCH  64  65
ENDBRANCH  63  64
ENDBRANCH  60  63
ENDBRANCH  58  59
ENDBRANCH  55  58
ENDBRANCH   1  55
TORSDOF 34
BEGIN_RES LYS A 131
REMARK  4 active torsions:
REMARK  status: ('A' for Active; 'I' for Inactive)
REMARK    1  A    between atoms: CA   and  CB  
REMARK    2  A    between atoms: CB   and  CG  
REMARK    3  A    between atoms: CG   and  CD  
REMARK    4  A    between atoms: CD   and  CE  
ROOT
ATOM      1  CA  LYS A 131      29.867  25.555  16.977  1.00 20.52     0.186 C 
ENDROOT
BRANCH   1   2
ATOM      2  CB  LYS A 131      28.345  25.722  17.026  1.00 20.94     0.034 C 
BRANCH   2   3
ATOM      3  CG  LYS A 131      27.601  24.401  16.905  1.00 22.96     0.005 C 
BRANCH   3   4
ATOM      4  CD  LYS A 131      26.656  24.175  18.052  1.00 24.33     0.041 C 
BRANCH   4   5
ATOM      5  CE  LYS A 131      25.877  25.457  18.329  1.00 26.91     0.338 C 
ATOM      6  NZ  LYS A 131      25.918  25.787  19.774  1.00 27.40     0.618 N 
ENDBRANCH   4   5
ENDBRANCH   3   4
ENDBRANCH   2   3
ENDBRANCH   1   2
END_RES LYS A 131
BEGIN_RES LYS A 135
REMARK  4 active torsions:
REMARK  status: ('A' for Active; 'I' for Inactive)
REMARK    5  A    between atoms: CA   and  CB  
REMARK    6  A    between atoms: CB   and  CG  
REMARK    7  A    between atoms: CG   and  CD  
REMARK    8  A    between atoms: CD   and  CE  
ROOT
ATOM      7  CA  LYS A 135      33.193  34.663   9.290  1.00 25.02     0.186 C 
ENDROOT
BRANCH   7   8
ATOM      8  CB  LYS A 135      32.060  35.360  10.034  1.00 26.63     0.034 C 
BRANCH   8   9
ATOM      9  CG  LYS A 135      31.944  34.947  11.479  1.00 29.45     0.005 C 
BRANCH   9  10
ATOM     10  CD  LYS A 135      32.645  35.950  12.381  1.00 32.00     0.041 C 
BRANCH  10  11
ATOM     11  CE  LYS A 135      32.573  35.506  13.830  1.00 34.25     0.338 C 
ATOM     12  NZ  LYS A 135      33.827  34.819  14.243  1.00 35.99     0.618 N 
ENDBRANCH  10  11
ENDBRANCH   9  10
ENDBRANCH   8   9
ENDBRANCH   7   8
END_RES LYS A 135
