REMARK VINA RESULT:    -4.044      4.621     10.206
REMARK INTER + INTRA:         -23.973
REMARK INTER:                  -9.465
REMARK INTRA:                 -14.507
REMARK UNBOUND:               -13.073
REMARK SMILES CC(=O)N[C@@H]1[C@@H](O)C[C@](OC[C@H]2O[C@@H](O[C@H]3[C@H](O)[C@@H](O)[C@H](OCCN=[N+]=[N-])O[C@@H]3CO)[C@H](O)[C@@H](O)[C@H]2O)(C(=O)O)O[C@H]1C(O)[C@H](O)CNC(=O)OCc1cn(C[C@@H](C)CN2CCN(c3ccc(Cl)cc3)CC2)nn1
REMARK SMILES IDX 43 1 42 2 9 3 8 4 41 5 6 6 5 7 10 8 11 9 12 10 14 11 13 12
REMARK SMILES IDX 32 13 34 14 36 15 15 16 16 17 29 18 28 19 21 20 17 21 19 22
REMARK SMILES IDX 30 23 31 24 22 26 23 27 24 28 25 29 26 30 27 31 18 32 20 34
REMARK SMILES IDX 33 36 35 38 37 40 38 42 39 43 40 44 7 46 4 48 2 49 1 51 3 52
REMARK SMILES IDX 44 53 45 55 46 56 47 58 48 59 49 60 50 62 51 63 52 64 53 65
REMARK SMILES IDX 54 66 74 67 55 68 73 69 56 70 57 71 58 72 59 73 60 74 61 75
REMARK SMILES IDX 72 76 62 77 71 78 63 79 64 80 65 81 70 82 66 83 69 84 67 85
REMARK SMILES IDX 68 86
REMARK H PARENT 31 25 18 33 20 35 33 37 35 39 37 41 40 45 7 47 4 50 44 54
REMARK H PARENT 46 57 48 61
REMARK Flexibility Score: inf
ROOT
ATOM      1  C   UNL     1      28.152  35.450  18.559  1.00  0.00     0.176 C 
ENDROOT
BRANCH   1   2
ATOM      2  C   UNL     1      29.120  34.549  17.805  1.00  0.00     0.178 C 
ATOM      3  C   UNL     1      29.494  32.330  17.087  1.00  0.00     0.272 C 
ATOM      4  C   UNL     1      30.891  32.710  17.040  1.00  0.00     0.113 C 
ATOM      5  O   UNL     1      28.767  33.244  17.910  1.00  0.00    -0.332 OA
ATOM      6  C   UNL     1      31.317  33.572  18.213  1.00  0.00     0.145 C 
ATOM      7  C   UNL     1      30.542  34.891  18.094  1.00  0.00     0.142 C 
BRANCH   3   8
ATOM      8  O   UNL     1      29.107  31.135  17.523  1.00  0.00    -0.338 OA
BRANCH   8   9
ATOM      9  C   UNL     1      28.386  30.224  16.924  1.00  0.00     0.199 C 
BRANCH   9  10
ATOM     10  C   UNL     1      27.437  29.314  17.649  1.00  0.00     0.179 C 
ATOM     11  C   UNL     1      26.492  29.350  19.783  1.00  0.00     0.282 C 
ATOM     12  O   UNL     1      27.615  29.282  19.003  1.00  0.00    -0.341 OA
ATOM     13  C   UNL     1      25.827  30.698  19.575  1.00  0.00     0.202 C 
ATOM     14  C   UNL     1      25.484  30.834  18.128  1.00  0.00     0.179 C 
ATOM     15  C   UNL     1      26.004  29.723  17.280  1.00  0.00     0.177 C 
BRANCH  11  16
ATOM     16  O   UNL     1      26.945  29.307  21.123  1.00  0.00    -0.341 OA
BRANCH  16  17
ATOM     17  C   UNL     1      28.316  29.346  21.146  1.00  0.00     0.184 C 
ATOM     18  C   UNL     1      28.917  28.266  22.021  1.00  0.00     0.178 C 
ATOM     19  O   UNL     1      29.515  28.717  23.158  1.00  0.00    -0.341 OA
ATOM     20  C   UNL     1      30.501  29.675  22.998  1.00  0.00     0.281 C 
ATOM     21  C   UNL     1      28.838  30.721  21.549  1.00  0.00     0.180 C 
ATOM     22  C   UNL     1      30.321  30.565  21.799  1.00  0.00     0.202 C 
BRANCH  18  23
ATOM     23  C   UNL     1      29.784  27.303  21.224  1.00  0.00     0.191 C 
BRANCH  23  24
ATOM     24  O   UNL     1      29.228  26.986  20.009  1.00  0.00    -0.394 OA
ATOM     25  H   UNL     1      28.376  26.487  20.200  1.00  0.00     0.210 HD
ENDBRANCH  23  24
ENDBRANCH  18  23
BRANCH  20  26
ATOM     26  O   UNL     1      31.777  29.126  22.987  1.00  0.00    -0.350 OA
BRANCH  26  27
ATOM     27  C   UNL     1      32.654  29.642  23.898  1.00  0.00     0.169 C 
BRANCH  27  28
ATOM     28  C   UNL     1      33.856  30.255  23.237  1.00  0.00     0.119 C 
BRANCH  28  29
ATOM     29  N   UNL     1      33.816  31.697  23.415  1.00  0.00    -0.092 NA
ATOM     30  N   UNL     1      33.673  32.432  22.421  1.00  0.00     0.001 N 
ATOM     31  N   UNL     1      33.531  33.038  21.367  1.00  0.00    -0.003 NA
ENDBRANCH  28  29
ENDBRANCH  27  28
ENDBRANCH  26  27
ENDBRANCH  20  26
BRANCH  21  32
ATOM     32  O   UNL     1      28.683  31.632  20.506  1.00  0.00    -0.387 OA
ATOM     33  H   UNL     1      27.714  31.588  20.256  1.00  0.00     0.211 HD
ENDBRANCH  21  32
BRANCH  22  34
ATOM     34  O   UNL     1      30.845  31.839  22.126  1.00  0.00    -0.385 OA
ATOM     35  H   UNL     1      31.676  31.795  22.626  1.00  0.00     0.211 HD
ENDBRANCH  22  34
ENDBRANCH  16  17
ENDBRANCH  11  16
BRANCH  13  36
ATOM     36  O   UNL     1      24.727  30.767  20.413  1.00  0.00    -0.385 OA
ATOM     37  H   UNL     1      23.933  30.948  19.830  1.00  0.00     0.211 HD
ENDBRANCH  13  36
BRANCH  14  38
ATOM     38  O   UNL     1      25.844  32.079  17.594  1.00  0.00    -0.387 OA
ATOM     39  H   UNL     1      26.822  32.196  17.594  1.00  0.00     0.211 HD
ENDBRANCH  14  38
BRANCH  15  40
ATOM     40  O   UNL     1      25.970  30.057  15.949  1.00  0.00    -0.387 OA
ATOM     41  H   UNL     1      25.846  31.023  15.803  1.00  0.00     0.211 HD
ENDBRANCH  15  40
ENDBRANCH   9  10
ENDBRANCH   8   9
ENDBRANCH   3   8
BRANCH   3  42
ATOM     42  C   UNL     1      28.837  32.599  15.747  1.00  0.00     0.364 C 
ATOM     43  O   UNL     1      29.552  32.755  14.696  1.00  0.00    -0.246 OA
BRANCH  42  44
ATOM     44  O   UNL     1      27.483  32.702  15.558  1.00  0.00    -0.477 OA
ATOM     45  H   UNL     1      27.090  33.303  14.844  1.00  0.00     0.296 HD
ENDBRANCH  42  44
ENDBRANCH   3  42
BRANCH   6  46
ATOM     46  O   UNL     1      30.941  32.896  19.374  1.00  0.00    -0.391 OA
ATOM     47  H   UNL     1      31.319  33.321  20.181  1.00  0.00     0.211 HD
ENDBRANCH   6  46
BRANCH   7  48
ATOM     48  N   UNL     1      31.162  35.653  17.028  1.00  0.00    -0.348 N 
ATOM     49  C   UNL     1      31.740  36.918  17.302  1.00  0.00     0.217 C 
ATOM     50  H   UNL     1      31.204  35.306  16.030  1.00  0.00     0.163 HD
ATOM     51  C   UNL     1      32.374  37.678  16.166  1.00  0.00     0.114 C 
ATOM     52  O   UNL     1      31.750  37.440  18.452  1.00  0.00    -0.275 OA
ENDBRANCH   7  48
ENDBRANCH   1   2
BRANCH   1  53
ATOM     53  O   UNL     1      28.832  36.632  18.851  1.00  0.00    -0.388 OA
ATOM     54  H   UNL     1      28.414  37.405  18.406  1.00  0.00     0.211 HD
ENDBRANCH   1  53
BRANCH   1  55
ATOM     55  C   UNL     1      26.937  35.840  17.765  1.00  0.00     0.165 C 
BRANCH  55  56
ATOM     56  O   UNL     1      26.191  34.798  17.281  1.00  0.00    -0.388 OA
ATOM     57  H   UNL     1      25.233  34.960  17.329  1.00  0.00     0.211 HD
ENDBRANCH  55  56
BRANCH  55  58
ATOM     58  C   UNL     1      27.186  36.862  16.709  1.00  0.00     0.154 C 
BRANCH  58  59
ATOM     59  N   UNL     1      26.573  36.399  15.463  1.00  0.00    -0.319 N 
ATOM     60  C   UNL     1      27.360  35.987  14.362  1.00  0.00     0.407 C 
ATOM     61  H   UNL     1      25.535  36.374  15.392  1.00  0.00     0.167 HD
ATOM     62  O   UNL     1      28.609  36.035  14.479  1.00  0.00    -0.225 OA
BRANCH  60  63
ATOM     63  O   UNL     1      26.757  35.545  13.192  1.00  0.00    -0.443 OA
BRANCH  63  64
ATOM     64  C   UNL     1      25.343  35.349  13.203  1.00  0.00     0.294 C 
BRANCH  64  65
ATOM     65  C   UNL     1      24.969  33.978  13.621  1.00  0.00     0.120 A 
ATOM     66  C   UNL     1      24.724  32.897  12.804  1.00  0.00     0.138 A 
ATOM     67  N   UNL     1      24.791  33.520  14.883  1.00  0.00    -0.132 NA
ATOM     68  N   UNL     1      24.418  31.867  13.587  1.00  0.00    -0.252 N 
ATOM     69  N   UNL     1      24.460  32.248  14.844  1.00  0.00    -0.067 NA
BRANCH  68  70
ATOM     70  C   UNL     1      24.079  30.530  13.099  1.00  0.00     0.150 C 
BRANCH  70  71
ATOM     71  C   UNL     1      22.706  30.097  13.622  1.00  0.00     0.022 C 
ATOM     72  C   UNL     1      21.764  30.203  12.442  1.00  0.00     0.011 C 
BRANCH  71  73
ATOM     73  C   UNL     1      22.798  28.693  14.131  1.00  0.00     0.089 C 
BRANCH  73  74
ATOM     74  N   UNL     1      22.353  28.421  15.435  1.00  0.00    -0.299 NA
ATOM     75  C   UNL     1      21.557  29.334  16.139  1.00  0.00     0.106 C 
ATOM     76  C   UNL     1      23.213  27.582  16.207  1.00  0.00     0.106 C 
ATOM     77  C   UNL     1      22.116  29.654  17.526  1.00  0.00     0.132 C 
ATOM     78  C   UNL     1      22.512  27.191  17.496  1.00  0.00     0.132 C 
ATOM     79  N   UNL     1      22.331  28.403  18.252  1.00  0.00    -0.369 N 
BRANCH  79  80
ATOM     80  C   UNL     1      22.361  28.420  19.651  1.00  0.00     0.037 A 
ATOM     81  C   UNL     1      21.524  29.243  20.400  1.00  0.00     0.027 A 
ATOM     82  C   UNL     1      23.216  27.616  20.394  1.00  0.00     0.027 A 
ATOM     83  C   UNL     1      21.529  29.274  21.775  1.00  0.00     0.022 A 
ATOM     84  C   UNL     1      23.223  27.644  21.774  1.00  0.00     0.022 A 
ATOM     85  C   UNL     1      22.382  28.471  22.485  1.00  0.00     0.041 A 
ATOM     86  Cl  UNL     1      22.388  28.509  24.217  1.00  0.00    -0.084 Cl
ENDBRANCH  79  80
ENDBRANCH  73  74
ENDBRANCH  71  73
ENDBRANCH  70  71
ENDBRANCH  68  70
ENDBRANCH  64  65
ENDBRANCH  63  64
ENDBRANCH  60  63
ENDBRANCH  58  59
ENDBRANCH  55  58
ENDBRANCH   1  55
TORSDOF 34
BEGIN_RES LYS A 131
REMARK  4 active torsions:
REMARK  status: ('A' for Active; 'I' for Inactive)
REMARK    1  A    between atoms: CA   and  CB  
REMARK    2  A    between atoms: CB   and  CG  
REMARK    3  A    between atoms: CG   and  CD  
REMARK    4  A    between atoms: CD   and  CE  
ROOT
ATOM      1  CA  LYS A 131      29.867  25.555  16.977  1.00 20.52     0.186 C 
ENDROOT
BRANCH   1   2
ATOM      2  CB  LYS A 131      28.345  25.722  17.026  1.00 20.94     0.034 C 
BRANCH   2   3
ATOM      3  CG  LYS A 131      27.602  24.400  16.916  1.00 22.96     0.005 C 
BRANCH   3   4
ATOM      4  CD  LYS A 131      26.167  24.518  17.351  1.00 24.33     0.041 C 
BRANCH   4   5
ATOM      5  CE  LYS A 131      26.033  25.656  18.357  1.00 26.91     0.338 C 
ATOM      6  NZ  LYS A 131      25.616  25.132  19.680  1.00 27.40     0.618 N 
ENDBRANCH   4   5
ENDBRANCH   3   4
ENDBRANCH   2   3
ENDBRANCH   1   2
END_RES LYS A 131
BEGIN_RES LYS A 135
REMARK  4 active torsions:
REMARK  status: ('A' for Active; 'I' for Inactive)
REMARK    5  A    between atoms: CA   and  CB  
REMARK    6  A    between atoms: CB   and  CG  
REMARK    7  A    between atoms: CG   and  CD  
REMARK    8  A    between atoms: CD   and  CE  
ROOT
ATOM      7  CA  LYS A 135      33.193  34.663   9.290  1.00 25.02     0.186 C 
ENDROOT
BRANCH   7   8
ATOM      8  CB  LYS A 135      32.060  35.360  10.034  1.00 26.63     0.034 C 
BRANCH   8   9
ATOM      9  CG  LYS A 135      30.784  35.452   9.238  1.00 29.45     0.005 C 
BRANCH   9  10
ATOM     10  CD  LYS A 135      30.192  34.070   9.011  1.00 32.00     0.041 C 
BRANCH  10  11
ATOM     11  CE  LYS A 135      28.679  34.116   9.105  1.00 34.25     0.338 C 
ATOM     12  NZ  LYS A 135      28.093  34.864   7.959  1.00 35.99     0.618 N 
ENDBRANCH  10  11
ENDBRANCH   9  10
ENDBRANCH   8   9
ENDBRANCH   7   8
END_RES LYS A 135
