REMARK VINA RESULT:    -4.663      1.785      2.174
REMARK INTER + INTRA:         -21.612
REMARK INTER:                 -11.751
REMARK INTRA:                  -9.861
REMARK UNBOUND:                -9.861
REMARK SMILES CC(=O)N[C@@H]1[C@@H](O)C[C@](OC[C@H]2O[C@@H](O[C@H]3[C@H](O)[C@@H](O)[C@H](OCCN=[N+]=[N-])O[C@@H]3CO)[C@H](O)[C@@H](O)[C@H]2O)(C(=O)O)O[C@H]1C(O)[C@H](O)CNC(=O)OCc1cn(-c2ccc([N+](=O)[O-])cc2)nn1
REMARK SMILES IDX 9 1 8 2 6 3 5 4 42 5 41 6 10 7 11 8 12 9 14 10 13 11 32 12
REMARK SMILES IDX 34 13 36 14 15 15 16 16 29 17 28 18 21 19 17 20 19 21 30 22
REMARK SMILES IDX 31 23 22 25 23 26 24 27 25 28 26 29 27 30 18 31 20 33 33 35
REMARK SMILES IDX 35 37 37 39 38 41 39 42 40 43 7 45 43 47 44 48 45 50 46 51
REMARK SMILES IDX 47 53 48 54 49 55 50 57 51 58 52 59 53 60 54 61 66 62 55 63
REMARK SMILES IDX 65 64 56 65 57 66 64 67 58 68 63 69 59 70 60 71 61 72 62 73
REMARK SMILES IDX 4 74 2 75 1 77 3 78
REMARK H PARENT 31 24 18 32 20 34 33 36 35 38 37 40 40 44 7 46 44 49 46 52
REMARK H PARENT 48 56 4 76
REMARK Flexibility Score: inf
ROOT
ATOM      1  C   UNL     1      28.115  39.742   5.462  1.00  0.00     0.272 C 
ATOM      2  C   UNL     1      27.760  38.434   4.833  1.00  0.00     0.113 C 
ATOM      3  C   UNL     1      27.984  37.336   5.781  1.00  0.00     0.145 C 
ATOM      4  C   UNL     1      28.805  37.690   7.035  1.00  0.00     0.142 C 
ATOM      5  C   UNL     1      29.827  38.662   6.673  1.00  0.00     0.178 C 
ATOM      6  O   UNL     1      29.450  39.698   5.824  1.00  0.00    -0.332 OA
ENDROOT
BRANCH   1   7
ATOM      7  O   UNL     1      27.285  40.168   6.451  1.00  0.00    -0.338 OA
BRANCH   7   8
ATOM      8  C   UNL     1      27.665  41.272   7.143  1.00  0.00     0.199 C 
BRANCH   8   9
ATOM      9  C   UNL     1      26.485  41.939   7.839  1.00  0.00     0.179 C 
ATOM     10  C   UNL     1      25.622  40.455   9.428  1.00  0.00     0.282 C 
ATOM     11  O   UNL     1      25.508  41.055   8.213  1.00  0.00    -0.341 OA
ATOM     12  C   UNL     1      26.753  40.825  10.298  1.00  0.00     0.202 C 
ATOM     13  C   UNL     1      27.043  42.301  10.230  1.00  0.00     0.179 C 
ATOM     14  C   UNL     1      26.855  42.921   8.892  1.00  0.00     0.177 C 
BRANCH  10  15
ATOM     15  O   UNL     1      25.477  39.085   9.231  1.00  0.00    -0.341 OA
BRANCH  15  16
ATOM     16  C   UNL     1      24.215  38.594   9.185  1.00  0.00     0.184 C 
ATOM     17  C   UNL     1      23.949  37.469  10.160  1.00  0.00     0.178 C 
ATOM     18  O   UNL     1      22.628  37.017   9.962  1.00  0.00    -0.341 OA
ATOM     19  C   UNL     1      22.570  36.298   8.768  1.00  0.00     0.281 C 
ATOM     20  C   UNL     1      24.061  37.934   7.800  1.00  0.00     0.180 C 
ATOM     21  C   UNL     1      22.661  37.366   7.671  1.00  0.00     0.202 C 
BRANCH  17  22
ATOM     22  C   UNL     1      24.036  37.871  11.609  1.00  0.00     0.191 C 
BRANCH  22  23
ATOM     23  O   UNL     1      23.553  39.203  11.652  1.00  0.00    -0.394 OA
ATOM     24  H   UNL     1      22.560  39.213  11.608  1.00  0.00     0.210 HD
ENDBRANCH  22  23
ENDBRANCH  17  22
BRANCH  19  25
ATOM     25  O   UNL     1      21.363  35.660   8.652  1.00  0.00    -0.350 OA
BRANCH  25  26
ATOM     26  C   UNL     1      20.410  35.998   9.579  1.00  0.00     0.169 C 
BRANCH  26  27
ATOM     27  C   UNL     1      19.906  34.859  10.419  1.00  0.00     0.119 C 
BRANCH  27  28
ATOM     28  N   UNL     1      18.514  34.596  10.048  1.00  0.00    -0.092 NA
ATOM     29  N   UNL     1      18.256  34.194   8.923  1.00  0.00     0.001 N 
ATOM     30  N   UNL     1      18.055  33.578   7.889  1.00  0.00    -0.003 NA
ENDBRANCH  27  28
ENDBRANCH  26  27
ENDBRANCH  25  26
ENDBRANCH  19  25
BRANCH  20  31
ATOM     31  O   UNL     1      24.396  38.784   6.784  1.00  0.00    -0.387 OA
ATOM     32  H   UNL     1      23.648  39.163   6.284  1.00  0.00     0.211 HD
ENDBRANCH  20  31
BRANCH  21  33
ATOM     33  O   UNL     1      22.482  36.844   6.419  1.00  0.00    -0.385 OA
ATOM     34  H   UNL     1      22.115  35.931   6.500  1.00  0.00     0.211 HD
ENDBRANCH  21  33
ENDBRANCH  15  16
ENDBRANCH  10  15
BRANCH  12  35
ATOM     35  O   UNL     1      26.385  40.601  11.639  1.00  0.00    -0.385 OA
ATOM     36  H   UNL     1      26.629  41.350  12.215  1.00  0.00     0.211 HD
ENDBRANCH  12  35
BRANCH  13  37
ATOM     37  O   UNL     1      28.347  42.530  10.732  1.00  0.00    -0.387 OA
ATOM     38  H   UNL     1      28.707  41.671  11.007  1.00  0.00     0.211 HD
ENDBRANCH  13  37
BRANCH  14  39
ATOM     39  O   UNL     1      27.916  43.704   8.457  1.00  0.00    -0.387 OA
ATOM     40  H   UNL     1      27.591  44.224   7.673  1.00  0.00     0.211 HD
ENDBRANCH  14  39
ENDBRANCH   8   9
ENDBRANCH   7   8
ENDBRANCH   1   7
BRANCH   1  41
ATOM     41  C   UNL     1      28.118  40.788   4.366  1.00  0.00     0.364 C 
ATOM     42  O   UNL     1      27.080  41.018   3.717  1.00  0.00    -0.246 OA
BRANCH  41  43
ATOM     43  O   UNL     1      29.268  41.474   4.091  1.00  0.00    -0.477 OA
ATOM     44  H   UNL     1      30.144  41.370   4.595  1.00  0.00     0.296 HD
ENDBRANCH  41  43
ENDBRANCH   1  41
BRANCH   3  45
ATOM     45  O   UNL     1      26.778  36.818   6.248  1.00  0.00    -0.391 OA
ATOM     46  H   UNL     1      26.927  36.043   6.824  1.00  0.00     0.211 HD
ENDBRANCH   3  45
BRANCH   5  47
ATOM     47  C   UNL     1      30.693  39.309   7.663  1.00  0.00     0.176 C 
BRANCH  47  48
ATOM     48  O   UNL     1      31.878  38.641   7.982  1.00  0.00    -0.388 OA
ATOM     49  H   UNL     1      31.923  38.294   8.890  1.00  0.00     0.211 HD
ENDBRANCH  47  48
BRANCH  47  50
ATOM     50  C   UNL     1      31.063  40.750   7.531  1.00  0.00     0.165 C 
BRANCH  50  51
ATOM     51  O   UNL     1      32.022  41.056   6.616  1.00  0.00    -0.388 OA
ATOM     52  H   UNL     1      31.983  40.481   5.808  1.00  0.00     0.211 HD
ENDBRANCH  50  51
BRANCH  50  53
ATOM     53  C   UNL     1      31.115  41.473   8.850  1.00  0.00     0.154 C 
BRANCH  53  54
ATOM     54  N   UNL     1      30.889  40.647  10.006  1.00  0.00    -0.319 N 
ATOM     55  C   UNL     1      31.540  40.814  11.251  1.00  0.00     0.407 C 
ATOM     56  H   UNL     1      30.198  39.851   9.963  1.00  0.00     0.167 HD
ATOM     57  O   UNL     1      32.372  41.715  11.393  1.00  0.00    -0.225 OA
BRANCH  55  58
ATOM     58  O   UNL     1      31.271  39.981  12.340  1.00  0.00    -0.443 OA
BRANCH  58  59
ATOM     59  C   UNL     1      30.082  40.012  13.083  1.00  0.00     0.294 C 
BRANCH  59  60
ATOM     60  C   UNL     1      29.165  38.940  12.642  1.00  0.00     0.121 A 
ATOM     61  C   UNL     1      28.468  38.022  13.425  1.00  0.00     0.144 A 
ATOM     62  N   UNL     1      28.795  38.634  11.364  1.00  0.00    -0.131 NA
ATOM     63  N   UNL     1      27.729  37.224  12.632  1.00  0.00    -0.220 N 
ATOM     64  N   UNL     1      27.949  37.620  11.398  1.00  0.00    -0.062 NA
BRANCH  63  65
ATOM     65  C   UNL     1      26.860  36.162  13.040  1.00  0.00     0.067 A 
ATOM     66  C   UNL     1      26.364  36.027  14.315  1.00  0.00     0.035 A 
ATOM     67  C   UNL     1      26.491  35.195  12.115  1.00  0.00     0.035 A 
ATOM     68  C   UNL     1      25.529  34.966  14.662  1.00  0.00     0.088 A 
ATOM     69  C   UNL     1      25.665  34.145  12.455  1.00  0.00     0.088 A 
ATOM     70  C   UNL     1      25.167  34.008  13.733  1.00  0.00     0.269 A 
BRANCH  70  71
ATOM     71  N   UNL     1      24.316  32.928  14.100  1.00  0.00     0.062 N 
ATOM     72  O   UNL     1      23.216  33.066  14.658  1.00  0.00    -0.258 OA
ATOM     73  O   UNL     1      24.742  31.654  13.819  1.00  0.00    -0.258 OA
ENDBRANCH  70  71
ENDBRANCH  63  65
ENDBRANCH  59  60
ENDBRANCH  58  59
ENDBRANCH  55  58
ENDBRANCH  53  54
ENDBRANCH  50  53
ENDBRANCH  47  50
ENDBRANCH   5  47
BRANCH   4  74
ATOM     74  N   UNL     1      29.436  36.391   7.317  1.00  0.00    -0.348 N 
ATOM     75  C   UNL     1      28.923  35.489   8.266  1.00  0.00     0.217 C 
ATOM     76  H   UNL     1      30.285  36.148   6.778  1.00  0.00     0.163 HD
ATOM     77  C   UNL     1      29.643  34.198   8.479  1.00  0.00     0.114 C 
ATOM     78  O   UNL     1      27.901  35.725   8.928  1.00  0.00    -0.275 OA
ENDBRANCH   4  74
TORSDOF 31
BEGIN_RES LYS A 131
REMARK  4 active torsions:
REMARK  status: ('A' for Active; 'I' for Inactive)
REMARK    1  A    between atoms: CA   and  CB  
REMARK    2  A    between atoms: CB   and  CG  
REMARK    3  A    between atoms: CG   and  CD  
REMARK    4  A    between atoms: CD   and  CE  
ROOT
ATOM      1  CA  LYS A 131      29.867  25.555  16.977  1.00 20.52     0.186 C 
ENDROOT
BRANCH   1   2
ATOM      2  CB  LYS A 131      28.345  25.722  17.026  1.00 20.94     0.034 C 
BRANCH   2   3
ATOM      3  CG  LYS A 131      27.599  24.476  16.574  1.00 22.96     0.005 C 
BRANCH   3   4
ATOM      4  CD  LYS A 131      27.066  23.683  17.735  1.00 24.33     0.041 C 
BRANCH   4   5
ATOM      5  CE  LYS A 131      25.595  23.360  17.499  1.00 26.91     0.338 C 
ATOM      6  NZ  LYS A 131      24.868  24.564  17.030  1.00 27.40     0.618 N 
ENDBRANCH   4   5
ENDBRANCH   3   4
ENDBRANCH   2   3
ENDBRANCH   1   2
END_RES LYS A 131
BEGIN_RES LYS A 135
REMARK  4 active torsions:
REMARK  status: ('A' for Active; 'I' for Inactive)
REMARK    5  A    between atoms: CA   and  CB  
REMARK    6  A    between atoms: CB   and  CG  
REMARK    7  A    between atoms: CG   and  CD  
REMARK    8  A    between atoms: CD   and  CE  
ROOT
ATOM      7  CA  LYS A 135      33.193  34.663   9.290  1.00 25.02     0.186 C 
ENDROOT
BRANCH   7   8
ATOM      8  CB  LYS A 135      32.060  35.360  10.034  1.00 26.63     0.034 C 
BRANCH   8   9
ATOM      9  CG  LYS A 135      32.502  36.041  11.303  1.00 29.45     0.005 C 
BRANCH   9  10
ATOM     10  CD  LYS A 135      31.383  36.034  12.334  1.00 32.00     0.041 C 
BRANCH  10  11
ATOM     11  CE  LYS A 135      30.448  34.865  12.096  1.00 34.25     0.338 C 
ATOM     12  NZ  LYS A 135      29.928  34.324  13.382  1.00 35.99     0.618 N 
ENDBRANCH  10  11
ENDBRANCH   9  10
ENDBRANCH   8   9
ENDBRANCH   7   8
END_RES LYS A 135
