REMARK VINA RESULT:    -5.458      3.988     10.178
REMARK INTER + INTRA:         -25.582
REMARK INTER:                 -12.269
REMARK INTRA:                 -13.313
REMARK UNBOUND:               -11.349
REMARK SMILES CC(=O)N[C@@H]1[C@@H](O)C[C@](OC[C@H]2O[C@@H](O[C@H]3[C@H](O)[C@@H](O)[C@H](OCCN=[N+]=[N-])O[C@@H]3CO)[C@H](O)[C@@H](O)[C@H]2O)(C(=O)O)O[C@H]1C(O)[C@H](O)CNC(=O)OCc1cn(-c2ccc(-c3c4ccc(=O)cc-4oc4cc(O)ccc34)c(C(=O)[O-])c2)nn1
REMARK SMILES IDX 9 1 8 2 6 3 5 4 42 5 41 6 10 7 11 8 12 9 14 10 13 11 32 12
REMARK SMILES IDX 34 13 36 14 15 15 16 16 29 17 28 18 21 19 17 20 19 21 30 22
REMARK SMILES IDX 31 23 22 25 23 26 24 27 25 28 26 29 27 30 18 31 20 33 33 35
REMARK SMILES IDX 35 37 37 39 38 41 39 42 40 43 7 45 43 47 44 48 45 50 46 51
REMARK SMILES IDX 47 53 48 54 49 55 50 57 51 58 52 59 53 60 54 61 82 62 55 63
REMARK SMILES IDX 81 64 56 65 80 66 57 67 76 68 58 69 59 70 77 71 78 72 79 73
REMARK SMILES IDX 60 74 75 75 61 76 74 77 69 78 67 79 62 80 73 81 70 82 68 83
REMARK SMILES IDX 66 84 63 85 71 86 64 87 65 88 72 89 4 91 2 92 1 94 3 95
REMARK H PARENT 31 24 18 32 20 34 33 36 35 38 37 40 40 44 7 46 44 49 46 52
REMARK H PARENT 48 56 72 90 4 93
REMARK Flexibility Score: inf
ROOT
ATOM      1  C   UNL     1      28.831  32.316  17.204  1.00  0.00     0.272 C 
ATOM      2  C   UNL     1      27.378  32.718  17.256  1.00  0.00     0.113 C 
ATOM      3  C   UNL     1      27.169  34.129  17.729  1.00  0.00     0.145 C 
ATOM      4  C   UNL     1      28.445  34.592  18.385  1.00  0.00     0.142 C 
ATOM      5  C   UNL     1      28.919  33.458  19.255  1.00  0.00     0.178 C 
ATOM      6  O   UNL     1      29.448  32.464  18.471  1.00  0.00    -0.332 OA
ENDROOT
BRANCH   1   7
ATOM      7  O   UNL     1      29.593  32.939  16.255  1.00  0.00    -0.338 OA
BRANCH   7   8
ATOM      8  C   UNL     1      30.858  32.482  16.153  1.00  0.00     0.199 C 
BRANCH   8   9
ATOM      9  C   UNL     1      31.744  33.434  15.337  1.00  0.00     0.179 C 
ATOM     10  C   UNL     1      31.644  35.004  13.651  1.00  0.00     0.282 C 
ATOM     11  O   UNL     1      31.158  33.849  14.198  1.00  0.00    -0.341 OA
ATOM     12  C   UNL     1      33.064  35.296  13.940  1.00  0.00     0.202 C 
ATOM     13  C   UNL     1      33.396  35.207  15.412  1.00  0.00     0.179 C 
ATOM     14  C   UNL     1      32.249  34.555  16.167  1.00  0.00     0.177 C 
BRANCH  10  15
ATOM     15  O   UNL     1      30.723  36.007  13.945  1.00  0.00    -0.341 OA
BRANCH  15  16
ATOM     16  C   UNL     1      29.600  35.962  13.185  1.00  0.00     0.184 C 
ATOM     17  C   UNL     1      29.344  37.241  12.451  1.00  0.00     0.178 C 
ATOM     18  O   UNL     1      28.464  37.018  11.382  1.00  0.00    -0.341 OA
ATOM     19  C   UNL     1      27.415  36.188  11.757  1.00  0.00     0.281 C 
ATOM     20  C   UNL     1      28.323  35.734  14.014  1.00  0.00     0.180 C 
ATOM     21  C   UNL     1      27.138  36.236  13.217  1.00  0.00     0.202 C 
BRANCH  17  22
ATOM     22  C   UNL     1      30.623  37.795  11.903  1.00  0.00     0.191 C 
BRANCH  22  23
ATOM     23  O   UNL     1      31.270  38.514  12.910  1.00  0.00    -0.394 OA
ATOM     24  H   UNL     1      31.872  37.887  13.366  1.00  0.00     0.210 HD
ENDBRANCH  22  23
ENDBRANCH  17  22
BRANCH  19  25
ATOM     25  O   UNL     1      27.614  34.898  11.312  1.00  0.00    -0.350 OA
BRANCH  25  26
ATOM     26  C   UNL     1      26.758  34.509  10.289  1.00  0.00     0.169 C 
BRANCH  26  27
ATOM     27  C   UNL     1      25.448  35.239  10.526  1.00  0.00     0.119 C 
BRANCH  27  28
ATOM     28  N   UNL     1      24.776  35.549   9.293  1.00  0.00    -0.092 NA
ATOM     29  N   UNL     1      23.549  35.399   9.231  1.00  0.00     0.001 N 
ATOM     30  N   UNL     1      22.345  35.564   9.031  1.00  0.00    -0.003 NA
ENDBRANCH  27  28
ENDBRANCH  26  27
ENDBRANCH  25  26
ENDBRANCH  19  25
BRANCH  20  31
ATOM     31  O   UNL     1      28.185  34.355  14.146  1.00  0.00    -0.387 OA
ATOM     32  H   UNL     1      28.574  33.843  13.403  1.00  0.00     0.211 HD
ENDBRANCH  20  31
BRANCH  21  33
ATOM     33  O   UNL     1      26.690  37.489  13.639  1.00  0.00    -0.385 OA
ATOM     34  H   UNL     1      27.526  38.031  13.786  1.00  0.00     0.211 HD
ENDBRANCH  21  33
ENDBRANCH  15  16
ENDBRANCH  10  15
BRANCH  12  35
ATOM     35  O   UNL     1      33.910  34.417  13.216  1.00  0.00    -0.385 OA
ATOM     36  H   UNL     1      34.814  34.845  13.137  1.00  0.00     0.211 HD
ENDBRANCH  12  35
BRANCH  13  37
ATOM     37  O   UNL     1      33.766  36.430  15.946  1.00  0.00    -0.387 OA
ATOM     38  H   UNL     1      34.660  36.326  16.348  1.00  0.00     0.211 HD
ENDBRANCH  13  37
BRANCH  14  39
ATOM     39  O   UNL     1      31.313  35.541  16.447  1.00  0.00    -0.387 OA
ATOM     40  H   UNL     1      31.512  35.842  17.381  1.00  0.00     0.211 HD
ENDBRANCH  14  39
ENDBRANCH   8   9
ENDBRANCH   7   8
ENDBRANCH   1   7
BRANCH   1  41
ATOM     41  C   UNL     1      28.803  30.810  17.028  1.00  0.00     0.364 C 
ATOM     42  O   UNL     1      28.468  30.246  15.971  1.00  0.00    -0.246 OA
BRANCH  41  43
ATOM     43  O   UNL     1      29.167  29.982  18.087  1.00  0.00    -0.477 OA
ATOM     44  H   UNL     1      29.590  29.080  17.921  1.00  0.00     0.296 HD
ENDBRANCH  41  43
ENDBRANCH   1  41
BRANCH   3  45
ATOM     45  O   UNL     1      26.757  34.914  16.669  1.00  0.00    -0.391 OA
ATOM     46  H   UNL     1      27.569  35.247  16.212  1.00  0.00     0.211 HD
ENDBRANCH   3  45
BRANCH   5  47
ATOM     47  C   UNL     1      30.054  33.923  20.173  1.00  0.00     0.176 C 
BRANCH  47  48
ATOM     48  O   UNL     1      31.151  34.275  19.351  1.00  0.00    -0.388 OA
ATOM     49  H   UNL     1      31.050  35.152  18.947  1.00  0.00     0.211 HD
ENDBRANCH  47  48
BRANCH  47  50
ATOM     50  C   UNL     1      30.534  32.804  21.038  1.00  0.00     0.165 C 
BRANCH  50  51
ATOM     51  O   UNL     1      31.376  31.965  20.306  1.00  0.00    -0.388 OA
ATOM     52  H   UNL     1      32.287  32.356  20.306  1.00  0.00     0.211 HD
ENDBRANCH  50  51
BRANCH  50  53
ATOM     53  C   UNL     1      29.475  32.026  21.735  1.00  0.00     0.154 C 
BRANCH  53  54
ATOM     54  N   UNL     1      29.364  30.677  21.228  1.00  0.00    -0.319 N 
ATOM     55  C   UNL     1      28.953  29.564  22.000  1.00  0.00     0.407 C 
ATOM     56  H   UNL     1      29.593  30.449  20.213  1.00  0.00     0.167 HD
ATOM     57  O   UNL     1      28.657  29.715  23.201  1.00  0.00    -0.225 OA
BRANCH  55  58
ATOM     58  O   UNL     1      28.861  28.280  21.478  1.00  0.00    -0.443 OA
BRANCH  58  59
ATOM     59  C   UNL     1      27.607  27.603  21.334  1.00  0.00     0.294 C 
BRANCH  59  60
ATOM     60  C   UNL     1      27.155  27.873  19.946  1.00  0.00     0.121 A 
ATOM     61  C   UNL     1      26.179  28.746  19.551  1.00  0.00     0.144 A 
ATOM     62  N   UNL     1      27.628  27.302  18.801  1.00  0.00    -0.131 NA
ATOM     63  N   UNL     1      26.066  28.703  18.207  1.00  0.00    -0.220 N 
ATOM     64  N   UNL     1      26.962  27.815  17.784  1.00  0.00    -0.062 NA
BRANCH  63  65
ATOM     65  C   UNL     1      25.162  29.470  17.426  1.00  0.00     0.067 A 
ATOM     66  C   UNL     1      25.094  29.350  16.058  1.00  0.00     0.039 A 
ATOM     67  C   UNL     1      24.327  30.355  18.062  1.00  0.00     0.029 A 
ATOM     68  C   UNL     1      24.196  30.113  15.348  1.00  0.00     0.007 A 
ATOM     69  C   UNL     1      23.428  31.118  17.347  1.00  0.00     0.012 A 
ATOM     70  C   UNL     1      23.343  31.015  15.978  1.00  0.00    -0.008 A 
BRANCH  68  71
ATOM     71  C   UNL     1      24.097  30.010  13.890  1.00  0.00     0.072 C 
ATOM     72  O   UNL     1      24.732  30.776  13.125  1.00  0.00    -0.545 OA
ATOM     73  O   UNL     1      23.286  29.049  13.339  1.00  0.00    -0.545 OA
ENDBRANCH  68  71
BRANCH  70  74
ATOM     74  C   UNL     1      22.398  31.812  15.216  1.00  0.00     0.004 A 
ATOM     75  C   UNL     1      21.141  31.311  14.986  1.00  0.00     0.026 A 
ATOM     76  C   UNL     1      22.720  33.048  14.717  1.00  0.00     0.026 A 
ATOM     77  C   UNL     1      20.731  30.082  15.448  1.00  0.00     0.016 A 
ATOM     78  C   UNL     1      20.249  32.085  14.252  1.00  0.00     0.139 A 
ATOM     79  C   UNL     1      21.736  33.834  13.942  1.00  0.00     0.139 A 
ATOM     80  C   UNL     1      23.955  33.613  14.907  1.00  0.00     0.016 A 
ATOM     81  C   UNL     1      19.462  29.587  15.210  1.00  0.00     0.047 A 
ATOM     82  C   UNL     1      18.991  31.587  14.020  1.00  0.00     0.093 A 
ATOM     83  O   UNL     1      20.567  33.272  13.775  1.00  0.00    -0.456 OA
ATOM     84  C   UNL     1      22.063  35.069  13.444  1.00  0.00     0.099 A 
ATOM     85  C   UNL     1      24.271  34.861  14.399  1.00  0.00     0.053 A 
ATOM     86  C   UNL     1      18.571  30.347  14.484  1.00  0.00     0.119 A 
ATOM     87  C   UNL     1      23.323  35.566  13.678  1.00  0.00     0.182 A 
ATOM     88  O   UNL     1      23.671  36.696  13.242  1.00  0.00    -0.290 OA
BRANCH  86  89
ATOM     89  O   UNL     1      17.301  29.844  14.250  1.00  0.00    -0.508 OA
ATOM     90  H   UNL     1      16.522  30.394  14.603  1.00  0.00     0.293 HD
ENDBRANCH  86  89
ENDBRANCH  70  74
ENDBRANCH  63  65
ENDBRANCH  59  60
ENDBRANCH  58  59
ENDBRANCH  55  58
ENDBRANCH  53  54
ENDBRANCH  50  53
ENDBRANCH  47  50
ENDBRANCH   5  47
BRANCH   4  91
ATOM     91  N   UNL     1      28.272  35.819  19.133  1.00  0.00    -0.348 N 
ATOM     92  C   UNL     1      28.578  37.042  18.504  1.00  0.00     0.217 C 
ATOM     93  H   UNL     1      27.932  35.844  20.119  1.00  0.00     0.163 HD
ATOM     94  C   UNL     1      28.439  38.358  19.175  1.00  0.00     0.114 C 
ATOM     95  O   UNL     1      28.999  37.079  17.297  1.00  0.00    -0.275 OA
ENDBRANCH   4  91
TORSDOF 33
BEGIN_RES LYS A 131
REMARK  4 active torsions:
REMARK  status: ('A' for Active; 'I' for Inactive)
REMARK    1  A    between atoms: CA   and  CB  
REMARK    2  A    between atoms: CB   and  CG  
REMARK    3  A    between atoms: CG   and  CD  
REMARK    4  A    between atoms: CD   and  CE  
ROOT
ATOM      1  CA  LYS A 131      29.867  25.555  16.977  1.00 20.52     0.186 C 
ENDROOT
BRANCH   1   2
ATOM      2  CB  LYS A 131      28.345  25.722  17.026  1.00 20.94     0.034 C 
BRANCH   2   3
ATOM      3  CG  LYS A 131      27.599  24.468  16.596  1.00 22.96     0.005 C 
BRANCH   3   4
ATOM      4  CD  LYS A 131      26.963  23.760  17.760  1.00 24.33     0.041 C 
BRANCH   4   5
ATOM      5  CE  LYS A 131      25.485  24.130  17.835  1.00 26.91     0.338 C 
ATOM      6  NZ  LYS A 131      24.643  22.997  17.385  1.00 27.40     0.618 N 
ENDBRANCH   4   5
ENDBRANCH   3   4
ENDBRANCH   2   3
ENDBRANCH   1   2
END_RES LYS A 131
BEGIN_RES LYS A 135
REMARK  4 active torsions:
REMARK  status: ('A' for Active; 'I' for Inactive)
REMARK    5  A    between atoms: CA   and  CB  
REMARK    6  A    between atoms: CB   and  CG  
REMARK    7  A    between atoms: CG   and  CD  
REMARK    8  A    between atoms: CD   and  CE  
ROOT
ATOM      7  CA  LYS A 135      33.193  34.663   9.290  1.00 25.02     0.186 C 
ENDROOT
BRANCH   7   8
ATOM      8  CB  LYS A 135      32.060  35.360  10.034  1.00 26.63     0.034 C 
BRANCH   8   9
ATOM      9  CG  LYS A 135      30.738  34.645   9.925  1.00 29.45     0.005 C 
BRANCH   9  10
ATOM     10  CD  LYS A 135      30.306  34.535   8.471  1.00 32.00     0.041 C 
BRANCH  10  11
ATOM     11  CE  LYS A 135      29.475  35.738   8.069  1.00 34.25     0.338 C 
ATOM     12  NZ  LYS A 135      28.399  35.353   7.114  1.00 35.99     0.618 N 
ENDBRANCH  10  11
ENDBRANCH   9  10
ENDBRANCH   8   9
ENDBRANCH   7   8
END_RES LYS A 135
