REMARK VINA RESULT:    -5.314      4.125     11.765
REMARK INTER + INTRA:         -22.905
REMARK INTER:                 -12.444
REMARK INTRA:                 -10.460
REMARK UNBOUND:                -9.203
REMARK SMILES CC(=O)N[C@@H]1[C@@H](O)C[C@](OC[C@H]2O[C@@H](O[C@H]3[C@H](O)[C@@H](O)[C@H](OCCN=[N+]=[N-])O[C@@H]3CO)[C@H](O)[C@@H](O)[C@H]2O)(C(=O)O)O[C@H]1C(O)[C@H](O)CNC(=O)OCc1cn(Cc2ccc(C#N)cc2)nn1
REMARK SMILES IDX 9 1 8 2 6 3 5 4 42 5 41 6 10 7 11 8 12 9 14 10 13 11 32 12
REMARK SMILES IDX 34 13 36 14 15 15 16 16 29 17 28 18 21 19 17 20 19 21 30 22
REMARK SMILES IDX 31 23 22 25 23 26 24 27 25 28 26 29 27 30 18 31 20 33 33 35
REMARK SMILES IDX 35 37 37 39 38 41 39 42 40 43 7 45 43 47 44 48 45 50 46 51
REMARK SMILES IDX 47 53 48 54 49 55 50 57 51 58 52 59 53 60 54 61 66 62 55 63
REMARK SMILES IDX 65 64 56 65 57 66 58 67 64 68 59 69 63 70 60 71 61 72 62 73
REMARK SMILES IDX 4 74 2 75 1 77 3 78
REMARK H PARENT 31 24 18 32 20 34 33 36 35 38 37 40 40 44 7 46 44 49 46 52
REMARK H PARENT 48 56 4 76
REMARK Flexibility Score: inf
ROOT
ATOM      1  C   UNL     1      30.081  34.575  17.145  1.00  0.00     0.272 C 
ATOM      2  C   UNL     1      29.019  35.604  17.315  1.00  0.00     0.113 C 
ATOM      3  C   UNL     1      27.825  35.436  16.446  1.00  0.00     0.145 C 
ATOM      4  C   UNL     1      28.283  34.769  15.139  1.00  0.00     0.142 C 
ATOM      5  C   UNL     1      29.719  35.157  14.954  1.00  0.00     0.178 C 
ATOM      6  O   UNL     1      30.512  34.451  15.814  1.00  0.00    -0.332 OA
ENDROOT
BRANCH   1   7
ATOM      7  O   UNL     1      29.812  33.332  17.674  1.00  0.00    -0.338 OA
BRANCH   7   8
ATOM      8  C   UNL     1      30.696  32.361  17.343  1.00  0.00     0.199 C 
BRANCH   8   9
ATOM      9  C   UNL     1      30.056  30.962  17.367  1.00  0.00     0.179 C 
ATOM     10  C   UNL     1      28.354  29.829  18.438  1.00  0.00     0.282 C 
ATOM     11  O   UNL     1      29.151  30.973  18.429  1.00  0.00    -0.341 OA
ATOM     12  C   UNL     1      27.509  29.692  17.214  1.00  0.00     0.202 C 
ATOM     13  C   UNL     1      27.818  30.823  16.262  1.00  0.00     0.179 C 
ATOM     14  C   UNL     1      29.326  30.792  16.060  1.00  0.00     0.177 C 
BRANCH  10  15
ATOM     15  O   UNL     1      27.508  29.936  19.539  1.00  0.00    -0.341 OA
BRANCH  15  16
ATOM     16  C   UNL     1      27.424  28.762  20.285  1.00  0.00     0.184 C 
ATOM     17  C   UNL     1      27.342  29.094  21.732  1.00  0.00     0.178 C 
ATOM     18  O   UNL     1      28.513  29.053  22.432  1.00  0.00    -0.341 OA
ATOM     19  C   UNL     1      29.665  28.923  21.699  1.00  0.00     0.281 C 
ATOM     20  C   UNL     1      28.474  27.766  19.912  1.00  0.00     0.180 C 
ATOM     21  C   UNL     1      29.596  27.637  20.907  1.00  0.00     0.202 C 
BRANCH  17  22
ATOM     22  C   UNL     1      26.252  28.243  22.380  1.00  0.00     0.191 C 
BRANCH  22  23
ATOM     23  O   UNL     1      26.760  26.952  22.534  1.00  0.00    -0.394 OA
ATOM     24  H   UNL     1      26.037  26.310  22.807  1.00  0.00     0.210 HD
ENDBRANCH  22  23
ENDBRANCH  17  22
BRANCH  19  25
ATOM     25  O   UNL     1      30.714  28.794  22.632  1.00  0.00    -0.350 OA
BRANCH  25  26
ATOM     26  C   UNL     1      31.654  29.800  22.459  1.00  0.00     0.169 C 
BRANCH  26  27
ATOM     27  C   UNL     1      33.060  29.263  22.640  1.00  0.00     0.119 C 
BRANCH  27  28
ATOM     28  N   UNL     1      34.045  30.055  21.928  1.00  0.00    -0.092 NA
ATOM     29  N   UNL     1      34.003  31.273  21.975  1.00  0.00     0.001 N 
ATOM     30  N   UNL     1      34.374  32.431  22.225  1.00  0.00    -0.003 NA
ENDBRANCH  27  28
ENDBRANCH  26  27
ENDBRANCH  25  26
ENDBRANCH  19  25
BRANCH  20  31
ATOM     31  O   UNL     1      27.945  26.509  19.592  1.00  0.00    -0.387 OA
ATOM     32  H   UNL     1      28.684  25.883  19.336  1.00  0.00     0.211 HD
ENDBRANCH  20  31
BRANCH  21  33
ATOM     33  O   UNL     1      30.817  27.371  20.284  1.00  0.00    -0.385 OA
ATOM     34  H   UNL     1      31.335  28.218  20.302  1.00  0.00     0.211 HD
ENDBRANCH  21  33
ENDBRANCH  15  16
ENDBRANCH  10  15
BRANCH  12  35
ATOM     35  O   UNL     1      27.661  28.500  16.540  1.00  0.00    -0.385 OA
ATOM     36  H   UNL     1      28.629  28.338  16.358  1.00  0.00     0.211 HD
ENDBRANCH  12  35
BRANCH  13  37
ATOM     37  O   UNL     1      27.386  32.006  16.839  1.00  0.00    -0.387 OA
ATOM     38  H   UNL     1      27.225  32.740  16.206  1.00  0.00     0.211 HD
ENDBRANCH  13  37
BRANCH  14  39
ATOM     39  O   UNL     1      29.764  31.651  15.081  1.00  0.00    -0.387 OA
ATOM     40  H   UNL     1      29.029  32.233  14.793  1.00  0.00     0.211 HD
ENDBRANCH  14  39
ENDBRANCH   8   9
ENDBRANCH   7   8
ENDBRANCH   1   7
BRANCH   1  41
ATOM     41  C   UNL     1      31.300  35.110  17.841  1.00  0.00     0.364 C 
ATOM     42  O   UNL     1      31.251  35.405  19.039  1.00  0.00    -0.246 OA
BRANCH  41  43
ATOM     43  O   UNL     1      32.460  35.258  17.119  1.00  0.00    -0.477 OA
ATOM     44  H   UNL     1      33.203  34.571  17.094  1.00  0.00     0.296 HD
ENDBRANCH  41  43
ENDBRANCH   1  41
BRANCH   3  45
ATOM     45  O   UNL     1      26.742  34.820  17.006  1.00  0.00    -0.391 OA
ATOM     46  H   UNL     1      27.014  34.154  17.670  1.00  0.00     0.211 HD
ENDBRANCH   3  45
BRANCH   5  47
ATOM     47  C   UNL     1      30.200  35.012  13.504  1.00  0.00     0.176 C 
BRANCH  47  48
ATOM     48  O   UNL     1      29.434  35.956  12.781  1.00  0.00    -0.388 OA
ATOM     49  H   UNL     1      29.946  36.803  12.751  1.00  0.00     0.211 HD
ENDBRANCH  47  48
BRANCH  47  50
ATOM     50  C   UNL     1      31.620  35.337  13.363  1.00  0.00     0.165 C 
BRANCH  50  51
ATOM     51  O   UNL     1      32.439  34.322  13.945  1.00  0.00    -0.388 OA
ATOM     52  H   UNL     1      32.956  33.958  13.161  1.00  0.00     0.211 HD
ENDBRANCH  50  51
BRANCH  50  53
ATOM     53  C   UNL     1      32.072  36.661  13.837  1.00  0.00     0.154 C 
BRANCH  53  54
ATOM     54  N   UNL     1      31.530  37.858  13.364  1.00  0.00    -0.319 N 
ATOM     55  C   UNL     1      30.762  38.832  14.029  1.00  0.00     0.407 C 
ATOM     56  H   UNL     1      31.717  38.098  12.329  1.00  0.00     0.167 HD
ATOM     57  O   UNL     1      30.459  38.760  15.228  1.00  0.00    -0.225 OA
BRANCH  55  58
ATOM     58  O   UNL     1      30.291  39.967  13.350  1.00  0.00    -0.443 OA
BRANCH  58  59
ATOM     59  C   UNL     1      28.904  40.260  13.338  1.00  0.00     0.294 C 
BRANCH  59  60
ATOM     60  C   UNL     1      28.209  39.197  12.529  1.00  0.00     0.120 A 
ATOM     61  C   UNL     1      28.182  39.169  11.150  1.00  0.00     0.138 A 
ATOM     62  N   UNL     1      27.506  38.127  12.943  1.00  0.00    -0.132 NA
ATOM     63  N   UNL     1      27.461  38.082  10.769  1.00  0.00    -0.248 N 
ATOM     64  N   UNL     1      27.087  37.505  11.864  1.00  0.00    -0.067 NA
BRANCH  63  65
ATOM     65  C   UNL     1      27.215  37.759   9.373  1.00  0.00     0.181 C 
BRANCH  65  66
ATOM     66  C   UNL     1      25.770  37.328   9.328  1.00  0.00    -0.026 A 
ATOM     67  C   UNL     1      25.496  35.989   9.198  1.00  0.00     0.007 A 
ATOM     68  C   UNL     1      24.754  38.281   9.416  1.00  0.00     0.007 A 
ATOM     69  C   UNL     1      24.209  35.503   9.144  1.00  0.00     0.020 A 
ATOM     70  C   UNL     1      23.471  37.797   9.362  1.00  0.00     0.020 A 
ATOM     71  C   UNL     1      23.204  36.473   9.233  1.00  0.00     0.052 A 
BRANCH  71  72
ATOM     72  C   UNL     1      21.832  35.986   9.158  1.00  0.00     0.099 C 
ATOM     73  N   UNL     1      20.741  35.587   9.081  1.00  0.00    -0.192 NA
ENDBRANCH  71  72
ENDBRANCH  65  66
ENDBRANCH  63  65
ENDBRANCH  59  60
ENDBRANCH  58  59
ENDBRANCH  55  58
ENDBRANCH  53  54
ENDBRANCH  50  53
ENDBRANCH  47  50
ENDBRANCH   5  47
BRANCH   4  74
ATOM     74  N   UNL     1      27.411  35.149  14.056  1.00  0.00    -0.348 N 
ATOM     75  C   UNL     1      26.288  34.330  13.767  1.00  0.00     0.217 C 
ATOM     76  H   UNL     1      27.567  35.993  13.484  1.00  0.00     0.163 HD
ATOM     77  C   UNL     1      25.351  34.654  12.677  1.00  0.00     0.114 C 
ATOM     78  O   UNL     1      26.052  33.276  14.449  1.00  0.00    -0.275 OA
ENDBRANCH   4  74
TORSDOF 32
BEGIN_RES LYS A 131
REMARK  4 active torsions:
REMARK  status: ('A' for Active; 'I' for Inactive)
REMARK    1  A    between atoms: CA   and  CB  
REMARK    2  A    between atoms: CB   and  CG  
REMARK    3  A    between atoms: CG   and  CD  
REMARK    4  A    between atoms: CD   and  CE  
ROOT
ATOM      1  CA  LYS A 131      29.867  25.555  16.977  1.00 20.52     0.186 C 
ENDROOT
BRANCH   1   2
ATOM      2  CB  LYS A 131      28.345  25.722  17.026  1.00 20.94     0.034 C 
BRANCH   2   3
ATOM      3  CG  LYS A 131      27.599  24.478  16.567  1.00 22.96     0.005 C 
BRANCH   3   4
ATOM      4  CD  LYS A 131      26.960  23.746  17.714  1.00 24.33     0.041 C 
BRANCH   4   5
ATOM      5  CE  LYS A 131      25.475  23.546  17.427  1.00 26.91     0.338 C 
ATOM      6  NZ  LYS A 131      24.776  24.852  17.375  1.00 27.40     0.618 N 
ENDBRANCH   4   5
ENDBRANCH   3   4
ENDBRANCH   2   3
ENDBRANCH   1   2
END_RES LYS A 131
BEGIN_RES LYS A 135
REMARK  4 active torsions:
REMARK  status: ('A' for Active; 'I' for Inactive)
REMARK    5  A    between atoms: CA   and  CB  
REMARK    6  A    between atoms: CB   and  CG  
REMARK    7  A    between atoms: CG   and  CD  
REMARK    8  A    between atoms: CD   and  CE  
ROOT
ATOM      7  CA  LYS A 135      33.193  34.663   9.290  1.00 25.02     0.186 C 
ENDROOT
BRANCH   7   8
ATOM      8  CB  LYS A 135      32.060  35.360  10.034  1.00 26.63     0.034 C 
BRANCH   8   9
ATOM      9  CG  LYS A 135      30.726  34.677   9.877  1.00 29.45     0.005 C 
BRANCH   9  10
ATOM     10  CD  LYS A 135      30.332  34.599   8.410  1.00 32.00     0.041 C 
BRANCH  10  11
ATOM     11  CE  LYS A 135      28.824  34.531   8.267  1.00 34.25     0.338 C 
ATOM     12  NZ  LYS A 135      28.207  33.809   9.414  1.00 35.99     0.618 N 
ENDBRANCH  10  11
ENDBRANCH   9  10
ENDBRANCH   8   9
ENDBRANCH   7   8
END_RES LYS A 135
