REMARK VINA RESULT:    -4.110      4.583      7.511
REMARK INTER + INTRA:         -21.296
REMARK INTER:                 -10.433
REMARK INTRA:                 -10.863
REMARK UNBOUND:               -10.939
REMARK SMILES CC(=O)N[C@@H]1[C@@H](O)C[C@](OC[C@H]2O[C@@H](O[C@H]3[C@H](O)[C@@H](O)[C@H](OCCN=[N+]=[N-])O[C@@H]3CO)[C@H](O)[C@@H](O)[C@H]2O)(C(=O)O)O[C@H]1C(O)[C@H](O)CNC(=O)OCc1cn(Cc2ccsc2)nn1
REMARK SMILES IDX 9 1 8 2 6 3 5 4 42 5 41 6 10 7 11 8 12 9 14 10 13 11 32 12
REMARK SMILES IDX 34 13 36 14 15 15 16 16 29 17 28 18 21 19 17 20 19 21 30 22
REMARK SMILES IDX 31 23 22 25 23 26 24 27 25 28 26 29 27 30 18 31 20 33 33 35
REMARK SMILES IDX 35 37 37 39 38 41 39 42 40 43 7 45 43 47 44 48 45 50 46 51
REMARK SMILES IDX 47 53 48 54 49 55 50 57 51 58 52 59 53 60 54 61 63 62 55 63
REMARK SMILES IDX 62 64 56 65 57 66 58 67 61 68 59 69 60 70 4 71 2 72 1 74
REMARK SMILES IDX 3 75
REMARK H PARENT 31 24 18 32 20 34 33 36 35 38 37 40 40 44 7 46 44 49 46 52
REMARK H PARENT 48 56 4 73
REMARK Flexibility Score: inf
ROOT
ATOM      1  C   UNL     1      32.015  35.757  14.458  1.00  0.00     0.272 C 
ATOM      2  C   UNL     1      32.024  34.273  14.245  1.00  0.00     0.113 C 
ATOM      3  C   UNL     1      31.926  33.452  15.502  1.00  0.00     0.145 C 
ATOM      4  C   UNL     1      30.933  33.977  16.466  1.00  0.00     0.142 C 
ATOM      5  C   UNL     1      30.697  35.472  16.382  1.00  0.00     0.178 C 
ATOM      6  O   UNL     1      30.768  36.018  15.150  1.00  0.00    -0.332 OA
ENDROOT
BRANCH   1   7
ATOM      7  O   UNL     1      31.807  36.387  13.282  1.00  0.00    -0.338 OA
BRANCH   7   8
ATOM      8  C   UNL     1      30.782  37.167  12.996  1.00  0.00     0.199 C 
BRANCH   8   9
ATOM      9  C   UNL     1      30.810  38.639  12.994  1.00  0.00     0.179 C 
ATOM     10  C   UNL     1      31.489  40.288  11.582  1.00  0.00     0.282 C 
ATOM     11  O   UNL     1      30.856  39.024  11.601  1.00  0.00    -0.341 OA
ATOM     12  C   UNL     1      30.897  41.247  12.557  1.00  0.00     0.202 C 
ATOM     13  C   UNL     1      29.675  40.798  13.273  1.00  0.00     0.179 C 
ATOM     14  C   UNL     1      29.527  39.313  13.449  1.00  0.00     0.177 C 
BRANCH  10  15
ATOM     15  O   UNL     1      31.480  40.741  10.287  1.00  0.00    -0.341 OA
BRANCH  15  16
ATOM     16  C   UNL     1      30.471  40.169   9.493  1.00  0.00     0.184 C 
ATOM     17  C   UNL     1      31.030  39.376   8.365  1.00  0.00     0.178 C 
ATOM     18  O   UNL     1      31.139  39.992   7.157  1.00  0.00    -0.341 OA
ATOM     19  C   UNL     1      30.790  41.353   7.151  1.00  0.00     0.281 C 
ATOM     20  C   UNL     1      29.414  41.162   9.128  1.00  0.00     0.180 C 
ATOM     21  C   UNL     1      29.359  41.404   7.613  1.00  0.00     0.202 C 
BRANCH  17  22
ATOM     22  C   UNL     1      30.305  38.055   8.165  1.00  0.00     0.191 C 
BRANCH  22  23
ATOM     23  O   UNL     1      29.503  37.862   9.289  1.00  0.00    -0.394 OA
ATOM     24  H   UNL     1      28.546  38.097   9.104  1.00  0.00     0.210 HD
ENDBRANCH  22  23
ENDBRANCH  17  22
BRANCH  19  25
ATOM     25  O   UNL     1      31.018  41.827   5.887  1.00  0.00    -0.350 OA
BRANCH  25  26
ATOM     26  C   UNL     1      32.318  42.239   5.664  1.00  0.00     0.169 C 
BRANCH  26  27
ATOM     27  C   UNL     1      32.928  41.795   4.375  1.00  0.00     0.119 C 
BRANCH  27  28
ATOM     28  N   UNL     1      33.039  40.363   4.318  1.00  0.00    -0.092 NA
ATOM     29  N   UNL     1      33.893  39.814   5.032  1.00  0.00     0.001 N 
ATOM     30  N   UNL     1      34.559  39.009   5.683  1.00  0.00    -0.003 NA
ENDBRANCH  27  28
ENDBRANCH  26  27
ENDBRANCH  25  26
ENDBRANCH  19  25
BRANCH  20  31
ATOM     31  O   UNL     1      28.161  40.869   9.624  1.00  0.00    -0.387 OA
ATOM     32  H   UNL     1      27.678  40.252   9.037  1.00  0.00     0.211 HD
ENDBRANCH  20  31
BRANCH  21  33
ATOM     33  O   UNL     1      28.738  42.583   7.291  1.00  0.00    -0.385 OA
ATOM     34  H   UNL     1      28.064  42.860   7.970  1.00  0.00     0.211 HD
ENDBRANCH  21  33
ENDBRANCH  15  16
ENDBRANCH  10  15
BRANCH  12  35
ATOM     35  O   UNL     1      31.877  41.741  13.457  1.00  0.00    -0.385 OA
ATOM     36  H   UNL     1      32.761  41.344  13.239  1.00  0.00     0.211 HD
ENDBRANCH  12  35
BRANCH  13  37
ATOM     37  O   UNL     1      28.543  41.238  12.557  1.00  0.00    -0.387 OA
ATOM     38  H   UNL     1      28.435  42.204  12.719  1.00  0.00     0.211 HD
ENDBRANCH  13  37
BRANCH  14  39
ATOM     39  O   UNL     1      28.529  38.810  12.578  1.00  0.00    -0.387 OA
ATOM     40  H   UNL     1      27.748  38.614  13.182  1.00  0.00     0.211 HD
ENDBRANCH  14  39
ENDBRANCH   8   9
ENDBRANCH   7   8
ENDBRANCH   1   7
BRANCH   1  41
ATOM     41  C   UNL     1      33.038  36.259  15.374  1.00  0.00     0.364 C 
ATOM     42  O   UNL     1      33.994  35.568  15.777  1.00  0.00    -0.246 OA
BRANCH  41  43
ATOM     43  O   UNL     1      33.013  37.575  15.873  1.00  0.00    -0.477 OA
ATOM     44  H   UNL     1      32.656  38.337  15.313  1.00  0.00     0.296 HD
ENDBRANCH  41  43
ENDBRANCH   1  41
BRANCH   3  45
ATOM     45  O   UNL     1      31.472  32.181  15.055  1.00  0.00    -0.391 OA
ATOM     46  H   UNL     1      30.474  32.163  15.044  1.00  0.00     0.211 HD
ENDBRANCH   3  45
BRANCH   5  47
ATOM     47  C   UNL     1      29.250  35.747  16.861  1.00  0.00     0.176 C 
BRANCH  47  48
ATOM     48  O   UNL     1      28.491  34.592  16.689  1.00  0.00    -0.388 OA
ATOM     49  H   UNL     1      28.809  34.095  15.901  1.00  0.00     0.211 HD
ENDBRANCH  47  48
BRANCH  47  50
ATOM     50  C   UNL     1      28.679  36.815  15.998  1.00  0.00     0.165 C 
BRANCH  50  51
ATOM     51  O   UNL     1      28.736  38.030  16.679  1.00  0.00    -0.388 OA
ATOM     52  H   UNL     1      28.415  37.931  17.608  1.00  0.00     0.211 HD
ENDBRANCH  50  51
BRANCH  50  53
ATOM     53  C   UNL     1      27.250  36.588  15.580  1.00  0.00     0.154 C 
BRANCH  53  54
ATOM     54  N   UNL     1      27.108  36.273  14.190  1.00  0.00    -0.319 N 
ATOM     55  C   UNL     1      26.956  34.986  13.661  1.00  0.00     0.407 C 
ATOM     56  H   UNL     1      27.120  37.086  13.504  1.00  0.00     0.167 HD
ATOM     57  O   UNL     1      26.937  34.006  14.437  1.00  0.00    -0.225 OA
BRANCH  55  58
ATOM     58  O   UNL     1      26.830  34.823  12.298  1.00  0.00    -0.443 OA
BRANCH  58  59
ATOM     59  C   UNL     1      25.674  35.129  11.572  1.00  0.00     0.294 C 
BRANCH  59  60
ATOM     60  C   UNL     1      25.928  36.316  10.732  1.00  0.00     0.120 A 
ATOM     61  C   UNL     1      25.240  36.692   9.620  1.00  0.00     0.138 A 
ATOM     62  N   UNL     1      26.895  37.220  10.946  1.00  0.00    -0.132 NA
ATOM     63  N   UNL     1      25.806  37.827   9.175  1.00  0.00    -0.248 N 
ATOM     64  N   UNL     1      26.802  38.138   9.979  1.00  0.00    -0.067 NA
BRANCH  63  65
ATOM     65  C   UNL     1      25.380  38.565   8.013  1.00  0.00     0.182 C 
BRANCH  65  66
ATOM     66  C   UNL     1      26.439  38.397   6.916  1.00  0.00    -0.016 A 
ATOM     67  C   UNL     1      26.915  39.394   6.198  1.00  0.00     0.017 A 
ATOM     68  C   UNL     1      26.912  37.107   6.680  1.00  0.00     0.070 A 
ATOM     69  C   UNL     1      27.871  39.185   5.221  1.00  0.00     0.065 A 
ATOM     70  S   UNL     1      28.101  37.373   5.351  1.00  0.00    -0.152 S 
ENDBRANCH  65  66
ENDBRANCH  63  65
ENDBRANCH  59  60
ENDBRANCH  58  59
ENDBRANCH  55  58
ENDBRANCH  53  54
ENDBRANCH  50  53
ENDBRANCH  47  50
ENDBRANCH   5  47
BRANCH   4  71
ATOM     71  N   UNL     1      31.200  33.660  17.837  1.00  0.00    -0.348 N 
ATOM     72  C   UNL     1      30.593  32.566  18.505  1.00  0.00     0.217 C 
ATOM     73  H   UNL     1      31.867  34.245  18.387  1.00  0.00     0.163 HD
ATOM     74  C   UNL     1      30.865  32.226  19.935  1.00  0.00     0.114 C 
ATOM     75  O   UNL     1      29.791  31.879  17.807  1.00  0.00    -0.275 OA
ENDBRANCH   4  71
TORSDOF 31
BEGIN_RES LYS A 131
REMARK  4 active torsions:
REMARK  status: ('A' for Active; 'I' for Inactive)
REMARK    1  A    between atoms: CA   and  CB  
REMARK    2  A    between atoms: CB   and  CG  
REMARK    3  A    between atoms: CG   and  CD  
REMARK    4  A    between atoms: CD   and  CE  
ROOT
ATOM      1  CA  LYS A 131      29.867  25.555  16.977  1.00 20.52     0.186 C 
ENDROOT
BRANCH   1   2
ATOM      2  CB  LYS A 131      28.345  25.722  17.026  1.00 20.94     0.034 C 
BRANCH   2   3
ATOM      3  CG  LYS A 131      27.601  24.401  16.904  1.00 22.96     0.005 C 
BRANCH   3   4
ATOM      4  CD  LYS A 131      26.559  24.236  17.975  1.00 24.33     0.041 C 
BRANCH   4   5
ATOM      5  CE  LYS A 131      25.172  24.250  17.341  1.00 26.91     0.338 C 
ATOM      6  NZ  LYS A 131      24.554  25.591  17.473  1.00 27.40     0.618 N 
ENDBRANCH   4   5
ENDBRANCH   3   4
ENDBRANCH   2   3
ENDBRANCH   1   2
END_RES LYS A 131
BEGIN_RES LYS A 135
REMARK  4 active torsions:
REMARK  status: ('A' for Active; 'I' for Inactive)
REMARK    5  A    between atoms: CA   and  CB  
REMARK    6  A    between atoms: CB   and  CG  
REMARK    7  A    between atoms: CG   and  CD  
REMARK    8  A    between atoms: CD   and  CE  
ROOT
ATOM      7  CA  LYS A 135      33.193  34.663   9.290  1.00 25.02     0.186 C 
ENDROOT
BRANCH   7   8
ATOM      8  CB  LYS A 135      32.060  35.360  10.034  1.00 26.63     0.034 C 
BRANCH   8   9
ATOM      9  CG  LYS A 135      30.745  34.629   9.950  1.00 29.45     0.005 C 
BRANCH   9  10
ATOM     10  CD  LYS A 135      30.338  34.420   8.500  1.00 32.00     0.041 C 
BRANCH  10  11
ATOM     11  CE  LYS A 135      28.830  34.483   8.355  1.00 34.25     0.338 C 
ATOM     12  NZ  LYS A 135      28.154  33.716   9.438  1.00 35.99     0.618 N 
ENDBRANCH  10  11
ENDBRANCH   9  10
ENDBRANCH   8   9
ENDBRANCH   7   8
END_RES LYS A 135
