REMARK VINA RESULT:    -4.342      5.659     10.968
REMARK INTER + INTRA:         -21.299
REMARK INTER:                 -11.393
REMARK INTRA:                  -9.906
REMARK UNBOUND:               -10.230
REMARK SMILES CC(=O)N[C@@H]1[C@@H](O)C[C@](OC[C@H]2O[C@@H](O[C@H]3[C@H](O)[C@@H](O)[C@H](OCCN=[N+]=[N-])O[C@@H]3CO)[C@H](O)[C@@H](O)[C@H]2O)(C(=O)O)O[C@H]1C(O)[C@H](O)CNC(=O)OCc1cn(C(C)(C)CO)nn1
REMARK SMILES IDX 9 1 8 2 6 3 5 4 42 5 41 6 10 7 11 8 12 9 14 10 13 11 32 12
REMARK SMILES IDX 34 13 36 14 15 15 16 16 29 17 28 18 21 19 17 20 19 21 30 22
REMARK SMILES IDX 31 23 22 25 23 26 24 27 25 28 26 29 27 30 18 31 20 33 33 35
REMARK SMILES IDX 35 37 37 39 38 41 39 42 40 43 7 45 43 47 44 48 45 50 46 51
REMARK SMILES IDX 47 53 48 54 49 55 50 57 51 58 52 59 53 60 54 61 62 62 55 63
REMARK SMILES IDX 61 64 56 65 57 66 58 67 59 68 60 69 4 71 2 72 1 74 3 75
REMARK H PARENT 31 24 18 32 20 34 33 36 35 38 37 40 40 44 7 46 44 49 46 52
REMARK H PARENT 48 56 60 70 4 73
REMARK Flexibility Score: inf
ROOT
ATOM      1  C   UNL     1      27.231  41.068   5.909  1.00  0.00     0.272 C 
ATOM      2  C   UNL     1      26.334  41.616   6.987  1.00  0.00     0.113 C 
ATOM      3  C   UNL     1      26.708  40.938   8.284  1.00  0.00     0.145 C 
ATOM      4  C   UNL     1      26.211  39.481   8.133  1.00  0.00     0.142 C 
ATOM      5  C   UNL     1      26.816  38.952   6.867  1.00  0.00     0.178 C 
ATOM      6  O   UNL     1      27.771  39.795   6.335  1.00  0.00    -0.332 OA
ENDROOT
BRANCH   1   7
ATOM      7  O   UNL     1      28.354  41.799   5.695  1.00  0.00    -0.338 OA
BRANCH   7   8
ATOM      8  C   UNL     1      29.342  41.430   4.898  1.00  0.00     0.199 C 
BRANCH   8   9
ATOM      9  C   UNL     1      30.759  41.313   5.287  1.00  0.00     0.179 C 
ATOM     10  C   UNL     1      32.259  42.191   6.803  1.00  0.00     0.282 C 
ATOM     11  O   UNL     1      30.930  41.987   6.543  1.00  0.00    -0.341 OA
ATOM     12  C   UNL     1      33.219  41.322   6.072  1.00  0.00     0.202 C 
ATOM     13  C   UNL     1      32.695  39.935   5.771  1.00  0.00     0.179 C 
ATOM     14  C   UNL     1      31.208  39.898   5.632  1.00  0.00     0.177 C 
BRANCH  10  15
ATOM     15  O   UNL     1      32.429  42.168   8.190  1.00  0.00    -0.341 OA
BRANCH  15  16
ATOM     16  C   UNL     1      31.253  42.260   8.897  1.00  0.00     0.184 C 
ATOM     17  C   UNL     1      31.113  43.549   9.676  1.00  0.00     0.178 C 
ATOM     18  O   UNL     1      30.677  43.365  10.971  1.00  0.00    -0.341 OA
ATOM     19  C   UNL     1      31.492  42.619  11.779  1.00  0.00     0.281 C 
ATOM     20  C   UNL     1      31.280  41.101   9.910  1.00  0.00     0.180 C 
ATOM     21  C   UNL     1      32.242  41.574  10.984  1.00  0.00     0.202 C 
BRANCH  17  22
ATOM     22  C   UNL     1      30.030  44.349   8.963  1.00  0.00     0.191 C 
BRANCH  22  23
ATOM     23  O   UNL     1      29.140  43.475   8.337  1.00  0.00    -0.394 OA
ATOM     24  H   UNL     1      28.429  43.926   7.845  1.00  0.00     0.210 HD
ENDBRANCH  22  23
ENDBRANCH  17  22
BRANCH  19  25
ATOM     25  O   UNL     1      30.703  42.065  12.771  1.00  0.00    -0.350 OA
BRANCH  25  26
ATOM     26  C   UNL     1      29.690  42.847  13.229  1.00  0.00     0.169 C 
BRANCH  26  27
ATOM     27  C   UNL     1      28.368  42.115  13.402  1.00  0.00     0.119 C 
BRANCH  27  28
ATOM     28  N   UNL     1      27.765  41.817  12.118  1.00  0.00    -0.092 NA
ATOM     29  N   UNL     1      27.247  42.758  11.499  1.00  0.00     0.001 N 
ATOM     30  N   UNL     1      27.035  43.655  10.654  1.00  0.00    -0.003 NA
ENDBRANCH  27  28
ENDBRANCH  26  27
ENDBRANCH  25  26
ENDBRANCH  19  25
BRANCH  20  31
ATOM     31  O   UNL     1      29.970  40.999  10.386  1.00  0.00    -0.387 OA
ATOM     32  H   UNL     1      29.779  40.025  10.431  1.00  0.00     0.211 HD
ENDBRANCH  20  31
BRANCH  21  33
ATOM     33  O   UNL     1      33.297  42.233  10.331  1.00  0.00    -0.385 OA
ATOM     34  H   UNL     1      33.975  42.545  11.003  1.00  0.00     0.211 HD
ENDBRANCH  21  33
ENDBRANCH  15  16
ENDBRANCH  10  15
BRANCH  12  35
ATOM     35  O   UNL     1      33.782  41.908   4.938  1.00  0.00    -0.385 OA
ATOM     36  H   UNL     1      33.787  41.223   4.240  1.00  0.00     0.211 HD
ENDBRANCH  12  35
BRANCH  13  37
ATOM     37  O   UNL     1      33.137  39.011   6.734  1.00  0.00    -0.387 OA
ATOM     38  H   UNL     1      33.696  38.303   6.315  1.00  0.00     0.211 HD
ENDBRANCH  13  37
BRANCH  14  39
ATOM     39  O   UNL     1      30.689  39.616   6.917  1.00  0.00    -0.387 OA
ATOM     40  H   UNL     1      30.818  38.667   7.126  1.00  0.00     0.211 HD
ENDBRANCH  14  39
ENDBRANCH   8   9
ENDBRANCH   7   8
ENDBRANCH   1   7
BRANCH   1  41
ATOM     41  C   UNL     1      26.505  40.713   4.691  1.00  0.00     0.364 C 
ATOM     42  O   UNL     1      25.448  41.258   4.365  1.00  0.00    -0.246 OA
BRANCH  41  43
ATOM     43  O   UNL     1      26.963  39.721   3.805  1.00  0.00    -0.477 OA
ATOM     44  H   UNL     1      27.756  39.166   4.109  1.00  0.00     0.296 HD
ENDBRANCH  41  43
ENDBRANCH   1  41
BRANCH   3  45
ATOM     45  O   UNL     1      28.100  40.834   8.315  1.00  0.00    -0.391 OA
ATOM     46  H   UNL     1      28.390  39.900   8.290  1.00  0.00     0.211 HD
ENDBRANCH   3  45
BRANCH   5  47
ATOM     47  C   UNL     1      27.619  37.704   7.278  1.00  0.00     0.176 C 
BRANCH  47  48
ATOM     48  O   UNL     1      28.721  38.128   8.061  1.00  0.00    -0.388 OA
ATOM     49  H   UNL     1      29.561  38.057   7.578  1.00  0.00     0.211 HD
ENDBRANCH  47  48
BRANCH  47  50
ATOM     50  C   UNL     1      28.259  37.024   6.080  1.00  0.00     0.165 C 
BRANCH  50  51
ATOM     51  O   UNL     1      27.516  37.111   4.949  1.00  0.00    -0.388 OA
ATOM     52  H   UNL     1      26.570  37.364   5.066  1.00  0.00     0.211 HD
ENDBRANCH  50  51
BRANCH  50  53
ATOM     53  C   UNL     1      28.577  35.580   6.415  1.00  0.00     0.154 C 
BRANCH  53  54
ATOM     54  N   UNL     1      28.552  35.240   7.790  1.00  0.00    -0.319 N 
ATOM     55  C   UNL     1      29.637  34.714   8.497  1.00  0.00     0.407 C 
ATOM     56  H   UNL     1      27.643  35.389   8.350  1.00  0.00     0.167 HD
ATOM     57  O   UNL     1      30.740  34.506   7.965  1.00  0.00    -0.225 OA
BRANCH  55  58
ATOM     58  O   UNL     1      29.532  34.385   9.870  1.00  0.00    -0.443 OA
BRANCH  58  59
ATOM     59  C   UNL     1      28.346  34.627  10.592  1.00  0.00     0.294 C 
BRANCH  59  60
ATOM     60  C   UNL     1      28.561  34.797  12.044  1.00  0.00     0.120 A 
ATOM     61  C   UNL     1      29.692  34.479  12.767  1.00  0.00     0.139 A 
ATOM     62  N   UNL     1      27.694  35.299  12.937  1.00  0.00    -0.132 NA
ATOM     63  N   UNL     1      29.485  34.792  14.071  1.00  0.00    -0.244 N 
ATOM     64  N   UNL     1      28.262  35.289  14.146  1.00  0.00    -0.066 NA
BRANCH  63  65
ATOM     65  C   UNL     1      30.436  34.609  15.138  1.00  0.00     0.082 C 
ATOM     66  C   UNL     1      31.570  35.578  14.978  1.00  0.00     0.039 C 
ATOM     67  C   UNL     1      31.042  33.200  15.068  1.00  0.00     0.039 C 
BRANCH  65  68
ATOM     68  C   UNL     1      29.845  34.764  16.510  1.00  0.00     0.186 C 
BRANCH  68  69
ATOM     69  O   UNL     1      28.729  33.988  16.720  1.00  0.00    -0.394 OA
ATOM     70  H   UNL     1      28.714  33.498  17.557  1.00  0.00     0.210 HD
ENDBRANCH  68  69
ENDBRANCH  65  68
ENDBRANCH  63  65
ENDBRANCH  59  60
ENDBRANCH  58  59
ENDBRANCH  55  58
ENDBRANCH  53  54
ENDBRANCH  50  53
ENDBRANCH  47  50
ENDBRANCH   5  47
BRANCH   4  71
ATOM     71  N   UNL     1      24.785  39.559   8.150  1.00  0.00    -0.348 N 
ATOM     72  C   UNL     1      23.893  38.509   8.469  1.00  0.00     0.217 C 
ATOM     73  H   UNL     1      24.307  40.476   7.901  1.00  0.00     0.163 HD
ATOM     74  C   UNL     1      22.416  38.687   8.456  1.00  0.00     0.114 C 
ATOM     75  O   UNL     1      24.349  37.394   8.772  1.00  0.00    -0.275 OA
ENDBRANCH   4  71
TORSDOF 32
BEGIN_RES LYS A 131
REMARK  4 active torsions:
REMARK  status: ('A' for Active; 'I' for Inactive)
REMARK    1  A    between atoms: CA   and  CB  
REMARK    2  A    between atoms: CB   and  CG  
REMARK    3  A    between atoms: CG   and  CD  
REMARK    4  A    between atoms: CD   and  CE  
ROOT
ATOM      1  CA  LYS A 131      29.867  25.555  16.977  1.00 20.52     0.186 C 
ENDROOT
BRANCH   1   2
ATOM      2  CB  LYS A 131      28.345  25.722  17.026  1.00 20.94     0.034 C 
BRANCH   2   3
ATOM      3  CG  LYS A 131      27.601  24.403  16.888  1.00 22.96     0.005 C 
BRANCH   3   4
ATOM      4  CD  LYS A 131      26.152  24.527  17.268  1.00 24.33     0.041 C 
BRANCH   4   5
ATOM      5  CE  LYS A 131      25.635  23.178  17.756  1.00 26.91     0.338 C 
ATOM      6  NZ  LYS A 131      25.514  23.172  19.233  1.00 27.40     0.618 N 
ENDBRANCH   4   5
ENDBRANCH   3   4
ENDBRANCH   2   3
ENDBRANCH   1   2
END_RES LYS A 131
BEGIN_RES LYS A 135
REMARK  4 active torsions:
REMARK  status: ('A' for Active; 'I' for Inactive)
REMARK    5  A    between atoms: CA   and  CB  
REMARK    6  A    between atoms: CB   and  CG  
REMARK    7  A    between atoms: CG   and  CD  
REMARK    8  A    between atoms: CD   and  CE  
ROOT
ATOM      7  CA  LYS A 135      33.193  34.663   9.290  1.00 25.02     0.186 C 
ENDROOT
BRANCH   7   8
ATOM      8  CB  LYS A 135      32.060  35.360  10.034  1.00 26.63     0.034 C 
BRANCH   8   9
ATOM      9  CG  LYS A 135      32.505  36.056  11.294  1.00 29.45     0.005 C 
BRANCH   9  10
ATOM     10  CD  LYS A 135      32.073  37.515  11.283  1.00 32.00     0.041 C 
BRANCH  10  11
ATOM     11  CE  LYS A 135      30.577  37.625  11.060  1.00 34.25     0.338 C 
ATOM     12  NZ  LYS A 135      29.889  38.128  12.282  1.00 35.99     0.618 N 
ENDBRANCH  10  11
ENDBRANCH   9  10
ENDBRANCH   8   9
ENDBRANCH   7   8
END_RES LYS A 135
