REMARK VINA RESULT:    -4.133      3.579      6.894
REMARK INTER + INTRA:         -23.600
REMARK INTER:                  -9.084
REMARK INTRA:                 -14.516
REMARK UNBOUND:               -13.184
REMARK SMILES CC(=O)N[C@@H]1[C@@H](O)C[C@](OC[C@H]2O[C@@H](O[C@H]3[C@H](O)[C@@H](O)[C@H](OCCN=[N+]=[N-])O[C@@H]3CO)[C@H](O)[C@@H](O)[C@H]2O)(C(=O)O)O[C@H]1C(O)[C@H](O)CNC(=O)OCc1cn(-c2cc(Cl)ccc2C(=O)N(C)C)nn1
REMARK SMILES IDX 9 1 8 2 6 3 5 4 42 5 41 6 10 7 11 8 12 9 14 10 13 11 32 12
REMARK SMILES IDX 34 13 36 14 15 15 16 16 29 17 28 18 21 19 17 20 19 21 30 22
REMARK SMILES IDX 31 23 22 25 23 26 24 27 25 28 26 29 27 30 18 31 20 33 33 35
REMARK SMILES IDX 35 37 37 39 38 41 39 42 40 43 7 45 43 47 44 48 45 50 46 51
REMARK SMILES IDX 47 53 48 54 49 55 50 57 51 58 52 59 53 60 54 61 69 62 55 63
REMARK SMILES IDX 68 64 56 65 57 66 62 67 58 68 61 69 59 70 60 71 63 72 64 73
REMARK SMILES IDX 65 74 66 75 67 76 4 77 2 78 1 80 3 81
REMARK H PARENT 31 24 18 32 20 34 33 36 35 38 37 40 40 44 7 46 44 49 46 52
REMARK H PARENT 48 56 4 79
REMARK Flexibility Score: inf
ROOT
ATOM      1  C   UNL     1      32.284  35.314  14.601  1.00  0.00     0.272 C 
ATOM      2  C   UNL     1      33.322  35.097  15.636  1.00  0.00     0.113 C 
ATOM      3  C   UNL     1      32.861  35.649  16.961  1.00  0.00     0.145 C 
ATOM      4  C   UNL     1      32.610  37.124  16.752  1.00  0.00     0.142 C 
ATOM      5  C   UNL     1      31.660  37.362  15.655  1.00  0.00     0.178 C 
ATOM      6  O   UNL     1      31.515  36.433  14.675  1.00  0.00    -0.332 OA
ENDROOT
BRANCH   1   7
ATOM      7  O   UNL     1      31.417  34.237  14.510  1.00  0.00    -0.338 OA
BRANCH   7   8
ATOM      8  C   UNL     1      31.765  33.071  15.094  1.00  0.00     0.199 C 
BRANCH   8   9
ATOM      9  C   UNL     1      30.502  32.244  15.381  1.00  0.00     0.179 C 
ATOM     10  C   UNL     1      29.543  31.249  17.228  1.00  0.00     0.282 C 
ATOM     11  O   UNL     1      30.749  31.440  16.456  1.00  0.00    -0.341 OA
ATOM     12  C   UNL     1      28.433  30.979  16.238  1.00  0.00     0.202 C 
ATOM     13  C   UNL     1      28.090  32.221  15.443  1.00  0.00     0.179 C 
ATOM     14  C   UNL     1      29.317  33.114  15.391  1.00  0.00     0.177 C 
BRANCH  10  15
ATOM     15  O   UNL     1      29.414  32.343  17.972  1.00  0.00    -0.341 OA
BRANCH  15  16
ATOM     16  C   UNL     1      29.397  32.301  19.355  1.00  0.00     0.184 C 
ATOM     17  C   UNL     1      28.827  33.606  19.807  1.00  0.00     0.178 C 
ATOM     18  O   UNL     1      28.791  33.656  21.212  1.00  0.00    -0.341 OA
ATOM     19  C   UNL     1      30.174  33.901  21.520  1.00  0.00     0.281 C 
ATOM     20  C   UNL     1      30.792  32.118  19.895  1.00  0.00     0.180 C 
ATOM     21  C   UNL     1      30.923  32.641  21.293  1.00  0.00     0.202 C 
BRANCH  17  22
ATOM     22  C   UNL     1      27.433  33.820  19.255  1.00  0.00     0.191 C 
BRANCH  22  23
ATOM     23  O   UNL     1      27.488  34.809  18.297  1.00  0.00    -0.394 OA
ATOM     24  H   UNL     1      28.428  34.977  18.036  1.00  0.00     0.210 HD
ENDBRANCH  22  23
ENDBRANCH  17  22
BRANCH  19  25
ATOM     25  O   UNL     1      30.241  34.373  22.772  1.00  0.00    -0.350 OA
BRANCH  25  26
ATOM     26  C   UNL     1      30.607  35.702  22.895  1.00  0.00     0.169 C 
BRANCH  26  27
ATOM     27  C   UNL     1      30.969  36.357  21.577  1.00  0.00     0.119 C 
BRANCH  27  28
ATOM     28  N   UNL     1      30.103  37.484  21.307  1.00  0.00    -0.092 NA
ATOM     29  N   UNL     1      28.925  37.310  21.013  1.00  0.00     0.001 N 
ATOM     30  N   UNL     1      27.747  36.943  20.821  1.00  0.00    -0.003 NA
ENDBRANCH  27  28
ENDBRANCH  26  27
ENDBRANCH  25  26
ENDBRANCH  19  25
BRANCH  20  31
ATOM     31  O   UNL     1      31.157  30.767  19.930  1.00  0.00    -0.387 OA
ATOM     32  H   UNL     1      31.423  30.501  20.858  1.00  0.00     0.211 HD
ENDBRANCH  20  31
BRANCH  21  33
ATOM     33  O   UNL     1      32.273  32.836  21.573  1.00  0.00    -0.385 OA
ATOM     34  H   UNL     1      32.482  32.821  22.531  1.00  0.00     0.211 HD
ENDBRANCH  21  33
ENDBRANCH  15  16
ENDBRANCH  10  15
BRANCH  12  35
ATOM     35  O   UNL     1      28.942  30.038  15.320  1.00  0.00    -0.385 OA
ATOM     36  H   UNL     1      29.758  30.396  14.847  1.00  0.00     0.211 HD
ENDBRANCH  12  35
BRANCH  13  37
ATOM     37  O   UNL     1      27.041  32.947  15.942  1.00  0.00    -0.387 OA
ATOM     38  H   UNL     1      26.437  33.302  15.246  1.00  0.00     0.211 HD
ENDBRANCH  13  37
BRANCH  14  39
ATOM     39  O   UNL     1      29.292  34.169  16.258  1.00  0.00    -0.387 OA
ATOM     40  H   UNL     1      28.916  33.973  17.144  1.00  0.00     0.211 HD
ENDBRANCH  14  39
ENDBRANCH   8   9
ENDBRANCH   7   8
ENDBRANCH   1   7
BRANCH   1  41
ATOM     41  C   UNL     1      32.984  35.327  13.229  1.00  0.00     0.364 C 
ATOM     42  O   UNL     1      32.568  36.181  12.413  1.00  0.00    -0.246 OA
BRANCH  41  43
ATOM     43  O   UNL     1      33.990  34.478  12.890  1.00  0.00    -0.477 OA
ATOM     44  H   UNL     1      34.740  34.682  12.267  1.00  0.00     0.296 HD
ENDBRANCH  41  43
ENDBRANCH   1  41
BRANCH   3  45
ATOM     45  O   UNL     1      31.787  34.938  17.415  1.00  0.00    -0.391 OA
ATOM     46  H   UNL     1      31.342  34.346  16.800  1.00  0.00     0.211 HD
ENDBRANCH   3  45
BRANCH   5  47
ATOM     47  C   UNL     1      30.250  37.747  16.085  1.00  0.00     0.176 C 
BRANCH  47  48
ATOM     48  O   UNL     1      29.255  36.996  15.524  1.00  0.00    -0.388 OA
ATOM     49  H   UNL     1      29.567  36.242  14.958  1.00  0.00     0.211 HD
ENDBRANCH  47  48
BRANCH  47  50
ATOM     50  C   UNL     1      30.036  37.896  17.546  1.00  0.00     0.165 C 
BRANCH  50  51
ATOM     51  O   UNL     1      29.823  36.654  18.190  1.00  0.00    -0.388 OA
ATOM     52  H   UNL     1      29.030  36.689  18.775  1.00  0.00     0.211 HD
ENDBRANCH  50  51
BRANCH  50  53
ATOM     53  C   UNL     1      28.667  38.596  17.706  1.00  0.00     0.154 C 
BRANCH  53  54
ATOM     54  N   UNL     1      27.622  37.620  17.828  1.00  0.00    -0.319 N 
ATOM     55  C   UNL     1      26.270  37.961  17.623  1.00  0.00     0.407 C 
ATOM     56  H   UNL     1      27.831  36.608  18.076  1.00  0.00     0.167 HD
ATOM     57  O   UNL     1      25.939  39.126  17.305  1.00  0.00    -0.225 OA
BRANCH  55  58
ATOM     58  O   UNL     1      25.253  37.009  17.770  1.00  0.00    -0.443 OA
BRANCH  58  59
ATOM     59  C   UNL     1      24.575  36.475  16.667  1.00  0.00     0.294 C 
BRANCH  59  60
ATOM     60  C   UNL     1      25.500  36.285  15.508  1.00  0.00     0.121 A 
ATOM     61  C   UNL     1      25.256  36.783  14.212  1.00  0.00     0.144 A 
ATOM     62  N   UNL     1      26.666  35.662  15.431  1.00  0.00    -0.131 NA
ATOM     63  N   UNL     1      26.269  36.444  13.428  1.00  0.00    -0.219 N 
ATOM     64  N   UNL     1      27.116  35.757  14.206  1.00  0.00    -0.062 NA
BRANCH  63  65
ATOM     65  C   UNL     1      26.540  36.684  12.060  1.00  0.00     0.081 A 
ATOM     66  C   UNL     1      26.286  35.672  11.125  1.00  0.00     0.049 A 
ATOM     67  C   UNL     1      27.072  37.837  11.558  1.00  0.00     0.065 A 
ATOM     68  C   UNL     1      26.559  35.839   9.806  1.00  0.00     0.043 A 
ATOM     69  C   UNL     1      27.356  38.011  10.191  1.00  0.00     0.017 A 
ATOM     70  Cl  UNL     1      26.216  34.528   8.686  1.00  0.00    -0.084 Cl
ATOM     71  C   UNL     1      27.094  36.994   9.306  1.00  0.00     0.021 A 
BRANCH  67  72
ATOM     72  C   UNL     1      27.339  38.997  12.415  1.00  0.00     0.255 C 
ATOM     73  O   UNL     1      26.385  39.730  12.743  1.00  0.00    -0.269 OA
ATOM     74  N   UNL     1      28.639  39.267  12.852  1.00  0.00    -0.345 N 
ATOM     75  C   UNL     1      29.746  38.400  12.459  1.00  0.00     0.146 C 
ATOM     76  C   UNL     1      28.931  40.409  13.714  1.00  0.00     0.146 C 
ENDBRANCH  67  72
ENDBRANCH  63  65
ENDBRANCH  59  60
ENDBRANCH  58  59
ENDBRANCH  55  58
ENDBRANCH  53  54
ENDBRANCH  50  53
ENDBRANCH  47  50
ENDBRANCH   5  47
BRANCH   4  77
ATOM     77  N   UNL     1      33.923  37.734  16.522  1.00  0.00    -0.348 N 
ATOM     78  C   UNL     1      34.499  38.655  17.423  1.00  0.00     0.217 C 
ATOM     79  H   UNL     1      34.460  37.493  15.667  1.00  0.00     0.163 HD
ATOM     80  C   UNL     1      35.826  39.278  17.196  1.00  0.00     0.114 C 
ATOM     81  O   UNL     1      33.862  38.961  18.465  1.00  0.00    -0.275 OA
ENDBRANCH   4  77
TORSDOF 31
BEGIN_RES LYS A 131
REMARK  4 active torsions:
REMARK  status: ('A' for Active; 'I' for Inactive)
REMARK    1  A    between atoms: CA   and  CB  
REMARK    2  A    between atoms: CB   and  CG  
REMARK    3  A    between atoms: CG   and  CD  
REMARK    4  A    between atoms: CD   and  CE  
ROOT
ATOM      1  CA  LYS A 131      29.867  25.555  16.977  1.00 20.52     0.186 C 
ENDROOT
BRANCH   1   2
ATOM      2  CB  LYS A 131      28.345  25.722  17.026  1.00 20.94     0.034 C 
BRANCH   2   3
ATOM      3  CG  LYS A 131      27.599  24.437  16.700  1.00 22.96     0.005 C 
BRANCH   3   4
ATOM      4  CD  LYS A 131      27.015  23.794  17.927  1.00 24.33     0.041 C 
BRANCH   4   5
ATOM      5  CE  LYS A 131      25.569  23.392  17.652  1.00 26.91     0.338 C 
ATOM      6  NZ  LYS A 131      24.872  24.453  16.886  1.00 27.40     0.618 N 
ENDBRANCH   4   5
ENDBRANCH   3   4
ENDBRANCH   2   3
ENDBRANCH   1   2
END_RES LYS A 131
BEGIN_RES LYS A 135
REMARK  4 active torsions:
REMARK  status: ('A' for Active; 'I' for Inactive)
REMARK    5  A    between atoms: CA   and  CB  
REMARK    6  A    between atoms: CB   and  CG  
REMARK    7  A    between atoms: CG   and  CD  
REMARK    8  A    between atoms: CD   and  CE  
ROOT
ATOM      7  CA  LYS A 135      33.193  34.663   9.290  1.00 25.02     0.186 C 
ENDROOT
BRANCH   7   8
ATOM      8  CB  LYS A 135      32.060  35.360  10.034  1.00 26.63     0.034 C 
BRANCH   8   9
ATOM      9  CG  LYS A 135      30.718  34.701   9.843  1.00 29.45     0.005 C 
BRANCH   9  10
ATOM     10  CD  LYS A 135      30.421  34.507   8.364  1.00 32.00     0.041 C 
BRANCH  10  11
ATOM     11  CE  LYS A 135      29.799  35.759   7.777  1.00 34.25     0.338 C 
ATOM     12  NZ  LYS A 135      28.929  35.431   6.614  1.00 35.99     0.618 N 
ENDBRANCH  10  11
ENDBRANCH   9  10
ENDBRANCH   8   9
ENDBRANCH   7   8
END_RES LYS A 135
