REMARK VINA RESULT:    -5.348      2.772      8.157
REMARK INTER + INTRA:         -23.329
REMARK INTER:                 -13.238
REMARK INTRA:                 -10.090
REMARK UNBOUND:                -9.852
REMARK SMILES CC(=O)N[C@@H]1[C@@H](O)C[C@](OC[C@H]2O[C@@H](O[C@H]3[C@H](O)[C@@H](O)[C@H](OCCN=[N+]=[N-])O[C@@H]3CO)[C@H](O)[C@@H](O)[C@H]2O)(C(=O)O)O[C@H]1C(O)[C@H](O)CNC(=O)OCc1cn(Cc2ccc3c(c2)OCO3)nn1
REMARK SMILES IDX 9 1 8 2 6 3 5 4 42 5 41 6 10 7 11 8 12 9 14 10 13 11 32 12
REMARK SMILES IDX 34 13 36 14 15 15 16 16 29 17 28 18 21 19 17 20 19 21 30 22
REMARK SMILES IDX 31 23 22 25 23 26 24 27 25 28 26 29 27 30 18 31 20 33 33 35
REMARK SMILES IDX 35 37 37 39 38 41 39 42 40 43 7 45 43 47 44 48 45 50 46 51
REMARK SMILES IDX 47 53 48 54 49 55 50 57 51 58 52 59 53 60 54 61 67 62 55 63
REMARK SMILES IDX 66 64 56 65 57 66 58 67 62 68 59 69 61 70 60 71 63 72 65 73
REMARK SMILES IDX 64 74 4 75 2 76 1 78 3 79
REMARK H PARENT 31 24 18 32 20 34 33 36 35 38 37 40 40 44 7 46 44 49 46 52
REMARK H PARENT 48 56 4 77
REMARK Flexibility Score: inf
ROOT
ATOM      1  C   UNL     1      27.311  34.932  15.185  1.00  0.00     0.272 C 
ATOM      2  C   UNL     1      28.125  36.078  14.618  1.00  0.00     0.113 C 
ATOM      3  C   UNL     1      29.260  35.529  13.807  1.00  0.00     0.145 C 
ATOM      4  C   UNL     1      30.149  34.727  14.795  1.00  0.00     0.142 C 
ATOM      5  C   UNL     1      29.272  33.736  15.471  1.00  0.00     0.178 C 
ATOM      6  O   UNL     1      27.954  33.730  15.020  1.00  0.00    -0.332 OA
ENDROOT
BRANCH   1   7
ATOM      7  O   UNL     1      26.027  34.912  14.615  1.00  0.00    -0.338 OA
BRANCH   7   8
ATOM      8  C   UNL     1      25.075  35.656  15.226  1.00  0.00     0.199 C 
BRANCH   8   9
ATOM      9  C   UNL     1      23.815  35.656  14.346  1.00  0.00     0.179 C 
ATOM     10  C   UNL     1      23.040  36.245  12.262  1.00  0.00     0.282 C 
ATOM     11  O   UNL     1      24.052  36.383  13.211  1.00  0.00    -0.341 OA
ATOM     12  C   UNL     1      23.050  34.798  11.759  1.00  0.00     0.202 C 
ATOM     13  C   UNL     1      23.522  33.814  12.766  1.00  0.00     0.179 C 
ATOM     14  C   UNL     1      23.263  34.289  14.155  1.00  0.00     0.177 C 
BRANCH  10  15
ATOM     15  O   UNL     1      23.307  37.027  11.209  1.00  0.00    -0.341 OA
BRANCH  15  16
ATOM     16  C   UNL     1      24.461  36.891  10.499  1.00  0.00     0.184 C 
ATOM     17  C   UNL     1      25.579  37.790  10.952  1.00  0.00     0.178 C 
ATOM     18  O   UNL     1      25.930  38.715  10.026  1.00  0.00    -0.341 OA
ATOM     19  C   UNL     1      26.405  38.210   8.798  1.00  0.00     0.281 C 
ATOM     20  C   UNL     1      24.169  37.112   9.038  1.00  0.00     0.180 C 
ATOM     21  C   UNL     1      25.489  37.119   8.293  1.00  0.00     0.202 C 
BRANCH  17  22
ATOM     22  C   UNL     1      26.772  36.943  11.319  1.00  0.00     0.191 C 
BRANCH  22  23
ATOM     23  O   UNL     1      26.367  35.610  11.589  1.00  0.00    -0.394 OA
ATOM     24  H   UNL     1      25.571  35.572  12.168  1.00  0.00     0.210 HD
ENDBRANCH  22  23
ENDBRANCH  17  22
BRANCH  19  25
ATOM     25  O   UNL     1      27.717  37.867   8.872  1.00  0.00    -0.350 OA
BRANCH  25  26
ATOM     26  C   UNL     1      28.713  38.668   8.502  1.00  0.00     0.169 C 
BRANCH  26  27
ATOM     27  C   UNL     1      29.519  38.239   7.316  1.00  0.00     0.119 C 
BRANCH  27  28
ATOM     28  N   UNL     1      28.788  37.911   6.144  1.00  0.00    -0.092 NA
ATOM     29  N   UNL     1      28.028  38.679   5.561  1.00  0.00     0.001 N 
ATOM     30  N   UNL     1      27.037  39.401   5.357  1.00  0.00    -0.003 NA
ENDBRANCH  27  28
ENDBRANCH  26  27
ENDBRANCH  25  26
ENDBRANCH  19  25
BRANCH  20  31
ATOM     31  O   UNL     1      23.406  36.040   8.585  1.00  0.00    -0.387 OA
ATOM     32  H   UNL     1      22.758  35.735   9.274  1.00  0.00     0.211 HD
ENDBRANCH  20  31
BRANCH  21  33
ATOM     33  O   UNL     1      25.174  37.328   6.953  1.00  0.00    -0.385 OA
ATOM     34  H   UNL     1      24.343  37.870   6.877  1.00  0.00     0.211 HD
ENDBRANCH  21  33
ENDBRANCH  15  16
ENDBRANCH  10  15
BRANCH  12  35
ATOM     35  O   UNL     1      21.790  34.449  11.274  1.00  0.00    -0.385 OA
ATOM     36  H   UNL     1      21.165  34.313  12.004  1.00  0.00     0.211 HD
ENDBRANCH  12  35
BRANCH  13  37
ATOM     37  O   UNL     1      24.840  33.423  12.587  1.00  0.00    -0.387 OA
ATOM     38  H   UNL     1      25.377  34.220  12.342  1.00  0.00     0.211 HD
ENDBRANCH  13  37
BRANCH  14  39
ATOM     39  O   UNL     1      23.851  33.370  15.037  1.00  0.00    -0.387 OA
ATOM     40  H   UNL     1      23.218  33.192  15.759  1.00  0.00     0.211 HD
ENDBRANCH  14  39
ENDBRANCH   8   9
ENDBRANCH   7   8
ENDBRANCH   1   7
BRANCH   1  41
ATOM     41  C   UNL     1      27.074  35.173  16.620  1.00  0.00     0.364 C 
ATOM     42  O   UNL     1      26.503  34.361  17.360  1.00  0.00    -0.246 OA
BRANCH  41  43
ATOM     43  O   UNL     1      27.493  36.358  17.231  1.00  0.00    -0.477 OA
ATOM     44  H   UNL     1      27.130  36.616  18.165  1.00  0.00     0.296 HD
ENDBRANCH  41  43
ENDBRANCH   1  41
BRANCH   3  45
ATOM     45  O   UNL     1      28.936  34.655  12.811  1.00  0.00    -0.391 OA
ATOM     46  H   UNL     1      29.651  34.008  12.588  1.00  0.00     0.211 HD
ENDBRANCH   3  45
BRANCH   5  47
ATOM     47  C   UNL     1      29.752  32.297  15.159  1.00  0.00     0.176 C 
BRANCH  47  48
ATOM     48  O   UNL     1      31.031  32.258  14.691  1.00  0.00    -0.388 OA
ATOM     49  H   UNL     1      31.193  31.408  14.219  1.00  0.00     0.211 HD
ENDBRANCH  47  48
BRANCH  47  50
ATOM     50  C   UNL     1      29.444  31.290  16.178  1.00  0.00     0.165 C 
BRANCH  50  51
ATOM     51  O   UNL     1      30.555  30.718  16.812  1.00  0.00    -0.388 OA
ATOM     52  H   UNL     1      30.347  29.799  17.122  1.00  0.00     0.211 HD
ENDBRANCH  50  51
BRANCH  50  53
ATOM     53  C   UNL     1      28.537  30.163  15.765  1.00  0.00     0.154 C 
BRANCH  53  54
ATOM     54  N   UNL     1      27.284  30.310  16.526  1.00  0.00    -0.319 N 
ATOM     55  C   UNL     1      26.690  29.213  17.213  1.00  0.00     0.407 C 
ATOM     56  H   UNL     1      26.843  31.236  16.551  1.00  0.00     0.167 HD
ATOM     57  O   UNL     1      27.284  28.104  17.144  1.00  0.00    -0.225 OA
BRANCH  55  58
ATOM     58  O   UNL     1      25.523  29.319  17.931  1.00  0.00    -0.443 OA
BRANCH  58  59
ATOM     59  C   UNL     1      24.306  28.836  17.414  1.00  0.00     0.294 C 
BRANCH  59  60
ATOM     60  C   UNL     1      24.132  29.369  16.042  1.00  0.00     0.120 A 
ATOM     61  C   UNL     1      23.556  28.742  14.943  1.00  0.00     0.138 A 
ATOM     62  N   UNL     1      24.510  30.579  15.582  1.00  0.00    -0.132 NA
ATOM     63  N   UNL     1      23.606  29.576  13.887  1.00  0.00    -0.248 N 
ATOM     64  N   UNL     1      24.186  30.674  14.300  1.00  0.00    -0.067 NA
BRANCH  63  65
ATOM     65  C   UNL     1      23.108  29.292  12.574  1.00  0.00     0.181 C 
BRANCH  65  66
ATOM     66  C   UNL     1      21.708  29.722  12.348  1.00  0.00    -0.023 A 
ATOM     67  C   UNL     1      20.741  28.798  12.101  1.00  0.00     0.010 A 
ATOM     68  C   UNL     1      21.377  31.081  12.384  1.00  0.00     0.056 A 
ATOM     69  C   UNL     1      19.452  29.218  11.891  1.00  0.00     0.051 A 
ATOM     70  C   UNL     1      20.096  31.513  12.176  1.00  0.00     0.166 A 
ATOM     71  C   UNL     1      19.135  30.549  11.928  1.00  0.00     0.165 A 
ATOM     72  O   UNL     1      19.445  32.732  12.143  1.00  0.00    -0.454 OA
ATOM     73  O   UNL     1      17.898  31.179  11.742  1.00  0.00    -0.454 OA
ATOM     74  C   UNL     1      18.044  32.490  12.244  1.00  0.00     0.468 C 
ENDBRANCH  65  66
ENDBRANCH  63  65
ENDBRANCH  59  60
ENDBRANCH  58  59
ENDBRANCH  55  58
ENDBRANCH  53  54
ENDBRANCH  50  53
ENDBRANCH  47  50
ENDBRANCH   5  47
BRANCH   4  75
ATOM     75  N   UNL     1      30.732  35.729  15.641  1.00  0.00    -0.348 N 
ATOM     76  C   UNL     1      32.035  35.479  16.189  1.00  0.00     0.217 C 
ATOM     77  H   UNL     1      30.319  36.639  15.912  1.00  0.00     0.163 HD
ATOM     78  C   UNL     1      32.668  36.510  17.081  1.00  0.00     0.114 C 
ATOM     79  O   UNL     1      32.639  34.412  15.926  1.00  0.00    -0.275 OA
ENDBRANCH   4  75
TORSDOF 31
BEGIN_RES LYS A 131
REMARK  4 active torsions:
REMARK  status: ('A' for Active; 'I' for Inactive)
REMARK    1  A    between atoms: CA   and  CB  
REMARK    2  A    between atoms: CB   and  CG  
REMARK    3  A    between atoms: CG   and  CD  
REMARK    4  A    between atoms: CD   and  CE  
ROOT
ATOM      1  CA  LYS A 131      29.867  25.555  16.977  1.00 20.52     0.186 C 
ENDROOT
BRANCH   1   2
ATOM      2  CB  LYS A 131      28.345  25.722  17.026  1.00 20.94     0.034 C 
BRANCH   2   3
ATOM      3  CG  LYS A 131      27.601  24.402  16.889  1.00 22.96     0.005 C 
BRANCH   3   4
ATOM      4  CD  LYS A 131      26.147  24.532  17.249  1.00 24.33     0.041 C 
BRANCH   4   5
ATOM      5  CE  LYS A 131      25.670  23.243  17.911  1.00 26.91     0.338 C 
ATOM      6  NZ  LYS A 131      24.315  22.883  17.429  1.00 27.40     0.618 N 
ENDBRANCH   4   5
ENDBRANCH   3   4
ENDBRANCH   2   3
ENDBRANCH   1   2
END_RES LYS A 131
BEGIN_RES LYS A 135
REMARK  4 active torsions:
REMARK  status: ('A' for Active; 'I' for Inactive)
REMARK    5  A    between atoms: CA   and  CB  
REMARK    6  A    between atoms: CB   and  CG  
REMARK    7  A    between atoms: CG   and  CD  
REMARK    8  A    between atoms: CD   and  CE  
ROOT
ATOM      7  CA  LYS A 135      33.193  34.663   9.290  1.00 25.02     0.186 C 
ENDROOT
BRANCH   7   8
ATOM      8  CB  LYS A 135      32.060  35.360  10.034  1.00 26.63     0.034 C 
BRANCH   8   9
ATOM      9  CG  LYS A 135      30.780  35.442   9.242  1.00 29.45     0.005 C 
BRANCH   9  10
ATOM     10  CD  LYS A 135      30.198  34.055   9.017  1.00 32.00     0.041 C 
BRANCH  10  11
ATOM     11  CE  LYS A 135      28.721  34.036   9.357  1.00 34.25     0.338 C 
ATOM     12  NZ  LYS A 135      27.907  34.606   8.248  1.00 35.99     0.618 N 
ENDBRANCH  10  11
ENDBRANCH   9  10
ENDBRANCH   8   9
ENDBRANCH   7   8
END_RES LYS A 135
