REMARK VINA RESULT:    -4.469      2.312      5.246
REMARK INTER + INTRA:         -23.663
REMARK INTER:                 -11.704
REMARK INTRA:                 -11.959
REMARK UNBOUND:               -12.270
REMARK SMILES CC(=O)N[C@@H]1[C@@H](O)C[C@](OC[C@H]2O[C@@H](O[C@H]3[C@H](O)[C@@H](O)[C@H](OCCN=[N+]=[N-])O[C@@H]3CO)[C@H](O)[C@@H](O)[C@H]2O)(C(=O)O)O[C@H]1C(O)[C@H](O)CNC(=O)OCc1cn(-c2ccc(S(N)(=O)=O)cc2)nn1
REMARK SMILES IDX 9 1 8 2 6 3 5 4 42 5 41 6 10 7 11 8 12 9 14 10 13 11 32 12
REMARK SMILES IDX 34 13 36 14 15 15 16 16 29 17 28 18 21 19 17 20 19 21 30 22
REMARK SMILES IDX 31 23 22 25 23 26 24 27 25 28 26 29 27 30 18 31 20 33 33 35
REMARK SMILES IDX 35 37 37 39 38 41 39 42 40 43 7 45 43 47 44 48 45 50 46 51
REMARK SMILES IDX 47 53 48 54 49 55 50 57 51 58 52 59 53 60 54 61 67 62 55 63
REMARK SMILES IDX 66 64 56 65 57 66 65 67 58 68 64 69 59 70 60 71 62 72 63 73
REMARK SMILES IDX 61 74 4 77 2 78 1 80 3 81
REMARK H PARENT 31 24 18 32 20 34 33 36 35 38 37 40 40 44 7 46 44 49 46 52
REMARK H PARENT 48 56 61 75 61 76 4 79
REMARK Flexibility Score: inf
ROOT
ATOM      1  C   UNL     1      24.740  35.515  12.643  1.00  0.00     0.272 C 
ATOM      2  C   UNL     1      24.238  36.460  13.746  1.00  0.00     0.113 C 
ATOM      3  C   UNL     1      24.860  36.164  15.064  1.00  0.00     0.145 C 
ATOM      4  C   UNL     1      24.969  34.671  15.236  1.00  0.00     0.142 C 
ATOM      5  C   UNL     1      23.931  34.079  14.274  1.00  0.00     0.178 C 
ATOM      6  O   UNL     1      24.485  34.213  13.002  1.00  0.00    -0.332 OA
ENDROOT
BRANCH   1   7
ATOM      7  O   UNL     1      26.086  35.815  12.482  1.00  0.00    -0.338 OA
BRANCH   7   8
ATOM      8  C   UNL     1      26.875  34.743  12.173  1.00  0.00     0.199 C 
BRANCH   8   9
ATOM      9  C   UNL     1      28.340  35.203  12.276  1.00  0.00     0.179 C 
ATOM     10  C   UNL     1      29.469  37.249  12.380  1.00  0.00     0.282 C 
ATOM     11  O   UNL     1      28.374  36.494  11.855  1.00  0.00    -0.341 OA
ATOM     12  C   UNL     1      29.164  37.328  13.848  1.00  0.00     0.202 C 
ATOM     13  C   UNL     1      29.339  35.954  14.484  1.00  0.00     0.179 C 
ATOM     14  C   UNL     1      28.971  34.851  13.561  1.00  0.00     0.177 C 
BRANCH  10  15
ATOM     15  O   UNL     1      29.431  38.465  11.792  1.00  0.00    -0.341 OA
BRANCH  15  16
ATOM     16  C   UNL     1      28.924  38.475  10.466  1.00  0.00     0.184 C 
ATOM     17  C   UNL     1      29.873  39.194   9.622  1.00  0.00     0.178 C 
ATOM     18  O   UNL     1      29.349  40.040   8.665  1.00  0.00    -0.341 OA
ATOM     19  C   UNL     1      28.082  39.768   8.230  1.00  0.00     0.281 C 
ATOM     20  C   UNL     1      27.511  39.012  10.479  1.00  0.00     0.180 C 
ATOM     21  C   UNL     1      27.152  39.955   9.399  1.00  0.00     0.202 C 
BRANCH  17  22
ATOM     22  C   UNL     1      30.865  38.304   8.902  1.00  0.00     0.191 C 
BRANCH  22  23
ATOM     23  O   UNL     1      31.894  37.929   9.755  1.00  0.00    -0.394 OA
ATOM     24  H   UNL     1      32.782  38.180   9.398  1.00  0.00     0.210 HD
ENDBRANCH  22  23
ENDBRANCH  17  22
BRANCH  19  25
ATOM     25  O   UNL     1      27.905  38.563   7.595  1.00  0.00    -0.350 OA
BRANCH  25  26
ATOM     26  C   UNL     1      26.658  38.521   6.983  1.00  0.00     0.169 C 
BRANCH  26  27
ATOM     27  C   UNL     1      26.095  37.114   7.167  1.00  0.00     0.119 C 
BRANCH  27  28
ATOM     28  N   UNL     1      24.992  37.188   8.083  1.00  0.00    -0.092 NA
ATOM     29  N   UNL     1      23.943  37.815   7.811  1.00  0.00     0.001 N 
ATOM     30  N   UNL     1      23.203  38.811   7.880  1.00  0.00    -0.003 NA
ENDBRANCH  27  28
ENDBRANCH  26  27
ENDBRANCH  25  26
ENDBRANCH  19  25
BRANCH  20  31
ATOM     31  O   UNL     1      26.578  37.972  10.467  1.00  0.00    -0.387 OA
ATOM     32  H   UNL     1      26.410  37.679  11.392  1.00  0.00     0.211 HD
ENDBRANCH  20  31
BRANCH  21  33
ATOM     33  O   UNL     1      27.143  41.291   9.783  1.00  0.00    -0.385 OA
ATOM     34  H   UNL     1      28.088  41.469  10.094  1.00  0.00     0.211 HD
ENDBRANCH  21  33
ENDBRANCH  15  16
ENDBRANCH  10  15
BRANCH  12  35
ATOM     35  O   UNL     1      29.805  38.320  14.530  1.00  0.00    -0.385 OA
ATOM     36  H   UNL     1      30.226  38.051  15.370  1.00  0.00     0.211 HD
ENDBRANCH  12  35
BRANCH  13  37
ATOM     37  O   UNL     1      28.751  35.897  15.737  1.00  0.00    -0.387 OA
ATOM     38  H   UNL     1      27.774  35.833  15.741  1.00  0.00     0.211 HD
ENDBRANCH  13  37
BRANCH  14  39
ATOM     39  O   UNL     1      28.069  34.009  14.258  1.00  0.00    -0.387 OA
ATOM     40  H   UNL     1      27.819  34.526  15.079  1.00  0.00     0.211 HD
ENDBRANCH  14  39
ENDBRANCH   8   9
ENDBRANCH   7   8
ENDBRANCH   1   7
BRANCH   1  41
ATOM     41  C   UNL     1      23.955  35.937  11.423  1.00  0.00     0.364 C 
ATOM     42  O   UNL     1      23.423  35.086  10.670  1.00  0.00    -0.246 OA
BRANCH  41  43
ATOM     43  O   UNL     1      23.797  37.270  11.098  1.00  0.00    -0.477 OA
ATOM     44  H   UNL     1      23.043  37.522  10.477  1.00  0.00     0.296 HD
ENDBRANCH  41  43
ENDBRANCH   1  41
BRANCH   3  45
ATOM     45  O   UNL     1      26.087  36.819  15.136  1.00  0.00    -0.391 OA
ATOM     46  H   UNL     1      25.961  37.769  14.903  1.00  0.00     0.211 HD
ENDBRANCH   3  45
BRANCH   5  47
ATOM     47  C   UNL     1      23.704  32.619  14.560  1.00  0.00     0.176 C 
BRANCH  47  48
ATOM     48  O   UNL     1      22.520  32.349  15.215  1.00  0.00    -0.388 OA
ATOM     49  H   UNL     1      21.739  32.320  14.607  1.00  0.00     0.211 HD
ENDBRANCH  47  48
BRANCH  47  50
ATOM     50  C   UNL     1      23.775  31.816  13.282  1.00  0.00     0.165 C 
BRANCH  50  51
ATOM     51  O   UNL     1      22.503  31.750  12.676  1.00  0.00    -0.388 OA
ATOM     52  H   UNL     1      22.554  32.079  11.733  1.00  0.00     0.211 HD
ENDBRANCH  50  51
BRANCH  50  53
ATOM     53  C   UNL     1      24.301  30.423  13.519  1.00  0.00     0.154 C 
BRANCH  53  54
ATOM     54  N   UNL     1      25.145  30.357  14.688  1.00  0.00    -0.319 N 
ATOM     55  C   UNL     1      24.757  29.555  15.792  1.00  0.00     0.407 C 
ATOM     56  H   UNL     1      26.041  30.879  14.759  1.00  0.00     0.167 HD
ATOM     57  O   UNL     1      23.667  28.915  15.724  1.00  0.00    -0.225 OA
BRANCH  55  58
ATOM     58  O   UNL     1      25.496  29.421  16.955  1.00  0.00    -0.443 OA
BRANCH  58  59
ATOM     59  C   UNL     1      26.776  28.835  16.977  1.00  0.00     0.294 C 
BRANCH  59  60
ATOM     60  C   UNL     1      27.763  29.847  17.439  1.00  0.00     0.121 A 
ATOM     61  C   UNL     1      28.563  30.649  16.617  1.00  0.00     0.144 A 
ATOM     62  N   UNL     1      28.107  30.208  18.687  1.00  0.00    -0.131 NA
ATOM     63  N   UNL     1      29.340  31.444  17.393  1.00  0.00    -0.220 N 
ATOM     64  N   UNL     1      29.048  31.162  18.627  1.00  0.00    -0.062 NA
BRANCH  63  65
ATOM     65  C   UNL     1      30.299  32.407  16.940  1.00  0.00     0.066 A 
ATOM     66  C   UNL     1      30.650  33.485  17.720  1.00  0.00     0.030 A 
ATOM     67  C   UNL     1      30.903  32.281  15.709  1.00  0.00     0.030 A 
ATOM     68  C   UNL     1      31.585  34.418  17.277  1.00  0.00     0.024 A 
ATOM     69  C   UNL     1      31.840  33.209  15.257  1.00  0.00     0.024 A 
ATOM     70  C   UNL     1      32.189  34.289  16.042  1.00  0.00     0.082 A 
BRANCH  70  71
ATOM     71  S   UNL     1      33.369  35.486  15.511  1.00  0.00     0.238 S 
ATOM     72  O   UNL     1      34.381  35.765  16.596  1.00  0.00    -0.207 OA
ATOM     73  O   UNL     1      34.125  34.983  14.320  1.00  0.00    -0.207 OA
BRANCH  71  74
ATOM     74  N   UNL     1      32.588  36.974  15.075  1.00  0.00    -0.225 NA
ATOM     75  H   UNL     1      31.572  36.749  14.876  1.00  0.00     0.137 HD
ATOM     76  H   UNL     1      33.033  37.425  14.241  1.00  0.00     0.137 HD
ENDBRANCH  71  74
ENDBRANCH  70  71
ENDBRANCH  63  65
ENDBRANCH  59  60
ENDBRANCH  58  59
ENDBRANCH  55  58
ENDBRANCH  53  54
ENDBRANCH  50  53
ENDBRANCH  47  50
ENDBRANCH   5  47
BRANCH   4  77
ATOM     77  N   UNL     1      24.744  34.208  16.579  1.00  0.00    -0.348 N 
ATOM     78  C   UNL     1      25.833  33.826  17.391  1.00  0.00     0.217 C 
ATOM     79  H   UNL     1      23.786  34.150  16.971  1.00  0.00     0.163 HD
ATOM     80  C   UNL     1      25.560  33.353  18.771  1.00  0.00     0.114 C 
ATOM     81  O   UNL     1      27.022  33.868  16.998  1.00  0.00    -0.275 OA
ENDBRANCH   4  77
TORSDOF 32
BEGIN_RES LYS A 131
REMARK  4 active torsions:
REMARK  status: ('A' for Active; 'I' for Inactive)
REMARK    1  A    between atoms: CA   and  CB  
REMARK    2  A    between atoms: CB   and  CG  
REMARK    3  A    between atoms: CG   and  CD  
REMARK    4  A    between atoms: CD   and  CE  
ROOT
ATOM      1  CA  LYS A 131      29.867  25.555  16.977  1.00 20.52     0.186 C 
ENDROOT
BRANCH   1   2
ATOM      2  CB  LYS A 131      28.345  25.722  17.026  1.00 20.94     0.034 C 
BRANCH   2   3
ATOM      3  CG  LYS A 131      27.602  24.397  16.945  1.00 22.96     0.005 C 
BRANCH   3   4
ATOM      4  CD  LYS A 131      26.545  24.275  18.007  1.00 24.33     0.041 C 
BRANCH   4   5
ATOM      5  CE  LYS A 131      25.202  23.965  17.354  1.00 26.91     0.338 C 
ATOM      6  NZ  LYS A 131      24.929  22.508  17.395  1.00 27.40     0.618 N 
ENDBRANCH   4   5
ENDBRANCH   3   4
ENDBRANCH   2   3
ENDBRANCH   1   2
END_RES LYS A 131
BEGIN_RES LYS A 135
REMARK  4 active torsions:
REMARK  status: ('A' for Active; 'I' for Inactive)
REMARK    5  A    between atoms: CA   and  CB  
REMARK    6  A    between atoms: CB   and  CG  
REMARK    7  A    between atoms: CG   and  CD  
REMARK    8  A    between atoms: CD   and  CE  
ROOT
ATOM      7  CA  LYS A 135      33.193  34.663   9.290  1.00 25.02     0.186 C 
ENDROOT
BRANCH   7   8
ATOM      8  CB  LYS A 135      32.060  35.360  10.034  1.00 26.63     0.034 C 
BRANCH   8   9
ATOM      9  CG  LYS A 135      30.729  34.668   9.890  1.00 29.45     0.005 C 
BRANCH   9  10
ATOM     10  CD  LYS A 135      30.367  34.500   8.422  1.00 32.00     0.041 C 
BRANCH  10  11
ATOM     11  CE  LYS A 135      28.977  35.041   8.151  1.00 34.25     0.338 C 
ATOM     12  NZ  LYS A 135      27.934  34.166   8.755  1.00 35.99     0.618 N 
ENDBRANCH  10  11
ENDBRANCH   9  10
ENDBRANCH   8   9
ENDBRANCH   7   8
END_RES LYS A 135
