REMARK VINA RESULT:    -4.170      3.060      8.241
REMARK INTER + INTRA:         -22.002
REMARK INTER:                 -10.204
REMARK INTRA:                 -11.798
REMARK UNBOUND:               -11.494
REMARK SMILES CC(=O)N[C@@H]1[C@@H](O)C[C@](OC[C@H]2O[C@@H](O[C@H]3[C@H](O)[C@@H](O)[C@H](OCCN=[N+]=[N-])O[C@@H]3CO)[C@H](O)[C@@H](O)[C@H]2O)(C(=O)O)O[C@H]1C(O)[C@H](O)CNC(=O)OCc1cn(-c2ccccc2C(C)=O)nn1
REMARK SMILES IDX 9 1 8 2 6 3 5 4 42 5 41 6 10 7 11 8 12 9 14 10 13 11 32 12
REMARK SMILES IDX 34 13 36 14 15 15 16 16 29 17 28 18 21 19 17 20 19 21 30 22
REMARK SMILES IDX 31 23 22 25 23 26 24 27 25 28 26 29 27 30 18 31 20 33 33 35
REMARK SMILES IDX 35 37 37 39 38 41 39 42 40 43 7 45 43 47 44 48 45 50 46 51
REMARK SMILES IDX 47 53 48 54 49 55 50 57 51 58 52 59 53 60 54 61 66 62 55 63
REMARK SMILES IDX 65 64 56 65 61 66 57 67 60 68 58 69 59 70 62 71 64 72 63 73
REMARK SMILES IDX 4 74 2 75 1 77 3 78
REMARK H PARENT 31 24 18 32 20 34 33 36 35 38 37 40 40 44 7 46 44 49 46 52
REMARK H PARENT 48 56 4 76
REMARK Flexibility Score: inf
ROOT
ATOM      1  C   UNL     1      29.187  41.252   5.344  1.00  0.00     0.272 C 
ATOM      2  C   UNL     1      28.587  41.572   6.683  1.00  0.00     0.113 C 
ATOM      3  C   UNL     1      27.117  41.251   6.625  1.00  0.00     0.145 C 
ATOM      4  C   UNL     1      27.061  39.739   6.485  1.00  0.00     0.142 C 
ATOM      5  C   UNL     1      27.654  39.445   5.134  1.00  0.00     0.178 C 
ATOM      6  O   UNL     1      28.371  40.419   4.545  1.00  0.00    -0.332 OA
ENDROOT
BRANCH   1   7
ATOM      7  O   UNL     1      30.388  40.734   5.315  1.00  0.00    -0.338 OA
BRANCH   7   8
ATOM      8  C   UNL     1      31.546  41.128   4.885  1.00  0.00     0.199 C 
BRANCH   8   9
ATOM      9  C   UNL     1      32.801  41.184   5.671  1.00  0.00     0.179 C 
ATOM     10  C   UNL     1      33.522  41.583   7.834  1.00  0.00     0.282 C 
ATOM     11  O   UNL     1      32.415  41.347   7.038  1.00  0.00    -0.341 OA
ATOM     12  C   UNL     1      34.843  41.296   7.226  1.00  0.00     0.202 C 
ATOM     13  C   UNL     1      34.898  40.144   6.272  1.00  0.00     0.179 C 
ATOM     14  C   UNL     1      33.536  39.823   5.707  1.00  0.00     0.177 C 
BRANCH  10  15
ATOM     15  O   UNL     1      33.392  40.870   9.025  1.00  0.00    -0.341 OA
BRANCH  15  16
ATOM     16  C   UNL     1      32.109  40.979   9.556  1.00  0.00     0.184 C 
ATOM     17  C   UNL     1      32.189  41.853  10.784  1.00  0.00     0.178 C 
ATOM     18  O   UNL     1      31.817  41.233  11.948  1.00  0.00    -0.341 OA
ATOM     19  C   UNL     1      30.592  40.613  11.939  1.00  0.00     0.281 C 
ATOM     20  C   UNL     1      31.741  39.569  10.038  1.00  0.00     0.180 C 
ATOM     21  C   UNL     1      30.433  39.671  10.756  1.00  0.00     0.202 C 
BRANCH  17  22
ATOM     22  C   UNL     1      31.391  43.117  10.516  1.00  0.00     0.191 C 
BRANCH  22  23
ATOM     23  O   UNL     1      30.820  43.002   9.250  1.00  0.00    -0.394 OA
ATOM     24  H   UNL     1      30.375  42.152   9.080  1.00  0.00     0.210 HD
ENDBRANCH  22  23
ENDBRANCH  17  22
BRANCH  19  25
ATOM     25  O   UNL     1      29.511  41.465  12.060  1.00  0.00    -0.350 OA
BRANCH  25  26
ATOM     26  C   UNL     1      28.526  41.080  11.163  1.00  0.00     0.169 C 
BRANCH  26  27
ATOM     27  C   UNL     1      27.395  42.096  11.196  1.00  0.00     0.119 C 
BRANCH  27  28
ATOM     28  N   UNL     1      27.926  43.447  10.977  1.00  0.00    -0.092 NA
ATOM     29  N   UNL     1      27.843  43.880   9.829  1.00  0.00     0.001 N 
ATOM     30  N   UNL     1      27.934  44.394   8.728  1.00  0.00    -0.003 NA
ENDBRANCH  27  28
ENDBRANCH  26  27
ENDBRANCH  25  26
ENDBRANCH  19  25
BRANCH  20  31
ATOM     31  O   UNL     1      31.716  38.710   8.963  1.00  0.00    -0.387 OA
ATOM     32  H   UNL     1      30.805  38.671   8.535  1.00  0.00     0.211 HD
ENDBRANCH  20  31
BRANCH  21  33
ATOM     33  O   UNL     1      29.941  38.422  11.141  1.00  0.00    -0.385 OA
ATOM     34  H   UNL     1      29.309  38.546  11.914  1.00  0.00     0.211 HD
ENDBRANCH  21  33
ENDBRANCH  15  16
ENDBRANCH  10  15
BRANCH  12  35
ATOM     35  O   UNL     1      35.437  42.451   6.694  1.00  0.00    -0.385 OA
ATOM     36  H   UNL     1      35.878  42.265   5.827  1.00  0.00     0.211 HD
ENDBRANCH  12  35
BRANCH  13  37
ATOM     37  O   UNL     1      35.374  38.975   6.890  1.00  0.00    -0.387 OA
ATOM     38  H   UNL     1      35.671  39.245   7.798  1.00  0.00     0.211 HD
ENDBRANCH  13  37
BRANCH  14  39
ATOM     39  O   UNL     1      32.833  38.942   6.537  1.00  0.00    -0.387 OA
ATOM     40  H   UNL     1      32.800  39.250   7.479  1.00  0.00     0.211 HD
ENDBRANCH  14  39
ENDBRANCH   8   9
ENDBRANCH   7   8
ENDBRANCH   1   7
BRANCH   1  41
ATOM     41  C   UNL     1      29.094  42.529   4.582  1.00  0.00     0.364 C 
ATOM     42  O   UNL     1      29.257  43.649   5.179  1.00  0.00    -0.246 OA
BRANCH  41  43
ATOM     43  O   UNL     1      28.834  42.648   3.241  1.00  0.00    -0.477 OA
ATOM     44  H   UNL     1      28.143  43.286   2.870  1.00  0.00     0.296 HD
ENDBRANCH  41  43
ENDBRANCH   1  41
BRANCH   3  45
ATOM     45  O   UNL     1      26.568  41.672   7.834  1.00  0.00    -0.391 OA
ATOM     46  H   UNL     1      27.270  42.002   8.455  1.00  0.00     0.211 HD
ENDBRANCH   3  45
BRANCH   5  47
ATOM     47  C   UNL     1      28.395  38.069   5.182  1.00  0.00     0.176 C 
BRANCH  47  48
ATOM     48  O   UNL     1      27.326  37.123   4.948  1.00  0.00    -0.388 OA
ATOM     49  H   UNL     1      27.530  36.814   4.013  1.00  0.00     0.211 HD
ENDBRANCH  47  48
BRANCH  47  50
ATOM     50  C   UNL     1      28.915  37.786   6.528  1.00  0.00     0.165 C 
BRANCH  50  51
ATOM     51  O   UNL     1      30.181  38.386   6.742  1.00  0.00    -0.388 OA
ATOM     52  H   UNL     1      30.188  38.916   7.568  1.00  0.00     0.211 HD
ENDBRANCH  50  51
BRANCH  50  53
ATOM     53  C   UNL     1      28.674  36.527   7.229  1.00  0.00     0.154 C 
BRANCH  53  54
ATOM     54  N   UNL     1      27.745  36.550   8.298  1.00  0.00    -0.319 N 
ATOM     55  C   UNL     1      26.829  35.547   8.687  1.00  0.00     0.407 C 
ATOM     56  H   UNL     1      27.704  37.425   8.916  1.00  0.00     0.167 HD
ATOM     57  O   UNL     1      26.783  34.489   8.019  1.00  0.00    -0.225 OA
BRANCH  55  58
ATOM     58  O   UNL     1      25.970  35.657   9.771  1.00  0.00    -0.443 OA
BRANCH  58  59
ATOM     59  C   UNL     1      26.028  34.735  10.828  1.00  0.00     0.294 C 
BRANCH  59  60
ATOM     60  C   UNL     1      26.216  35.522  12.096  1.00  0.00     0.121 A 
ATOM     61  C   UNL     1      26.597  36.838  12.208  1.00  0.00     0.144 A 
ATOM     62  N   UNL     1      26.057  35.104  13.359  1.00  0.00    -0.131 NA
ATOM     63  N   UNL     1      26.654  37.159  13.542  1.00  0.00    -0.220 N 
ATOM     64  N   UNL     1      26.317  36.075  14.205  1.00  0.00    -0.062 NA
BRANCH  63  65
ATOM     65  C   UNL     1      27.053  38.432  14.034  1.00  0.00     0.077 A 
ATOM     66  C   UNL     1      28.247  38.734  14.584  1.00  0.00     0.043 A 
ATOM     67  C   UNL     1      26.084  39.447  13.913  1.00  0.00     0.029 A 
ATOM     68  C   UNL     1      28.459  40.063  15.011  1.00  0.00     0.014 A 
ATOM     69  C   UNL     1      26.319  40.736  14.339  1.00  0.00     0.002 A 
ATOM     70  C   UNL     1      27.531  41.058  14.899  1.00  0.00     0.001 A 
BRANCH  66  71
ATOM     71  C   UNL     1      29.297  37.758  14.753  1.00  0.00     0.161 C 
ATOM     72  O   UNL     1      30.177  37.737  13.809  1.00  0.00    -0.294 OA
ATOM     73  C   UNL     1      29.496  36.798  15.840  1.00  0.00     0.093 C 
ENDBRANCH  66  71
ENDBRANCH  63  65
ENDBRANCH  59  60
ENDBRANCH  58  59
ENDBRANCH  55  58
ENDBRANCH  53  54
ENDBRANCH  50  53
ENDBRANCH  47  50
ENDBRANCH   5  47
BRANCH   4  74
ATOM     74  N   UNL     1      25.734  39.225   6.646  1.00  0.00    -0.348 N 
ATOM     75  C   UNL     1      25.205  38.791   7.887  1.00  0.00     0.217 C 
ATOM     76  H   UNL     1      25.137  39.175   5.780  1.00  0.00     0.163 HD
ATOM     77  C   UNL     1      23.795  38.269   7.943  1.00  0.00     0.114 C 
ATOM     78  O   UNL     1      25.942  38.865   8.892  1.00  0.00    -0.275 OA
ENDBRANCH   4  74
TORSDOF 31
BEGIN_RES LYS A 131
REMARK  4 active torsions:
REMARK  status: ('A' for Active; 'I' for Inactive)
REMARK    1  A    between atoms: CA   and  CB  
REMARK    2  A    between atoms: CB   and  CG  
REMARK    3  A    between atoms: CG   and  CD  
REMARK    4  A    between atoms: CD   and  CE  
ROOT
ATOM      1  CA  LYS A 131      29.867  25.555  16.977  1.00 20.52     0.186 C 
ENDROOT
BRANCH   1   2
ATOM      2  CB  LYS A 131      28.345  25.722  17.026  1.00 20.94     0.034 C 
BRANCH   2   3
ATOM      3  CG  LYS A 131      27.601  24.401  16.903  1.00 22.96     0.005 C 
BRANCH   3   4
ATOM      4  CD  LYS A 131      26.523  24.259  17.941  1.00 24.33     0.041 C 
BRANCH   4   5
ATOM      5  CE  LYS A 131      26.435  25.542  18.762  1.00 26.91     0.338 C 
ATOM      6  NZ  LYS A 131      25.029  25.824  19.135  1.00 27.40     0.618 N 
ENDBRANCH   4   5
ENDBRANCH   3   4
ENDBRANCH   2   3
ENDBRANCH   1   2
END_RES LYS A 131
BEGIN_RES LYS A 135
REMARK  4 active torsions:
REMARK  status: ('A' for Active; 'I' for Inactive)
REMARK    5  A    between atoms: CA   and  CB  
REMARK    6  A    between atoms: CB   and  CG  
REMARK    7  A    between atoms: CG   and  CD  
REMARK    8  A    between atoms: CD   and  CE  
ROOT
ATOM      7  CA  LYS A 135      33.193  34.663   9.290  1.00 25.02     0.186 C 
ENDROOT
BRANCH   7   8
ATOM      8  CB  LYS A 135      32.060  35.360  10.034  1.00 26.63     0.034 C 
BRANCH   8   9
ATOM      9  CG  LYS A 135      30.689  34.899   9.612  1.00 29.45     0.005 C 
BRANCH   9  10
ATOM     10  CD  LYS A 135      29.722  34.947  10.785  1.00 32.00     0.041 C 
BRANCH  10  11
ATOM     11  CE  LYS A 135      30.469  34.803  12.097  1.00 34.25     0.338 C 
ATOM     12  NZ  LYS A 135      29.558  34.355  13.187  1.00 35.99     0.618 N 
ENDBRANCH  10  11
ENDBRANCH   9  10
ENDBRANCH   8   9
ENDBRANCH   7   8
END_RES LYS A 135
