REMARK VINA RESULT:    -5.113      2.439      4.709
REMARK INTER + INTRA:         -23.783
REMARK INTER:                 -13.451
REMARK INTRA:                 -10.332
REMARK UNBOUND:               -11.198
REMARK SMILES CC(=O)N[C@@H]1[C@@H](O)C[C@](OC[C@H]2O[C@@H](O[C@H]3[C@H](O)[C@@H](O)[C@H](OCCN=[N+]=[N-])O[C@@H]3CO)[C@H](O)[C@@H](O)[C@H]2O)(C(=O)O)O[C@H]1C(O)[C@H](O)CNC(=O)OCc1cn(C23CC4CC(CC(C4)C2)C3)nn1
REMARK SMILES IDX 9 1 8 2 6 3 5 4 42 5 41 6 10 7 11 8 12 9 14 10 13 11 32 12
REMARK SMILES IDX 34 13 36 14 15 15 16 16 29 17 28 18 21 19 17 20 19 21 30 22
REMARK SMILES IDX 31 23 22 25 23 26 24 27 25 28 26 29 27 30 18 31 20 33 33 35
REMARK SMILES IDX 35 37 37 39 38 41 39 42 40 43 7 45 43 47 44 48 45 50 46 51
REMARK SMILES IDX 47 53 48 54 49 55 50 57 51 58 52 59 53 60 54 61 67 62 55 63
REMARK SMILES IDX 66 64 56 65 65 66 64 67 57 68 60 69 62 70 58 71 59 72 61 73
REMARK SMILES IDX 63 74 4 75 2 76 1 78 3 79
REMARK H PARENT 31 24 18 32 20 34 33 36 35 38 37 40 40 44 7 46 44 49 46 52
REMARK H PARENT 48 56 4 77
REMARK Flexibility Score: inf
ROOT
ATOM      1  C   UNL     1      24.738  36.086  10.129  1.00  0.00     0.272 C 
ATOM      2  C   UNL     1      25.297  37.295  10.796  1.00  0.00     0.113 C 
ATOM      3  C   UNL     1      25.529  37.036  12.271  1.00  0.00     0.145 C 
ATOM      4  C   UNL     1      24.127  37.028  12.898  1.00  0.00     0.142 C 
ATOM      5  C   UNL     1      23.290  36.175  11.992  1.00  0.00     0.178 C 
ATOM      6  O   UNL     1      23.986  35.368  11.128  1.00  0.00    -0.332 OA
ENDROOT
BRANCH   1   7
ATOM      7  O   UNL     1      25.593  35.185   9.663  1.00  0.00    -0.338 OA
BRANCH   7   8
ATOM      8  C   UNL     1      26.047  34.996   8.450  1.00  0.00     0.199 C 
BRANCH   8   9
ATOM      9  C   UNL     1      27.390  35.450   7.983  1.00  0.00     0.179 C 
ATOM     10  C   UNL     1      28.844  37.156   7.823  1.00  0.00     0.282 C 
ATOM     11  O   UNL     1      27.562  36.841   8.321  1.00  0.00    -0.341 OA
ATOM     12  C   UNL     1      29.794  36.837   8.931  1.00  0.00     0.202 C 
ATOM     13  C   UNL     1      29.284  35.587   9.622  1.00  0.00     0.179 C 
ATOM     14  C   UNL     1      28.523  34.696   8.670  1.00  0.00     0.177 C 
BRANCH  10  15
ATOM     15  O   UNL     1      28.895  38.470   7.374  1.00  0.00    -0.341 OA
BRANCH  15  16
ATOM     16  C   UNL     1      27.630  38.972   7.284  1.00  0.00     0.184 C 
ATOM     17  C   UNL     1      27.211  39.543   5.978  1.00  0.00     0.178 C 
ATOM     18  O   UNL     1      25.798  39.578   6.003  1.00  0.00    -0.341 OA
ATOM     19  C   UNL     1      25.337  40.578   6.890  1.00  0.00     0.281 C 
ATOM     20  C   UNL     1      27.378  40.085   8.307  1.00  0.00     0.180 C 
ATOM     21  C   UNL     1      25.930  40.429   8.251  1.00  0.00     0.202 C 
BRANCH  17  22
ATOM     22  C   UNL     1      27.717  38.869   4.759  1.00  0.00     0.191 C 
BRANCH  22  23
ATOM     23  O   UNL     1      27.343  37.517   4.836  1.00  0.00    -0.394 OA
ATOM     24  H   UNL     1      27.189  37.130   3.935  1.00  0.00     0.210 HD
ENDBRANCH  22  23
ENDBRANCH  17  22
BRANCH  19  25
ATOM     25  O   UNL     1      23.979  40.374   6.975  1.00  0.00    -0.350 OA
BRANCH  25  26
ATOM     26  C   UNL     1      23.187  41.451   6.821  1.00  0.00     0.169 C 
BRANCH  26  27
ATOM     27  C   UNL     1      22.048  41.483   7.790  1.00  0.00     0.119 C 
BRANCH  27  28
ATOM     28  N   UNL     1      22.549  41.462   9.169  1.00  0.00    -0.092 NA
ATOM     29  N   UNL     1      22.430  40.417   9.796  1.00  0.00     0.001 N 
ATOM     30  N   UNL     1      22.167  39.552  10.658  1.00  0.00    -0.003 NA
ENDBRANCH  27  28
ENDBRANCH  26  27
ENDBRANCH  25  26
ENDBRANCH  19  25
BRANCH  20  31
ATOM     31  O   UNL     1      27.689  39.666   9.599  1.00  0.00    -0.387 OA
ATOM     32  H   UNL     1      28.248  38.860   9.547  1.00  0.00     0.211 HD
ENDBRANCH  20  31
BRANCH  21  33
ATOM     33  O   UNL     1      25.767  41.623   8.951  1.00  0.00    -0.385 OA
ATOM     34  H   UNL     1      24.967  42.096   8.650  1.00  0.00     0.211 HD
ENDBRANCH  21  33
ENDBRANCH  15  16
ENDBRANCH  10  15
BRANCH  12  35
ATOM     35  O   UNL     1      31.113  36.726   8.569  1.00  0.00    -0.385 OA
ATOM     36  H   UNL     1      31.264  35.886   8.074  1.00  0.00     0.211 HD
ENDBRANCH  12  35
BRANCH  13  37
ATOM     37  O   UNL     1      28.539  35.872  10.759  1.00  0.00    -0.387 OA
ATOM     38  H   UNL     1      29.025  35.509  11.567  1.00  0.00     0.211 HD
ENDBRANCH  13  37
BRANCH  14  39
ATOM     39  O   UNL     1      27.956  33.668   9.411  1.00  0.00    -0.387 OA
ATOM     40  H   UNL     1      27.581  32.958   8.827  1.00  0.00     0.211 HD
ENDBRANCH  14  39
ENDBRANCH   8   9
ENDBRANCH   7   8
ENDBRANCH   1   7
BRANCH   1  41
ATOM     41  C   UNL     1      23.685  36.477   9.178  1.00  0.00     0.364 C 
ATOM     42  O   UNL     1      22.701  35.800   8.852  1.00  0.00    -0.246 OA
BRANCH  41  43
ATOM     43  O   UNL     1      23.851  37.767   8.594  1.00  0.00    -0.477 OA
ATOM     44  H   UNL     1      24.281  37.827   7.696  1.00  0.00     0.296 HD
ENDBRANCH  41  43
ENDBRANCH   1  41
BRANCH   3  45
ATOM     45  O   UNL     1      26.060  35.763  12.438  1.00  0.00    -0.391 OA
ATOM     46  H   UNL     1      27.038  35.867  12.555  1.00  0.00     0.211 HD
ENDBRANCH   3  45
BRANCH   5  47
ATOM     47  C   UNL     1      22.434  35.151  12.830  1.00  0.00     0.176 C 
BRANCH  47  48
ATOM     48  O   UNL     1      23.334  34.854  13.876  1.00  0.00    -0.388 OA
ATOM     49  H   UNL     1      23.175  33.902  14.091  1.00  0.00     0.211 HD
ENDBRANCH  47  48
BRANCH  47  50
ATOM     50  C   UNL     1      22.171  33.948  12.041  1.00  0.00     0.165 C 
BRANCH  50  51
ATOM     51  O   UNL     1      21.240  34.100  10.997  1.00  0.00    -0.388 OA
ATOM     52  H   UNL     1      20.710  34.937  11.155  1.00  0.00     0.211 HD
ENDBRANCH  50  51
BRANCH  50  53
ATOM     53  C   UNL     1      21.869  32.694  12.767  1.00  0.00     0.154 C 
BRANCH  53  54
ATOM     54  N   UNL     1      22.971  32.110  13.439  1.00  0.00    -0.319 N 
ATOM     55  C   UNL     1      23.521  30.834  13.254  1.00  0.00     0.407 C 
ATOM     56  H   UNL     1      23.442  32.747  14.198  1.00  0.00     0.167 HD
ATOM     57  O   UNL     1      23.038  30.040  12.431  1.00  0.00    -0.225 OA
BRANCH  55  58
ATOM     58  O   UNL     1      24.648  30.465  14.028  1.00  0.00    -0.443 OA
BRANCH  58  59
ATOM     59  C   UNL     1      24.844  31.120  15.256  1.00  0.00     0.294 C 
BRANCH  59  60
ATOM     60  C   UNL     1      25.852  32.179  15.095  1.00  0.00     0.120 A 
ATOM     61  C   UNL     1      27.111  32.166  15.639  1.00  0.00     0.138 A 
ATOM     62  N   UNL     1      25.749  33.332  14.409  1.00  0.00    -0.132 NA
ATOM     63  N   UNL     1      27.721  33.295  15.268  1.00  0.00    -0.246 N 
ATOM     64  N   UNL     1      26.874  33.980  14.526  1.00  0.00    -0.066 NA
BRANCH  63  65
ATOM     65  C   UNL     1      29.077  33.632  15.656  1.00  0.00     0.065 C 
ATOM     66  C   UNL     1      29.860  32.366  15.811  1.00  0.00     0.034 C 
ATOM     67  C   UNL     1      29.683  34.589  14.649  1.00  0.00     0.034 C 
ATOM     68  C   UNL     1      29.063  34.345  16.996  1.00  0.00     0.034 C 
ATOM     69  C   UNL     1      31.290  32.671  16.181  1.00  0.00    -0.008 C 
ATOM     70  C   UNL     1      31.122  34.827  15.000  1.00  0.00    -0.008 C 
ATOM     71  C   UNL     1      30.493  34.675  17.349  1.00  0.00    -0.008 C 
ATOM     72  C   UNL     1      31.304  33.418  17.492  1.00  0.00     0.007 C 
ATOM     73  C   UNL     1      31.875  33.535  15.089  1.00  0.00     0.007 C 
ATOM     74  C   UNL     1      31.159  35.561  16.333  1.00  0.00     0.007 C 
ENDBRANCH  63  65
ENDBRANCH  59  60
ENDBRANCH  58  59
ENDBRANCH  55  58
ENDBRANCH  53  54
ENDBRANCH  50  53
ENDBRANCH  47  50
ENDBRANCH   5  47
BRANCH   4  75
ATOM     75  N   UNL     1      23.629  38.408  12.893  1.00  0.00    -0.348 N 
ATOM     76  C   UNL     1      23.667  39.210  14.067  1.00  0.00     0.217 C 
ATOM     77  H   UNL     1      23.230  38.821  12.013  1.00  0.00     0.163 HD
ATOM     78  C   UNL     1      23.143  40.623  14.044  1.00  0.00     0.114 C 
ATOM     79  O   UNL     1      24.143  38.710  15.110  1.00  0.00    -0.275 OA
ENDBRANCH   4  75
TORSDOF 30
BEGIN_RES LYS A 131
REMARK  4 active torsions:
REMARK  status: ('A' for Active; 'I' for Inactive)
REMARK    1  A    between atoms: CA   and  CB  
REMARK    2  A    between atoms: CB   and  CG  
REMARK    3  A    between atoms: CG   and  CD  
REMARK    4  A    between atoms: CD   and  CE  
ROOT
ATOM      1  CA  LYS A 131      29.867  25.555  16.977  1.00 20.52     0.186 C 
ENDROOT
BRANCH   1   2
ATOM      2  CB  LYS A 131      28.345  25.722  17.026  1.00 20.94     0.034 C 
BRANCH   2   3
ATOM      3  CG  LYS A 131      27.601  24.401  16.905  1.00 22.96     0.005 C 
BRANCH   3   4
ATOM      4  CD  LYS A 131      26.146  24.536  17.256  1.00 24.33     0.041 C 
BRANCH   4   5
ATOM      5  CE  LYS A 131      25.616  23.194  17.752  1.00 26.91     0.338 C 
ATOM      6  NZ  LYS A 131      25.539  23.181  19.232  1.00 27.40     0.618 N 
ENDBRANCH   4   5
ENDBRANCH   3   4
ENDBRANCH   2   3
ENDBRANCH   1   2
END_RES LYS A 131
BEGIN_RES LYS A 135
REMARK  4 active torsions:
REMARK  status: ('A' for Active; 'I' for Inactive)
REMARK    5  A    between atoms: CA   and  CB  
REMARK    6  A    between atoms: CB   and  CG  
REMARK    7  A    between atoms: CG   and  CD  
REMARK    8  A    between atoms: CD   and  CE  
ROOT
ATOM      7  CA  LYS A 135      33.193  34.663   9.290  1.00 25.02     0.186 C 
ENDROOT
BRANCH   7   8
ATOM      8  CB  LYS A 135      32.060  35.360  10.034  1.00 26.63     0.034 C 
BRANCH   8   9
ATOM      9  CG  LYS A 135      32.206  35.315  11.533  1.00 29.45     0.005 C 
BRANCH   9  10
ATOM     10  CD  LYS A 135      32.539  36.694  12.081  1.00 32.00     0.041 C 
BRANCH  10  11
ATOM     11  CE  LYS A 135      31.270  37.467  12.385  1.00 34.25     0.338 C 
ATOM     12  NZ  LYS A 135      31.257  38.777  11.675  1.00 35.99     0.618 N 
ENDBRANCH  10  11
ENDBRANCH   9  10
ENDBRANCH   8   9
ENDBRANCH   7   8
END_RES LYS A 135
