REMARK VINA RESULT:    -4.758      3.411      6.600
REMARK INTER + INTRA:         -22.918
REMARK INTER:                 -10.414
REMARK INTRA:                 -12.504
REMARK UNBOUND:               -10.372
REMARK SMILES CC(=O)N[C@@H]1[C@@H](O)C[C@](OC[C@H]2O[C@@H](O[C@H]3[C@H](O)[C@@H](O)[C@H](OCCN=[N+]=[N-])O[C@@H]3CO)[C@H](O)[C@@H](O)[C@H]2O)(C(=O)O)O[C@H]1C(O)[C@H](O)CNC(=O)OCc1cn(CC(=O)NCc2cccs2)nn1
REMARK SMILES IDX 43 1 42 2 9 3 8 4 41 5 6 6 5 7 10 8 11 9 12 10 14 11 13 12
REMARK SMILES IDX 32 13 34 14 36 15 15 16 16 17 29 18 28 19 21 20 17 21 19 22
REMARK SMILES IDX 30 23 31 24 22 26 23 27 24 28 25 29 26 30 27 31 18 32 20 34
REMARK SMILES IDX 33 36 35 38 37 40 38 42 39 43 40 44 7 46 4 48 2 49 1 51 3 52
REMARK SMILES IDX 44 53 45 55 46 56 47 58 48 59 49 60 50 62 51 63 52 64 53 65
REMARK SMILES IDX 54 66 67 67 55 68 66 69 56 70 57 71 58 72 59 73 60 75 61 76
REMARK SMILES IDX 62 77 65 78 63 79 64 80
REMARK H PARENT 31 25 18 33 20 35 33 37 35 39 37 41 40 45 7 47 4 50 44 54
REMARK H PARENT 46 57 48 61 59 74
REMARK Flexibility Score: inf
ROOT
ATOM      1  C   UNL     1      27.622  41.355   5.752  1.00  0.00     0.176 C 
ENDROOT
BRANCH   1   2
ATOM      2  C   UNL     1      27.402  42.836   5.579  1.00  0.00     0.178 C 
ATOM      3  C   UNL     1      29.320  44.158   5.987  1.00  0.00     0.272 C 
ATOM      4  C   UNL     1      28.932  44.129   7.475  1.00  0.00     0.113 C 
ATOM      5  O   UNL     1      28.568  43.395   5.188  1.00  0.00    -0.332 OA
ATOM      6  C   UNL     1      27.478  44.350   7.586  1.00  0.00     0.145 C 
ATOM      7  C   UNL     1      26.644  43.509   6.655  1.00  0.00     0.142 C 
BRANCH   3   8
ATOM      8  O   UNL     1      30.633  43.750   5.980  1.00  0.00    -0.338 OA
BRANCH   8   9
ATOM      9  C   UNL     1      31.368  43.744   7.094  1.00  0.00     0.199 C 
BRANCH   9  10
ATOM     10  C   UNL     1      32.224  42.553   7.415  1.00  0.00     0.179 C 
ATOM     11  C   UNL     1      32.659  41.276   9.272  1.00  0.00     0.282 C 
ATOM     12  O   UNL     1      31.676  42.024   8.610  1.00  0.00    -0.341 OA
ATOM     13  C   UNL     1      33.404  40.385   8.334  1.00  0.00     0.202 C 
ATOM     14  C   UNL     1      32.786  40.214   6.987  1.00  0.00     0.179 C 
ATOM     15  C   UNL     1      32.102  41.417   6.422  1.00  0.00     0.177 C 
BRANCH  11  16
ATOM     16  O   UNL     1      32.160  40.563  10.326  1.00  0.00    -0.341 OA
BRANCH  16  17
ATOM     17  C   UNL     1      30.794  40.753  10.529  1.00  0.00     0.184 C 
ATOM     18  C   UNL     1      30.445  41.215  11.875  1.00  0.00     0.178 C 
ATOM     19  O   UNL     1      29.785  40.356  12.711  1.00  0.00    -0.341 OA
ATOM     20  C   UNL     1      29.678  39.054  12.342  1.00  0.00     0.281 C 
ATOM     21  C   UNL     1      30.092  39.528  10.018  1.00  0.00     0.180 C 
ATOM     22  C   UNL     1      29.016  39.034  10.953  1.00  0.00     0.202 C 
BRANCH  18  23
ATOM     23  C   UNL     1      29.537  42.458  11.790  1.00  0.00     0.191 C 
BRANCH  23  24
ATOM     24  O   UNL     1      29.515  43.005  10.525  1.00  0.00    -0.394 OA
ATOM     25  H   UNL     1      30.153  42.493   9.959  1.00  0.00     0.210 HD
ENDBRANCH  23  24
ENDBRANCH  18  23
BRANCH  20  26
ATOM     26  O   UNL     1      28.737  38.428  13.176  1.00  0.00    -0.350 OA
BRANCH  26  27
ATOM     27  C   UNL     1      29.318  37.461  13.972  1.00  0.00     0.169 C 
BRANCH  27  28
ATOM     28  C   UNL     1      28.209  36.487  14.380  1.00  0.00     0.119 C 
BRANCH  28  29
ATOM     29  N   UNL     1      28.810  35.237  14.821  1.00  0.00    -0.092 NA
ATOM     30  N   UNL     1      29.664  34.694  14.121  1.00  0.00     0.001 N 
ATOM     31  N   UNL     1      30.665  34.207  13.564  1.00  0.00    -0.003 NA
ENDBRANCH  28  29
ENDBRANCH  27  28
ENDBRANCH  26  27
ENDBRANCH  20  26
BRANCH  21  32
ATOM     32  O   UNL     1      29.597  39.681   8.720  1.00  0.00    -0.387 OA
ATOM     33  H   UNL     1      29.871  38.908   8.137  1.00  0.00     0.211 HD
ENDBRANCH  21  32
BRANCH  22  34
ATOM     34  O   UNL     1      28.679  37.746  10.587  1.00  0.00    -0.385 OA
ATOM     35  H   UNL     1      28.474  37.196  11.385  1.00  0.00     0.211 HD
ENDBRANCH  22  34
ENDBRANCH  16  17
ENDBRANCH  11  16
BRANCH  13  36
ATOM     36  O   UNL     1      34.753  40.786   8.197  1.00  0.00    -0.385 OA
ATOM     37  H   UNL     1      34.859  41.653   7.775  1.00  0.00     0.211 HD
ENDBRANCH  13  36
BRANCH  14  38
ATOM     38  O   UNL     1      31.942  39.079   6.968  1.00  0.00    -0.387 OA
ATOM     39  H   UNL     1      31.042  39.340   6.654  1.00  0.00     0.211 HD
ENDBRANCH  14  38
BRANCH  15  40
ATOM     40  O   UNL     1      30.734  41.075   6.297  1.00  0.00    -0.387 OA
ATOM     41  H   UNL     1      30.171  41.858   6.099  1.00  0.00     0.211 HD
ENDBRANCH  15  40
ENDBRANCH   9  10
ENDBRANCH   8   9
ENDBRANCH   3   8
BRANCH   3  42
ATOM     42  C   UNL     1      29.192  45.598   5.605  1.00  0.00     0.364 C 
ATOM     43  O   UNL     1      28.554  46.016   4.612  1.00  0.00    -0.246 OA
BRANCH  42  44
ATOM     44  O   UNL     1      29.812  46.563   6.389  1.00  0.00    -0.477 OA
ATOM     45  H   UNL     1      30.728  46.393   6.783  1.00  0.00     0.296 HD
ENDBRANCH  42  44
ENDBRANCH   3  42
BRANCH   6  46
ATOM     46  O   UNL     1      27.078  44.158   8.940  1.00  0.00    -0.391 OA
ATOM     47  H   UNL     1      27.777  43.702   9.456  1.00  0.00     0.211 HD
ENDBRANCH   6  46
BRANCH   7  48
ATOM     48  N   UNL     1      25.525  44.271   6.135  1.00  0.00    -0.348 N 
ATOM     49  C   UNL     1      24.279  43.646   5.921  1.00  0.00     0.217 C 
ATOM     50  H   UNL     1      25.609  45.296   5.900  1.00  0.00     0.163 HD
ATOM     51  C   UNL     1      23.139  44.447   5.385  1.00  0.00     0.114 C 
ATOM     52  O   UNL     1      24.055  42.436   6.155  1.00  0.00    -0.275 OA
ENDBRANCH   7  48
ENDBRANCH   1   2
BRANCH   1  53
ATOM     53  O   UNL     1      27.879  40.939   7.026  1.00  0.00    -0.388 OA
ATOM     54  H   UNL     1      27.566  41.521   7.750  1.00  0.00     0.211 HD
ENDBRANCH   1  53
BRANCH   1  55
ATOM     55  C   UNL     1      26.634  40.471   5.020  1.00  0.00     0.165 C 
BRANCH  55  56
ATOM     56  O   UNL     1      25.832  39.749   5.850  1.00  0.00    -0.388 OA
ATOM     57  H   UNL     1      24.872  39.787   5.644  1.00  0.00     0.211 HD
ENDBRANCH  55  56
BRANCH  55  58
ATOM     58  C   UNL     1      27.368  39.571   4.042  1.00  0.00     0.154 C 
BRANCH  58  59
ATOM     59  N   UNL     1      27.610  38.258   4.563  1.00  0.00    -0.319 N 
ATOM     60  C   UNL     1      28.727  37.836   5.326  1.00  0.00     0.407 C 
ATOM     61  H   UNL     1      26.900  37.460   4.388  1.00  0.00     0.167 HD
ATOM     62  O   UNL     1      29.637  38.605   5.634  1.00  0.00    -0.225 OA
BRANCH  60  63
ATOM     63  O   UNL     1      28.848  36.504   5.770  1.00  0.00    -0.443 OA
BRANCH  63  64
ATOM     64  C   UNL     1      27.990  35.880   6.669  1.00  0.00     0.294 C 
BRANCH  64  65
ATOM     65  C   UNL     1      27.164  36.794   7.470  1.00  0.00     0.120 A 
ATOM     66  C   UNL     1      25.912  36.544   7.987  1.00  0.00     0.138 A 
ATOM     67  N   UNL     1      27.481  38.058   7.857  1.00  0.00    -0.132 NA
ATOM     68  N   UNL     1      25.503  37.628   8.658  1.00  0.00    -0.243 N 
ATOM     69  N   UNL     1      26.467  38.514   8.561  1.00  0.00    -0.067 NA
BRANCH  68  70
ATOM     70  C   UNL     1      24.277  37.879   9.383  1.00  0.00     0.245 C 
BRANCH  70  71
ATOM     71  C   UNL     1      23.147  37.762   8.444  1.00  0.00     0.242 C 
ATOM     72  O   UNL     1      22.930  38.657   7.607  1.00  0.00    -0.273 OA
ATOM     73  N   UNL     1      22.295  36.631   8.482  1.00  0.00    -0.350 N 
ATOM     74  H   UNL     1      22.444  35.848   9.179  1.00  0.00     0.163 HD
BRANCH  73  75
ATOM     75  C   UNL     1      21.190  36.479   7.588  1.00  0.00     0.162 C 
BRANCH  75  76
ATOM     76  C   UNL     1      20.192  35.587   8.197  1.00  0.00     0.024 A 
ATOM     77  C   UNL     1      19.221  34.814   7.650  1.00  0.00     0.017 A 
ATOM     78  S   UNL     1      20.026  35.293   9.922  1.00  0.00    -0.147 S 
ATOM     79  C   UNL     1      18.435  34.078   8.451  1.00  0.00     0.012 A 
ATOM     80  C   UNL     1      18.612  34.109   9.784  1.00  0.00     0.065 A 
ENDBRANCH  75  76
ENDBRANCH  73  75
ENDBRANCH  70  71
ENDBRANCH  68  70
ENDBRANCH  64  65
ENDBRANCH  63  64
ENDBRANCH  60  63
ENDBRANCH  58  59
ENDBRANCH  55  58
ENDBRANCH   1  55
TORSDOF 33
BEGIN_RES LYS A 131
REMARK  4 active torsions:
REMARK  status: ('A' for Active; 'I' for Inactive)
REMARK    1  A    between atoms: CA   and  CB  
REMARK    2  A    between atoms: CB   and  CG  
REMARK    3  A    between atoms: CG   and  CD  
REMARK    4  A    between atoms: CD   and  CE  
ROOT
ATOM      1  CA  LYS A 131      29.867  25.555  16.977  1.00 20.52     0.186 C 
ENDROOT
BRANCH   1   2
ATOM      2  CB  LYS A 131      28.345  25.722  17.026  1.00 20.94     0.034 C 
BRANCH   2   3
ATOM      3  CG  LYS A 131      27.599  24.429  16.733  1.00 22.96     0.005 C 
BRANCH   3   4
ATOM      4  CD  LYS A 131      26.962  23.851  17.966  1.00 24.33     0.041 C 
BRANCH   4   5
ATOM      5  CE  LYS A 131      25.873  24.793  18.467  1.00 26.91     0.338 C 
ATOM      6  NZ  LYS A 131      24.808  24.944  17.447  1.00 27.40     0.618 N 
ENDBRANCH   4   5
ENDBRANCH   3   4
ENDBRANCH   2   3
ENDBRANCH   1   2
END_RES LYS A 131
BEGIN_RES LYS A 135
REMARK  4 active torsions:
REMARK  status: ('A' for Active; 'I' for Inactive)
REMARK    5  A    between atoms: CA   and  CB  
REMARK    6  A    between atoms: CB   and  CG  
REMARK    7  A    between atoms: CG   and  CD  
REMARK    8  A    between atoms: CD   and  CE  
ROOT
ATOM      7  CA  LYS A 135      33.193  34.663   9.290  1.00 25.02     0.186 C 
ENDROOT
BRANCH   7   8
ATOM      8  CB  LYS A 135      32.060  35.360  10.034  1.00 26.63     0.034 C 
BRANCH   8   9
ATOM      9  CG  LYS A 135      30.763  35.387   9.268  1.00 29.45     0.005 C 
BRANCH   9  10
ATOM     10  CD  LYS A 135      30.249  33.975   9.033  1.00 32.00     0.041 C 
BRANCH  10  11
ATOM     11  CE  LYS A 135      28.782  33.874   9.404  1.00 34.25     0.338 C 
ATOM     12  NZ  LYS A 135      28.529  34.449  10.754  1.00 35.99     0.618 N 
ENDBRANCH  10  11
ENDBRANCH   9  10
ENDBRANCH   8   9
ENDBRANCH   7   8
END_RES LYS A 135
