REMARK VINA RESULT:    -4.192      3.816      7.447
REMARK INTER + INTRA:         -22.217
REMARK INTER:                 -11.128
REMARK INTRA:                 -11.089
REMARK UNBOUND:               -11.408
REMARK SMILES CC(=O)N[C@@H]1[C@@H](O)C[C@](OC[C@H]2O[C@@H](O[C@H]3[C@H](O)[C@@H](O)[C@H](OCCN=[N+]=[N-])O[C@@H]3CO)[C@H](O)[C@@H](O)[C@H]2O)(C(=O)O)O[C@H]1C(O)[C@H](O)CNC(=O)OCc1cn(CS(=O)(=O)c2ccccc2)nn1
REMARK SMILES IDX 9 1 8 2 6 3 5 4 42 5 41 6 10 7 11 8 12 9 14 10 13 11 32 12
REMARK SMILES IDX 34 13 36 14 15 15 16 16 29 17 28 18 21 19 17 20 19 21 30 22
REMARK SMILES IDX 31 23 22 25 23 26 24 27 25 28 26 29 27 30 18 31 20 33 33 35
REMARK SMILES IDX 35 37 37 39 38 41 39 42 40 43 7 45 43 47 44 48 45 50 46 51
REMARK SMILES IDX 47 53 48 54 49 55 50 57 51 58 52 59 53 60 54 61 67 62 55 63
REMARK SMILES IDX 66 64 56 65 57 66 58 67 59 68 60 69 61 70 65 71 62 72 64 73
REMARK SMILES IDX 63 74 4 75 2 76 1 78 3 79
REMARK H PARENT 31 24 18 32 20 34 33 36 35 38 37 40 40 44 7 46 44 49 46 52
REMARK H PARENT 48 56 4 77
REMARK Flexibility Score: inf
ROOT
ATOM      1  C   UNL     1      30.570  36.541  14.194  1.00  0.00     0.272 C 
ATOM      2  C   UNL     1      30.613  35.176  13.638  1.00  0.00     0.113 C 
ATOM      3  C   UNL     1      29.293  34.432  13.662  1.00  0.00     0.145 C 
ATOM      4  C   UNL     1      28.762  34.548  15.048  1.00  0.00     0.142 C 
ATOM      5  C   UNL     1      28.755  35.958  15.569  1.00  0.00     0.178 C 
ATOM      6  O   UNL     1      29.863  36.699  15.375  1.00  0.00    -0.332 OA
ENDROOT
BRANCH   1   7
ATOM      7  O   UNL     1      30.270  37.511  13.261  1.00  0.00    -0.338 OA
BRANCH   7   8
ATOM      8  C   UNL     1      31.012  37.535  12.126  1.00  0.00     0.199 C 
BRANCH   8   9
ATOM      9  C   UNL     1      30.829  38.874  11.380  1.00  0.00     0.179 C 
ATOM     10  C   UNL     1      28.759  39.158  10.267  1.00  0.00     0.282 C 
ATOM     11  O   UNL     1      30.023  38.645  10.335  1.00  0.00    -0.341 OA
ATOM     12  C   UNL     1      28.147  39.307  11.608  1.00  0.00     0.202 C 
ATOM     13  C   UNL     1      29.029  40.069  12.551  1.00  0.00     0.179 C 
ATOM     14  C   UNL     1      30.470  40.009  12.247  1.00  0.00     0.177 C 
BRANCH  10  15
ATOM     15  O   UNL     1      28.051  38.267   9.444  1.00  0.00    -0.341 OA
BRANCH  15  16
ATOM     16  C   UNL     1      27.782  38.689   8.187  1.00  0.00     0.184 C 
ATOM     17  C   UNL     1      26.350  38.474   7.795  1.00  0.00     0.178 C 
ATOM     18  O   UNL     1      26.090  39.310   6.713  1.00  0.00    -0.341 OA
ATOM     19  C   UNL     1      27.024  39.280   5.715  1.00  0.00     0.281 C 
ATOM     20  C   UNL     1      28.563  37.861   7.137  1.00  0.00     0.180 C 
ATOM     21  C   UNL     1      28.035  38.203   5.799  1.00  0.00     0.202 C 
BRANCH  17  22
ATOM     22  C   UNL     1      25.337  38.730   8.853  1.00  0.00     0.191 C 
BRANCH  22  23
ATOM     23  O   UNL     1      24.611  37.567   9.087  1.00  0.00    -0.394 OA
ATOM     24  H   UNL     1      25.224  36.826   9.299  1.00  0.00     0.210 HD
ENDBRANCH  22  23
ENDBRANCH  17  22
BRANCH  19  25
ATOM     25  O   UNL     1      27.672  40.512   5.737  1.00  0.00    -0.350 OA
BRANCH  25  26
ATOM     26  C   UNL     1      26.749  41.578   5.862  1.00  0.00     0.169 C 
BRANCH  26  27
ATOM     27  C   UNL     1      27.319  42.616   6.804  1.00  0.00     0.119 C 
BRANCH  27  28
ATOM     28  N   UNL     1      27.160  43.922   6.169  1.00  0.00    -0.092 NA
ATOM     29  N   UNL     1      26.007  44.394   6.102  1.00  0.00     0.001 N 
ATOM     30  N   UNL     1      24.826  44.682   5.834  1.00  0.00    -0.003 NA
ENDBRANCH  27  28
ENDBRANCH  26  27
ENDBRANCH  25  26
ENDBRANCH  19  25
BRANCH  20  31
ATOM     31  O   UNL     1      29.917  38.142   7.215  1.00  0.00    -0.387 OA
ATOM     32  H   UNL     1      30.018  39.107   7.417  1.00  0.00     0.211 HD
ENDBRANCH  20  31
BRANCH  21  33
ATOM     33  O   UNL     1      27.437  37.035   5.263  1.00  0.00    -0.385 OA
ATOM     34  H   UNL     1      28.077  36.482   4.768  1.00  0.00     0.211 HD
ENDBRANCH  21  33
ENDBRANCH  15  16
ENDBRANCH  10  15
BRANCH  12  35
ATOM     35  O   UNL     1      26.952  40.094  11.541  1.00  0.00    -0.385 OA
ATOM     36  H   UNL     1      27.221  40.988  11.859  1.00  0.00     0.211 HD
ENDBRANCH  12  35
BRANCH  13  37
ATOM     37  O   UNL     1      28.775  39.685  13.891  1.00  0.00    -0.387 OA
ATOM     38  H   UNL     1      28.088  38.958  13.900  1.00  0.00     0.211 HD
ENDBRANCH  13  37
BRANCH  14  39
ATOM     39  O   UNL     1      31.199  40.022  13.451  1.00  0.00    -0.387 OA
ATOM     40  H   UNL     1      31.888  39.311  13.391  1.00  0.00     0.211 HD
ENDBRANCH  14  39
ENDBRANCH   8   9
ENDBRANCH   7   8
ENDBRANCH   1   7
BRANCH   1  41
ATOM     41  C   UNL     1      31.992  36.824  14.654  1.00  0.00     0.364 C 
ATOM     42  O   UNL     1      32.845  35.937  14.487  1.00  0.00    -0.246 OA
BRANCH  41  43
ATOM     43  O   UNL     1      32.311  38.039  15.238  1.00  0.00    -0.477 OA
ATOM     44  H   UNL     1      31.860  38.906  14.907  1.00  0.00     0.296 HD
ENDBRANCH  41  43
ENDBRANCH   1  41
BRANCH   3  45
ATOM     45  O   UNL     1      28.480  34.932  12.683  1.00  0.00    -0.391 OA
ATOM     46  H   UNL     1      29.042  35.098  11.877  1.00  0.00     0.211 HD
ENDBRANCH   3  45
BRANCH   5  47
ATOM     47  C   UNL     1      27.467  36.687  15.263  1.00  0.00     0.176 C 
BRANCH  47  48
ATOM     48  O   UNL     1      26.504  35.888  14.651  1.00  0.00    -0.388 OA
ATOM     49  H   UNL     1      25.867  35.484  15.257  1.00  0.00     0.211 HD
ENDBRANCH  47  48
BRANCH  47  50
ATOM     50  C   UNL     1      26.861  37.355  16.488  1.00  0.00     0.165 C 
BRANCH  50  51
ATOM     51  O   UNL     1      25.858  36.609  17.064  1.00  0.00    -0.388 OA
ATOM     52  H   UNL     1      25.287  37.083  17.688  1.00  0.00     0.211 HD
ENDBRANCH  50  51
BRANCH  50  53
ATOM     53  C   UNL     1      26.463  38.767  16.285  1.00  0.00     0.154 C 
BRANCH  53  54
ATOM     54  N   UNL     1      25.984  39.137  14.988  1.00  0.00    -0.319 N 
ATOM     55  C   UNL     1      24.818  39.885  14.706  1.00  0.00     0.407 C 
ATOM     56  H   UNL     1      26.558  38.819  14.148  1.00  0.00     0.167 HD
ATOM     57  O   UNL     1      24.089  40.312  15.621  1.00  0.00    -0.225 OA
BRANCH  55  58
ATOM     58  O   UNL     1      24.497  40.141  13.383  1.00  0.00    -0.443 OA
BRANCH  58  59
ATOM     59  C   UNL     1      23.551  39.427  12.643  1.00  0.00     0.294 C 
BRANCH  59  60
ATOM     60  C   UNL     1      24.054  38.067  12.375  1.00  0.00     0.120 A 
ATOM     61  C   UNL     1      23.242  36.952  12.252  1.00  0.00     0.139 A 
ATOM     62  N   UNL     1      25.305  37.615  12.194  1.00  0.00    -0.132 NA
ATOM     63  N   UNL     1      24.008  35.874  12.003  1.00  0.00    -0.237 N 
ATOM     64  N   UNL     1      25.260  36.317  11.977  1.00  0.00    -0.066 NA
BRANCH  63  65
ATOM     65  C   UNL     1      23.560  34.524  11.803  1.00  0.00     0.287 C 
BRANCH  65  66
ATOM     66  S   UNL     1      24.217  33.557  13.162  1.00  0.00     0.198 S 
ATOM     67  O   UNL     1      23.816  34.139  14.464  1.00  0.00    -0.222 OA
ATOM     68  O   UNL     1      25.728  33.543  12.997  1.00  0.00    -0.222 OA
BRANCH  66  69
ATOM     69  C   UNL     1      23.603  31.934  12.988  1.00  0.00     0.069 A 
ATOM     70  C   UNL     1      24.412  30.827  13.122  1.00  0.00     0.020 A 
ATOM     71  C   UNL     1      22.273  31.706  12.709  1.00  0.00     0.020 A 
ATOM     72  C   UNL     1      23.931  29.551  12.984  1.00  0.00     0.001 A 
ATOM     73  C   UNL     1      21.776  30.436  12.569  1.00  0.00     0.001 A 
ATOM     74  C   UNL     1      22.611  29.356  12.707  1.00  0.00     0.000 A 
ENDBRANCH  66  69
ENDBRANCH  65  66
ENDBRANCH  63  65
ENDBRANCH  59  60
ENDBRANCH  58  59
ENDBRANCH  55  58
ENDBRANCH  53  54
ENDBRANCH  50  53
ENDBRANCH  47  50
ENDBRANCH   5  47
BRANCH   4  75
ATOM     75  N   UNL     1      29.616  33.770  15.938  1.00  0.00    -0.348 N 
ATOM     76  C   UNL     1      29.445  32.366  16.099  1.00  0.00     0.217 C 
ATOM     77  H   UNL     1      30.399  34.216  16.506  1.00  0.00     0.163 HD
ATOM     78  C   UNL     1      30.355  31.610  17.032  1.00  0.00     0.114 C 
ATOM     79  O   UNL     1      28.541  31.747  15.469  1.00  0.00    -0.275 OA
ENDBRANCH   4  75
TORSDOF 32
BEGIN_RES LYS A 131
REMARK  4 active torsions:
REMARK  status: ('A' for Active; 'I' for Inactive)
REMARK    1  A    between atoms: CA   and  CB  
REMARK    2  A    between atoms: CB   and  CG  
REMARK    3  A    between atoms: CG   and  CD  
REMARK    4  A    between atoms: CD   and  CE  
ROOT
ATOM      1  CA  LYS A 131      29.867  25.555  16.977  1.00 20.52     0.186 C 
ENDROOT
BRANCH   1   2
ATOM      2  CB  LYS A 131      28.345  25.722  17.026  1.00 20.94     0.034 C 
BRANCH   2   3
ATOM      3  CG  LYS A 131      27.614  24.411  17.270  1.00 22.96     0.005 C 
BRANCH   3   4
ATOM      4  CD  LYS A 131      26.138  24.528  17.011  1.00 24.33     0.041 C 
BRANCH   4   5
ATOM      5  CE  LYS A 131      25.384  24.487  18.336  1.00 26.91     0.338 C 
ATOM      6  NZ  LYS A 131      25.859  23.357  19.169  1.00 27.40     0.618 N 
ENDBRANCH   4   5
ENDBRANCH   3   4
ENDBRANCH   2   3
ENDBRANCH   1   2
END_RES LYS A 131
BEGIN_RES LYS A 135
REMARK  4 active torsions:
REMARK  status: ('A' for Active; 'I' for Inactive)
REMARK    5  A    between atoms: CA   and  CB  
REMARK    6  A    between atoms: CB   and  CG  
REMARK    7  A    between atoms: CG   and  CD  
REMARK    8  A    between atoms: CD   and  CE  
ROOT
ATOM      7  CA  LYS A 135      33.193  34.663   9.290  1.00 25.02     0.186 C 
ENDROOT
BRANCH   7   8
ATOM      8  CB  LYS A 135      32.060  35.360  10.034  1.00 26.63     0.034 C 
BRANCH   8   9
ATOM      9  CG  LYS A 135      30.797  35.490   9.223  1.00 29.45     0.005 C 
BRANCH   9  10
ATOM     10  CD  LYS A 135      30.123  34.137   9.057  1.00 32.00     0.041 C 
BRANCH  10  11
ATOM     11  CE  LYS A 135      28.672  34.310   8.651  1.00 34.25     0.338 C 
ATOM     12  NZ  LYS A 135      27.760  33.643   9.621  1.00 35.99     0.618 N 
ENDBRANCH  10  11
ENDBRANCH   9  10
ENDBRANCH   8   9
ENDBRANCH   7   8
END_RES LYS A 135
