REMARK VINA RESULT:    -4.419      3.466      8.434
REMARK INTER + INTRA:         -21.782
REMARK INTER:                  -8.512
REMARK INTRA:                 -13.270
REMARK UNBOUND:               -10.516
REMARK SMILES CC(=O)N[C@@H]1[C@@H](O)C[C@](OC[C@H]2O[C@@H](O[C@H]3[C@H](O)[C@@H](O)[C@H](OCCN=[N+]=[N-])O[C@@H]3CO)[C@H](O)[C@@H](O)[C@H]2O)(C(=O)O)O[C@H]1C(O)[C@H](O)CNC(=O)OCc1cn(C(C)(C)C(=O)O)nn1
REMARK SMILES IDX 9 1 8 2 6 3 5 4 42 5 41 6 10 7 11 8 12 9 14 10 13 11 32 12
REMARK SMILES IDX 34 13 36 14 15 15 16 16 29 17 28 18 21 19 17 20 19 21 30 22
REMARK SMILES IDX 31 23 22 25 23 26 24 27 25 28 26 29 27 30 18 31 20 33 33 35
REMARK SMILES IDX 35 37 37 39 38 41 39 42 40 43 7 45 43 47 44 48 45 50 46 51
REMARK SMILES IDX 47 53 48 54 49 55 50 57 51 58 52 59 53 60 54 61 63 62 55 63
REMARK SMILES IDX 62 64 56 65 57 66 58 67 59 68 60 69 61 70 4 72 2 73 1 75
REMARK SMILES IDX 3 76
REMARK H PARENT 31 24 18 32 20 34 33 36 35 38 37 40 40 44 7 46 44 49 46 52
REMARK H PARENT 48 56 61 71 4 74
REMARK Flexibility Score: inf
ROOT
ATOM      1  C   UNL     1      27.811  38.126   7.014  1.00  0.00     0.272 C 
ATOM      2  C   UNL     1      27.755  37.097   8.066  1.00  0.00     0.113 C 
ATOM      3  C   UNL     1      28.110  37.574   9.445  1.00  0.00     0.145 C 
ATOM      4  C   UNL     1      29.021  38.761   9.359  1.00  0.00     0.142 C 
ATOM      5  C   UNL     1      29.813  38.577   8.051  1.00  0.00     0.178 C 
ATOM      6  O   UNL     1      28.966  38.914   7.019  1.00  0.00    -0.332 OA
ENDROOT
BRANCH   1   7
ATOM      7  O   UNL     1      26.740  38.965   6.975  1.00  0.00    -0.338 OA
BRANCH   7   8
ATOM      8  C   UNL     1      26.894  40.193   6.413  1.00  0.00     0.199 C 
BRANCH   8   9
ATOM      9  C   UNL     1      25.964  41.208   7.040  1.00  0.00     0.179 C 
ATOM     10  C   UNL     1      23.959  41.339   8.176  1.00  0.00     0.282 C 
ATOM     11  O   UNL     1      25.040  40.471   7.778  1.00  0.00    -0.341 OA
ATOM     12  C   UNL     1      24.520  42.252   9.199  1.00  0.00     0.202 C 
ATOM     13  C   UNL     1      26.040  42.134   9.302  1.00  0.00     0.179 C 
ATOM     14  C   UNL     1      26.684  42.156   7.923  1.00  0.00     0.177 C 
BRANCH  10  15
ATOM     15  O   UNL     1      22.976  40.471   8.542  1.00  0.00    -0.341 OA
BRANCH  15  16
ATOM     16  C   UNL     1      23.414  39.298   9.132  1.00  0.00     0.184 C 
ATOM     17  C   UNL     1      22.488  38.177   8.776  1.00  0.00     0.178 C 
ATOM     18  O   UNL     1      22.580  37.122   9.697  1.00  0.00    -0.341 OA
ATOM     19  C   UNL     1      21.989  37.423  10.915  1.00  0.00     0.281 C 
ATOM     20  C   UNL     1      23.403  39.430  10.655  1.00  0.00     0.180 C 
ATOM     21  C   UNL     1      22.100  38.904  11.203  1.00  0.00     0.202 C 
BRANCH  17  22
ATOM     22  C   UNL     1      22.866  37.540   7.428  1.00  0.00     0.191 C 
BRANCH  22  23
ATOM     23  O   UNL     1      24.184  37.865   7.175  1.00  0.00    -0.394 OA
ATOM     24  H   UNL     1      24.538  37.232   6.482  1.00  0.00     0.210 HD
ENDBRANCH  22  23
ENDBRANCH  17  22
BRANCH  19  25
ATOM     25  O   UNL     1      22.666  36.669  11.872  1.00  0.00    -0.350 OA
BRANCH  25  26
ATOM     26  C   UNL     1      23.216  35.503  11.406  1.00  0.00     0.169 C 
BRANCH  26  27
ATOM     27  C   UNL     1      24.525  35.308  12.183  1.00  0.00     0.119 C 
BRANCH  27  28
ATOM     28  N   UNL     1      24.831  36.440  13.026  1.00  0.00    -0.092 NA
ATOM     29  N   UNL     1      25.940  36.476  13.581  1.00  0.00     0.001 N 
ATOM     30  N   UNL     1      26.924  36.373  14.300  1.00  0.00    -0.003 NA
ENDBRANCH  27  28
ENDBRANCH  26  27
ENDBRANCH  25  26
ENDBRANCH  19  25
BRANCH  20  31
ATOM     31  O   UNL     1      24.432  38.664  11.191  1.00  0.00    -0.387 OA
ATOM     32  H   UNL     1      24.155  37.739  11.407  1.00  0.00     0.211 HD
ENDBRANCH  20  31
BRANCH  21  33
ATOM     33  O   UNL     1      21.064  39.624  10.620  1.00  0.00    -0.385 OA
ATOM     34  H   UNL     1      20.343  39.055  10.259  1.00  0.00     0.211 HD
ENDBRANCH  21  33
ENDBRANCH  15  16
ENDBRANCH  10  15
BRANCH  12  35
ATOM     35  O   UNL     1      24.299  43.580   8.773  1.00  0.00    -0.385 OA
ATOM     36  H   UNL     1      25.013  43.946   8.231  1.00  0.00     0.211 HD
ENDBRANCH  12  35
BRANCH  13  37
ATOM     37  O   UNL     1      26.388  41.000  10.009  1.00  0.00    -0.387 OA
ATOM     38  H   UNL     1      25.989  40.193   9.593  1.00  0.00     0.211 HD
ENDBRANCH  13  37
BRANCH  14  39
ATOM     39  O   UNL     1      28.007  41.783   8.093  1.00  0.00    -0.387 OA
ATOM     40  H   UNL     1      28.264  41.997   9.035  1.00  0.00     0.211 HD
ENDBRANCH  14  39
ENDBRANCH   8   9
ENDBRANCH   7   8
ENDBRANCH   1   7
BRANCH   1  41
ATOM     41  C   UNL     1      27.926  37.378   5.680  1.00  0.00     0.364 C 
ATOM     42  O   UNL     1      28.935  37.530   4.959  1.00  0.00    -0.246 OA
BRANCH  41  43
ATOM     43  O   UNL     1      26.926  36.527   5.251  1.00  0.00    -0.477 OA
ATOM     44  H   UNL     1      26.035  36.838   4.898  1.00  0.00     0.296 HD
ENDBRANCH  41  43
ENDBRANCH   1  41
BRANCH   3  45
ATOM     45  O   UNL     1      26.958  37.936  10.111  1.00  0.00    -0.391 OA
ATOM     46  H   UNL     1      26.980  38.876  10.429  1.00  0.00     0.211 HD
ENDBRANCH   3  45
BRANCH   5  47
ATOM     47  C   UNL     1      31.049  39.430   8.031  1.00  0.00     0.176 C 
BRANCH  47  48
ATOM     48  O   UNL     1      32.177  38.614   8.053  1.00  0.00    -0.388 OA
ATOM     49  H   UNL     1      32.045  37.810   7.467  1.00  0.00     0.211 HD
ENDBRANCH  47  48
BRANCH  47  50
ATOM     50  C   UNL     1      31.089  40.249   6.762  1.00  0.00     0.165 C 
BRANCH  50  51
ATOM     51  O   UNL     1      31.400  39.446   5.656  1.00  0.00    -0.388 OA
ATOM     52  H   UNL     1      31.143  39.933   4.843  1.00  0.00     0.211 HD
ENDBRANCH  50  51
BRANCH  50  53
ATOM     53  C   UNL     1      32.085  41.376   6.823  1.00  0.00     0.154 C 
BRANCH  53  54
ATOM     54  N   UNL     1      32.483  41.659   8.181  1.00  0.00    -0.319 N 
ATOM     55  C   UNL     1      32.248  42.922   8.775  1.00  0.00     0.407 C 
ATOM     56  H   UNL     1      32.954  40.927   8.749  1.00  0.00     0.167 HD
ATOM     57  O   UNL     1      31.683  43.859   8.155  1.00  0.00    -0.225 OA
BRANCH  55  58
ATOM     58  O   UNL     1      32.643  43.186  10.095  1.00  0.00    -0.443 OA
BRANCH  58  59
ATOM     59  C   UNL     1      32.442  42.175  11.088  1.00  0.00     0.294 C 
BRANCH  59  60
ATOM     60  C   UNL     1      31.020  41.987  11.373  1.00  0.00     0.120 A 
ATOM     61  C   UNL     1      30.452  41.806  12.608  1.00  0.00     0.139 A 
ATOM     62  N   UNL     1      30.029  41.955  10.478  1.00  0.00    -0.132 NA
ATOM     63  N   UNL     1      29.122  41.668  12.443  1.00  0.00    -0.235 N 
ATOM     64  N   UNL     1      28.911  41.766  11.127  1.00  0.00    -0.066 NA
BRANCH  63  65
ATOM     65  C   UNL     1      28.088  41.456  13.435  1.00  0.00     0.155 C 
ATOM     66  C   UNL     1      26.961  42.425  13.229  1.00  0.00     0.049 C 
ATOM     67  C   UNL     1      28.638  41.666  14.841  1.00  0.00     0.049 C 
BRANCH  65  68
ATOM     68  C   UNL     1      27.640  40.049  13.332  1.00  0.00     0.331 C 
ATOM     69  O   UNL     1      26.828  39.733  12.450  1.00  0.00    -0.250 OA
BRANCH  68  70
ATOM     70  O   UNL     1      28.141  39.119  14.225  1.00  0.00    -0.479 OA
ATOM     71  H   UNL     1      28.893  38.481  13.990  1.00  0.00     0.296 HD
ENDBRANCH  68  70
ENDBRANCH  65  68
ENDBRANCH  63  65
ENDBRANCH  59  60
ENDBRANCH  58  59
ENDBRANCH  55  58
ENDBRANCH  53  54
ENDBRANCH  50  53
ENDBRANCH  47  50
ENDBRANCH   5  47
BRANCH   4  72
ATOM     72  N   UNL     1      30.001  38.790  10.414  1.00  0.00    -0.348 N 
ATOM     73  C   UNL     1      29.937  37.982  11.584  1.00  0.00     0.217 C 
ATOM     74  H   UNL     1      30.808  39.437  10.317  1.00  0.00     0.163 HD
ATOM     75  C   UNL     1      30.998  38.074  12.634  1.00  0.00     0.114 C 
ATOM     76  O   UNL     1      28.974  37.184  11.729  1.00  0.00    -0.275 OA
ENDBRANCH   4  72
TORSDOF 32
BEGIN_RES LYS A 131
REMARK  4 active torsions:
REMARK  status: ('A' for Active; 'I' for Inactive)
REMARK    1  A    between atoms: CA   and  CB  
REMARK    2  A    between atoms: CB   and  CG  
REMARK    3  A    between atoms: CG   and  CD  
REMARK    4  A    between atoms: CD   and  CE  
ROOT
ATOM      1  CA  LYS A 131      29.867  25.555  16.977  1.00 20.52     0.186 C 
ENDROOT
BRANCH   1   2
ATOM      2  CB  LYS A 131      28.345  25.722  17.026  1.00 20.94     0.034 C 
BRANCH   2   3
ATOM      3  CG  LYS A 131      27.601  24.405  16.866  1.00 22.96     0.005 C 
BRANCH   3   4
ATOM      4  CD  LYS A 131      26.154  24.521  17.257  1.00 24.33     0.041 C 
BRANCH   4   5
ATOM      5  CE  LYS A 131      26.047  24.688  18.769  1.00 26.91     0.338 C 
ATOM      6  NZ  LYS A 131      25.547  23.441  19.394  1.00 27.40     0.618 N 
ENDBRANCH   4   5
ENDBRANCH   3   4
ENDBRANCH   2   3
ENDBRANCH   1   2
END_RES LYS A 131
BEGIN_RES LYS A 135
REMARK  4 active torsions:
REMARK  status: ('A' for Active; 'I' for Inactive)
REMARK    5  A    between atoms: CA   and  CB  
REMARK    6  A    between atoms: CB   and  CG  
REMARK    7  A    between atoms: CG   and  CD  
REMARK    8  A    between atoms: CD   and  CE  
ROOT
ATOM      7  CA  LYS A 135      33.193  34.663   9.290  1.00 25.02     0.186 C 
ENDROOT
BRANCH   7   8
ATOM      8  CB  LYS A 135      32.060  35.360  10.034  1.00 26.63     0.034 C 
BRANCH   8   9
ATOM      9  CG  LYS A 135      30.716  35.202   9.370  1.00 29.45     0.005 C 
BRANCH   9  10
ATOM     10  CD  LYS A 135      29.833  34.253  10.166  1.00 32.00     0.041 C 
BRANCH  10  11
ATOM     11  CE  LYS A 135      28.612  33.858   9.358  1.00 34.25     0.338 C 
ATOM     12  NZ  LYS A 135      27.360  34.080  10.133  1.00 35.99     0.618 N 
ENDBRANCH  10  11
ENDBRANCH   9  10
ENDBRANCH   8   9
ENDBRANCH   7   8
END_RES LYS A 135
