REMARK VINA RESULT:    -4.795      2.924      5.244
REMARK INTER + INTRA:         -23.296
REMARK INTER:                 -13.138
REMARK INTRA:                 -10.158
REMARK UNBOUND:               -11.213
REMARK SMILES CC(=O)N[C@@H]1[C@@H](O)C[C@](OC[C@H]2O[C@@H](O[C@H]3[C@H](O)[C@@H](O)[C@H](OCCN=[N+]=[N-])O[C@@H]3CO)[C@H](O)[C@@H](O)[C@H]2O)(C(=O)O)O[C@H]1C(O)[C@H](O)CNC(=O)OCc1cn(CC2=CC[C@H]3C[C@@H]2C3(C)C)nn1
REMARK SMILES IDX 9 1 8 2 6 3 5 4 42 5 41 6 10 7 11 8 12 9 14 10 13 11 32 12
REMARK SMILES IDX 34 13 36 14 15 15 16 16 29 17 28 18 21 19 17 20 19 21 30 22
REMARK SMILES IDX 31 23 22 25 23 26 24 27 25 28 26 29 27 30 18 31 20 33 33 35
REMARK SMILES IDX 35 37 37 39 38 41 39 42 40 43 7 45 43 47 44 48 45 50 46 51
REMARK SMILES IDX 47 53 48 54 49 55 50 57 51 58 52 59 53 60 54 61 67 62 55 63
REMARK SMILES IDX 66 64 56 65 57 66 58 67 62 68 59 69 61 70 63 71 60 72 64 73
REMARK SMILES IDX 65 74 4 75 2 76 1 78 3 79
REMARK H PARENT 31 24 18 32 20 34 33 36 35 38 37 40 40 44 7 46 44 49 46 52
REMARK H PARENT 48 56 4 77
REMARK Flexibility Score: inf
ROOT
ATOM      1  C   UNL     1      28.266  39.207   5.730  1.00  0.00     0.272 C 
ATOM      2  C   UNL     1      28.661  37.890   5.145  1.00  0.00     0.113 C 
ATOM      3  C   UNL     1      28.061  36.742   5.975  1.00  0.00     0.145 C 
ATOM      4  C   UNL     1      28.594  36.765   7.362  1.00  0.00     0.142 C 
ATOM      5  C   UNL     1      29.246  38.118   7.562  1.00  0.00     0.178 C 
ATOM      6  O   UNL     1      28.458  39.132   7.151  1.00  0.00    -0.332 OA
ENDROOT
BRANCH   1   7
ATOM      7  O   UNL     1      27.002  39.575   5.593  1.00  0.00    -0.338 OA
BRANCH   7   8
ATOM      8  C   UNL     1      26.311  40.467   6.255  1.00  0.00     0.199 C 
BRANCH   8   9
ATOM      9  C   UNL     1      25.155  40.218   7.129  1.00  0.00     0.179 C 
ATOM     10  C   UNL     1      23.640  38.526   7.566  1.00  0.00     0.282 C 
ATOM     11  O   UNL     1      24.901  38.813   7.058  1.00  0.00    -0.341 OA
ATOM     12  C   UNL     1      23.264  39.238   8.786  1.00  0.00     0.202 C 
ATOM     13  C   UNL     1      24.149  40.296   9.315  1.00  0.00     0.179 C 
ATOM     14  C   UNL     1      25.490  40.358   8.627  1.00  0.00     0.177 C 
BRANCH  10  15
ATOM     15  O   UNL     1      23.676  37.141   7.817  1.00  0.00    -0.341 OA
BRANCH  15  16
ATOM     16  C   UNL     1      22.899  36.777   8.902  1.00  0.00     0.184 C 
ATOM     17  C   UNL     1      23.606  35.734   9.719  1.00  0.00     0.178 C 
ATOM     18  O   UNL     1      22.786  35.050  10.599  1.00  0.00    -0.341 OA
ATOM     19  C   UNL     1      21.527  35.548  10.768  1.00  0.00     0.281 C 
ATOM     20  C   UNL     1      21.641  36.107   8.338  1.00  0.00     0.180 C 
ATOM     21  C   UNL     1      20.758  35.703   9.479  1.00  0.00     0.202 C 
BRANCH  17  22
ATOM     22  C   UNL     1      24.711  36.434  10.520  1.00  0.00     0.191 C 
BRANCH  22  23
ATOM     23  O   UNL     1      25.865  36.424   9.750  1.00  0.00    -0.394 OA
ATOM     24  H   UNL     1      26.369  37.274   9.939  1.00  0.00     0.210 HD
ENDBRANCH  22  23
ENDBRANCH  17  22
BRANCH  19  25
ATOM     25  O   UNL     1      21.536  36.780  11.436  1.00  0.00    -0.350 OA
BRANCH  25  26
ATOM     26  C   UNL     1      21.674  36.622  12.816  1.00  0.00     0.169 C 
BRANCH  26  27
ATOM     27  C   UNL     1      20.969  37.829  13.438  1.00  0.00     0.119 C 
BRANCH  27  28
ATOM     28  N   UNL     1      20.692  38.806  12.407  1.00  0.00    -0.092 NA
ATOM     29  N   UNL     1      21.299  39.859  12.326  1.00  0.00     0.001 N 
ATOM     30  N   UNL     1      21.840  40.970  12.364  1.00  0.00    -0.003 NA
ENDBRANCH  27  28
ENDBRANCH  26  27
ENDBRANCH  25  26
ENDBRANCH  19  25
BRANCH  20  31
ATOM     31  O   UNL     1      20.936  37.024   7.538  1.00  0.00    -0.387 OA
ATOM     32  H   UNL     1      21.557  37.542   6.982  1.00  0.00     0.211 HD
ENDBRANCH  20  31
BRANCH  21  33
ATOM     33  O   UNL     1      20.026  34.548   9.208  1.00  0.00    -0.385 OA
ATOM     34  H   UNL     1      19.559  34.678   8.333  1.00  0.00     0.211 HD
ENDBRANCH  21  33
ENDBRANCH  15  16
ENDBRANCH  10  15
BRANCH  12  35
ATOM     35  O   UNL     1      21.990  39.825   8.557  1.00  0.00    -0.385 OA
ATOM     36  H   UNL     1      21.979  40.778   8.828  1.00  0.00     0.211 HD
ENDBRANCH  12  35
BRANCH  13  37
ATOM     37  O   UNL     1      24.268  40.238  10.708  1.00  0.00    -0.387 OA
ATOM     38  H   UNL     1      23.367  40.286  11.129  1.00  0.00     0.211 HD
ENDBRANCH  13  37
BRANCH  14  39
ATOM     39  O   UNL     1      26.207  39.201   8.996  1.00  0.00    -0.387 OA
ATOM     40  H   UNL     1      26.966  39.446   9.582  1.00  0.00     0.211 HD
ENDBRANCH  14  39
ENDBRANCH   8   9
ENDBRANCH   7   8
ENDBRANCH   1   7
BRANCH   1  41
ATOM     41  C   UNL     1      29.262  40.249   5.366  1.00  0.00     0.364 C 
ATOM     42  O   UNL     1      28.958  41.151   4.509  1.00  0.00    -0.246 OA
BRANCH  41  43
ATOM     43  O   UNL     1      30.510  40.312   5.888  1.00  0.00    -0.477 OA
ATOM     44  H   UNL     1      30.822  40.000   6.793  1.00  0.00     0.296 HD
ENDBRANCH  41  43
ENDBRANCH   1  41
BRANCH   3  45
ATOM     45  O   UNL     1      26.699  37.067   6.053  1.00  0.00    -0.391 OA
ATOM     46  H   UNL     1      26.501  37.708   5.326  1.00  0.00     0.211 HD
ENDBRANCH   3  45
BRANCH   5  47
ATOM     47  C   UNL     1      29.560  38.345   9.043  1.00  0.00     0.176 C 
BRANCH  47  48
ATOM     48  O   UNL     1      28.649  37.695   9.834  1.00  0.00    -0.388 OA
ATOM     49  H   UNL     1      28.769  37.836  10.814  1.00  0.00     0.211 HD
ENDBRANCH  47  48
BRANCH  47  50
ATOM     50  C   UNL     1      29.607  39.811   9.356  1.00  0.00     0.165 C 
BRANCH  50  51
ATOM     51  O   UNL     1      30.692  40.326   8.591  1.00  0.00    -0.388 OA
ATOM     52  H   UNL     1      30.783  41.269   8.936  1.00  0.00     0.211 HD
ENDBRANCH  50  51
BRANCH  50  53
ATOM     53  C   UNL     1      29.959  40.071  10.786  1.00  0.00     0.154 C 
BRANCH  53  54
ATOM     54  N   UNL     1      28.965  39.685  11.734  1.00  0.00    -0.319 N 
ATOM     55  C   UNL     1      29.197  39.851  13.121  1.00  0.00     0.407 C 
ATOM     56  H   UNL     1      28.057  39.284  11.391  1.00  0.00     0.167 HD
ATOM     57  O   UNL     1      30.265  40.332  13.521  1.00  0.00    -0.225 OA
BRANCH  55  58
ATOM     58  O   UNL     1      28.241  39.483  14.048  1.00  0.00    -0.443 OA
BRANCH  58  59
ATOM     59  C   UNL     1      27.134  38.675  13.827  1.00  0.00     0.294 C 
BRANCH  59  60
ATOM     60  C   UNL     1      27.452  37.236  13.598  1.00  0.00     0.120 A 
ATOM     61  C   UNL     1      27.510  36.222  14.525  1.00  0.00     0.138 A 
ATOM     62  N   UNL     1      27.740  36.655  12.400  1.00  0.00    -0.132 NA
ATOM     63  N   UNL     1      27.820  35.085  13.898  1.00  0.00    -0.248 N 
ATOM     64  N   UNL     1      27.953  35.374  12.619  1.00  0.00    -0.067 NA
BRANCH  63  65
ATOM     65  C   UNL     1      27.982  33.751  14.506  1.00  0.00     0.177 C 
BRANCH  65  66
ATOM     66  C   UNL     1      29.352  33.765  15.119  1.00  0.00    -0.049 C 
ATOM     67  C   UNL     1      30.453  33.680  14.345  1.00  0.00    -0.025 C 
ATOM     68  C   UNL     1      29.567  33.874  16.569  1.00  0.00     0.023 C 
ATOM     69  C   UNL     1      31.775  33.539  14.992  1.00  0.00     0.031 C 
ATOM     70  C   UNL     1      30.721  34.867  16.766  1.00  0.00     0.013 C 
ATOM     71  C   UNL     1      30.506  32.797  17.020  1.00  0.00    -0.026 C 
ATOM     72  C   UNL     1      31.645  33.675  16.483  1.00  0.00    -0.000 C 
ATOM     73  C   UNL     1      30.644  32.667  18.517  1.00  0.00     0.012 C 
ATOM     74  C   UNL     1      30.379  31.458  16.374  1.00  0.00     0.012 C 
ENDBRANCH  65  66
ENDBRANCH  63  65
ENDBRANCH  59  60
ENDBRANCH  58  59
ENDBRANCH  55  58
ENDBRANCH  53  54
ENDBRANCH  50  53
ENDBRANCH  47  50
ENDBRANCH   5  47
BRANCH   4  75
ATOM     75  N   UNL     1      29.545  35.767   7.707  1.00  0.00    -0.348 N 
ATOM     76  C   UNL     1      29.384  34.742   8.649  1.00  0.00     0.217 C 
ATOM     77  H   UNL     1      30.469  35.817   7.187  1.00  0.00     0.163 HD
ATOM     78  C   UNL     1      30.467  33.759   8.912  1.00  0.00     0.114 C 
ATOM     79  O   UNL     1      28.297  34.696   9.251  1.00  0.00    -0.275 OA
ENDBRANCH   4  75
TORSDOF 31
BEGIN_RES LYS A 131
REMARK  4 active torsions:
REMARK  status: ('A' for Active; 'I' for Inactive)
REMARK    1  A    between atoms: CA   and  CB  
REMARK    2  A    between atoms: CB   and  CG  
REMARK    3  A    between atoms: CG   and  CD  
REMARK    4  A    between atoms: CD   and  CE  
ROOT
ATOM      1  CA  LYS A 131      29.867  25.555  16.977  1.00 20.52     0.186 C 
ENDROOT
BRANCH   1   2
ATOM      2  CB  LYS A 131      28.345  25.722  17.026  1.00 20.94     0.034 C 
BRANCH   2   3
ATOM      3  CG  LYS A 131      27.602  24.399  16.919  1.00 22.96     0.005 C 
BRANCH   3   4
ATOM      4  CD  LYS A 131      26.153  24.532  17.298  1.00 24.33     0.041 C 
BRANCH   4   5
ATOM      5  CE  LYS A 131      25.960  25.788  18.141  1.00 26.91     0.338 C 
ATOM      6  NZ  LYS A 131      25.717  25.429  19.558  1.00 27.40     0.618 N 
ENDBRANCH   4   5
ENDBRANCH   3   4
ENDBRANCH   2   3
ENDBRANCH   1   2
END_RES LYS A 131
BEGIN_RES LYS A 135
REMARK  4 active torsions:
REMARK  status: ('A' for Active; 'I' for Inactive)
REMARK    5  A    between atoms: CA   and  CB  
REMARK    6  A    between atoms: CB   and  CG  
REMARK    7  A    between atoms: CG   and  CD  
REMARK    8  A    between atoms: CD   and  CE  
ROOT
ATOM      7  CA  LYS A 135      33.193  34.663   9.290  1.00 25.02     0.186 C 
ENDROOT
BRANCH   7   8
ATOM      8  CB  LYS A 135      32.060  35.360  10.034  1.00 26.63     0.034 C 
BRANCH   8   9
ATOM      9  CG  LYS A 135      32.371  35.638  11.482  1.00 29.45     0.005 C 
BRANCH   9  10
ATOM     10  CD  LYS A 135      31.883  37.022  11.880  1.00 32.00     0.041 C 
BRANCH  10  11
ATOM     11  CE  LYS A 135      31.212  36.980  13.240  1.00 34.25     0.338 C 
ATOM     12  NZ  LYS A 135      32.220  37.010  14.336  1.00 35.99     0.618 N 
ENDBRANCH  10  11
ENDBRANCH   9  10
ENDBRANCH   8   9
ENDBRANCH   7   8
END_RES LYS A 135
