REMARK VINA RESULT:    -4.724      3.829      9.259
REMARK INTER + INTRA:         -25.354
REMARK INTER:                  -9.121
REMARK INTRA:                 -16.234
REMARK UNBOUND:               -11.931
REMARK SMILES CC(=O)N[C@@H]1[C@@H](O)C[C@](OC[C@H]2O[C@@H](O[C@H]3[C@H](O)[C@@H](O)[C@H](OCCN=[N+]=[N-])O[C@@H]3CO)[C@H](O)[C@@H](O)[C@H]2O)(C(=O)O)O[C@H]1C(O)[C@H](O)CNC(=O)OCc1cn(CC(=O)NCC(O)Cn2ccnc2[N+](=O)[O-])nn1
REMARK SMILES IDX 47 1 45 2 43 3 42 4 9 5 8 6 41 7 6 8 5 9 10 10 11 11 12 12
REMARK SMILES IDX 14 13 13 14 32 15 34 16 36 17 15 18 16 19 29 20 28 21 21 22
REMARK SMILES IDX 17 23 19 24 30 25 31 26 22 28 23 29 24 30 25 31 26 32 27 33
REMARK SMILES IDX 18 34 20 36 33 38 35 40 37 42 38 44 39 45 40 46 7 48 4 50
REMARK SMILES IDX 2 51 1 53 3 54 44 55 46 57 48 59 49 60 50 62 51 63 52 64
REMARK SMILES IDX 53 65 54 66 73 67 55 68 72 69 56 70 57 71 58 72 59 73 60 75
REMARK SMILES IDX 61 76 62 77 63 79 64 80 65 81 68 82 66 83 67 84 69 85 70 86
REMARK SMILES IDX 71 87
REMARK H PARENT 31 27 18 35 20 37 33 39 35 41 37 43 40 47 7 49 4 52 44 56
REMARK H PARENT 46 58 48 61 59 74 62 78
REMARK Flexibility Score: inf
ROOT
ATOM      1  C   UNL     1      24.656  38.898  12.785  1.00  0.00     0.154 C 
ENDROOT
BRANCH   1   2
ATOM      2  C   UNL     1      26.086  38.754  12.385  1.00  0.00     0.165 C 
BRANCH   2   3
ATOM      3  C   UNL     1      26.998  39.849  12.796  1.00  0.00     0.176 C 
BRANCH   3   4
ATOM      4  C   UNL     1      28.293  39.514  13.412  1.00  0.00     0.178 C 
ATOM      5  C   UNL     1      30.412  38.613  13.096  1.00  0.00     0.272 C 
ATOM      6  C   UNL     1      30.678  39.431  14.311  1.00  0.00     0.113 C 
ATOM      7  O   UNL     1      29.123  38.808  12.567  1.00  0.00    -0.332 OA
ATOM      8  C   UNL     1      29.654  39.308  15.388  1.00  0.00     0.145 C 
ATOM      9  C   UNL     1      28.292  38.896  14.759  1.00  0.00     0.142 C 
BRANCH   5  10
ATOM     10  O   UNL     1      30.615  37.268  13.199  1.00  0.00    -0.338 OA
BRANCH  10  11
ATOM     11  C   UNL     1      31.717  36.840  13.871  1.00  0.00     0.199 C 
BRANCH  11  12
ATOM     12  C   UNL     1      31.413  35.745  14.874  1.00  0.00     0.179 C 
ATOM     13  C   UNL     1      29.630  34.643  15.895  1.00  0.00     0.282 C 
ATOM     14  O   UNL     1      30.185  35.829  15.429  1.00  0.00    -0.341 OA
ATOM     15  C   UNL     1      30.676  33.726  16.479  1.00  0.00     0.202 C 
ATOM     16  C   UNL     1      31.761  33.411  15.475  1.00  0.00     0.179 C 
ATOM     17  C   UNL     1      31.687  34.378  14.308  1.00  0.00     0.177 C 
BRANCH  13  18
ATOM     18  O   UNL     1      28.899  33.973  14.980  1.00  0.00    -0.341 OA
BRANCH  18  19
ATOM     19  C   UNL     1      27.636  34.317  14.681  1.00  0.00     0.184 C 
ATOM     20  C   UNL     1      26.561  33.294  14.927  1.00  0.00     0.178 C 
ATOM     21  O   UNL     1      25.356  33.998  14.977  1.00  0.00    -0.341 OA
ATOM     22  C   UNL     1      25.005  34.483  13.722  1.00  0.00     0.281 C 
ATOM     23  C   UNL     1      27.462  34.690  13.200  1.00  0.00     0.180 C 
ATOM     24  C   UNL     1      26.087  35.308  13.091  1.00  0.00     0.202 C 
BRANCH  20  25
ATOM     25  C   UNL     1      26.757  32.658  16.272  1.00  0.00     0.191 C 
BRANCH  25  26
ATOM     26  O   UNL     1      27.708  31.629  16.226  1.00  0.00    -0.394 OA
ATOM     27  H   UNL     1      28.388  31.949  15.553  1.00  0.00     0.210 HD
ENDBRANCH  25  26
ENDBRANCH  20  25
BRANCH  22  28
ATOM     28  O   UNL     1      23.896  35.307  13.895  1.00  0.00    -0.350 OA
BRANCH  28  29
ATOM     29  C   UNL     1      23.761  35.706  15.226  1.00  0.00     0.169 C 
BRANCH  29  30
ATOM     30  C   UNL     1      22.339  36.255  15.361  1.00  0.00     0.119 C 
BRANCH  30  31
ATOM     31  N   UNL     1      21.890  36.808  14.095  1.00  0.00    -0.092 NA
ATOM     32  N   UNL     1      20.793  36.397  13.661  1.00  0.00     0.001 N 
ATOM     33  N   UNL     1      19.622  36.261  13.334  1.00  0.00    -0.003 NA
ENDBRANCH  30  31
ENDBRANCH  29  30
ENDBRANCH  28  29
ENDBRANCH  22  28
BRANCH  23  34
ATOM     34  O   UNL     1      28.375  35.665  12.816  1.00  0.00    -0.387 OA
ATOM     35  H   UNL     1      27.931  36.539  13.059  1.00  0.00     0.211 HD
ENDBRANCH  23  34
BRANCH  24  36
ATOM     36  O   UNL     1      25.715  35.568  11.773  1.00  0.00    -0.385 OA
ATOM     37  H   UNL     1      26.509  35.391  11.188  1.00  0.00     0.211 HD
ENDBRANCH  24  36
ENDBRANCH  18  19
ENDBRANCH  13  18
BRANCH  15  38
ATOM     38  O   UNL     1      31.212  34.243  17.666  1.00  0.00    -0.385 OA
ATOM     39  H   UNL     1      31.420  33.432  18.229  1.00  0.00     0.211 HD
ENDBRANCH  15  38
BRANCH  16  40
ATOM     40  O   UNL     1      31.608  32.128  14.957  1.00  0.00    -0.387 OA
ATOM     41  H   UNL     1      32.239  31.473  15.377  1.00  0.00     0.211 HD
ENDBRANCH  16  40
BRANCH  17  42
ATOM     42  O   UNL     1      30.824  33.991  13.311  1.00  0.00    -0.387 OA
ATOM     43  H   UNL     1      30.468  33.070  13.440  1.00  0.00     0.211 HD
ENDBRANCH  17  42
ENDBRANCH  11  12
ENDBRANCH  10  11
ENDBRANCH   5  10
BRANCH   5  44
ATOM     44  C   UNL     1      31.302  39.162  12.006  1.00  0.00     0.364 C 
ATOM     45  O   UNL     1      31.498  40.390  12.006  1.00  0.00    -0.246 OA
BRANCH  44  46
ATOM     46  O   UNL     1      31.887  38.376  11.041  1.00  0.00    -0.477 OA
ATOM     47  H   UNL     1      31.948  37.349  11.164  1.00  0.00     0.296 HD
ENDBRANCH  44  46
ENDBRANCH   5  44
BRANCH   8  48
ATOM     48  O   UNL     1      29.950  38.511  16.446  1.00  0.00    -0.391 OA
ATOM     49  H   UNL     1      29.203  38.163  16.953  1.00  0.00     0.211 HD
ENDBRANCH   8  48
BRANCH   9  50
ATOM     50  N   UNL     1      27.288  39.294  15.672  1.00  0.00    -0.348 N 
ATOM     51  C   UNL     1      26.627  38.333  16.518  1.00  0.00     0.217 C 
ATOM     52  H   UNL     1      27.003  40.277  15.772  1.00  0.00     0.163 HD
ATOM     53  C   UNL     1      25.563  38.729  17.479  1.00  0.00     0.114 C 
ATOM     54  O   UNL     1      26.971  37.136  16.424  1.00  0.00    -0.275 OA
ENDBRANCH   9  50
ENDBRANCH   3   4
BRANCH   3  55
ATOM     55  O   UNL     1      26.242  40.732  13.608  1.00  0.00    -0.388 OA
ATOM     56  H   UNL     1      26.870  41.323  14.056  1.00  0.00     0.211 HD
ENDBRANCH   3  55
ENDBRANCH   2   3
BRANCH   2  57
ATOM     57  O   UNL     1      26.248  38.251  11.116  1.00  0.00    -0.388 OA
ATOM     58  H   UNL     1      26.964  37.599  11.004  1.00  0.00     0.211 HD
ENDBRANCH   2  57
ENDBRANCH   1   2
BRANCH   1  59
ATOM     59  N   UNL     1      23.823  38.012  12.018  1.00  0.00    -0.319 N 
ATOM     60  C   UNL     1      22.808  38.462  11.137  1.00  0.00     0.407 C 
ATOM     61  H   UNL     1      23.948  36.960  12.092  1.00  0.00     0.167 HD
ATOM     62  O   UNL     1      22.620  39.689  10.999  1.00  0.00    -0.225 OA
BRANCH  60  63
ATOM     63  O   UNL     1      21.991  37.628  10.404  1.00  0.00    -0.443 OA
BRANCH  63  64
ATOM     64  C   UNL     1      22.236  37.346   9.051  1.00  0.00     0.294 C 
BRANCH  64  65
ATOM     65  C   UNL     1      23.622  37.067   8.681  1.00  0.00     0.120 A 
ATOM     66  C   UNL     1      24.304  37.472   7.561  1.00  0.00     0.138 A 
ATOM     67  N   UNL     1      24.504  36.330   9.376  1.00  0.00    -0.132 NA
ATOM     68  N   UNL     1      25.563  36.977   7.609  1.00  0.00    -0.243 N 
ATOM     69  N   UNL     1      25.667  36.293   8.705  1.00  0.00    -0.067 NA
BRANCH  68  70
ATOM     70  C   UNL     1      26.612  37.199   6.621  1.00  0.00     0.245 C 
BRANCH  70  71
ATOM     71  C   UNL     1      27.843  37.632   7.315  1.00  0.00     0.241 C 
ATOM     72  O   UNL     1      28.998  37.328   6.862  1.00  0.00    -0.273 OA
ATOM     73  N   UNL     1      27.825  38.407   8.512  1.00  0.00    -0.352 N 
ATOM     74  H   UNL     1      26.913  38.679   8.919  1.00  0.00     0.163 HD
BRANCH  73  75
ATOM     75  C   UNL     1      29.087  38.787   9.119  1.00  0.00     0.151 C 
BRANCH  75  76
ATOM     76  C   UNL     1      29.435  40.220   8.864  1.00  0.00     0.168 C 
BRANCH  76  77
ATOM     77  O   UNL     1      30.794  40.460   8.958  1.00  0.00    -0.388 OA
ATOM     78  H   UNL     1      31.245  39.878   8.302  1.00  0.00     0.211 HD
ENDBRANCH  76  77
BRANCH  76  79
ATOM     79  C   UNL     1      28.671  41.061   9.876  1.00  0.00     0.239 C 
BRANCH  79  80
ATOM     80  N   UNL     1      27.985  42.154   9.250  1.00  0.00    -0.227 N 
ATOM     81  C   UNL     1      28.394  43.450   9.290  1.00  0.00     0.204 A 
ATOM     82  C   UNL     1      26.834  42.163   8.533  1.00  0.00     0.434 A 
ATOM     83  C   UNL     1      27.496  44.230   8.604  1.00  0.00     0.245 A 
ATOM     84  N   UNL     1      26.546  43.422   8.148  1.00  0.00    -0.074 NA
BRANCH  82  85
ATOM     85  N   UNL     1      26.051  41.012   8.222  1.00  0.00    -0.047 N 
ATOM     86  O   UNL     1      25.889  40.577   7.082  1.00  0.00    -0.390 OA
ATOM     87  O   UNL     1      25.426  40.344   9.266  1.00  0.00    -0.390 OA
ENDBRANCH  82  85
ENDBRANCH  79  80
ENDBRANCH  76  79
ENDBRANCH  75  76
ENDBRANCH  73  75
ENDBRANCH  70  71
ENDBRANCH  68  70
ENDBRANCH  64  65
ENDBRANCH  63  64
ENDBRANCH  60  63
ENDBRANCH   1  59
TORSDOF 37
BEGIN_RES LYS A 131
REMARK  4 active torsions:
REMARK  status: ('A' for Active; 'I' for Inactive)
REMARK    1  A    between atoms: CA   and  CB  
REMARK    2  A    between atoms: CB   and  CG  
REMARK    3  A    between atoms: CG   and  CD  
REMARK    4  A    between atoms: CD   and  CE  
ROOT
ATOM      1  CA  LYS A 131      29.867  25.555  16.977  1.00 20.52     0.186 C 
ENDROOT
BRANCH   1   2
ATOM      2  CB  LYS A 131      28.345  25.722  17.026  1.00 20.94     0.034 C 
BRANCH   2   3
ATOM      3  CG  LYS A 131      27.599  24.474  16.579  1.00 22.96     0.005 C 
BRANCH   3   4
ATOM      4  CD  LYS A 131      27.170  23.623  17.742  1.00 24.33     0.041 C 
BRANCH   4   5
ATOM      5  CE  LYS A 131      25.653  23.467  17.727  1.00 26.91     0.338 C 
ATOM      6  NZ  LYS A 131      25.138  23.267  19.102  1.00 27.40     0.618 N 
ENDBRANCH   4   5
ENDBRANCH   3   4
ENDBRANCH   2   3
ENDBRANCH   1   2
END_RES LYS A 131
BEGIN_RES LYS A 135
REMARK  4 active torsions:
REMARK  status: ('A' for Active; 'I' for Inactive)
REMARK    5  A    between atoms: CA   and  CB  
REMARK    6  A    between atoms: CB   and  CG  
REMARK    7  A    between atoms: CG   and  CD  
REMARK    8  A    between atoms: CD   and  CE  
ROOT
ATOM      7  CA  LYS A 135      33.193  34.663   9.290  1.00 25.02     0.186 C 
ENDROOT
BRANCH   7   8
ATOM      8  CB  LYS A 135      32.060  35.360  10.034  1.00 26.63     0.034 C 
BRANCH   8   9
ATOM      9  CG  LYS A 135      30.795  35.485   9.225  1.00 29.45     0.005 C 
BRANCH   9  10
ATOM     10  CD  LYS A 135      30.136  34.126   9.045  1.00 32.00     0.041 C 
BRANCH  10  11
ATOM     11  CE  LYS A 135      28.673  34.288   8.681  1.00 34.25     0.338 C 
ATOM     12  NZ  LYS A 135      27.791  33.720   9.738  1.00 35.99     0.618 N 
ENDBRANCH  10  11
ENDBRANCH   9  10
ENDBRANCH   8   9
ENDBRANCH   7   8
END_RES LYS A 135
