REMARK VINA RESULT:    -5.610      3.189      6.901
REMARK INTER + INTRA:         -22.035
REMARK INTER:                 -10.087
REMARK INTRA:                 -11.948
REMARK UNBOUND:                -8.226
REMARK SMILES CC(=O)N[C@@H]1[C@@H](O)C[C@](OC[C@H]2O[C@@H](O[C@H]3[C@H](O)[C@@H](O)[C@H](OCCN=[N+]=[N-])O[C@@H]3CO)[C@H](O)[C@@H](O)[C@H]2O)(C(=O)O)O[C@H]1C(O)[C@H](O)CNC(=O)OCc1cn(-c2ccccc2Br)nn1
REMARK SMILES IDX 9 1 8 2 6 3 5 4 42 5 41 6 10 7 11 8 12 9 14 10 13 11 32 12
REMARK SMILES IDX 34 13 36 14 15 15 16 16 29 17 28 18 21 19 17 20 19 21 30 22
REMARK SMILES IDX 31 23 22 25 23 26 24 27 25 28 26 29 27 30 18 31 20 33 33 35
REMARK SMILES IDX 35 37 37 39 38 41 39 42 40 43 7 45 43 47 44 48 45 50 46 51
REMARK SMILES IDX 47 53 48 54 49 55 50 57 51 58 52 59 53 60 54 61 64 62 55 63
REMARK SMILES IDX 63 64 56 65 57 66 61 67 58 68 60 69 62 70 59 71 4 72 2 73
REMARK SMILES IDX 1 75 3 76
REMARK H PARENT 31 24 18 32 20 34 33 36 35 38 37 40 40 44 7 46 44 49 46 52
REMARK H PARENT 48 56 4 74
REMARK Flexibility Score: inf
ROOT
ATOM      1  C   UNL     1      25.297  36.399   9.214  1.00  0.00     0.272 C 
ATOM      2  C   UNL     1      25.638  35.350  10.204  1.00  0.00     0.113 C 
ATOM      3  C   UNL     1      26.632  35.831  11.210  1.00  0.00     0.145 C 
ATOM      4  C   UNL     1      26.384  37.188  11.767  1.00  0.00     0.142 C 
ATOM      5  C   UNL     1      25.364  37.941  10.988  1.00  0.00     0.178 C 
ATOM      6  O   UNL     1      25.291  37.705   9.657  1.00  0.00    -0.332 OA
ENDROOT
BRANCH   1   7
ATOM      7  O   UNL     1      24.075  36.249   8.585  1.00  0.00    -0.338 OA
BRANCH   7   8
ATOM      8  C   UNL     1      23.282  35.229   8.988  1.00  0.00     0.199 C 
BRANCH   8   9
ATOM      9  C   UNL     1      21.871  35.822   9.228  1.00  0.00     0.179 C 
ATOM     10  C   UNL     1      20.929  37.905   9.566  1.00  0.00     0.282 C 
ATOM     11  O   UNL     1      21.918  37.005   9.861  1.00  0.00    -0.341 OA
ATOM     12  C   UNL     1      19.575  37.255   9.389  1.00  0.00     0.202 C 
ATOM     13  C   UNL     1      19.630  36.172   8.333  1.00  0.00     0.179 C 
ATOM     14  C   UNL     1      21.063  35.814   7.992  1.00  0.00     0.177 C 
BRANCH  10  15
ATOM     15  O   UNL     1      21.256  38.743   8.510  1.00  0.00    -0.341 OA
BRANCH  15  16
ATOM     16  C   UNL     1      22.332  39.567   8.746  1.00  0.00     0.184 C 
ATOM     17  C   UNL     1      21.961  40.979   9.126  1.00  0.00     0.178 C 
ATOM     18  O   UNL     1      23.085  41.534   9.719  1.00  0.00    -0.341 OA
ATOM     19  C   UNL     1      24.202  41.551   8.947  1.00  0.00     0.281 C 
ATOM     20  C   UNL     1      23.189  39.724   7.495  1.00  0.00     0.180 C 
ATOM     21  C   UNL     1      24.209  40.765   7.703  1.00  0.00     0.202 C 
BRANCH  17  22
ATOM     22  C   UNL     1      20.801  41.090  10.059  1.00  0.00     0.191 C 
BRANCH  22  23
ATOM     23  O   UNL     1      21.266  41.027  11.371  1.00  0.00    -0.394 OA
ATOM     24  H   UNL     1      22.160  41.406  11.423  1.00  0.00     0.210 HD
ENDBRANCH  22  23
ENDBRANCH  17  22
BRANCH  19  25
ATOM     25  O   UNL     1      25.259  41.092   9.769  1.00  0.00    -0.350 OA
BRANCH  25  26
ATOM     26  C   UNL     1      25.908  42.094  10.433  1.00  0.00     0.169 C 
BRANCH  26  27
ATOM     27  C   UNL     1      26.836  41.651  11.521  1.00  0.00     0.119 C 
BRANCH  27  28
ATOM     28  N   UNL     1      26.082  40.765  12.394  1.00  0.00    -0.092 NA
ATOM     29  N   UNL     1      26.292  40.767  13.598  1.00  0.00     0.001 N 
ATOM     30  N   UNL     1      26.436  40.801  14.814  1.00  0.00    -0.003 NA
ENDBRANCH  27  28
ENDBRANCH  26  27
ENDBRANCH  25  26
ENDBRANCH  19  25
BRANCH  20  31
ATOM     31  O   UNL     1      23.792  38.529   7.138  1.00  0.00    -0.387 OA
ATOM     32  H   UNL     1      24.165  38.537   6.226  1.00  0.00     0.211 HD
ENDBRANCH  20  31
BRANCH  21  33
ATOM     33  O   UNL     1      24.133  41.618   6.562  1.00  0.00    -0.385 OA
ATOM     34  H   UNL     1      24.968  41.583   6.040  1.00  0.00     0.211 HD
ENDBRANCH  21  33
ENDBRANCH  15  16
ENDBRANCH  10  15
BRANCH  12  35
ATOM     35  O   UNL     1      19.070  36.785  10.603  1.00  0.00    -0.385 OA
ATOM     36  H   UNL     1      19.644  37.051  11.362  1.00  0.00     0.211 HD
ENDBRANCH  12  35
BRANCH  13  37
ATOM     37  O   UNL     1      18.876  36.517   7.228  1.00  0.00    -0.387 OA
ATOM     38  H   UNL     1      19.320  37.215   6.706  1.00  0.00     0.211 HD
ENDBRANCH  13  37
BRANCH  14  39
ATOM     39  O   UNL     1      21.501  36.696   7.018  1.00  0.00    -0.387 OA
ATOM     40  H   UNL     1      22.241  37.274   7.325  1.00  0.00     0.211 HD
ENDBRANCH  14  39
ENDBRANCH   8   9
ENDBRANCH   7   8
ENDBRANCH   1   7
BRANCH   1  41
ATOM     41  C   UNL     1      26.414  36.375   8.187  1.00  0.00     0.364 C 
ATOM     42  O   UNL     1      26.678  37.459   7.624  1.00  0.00    -0.246 OA
BRANCH  41  43
ATOM     43  O   UNL     1      27.120  35.255   7.863  1.00  0.00    -0.477 OA
ATOM     44  H   UNL     1      26.665  34.485   7.348  1.00  0.00     0.296 HD
ENDBRANCH  41  43
ENDBRANCH   1  41
BRANCH   3  45
ATOM     45  O   UNL     1      26.711  34.868  12.242  1.00  0.00    -0.391 OA
ATOM     46  H   UNL     1      26.923  33.994  11.813  1.00  0.00     0.211 HD
ENDBRANCH   3  45
BRANCH   5  47
ATOM     47  C   UNL     1      24.017  37.971  11.710  1.00  0.00     0.176 C 
BRANCH  47  48
ATOM     48  O   UNL     1      23.479  39.229  11.813  1.00  0.00    -0.388 OA
ATOM     49  H   UNL     1      23.041  39.513  10.958  1.00  0.00     0.211 HD
ENDBRANCH  47  48
BRANCH  47  50
ATOM     50  C   UNL     1      24.138  37.395  13.131  1.00  0.00     0.165 C 
BRANCH  50  51
ATOM     51  O   UNL     1      23.857  36.054  13.063  1.00  0.00    -0.388 OA
ATOM     52  H   UNL     1      23.900  35.550  13.894  1.00  0.00     0.211 HD
ENDBRANCH  50  51
BRANCH  50  53
ATOM     53  C   UNL     1      23.208  38.105  14.060  1.00  0.00     0.154 C 
BRANCH  53  54
ATOM     54  N   UNL     1      21.973  37.417  14.222  1.00  0.00    -0.319 N 
ATOM     55  C   UNL     1      20.750  37.670  13.566  1.00  0.00     0.407 C 
ATOM     56  H   UNL     1      21.947  36.606  14.919  1.00  0.00     0.167 HD
ATOM     57  O   UNL     1      20.657  38.572  12.727  1.00  0.00    -0.225 OA
BRANCH  55  58
ATOM     58  O   UNL     1      19.620  36.907  13.853  1.00  0.00    -0.443 OA
BRANCH  58  59
ATOM     59  C   UNL     1      19.647  35.612  14.405  1.00  0.00     0.294 C 
BRANCH  59  60
ATOM     60  C   UNL     1      20.466  34.685  13.559  1.00  0.00     0.121 A 
ATOM     61  C   UNL     1      20.673  33.335  13.841  1.00  0.00     0.144 A 
ATOM     62  N   UNL     1      21.137  34.933  12.446  1.00  0.00    -0.131 NA
ATOM     63  N   UNL     1      21.462  32.843  12.874  1.00  0.00    -0.219 N 
ATOM     64  N   UNL     1      21.738  33.811  12.034  1.00  0.00    -0.062 NA
BRANCH  63  65
ATOM     65  C   UNL     1      21.929  31.510  12.763  1.00  0.00     0.081 A 
ATOM     66  C   UNL     1      21.106  30.488  12.345  1.00  0.00     0.029 A 
ATOM     67  C   UNL     1      23.228  31.209  13.073  1.00  0.00     0.043 A 
ATOM     68  C   UNL     1      21.601  29.190  12.248  1.00  0.00     0.002 A 
ATOM     69  C   UNL     1      23.722  29.930  12.980  1.00  0.00     0.018 A 
ATOM     70  Br  UNL     1      24.398  32.593  13.660  1.00  0.00    -0.048 Br
ATOM     71  C   UNL     1      22.911  28.901  12.563  1.00  0.00     0.001 A 
ENDBRANCH  63  65
ENDBRANCH  59  60
ENDBRANCH  58  59
ENDBRANCH  55  58
ENDBRANCH  53  54
ENDBRANCH  50  53
ENDBRANCH  47  50
ENDBRANCH   5  47
BRANCH   4  72
ATOM     72  N   UNL     1      27.589  37.975  11.907  1.00  0.00    -0.348 N 
ATOM     73  C   UNL     1      28.412  37.863  13.055  1.00  0.00     0.217 C 
ATOM     74  H   UNL     1      27.869  38.639  11.160  1.00  0.00     0.163 HD
ATOM     75  C   UNL     1      29.638  38.714  13.117  1.00  0.00     0.114 C 
ATOM     76  O   UNL     1      28.142  37.089  13.992  1.00  0.00    -0.275 OA
ENDBRANCH   4  72
TORSDOF 30
BEGIN_RES LYS A 131
REMARK  4 active torsions:
REMARK  status: ('A' for Active; 'I' for Inactive)
REMARK    1  A    between atoms: CA   and  CB  
REMARK    2  A    between atoms: CB   and  CG  
REMARK    3  A    between atoms: CG   and  CD  
REMARK    4  A    between atoms: CD   and  CE  
ROOT
ATOM      1  CA  LYS A 131      29.867  25.555  16.977  1.00 20.52     0.186 C 
ENDROOT
BRANCH   1   2
ATOM      2  CB  LYS A 131      28.345  25.722  17.026  1.00 20.94     0.034 C 
BRANCH   2   3
ATOM      3  CG  LYS A 131      27.601  24.401  16.905  1.00 22.96     0.005 C 
BRANCH   3   4
ATOM      4  CD  LYS A 131      26.186  24.500  17.402  1.00 24.33     0.041 C 
BRANCH   4   5
ATOM      5  CE  LYS A 131      26.004  25.809  18.163  1.00 26.91     0.338 C 
ATOM      6  NZ  LYS A 131      24.787  26.516  17.697  1.00 27.40     0.618 N 
ENDBRANCH   4   5
ENDBRANCH   3   4
ENDBRANCH   2   3
ENDBRANCH   1   2
END_RES LYS A 131
BEGIN_RES LYS A 135
REMARK  4 active torsions:
REMARK  status: ('A' for Active; 'I' for Inactive)
REMARK    5  A    between atoms: CA   and  CB  
REMARK    6  A    between atoms: CB   and  CG  
REMARK    7  A    between atoms: CG   and  CD  
REMARK    8  A    between atoms: CD   and  CE  
ROOT
ATOM      7  CA  LYS A 135      33.193  34.663   9.290  1.00 25.02     0.186 C 
ENDROOT
BRANCH   7   8
ATOM      8  CB  LYS A 135      32.060  35.360  10.034  1.00 26.63     0.034 C 
BRANCH   8   9
ATOM      9  CG  LYS A 135      30.695  34.817   9.698  1.00 29.45     0.005 C 
BRANCH   9  10
ATOM     10  CD  LYS A 135      29.791  34.845  10.920  1.00 32.00     0.041 C 
BRANCH  10  11
ATOM     11  CE  LYS A 135      30.614  34.955  12.189  1.00 34.25     0.338 C 
ATOM     12  NZ  LYS A 135      29.959  34.236  13.317  1.00 35.99     0.618 N 
ENDBRANCH  10  11
ENDBRANCH   9  10
ENDBRANCH   8   9
ENDBRANCH   7   8
END_RES LYS A 135
