REMARK VINA RESULT:    -4.971      6.586     13.053
REMARK INTER + INTRA:         -24.086
REMARK INTER:                 -11.349
REMARK INTRA:                 -12.737
REMARK UNBOUND:               -10.398
REMARK SMILES CC(=O)N[C@@H]1[C@@H](O)C[C@](OC[C@H]2O[C@@H](O[C@H]3[C@H](O)[C@@H](O)[C@H](OCCN=[N+]=[N-])O[C@@H]3CO)[C@H](O)[C@@H](O)[C@H]2O)(C(=O)O)O[C@H]1C(O)[C@H](O)CNC(=O)OCc1cn([C@@H](CCC(=O)O)C(=O)O)nn1
REMARK SMILES IDX 43 1 42 2 9 3 8 4 41 5 6 6 5 7 10 8 11 9 12 10 14 11 13 12
REMARK SMILES IDX 32 13 34 14 36 15 15 16 16 17 29 18 28 19 21 20 17 21 19 22
REMARK SMILES IDX 30 23 31 24 22 26 23 27 24 28 25 29 26 30 27 31 18 32 20 34
REMARK SMILES IDX 33 36 35 38 37 40 38 42 39 43 40 44 7 46 4 48 2 49 1 51 3 52
REMARK SMILES IDX 44 53 45 55 46 56 47 58 48 59 49 60 50 62 51 63 52 64 53 65
REMARK SMILES IDX 54 66 66 67 55 68 65 69 56 70 57 71 58 72 59 73 60 74 61 75
REMARK SMILES IDX 62 77 63 78 64 79
REMARK H PARENT 31 25 18 33 20 35 33 37 35 39 37 41 40 45 7 47 4 50 44 54
REMARK H PARENT 46 57 48 61 61 76 64 80
REMARK Flexibility Score: inf
ROOT
ATOM      1  C   UNL     1      21.501  35.614   9.267  1.00  0.00     0.176 C 
ENDROOT
BRANCH   1   2
ATOM      2  C   UNL     1      21.311  37.015   9.847  1.00  0.00     0.178 C 
ATOM      3  C   UNL     1      22.450  39.063   9.621  1.00  0.00     0.272 C 
ATOM      4  C   UNL     1      22.776  39.183  11.055  1.00  0.00     0.113 C 
ATOM      5  O   UNL     1      22.441  37.675   9.365  1.00  0.00    -0.332 OA
ATOM      6  C   UNL     1      22.543  37.899  11.804  1.00  0.00     0.145 C 
ATOM      7  C   UNL     1      21.416  37.045  11.345  1.00  0.00     0.142 C 
BRANCH   3   8
ATOM      8  O   UNL     1      23.448  39.585   8.824  1.00  0.00    -0.338 OA
BRANCH   8   9
ATOM      9  C   UNL     1      24.605  40.028   9.243  1.00  0.00     0.199 C 
BRANCH   9  10
ATOM     10  C   UNL     1      25.895  39.267   9.113  1.00  0.00     0.179 C 
ATOM     11  C   UNL     1      26.526  37.135   9.819  1.00  0.00     0.282 C 
ATOM     12  O   UNL     1      26.102  38.398  10.144  1.00  0.00    -0.341 OA
ATOM     13  C   UNL     1      25.492  36.499   8.916  1.00  0.00     0.202 C 
ATOM     14  C   UNL     1      25.443  37.264   7.632  1.00  0.00     0.179 C 
ATOM     15  C   UNL     1      26.010  38.635   7.732  1.00  0.00     0.177 C 
BRANCH  11  16
ATOM     16  O   UNL     1      26.612  36.381  10.992  1.00  0.00    -0.341 OA
BRANCH  16  17
ATOM     17  C   UNL     1      27.275  36.988  12.029  1.00  0.00     0.184 C 
ATOM     18  C   UNL     1      28.785  36.807  11.914  1.00  0.00     0.178 C 
ATOM     19  O   UNL     1      29.245  36.111  13.030  1.00  0.00    -0.341 OA
ATOM     20  C   UNL     1      28.791  34.764  12.976  1.00  0.00     0.281 C 
ATOM     21  C   UNL     1      26.840  36.296  13.305  1.00  0.00     0.180 C 
ATOM     22  C   UNL     1      27.309  34.830  13.191  1.00  0.00     0.202 C 
BRANCH  18  23
ATOM     23  C   UNL     1      29.458  38.169  11.924  1.00  0.00     0.191 C 
BRANCH  23  24
ATOM     24  O   UNL     1      28.543  39.199  11.810  1.00  0.00    -0.394 OA
ATOM     25  H   UNL     1      28.965  40.088  11.947  1.00  0.00     0.210 HD
ENDBRANCH  23  24
ENDBRANCH  18  23
BRANCH  20  26
ATOM     26  O   UNL     1      29.505  34.064  13.905  1.00  0.00    -0.350 OA
BRANCH  26  27
ATOM     27  C   UNL     1      30.302  34.810  14.728  1.00  0.00     0.169 C 
BRANCH  27  28
ATOM     28  C   UNL     1      31.716  34.284  14.866  1.00  0.00     0.119 C 
BRANCH  28  29
ATOM     29  N   UNL     1      32.200  34.361  16.230  1.00  0.00    -0.092 NA
ATOM     30  N   UNL     1      31.592  33.917  17.198  1.00  0.00     0.001 N 
ATOM     31  N   UNL     1      31.008  33.291  18.057  1.00  0.00    -0.003 NA
ENDBRANCH  28  29
ENDBRANCH  27  28
ENDBRANCH  26  27
ENDBRANCH  20  26
BRANCH  21  32
ATOM     32  O   UNL     1      27.371  36.887  14.445  1.00  0.00    -0.387 OA
ATOM     33  H   UNL     1      26.719  37.509  14.897  1.00  0.00     0.211 HD
ENDBRANCH  21  32
BRANCH  22  34
ATOM     34  O   UNL     1      26.703  34.377  11.993  1.00  0.00    -0.385 OA
ATOM     35  H   UNL     1      27.428  34.234  11.332  1.00  0.00     0.211 HD
ENDBRANCH  22  34
ENDBRANCH  16  17
ENDBRANCH  11  16
BRANCH  13  36
ATOM     36  O   UNL     1      25.805  35.159   8.680  1.00  0.00    -0.385 OA
ATOM     37  H   UNL     1      25.728  34.700   9.576  1.00  0.00     0.211 HD
ENDBRANCH  13  36
BRANCH  14  38
ATOM     38  O   UNL     1      24.154  37.308   7.091  1.00  0.00    -0.387 OA
ATOM     39  H   UNL     1      24.136  36.758   6.254  1.00  0.00     0.211 HD
ENDBRANCH  14  38
BRANCH  15  40
ATOM     40  O   UNL     1      25.303  39.429   6.826  1.00  0.00    -0.387 OA
ATOM     41  H   UNL     1      25.903  39.803   6.142  1.00  0.00     0.211 HD
ENDBRANCH  15  40
ENDBRANCH   9  10
ENDBRANCH   8   9
ENDBRANCH   3   8
BRANCH   3  42
ATOM     42  C   UNL     1      21.186  39.615   9.149  1.00  0.00     0.364 C 
ATOM     43  O   UNL     1      20.512  40.349   9.961  1.00  0.00    -0.246 OA
BRANCH  42  44
ATOM     44  O   UNL     1      20.583  39.458   7.917  1.00  0.00    -0.477 OA
ATOM     45  H   UNL     1      19.599  39.367   7.814  1.00  0.00     0.296 HD
ENDBRANCH  42  44
ENDBRANCH   3  42
BRANCH   6  46
ATOM     46  O   UNL     1      23.719  37.116  11.637  1.00  0.00    -0.391 OA
ATOM     47  H   UNL     1      23.722  36.346  12.261  1.00  0.00     0.211 HD
ENDBRANCH   6  46
BRANCH   7  48
ATOM     48  N   UNL     1      20.263  37.419  12.087  1.00  0.00    -0.348 N 
ATOM     49  C   UNL     1      19.995  36.991  13.411  1.00  0.00     0.217 C 
ATOM     50  H   UNL     1      19.549  38.061  11.691  1.00  0.00     0.163 HD
ATOM     51  C   UNL     1      18.748  37.422  14.136  1.00  0.00     0.114 C 
ATOM     52  O   UNL     1      20.780  36.252  13.999  1.00  0.00    -0.275 OA
ENDBRANCH   7  48
ENDBRANCH   1   2
BRANCH   1  53
ATOM     53  O   UNL     1      22.853  35.291   9.279  1.00  0.00    -0.388 OA
ATOM     54  H   UNL     1      22.990  34.389   8.883  1.00  0.00     0.211 HD
ENDBRANCH   1  53
BRANCH   1  55
ATOM     55  C   UNL     1      20.903  35.346   7.966  1.00  0.00     0.165 C 
BRANCH  55  56
ATOM     56  O   UNL     1      21.114  36.487   7.136  1.00  0.00    -0.388 OA
ATOM     57  H   UNL     1      21.851  37.010   7.532  1.00  0.00     0.211 HD
ENDBRANCH  55  56
BRANCH  55  58
ATOM     58  C   UNL     1      19.426  35.095   7.901  1.00  0.00     0.154 C 
BRANCH  58  59
ATOM     59  N   UNL     1      18.999  33.977   8.708  1.00  0.00    -0.319 N 
ATOM     60  C   UNL     1      18.481  34.107  10.030  1.00  0.00     0.407 C 
ATOM     61  H   UNL     1      19.077  33.022   8.324  1.00  0.00     0.167 HD
ATOM     62  O   UNL     1      18.370  35.213  10.559  1.00  0.00    -0.225 OA
BRANCH  60  63
ATOM     63  O   UNL     1      18.112  32.964  10.695  1.00  0.00    -0.443 OA
BRANCH  63  64
ATOM     64  C   UNL     1      18.285  32.772  12.069  1.00  0.00     0.294 C 
BRANCH  64  65
ATOM     65  C   UNL     1      19.674  32.325  12.339  1.00  0.00     0.120 A 
ATOM     66  C   UNL     1      20.739  33.042  12.843  1.00  0.00     0.139 A 
ATOM     67  N   UNL     1      20.160  31.078  12.101  1.00  0.00    -0.132 NA
ATOM     68  N   UNL     1      21.831  32.225  12.901  1.00  0.00    -0.238 N 
ATOM     69  N   UNL     1      21.432  31.039  12.438  1.00  0.00    -0.066 NA
BRANCH  68  70
ATOM     70  C   UNL     1      23.118  32.569  13.382  1.00  0.00     0.219 C 
BRANCH  70  71
ATOM     71  C   UNL     1      24.285  31.728  13.017  1.00  0.00     0.051 C 
BRANCH  71  72
ATOM     72  C   UNL     1      24.369  30.339  13.496  1.00  0.00     0.125 C 
BRANCH  72  73
ATOM     73  C   UNL     1      23.910  30.008  14.828  1.00  0.00     0.303 C 
ATOM     74  O   UNL     1      24.521  30.098  15.907  1.00  0.00    -0.252 OA
BRANCH  73  75
ATOM     75  O   UNL     1      22.580  29.503  14.987  1.00  0.00    -0.481 OA
ATOM     76  H   UNL     1      22.197  28.906  14.271  1.00  0.00     0.296 HD
ENDBRANCH  73  75
ENDBRANCH  72  73
ENDBRANCH  71  72
ENDBRANCH  70  71
BRANCH  70  77
ATOM     77  C   UNL     1      23.415  33.979  12.976  1.00  0.00     0.328 C 
ATOM     78  O   UNL     1      23.727  34.245  11.799  1.00  0.00    -0.250 OA
BRANCH  77  79
ATOM     79  O   UNL     1      23.356  35.026  13.877  1.00  0.00    -0.480 OA
ATOM     80  H   UNL     1      23.818  34.980  14.786  1.00  0.00     0.296 HD
ENDBRANCH  77  79
ENDBRANCH  70  77
ENDBRANCH  68  70
ENDBRANCH  64  65
ENDBRANCH  63  64
ENDBRANCH  60  63
ENDBRANCH  58  59
ENDBRANCH  55  58
ENDBRANCH   1  55
TORSDOF 36
BEGIN_RES LYS A 131
REMARK  4 active torsions:
REMARK  status: ('A' for Active; 'I' for Inactive)
REMARK    1  A    between atoms: CA   and  CB  
REMARK    2  A    between atoms: CB   and  CG  
REMARK    3  A    between atoms: CG   and  CD  
REMARK    4  A    between atoms: CD   and  CE  
ROOT
ATOM      1  CA  LYS A 131      29.867  25.555  16.977  1.00 20.52     0.186 C 
ENDROOT
BRANCH   1   2
ATOM      2  CB  LYS A 131      28.345  25.722  17.026  1.00 20.94     0.034 C 
BRANCH   2   3
ATOM      3  CG  LYS A 131      27.599  24.437  16.702  1.00 22.96     0.005 C 
BRANCH   3   4
ATOM      4  CD  LYS A 131      26.990  23.811  17.926  1.00 24.33     0.041 C 
BRANCH   4   5
ATOM      5  CE  LYS A 131      25.615  23.249  17.580  1.00 26.91     0.338 C 
ATOM      6  NZ  LYS A 131      24.771  24.293  16.952  1.00 27.40     0.618 N 
ENDBRANCH   4   5
ENDBRANCH   3   4
ENDBRANCH   2   3
ENDBRANCH   1   2
END_RES LYS A 131
BEGIN_RES LYS A 135
REMARK  4 active torsions:
REMARK  status: ('A' for Active; 'I' for Inactive)
REMARK    5  A    between atoms: CA   and  CB  
REMARK    6  A    between atoms: CB   and  CG  
REMARK    7  A    between atoms: CG   and  CD  
REMARK    8  A    between atoms: CD   and  CE  
ROOT
ATOM      7  CA  LYS A 135      33.193  34.663   9.290  1.00 25.02     0.186 C 
ENDROOT
BRANCH   7   8
ATOM      8  CB  LYS A 135      32.060  35.360  10.034  1.00 26.63     0.034 C 
BRANCH   8   9
ATOM      9  CG  LYS A 135      30.708  34.742   9.788  1.00 29.45     0.005 C 
BRANCH   9  10
ATOM     10  CD  LYS A 135      30.389  34.725   8.301  1.00 32.00     0.041 C 
BRANCH  10  11
ATOM     11  CE  LYS A 135      29.298  35.728   7.978  1.00 34.25     0.338 C 
ATOM     12  NZ  LYS A 135      28.833  35.582   6.571  1.00 35.99     0.618 N 
ENDBRANCH  10  11
ENDBRANCH   9  10
ENDBRANCH   8   9
ENDBRANCH   7   8
END_RES LYS A 135
