REMARK VINA RESULT:    -5.357      3.948      7.716
REMARK INTER + INTRA:         -23.723
REMARK INTER:                 -11.401
REMARK INTRA:                 -12.322
REMARK UNBOUND:                -9.598
REMARK SMILES CC(=O)N[C@@H]1[C@@H](O)C[C@](OC[C@H]2O[C@@H](O[C@H]3[C@H](O)[C@@H](O)[C@H](OCCN=[N+]=[N-])O[C@@H]3CO)[C@H](O)[C@@H](O)[C@H]2O)(C(=O)O)O[C@H]1C(O)[C@H](O)CNC(=O)OCc1cn(Cc2ccccc2OC(C)=O)nn1
REMARK SMILES IDX 43 1 42 2 9 3 8 4 41 5 6 6 5 7 10 8 11 9 12 10 14 11 13 12
REMARK SMILES IDX 32 13 34 14 36 15 15 16 16 17 29 18 28 19 21 20 17 21 19 22
REMARK SMILES IDX 30 23 31 24 22 26 23 27 24 28 25 29 26 30 27 31 18 32 20 34
REMARK SMILES IDX 33 36 35 38 37 40 38 42 39 43 40 44 7 46 4 48 2 49 1 51 3 52
REMARK SMILES IDX 44 53 45 55 46 56 47 58 48 59 49 60 50 62 51 63 52 64 53 65
REMARK SMILES IDX 54 66 68 67 55 68 67 69 56 70 57 71 62 72 58 73 61 74 59 75
REMARK SMILES IDX 60 76 63 77 64 78 66 79 65 80
REMARK H PARENT 31 25 18 33 20 35 33 37 35 39 37 41 40 45 7 47 4 50 44 54
REMARK H PARENT 46 57 48 61
REMARK Flexibility Score: inf
ROOT
ATOM      1  C   UNL     1      25.008  36.706  12.890  1.00  0.00     0.176 C 
ENDROOT
BRANCH   1   2
ATOM      2  C   UNL     1      26.120  35.754  13.301  1.00  0.00     0.178 C 
ATOM      3  C   UNL     1      27.573  35.324  15.073  1.00  0.00     0.272 C 
ATOM      4  C   UNL     1      28.234  34.539  13.945  1.00  0.00     0.113 C 
ATOM      5  O   UNL     1      26.618  36.200  14.504  1.00  0.00    -0.332 OA
ATOM      6  C   UNL     1      28.486  35.536  12.827  1.00  0.00     0.145 C 
ATOM      7  C   UNL     1      27.181  35.855  12.204  1.00  0.00     0.142 C 
BRANCH   3   8
ATOM      8  O   UNL     1      28.443  36.117  15.760  1.00  0.00    -0.338 OA
BRANCH   8   9
ATOM      9  C   UNL     1      27.947  37.017  16.648  1.00  0.00     0.199 C 
BRANCH   9  10
ATOM     10  C   UNL     1      28.918  38.209  16.697  1.00  0.00     0.179 C 
ATOM     11  C   UNL     1      31.072  38.798  16.152  1.00  0.00     0.282 C 
ATOM     12  O   UNL     1      30.072  37.774  16.036  1.00  0.00    -0.341 OA
ATOM     13  C   UNL     1      30.636  39.868  15.214  1.00  0.00     0.202 C 
ATOM     14  C   UNL     1      29.342  40.455  15.804  1.00  0.00     0.179 C 
ATOM     15  C   UNL     1      28.310  39.403  16.035  1.00  0.00     0.177 C 
BRANCH  11  16
ATOM     16  O   UNL     1      32.248  38.144  15.877  1.00  0.00    -0.341 OA
BRANCH  16  17
ATOM     17  C   UNL     1      32.032  36.770  15.668  1.00  0.00     0.184 C 
ATOM     18  C   UNL     1      32.902  35.890  16.486  1.00  0.00     0.178 C 
ATOM     19  O   UNL     1      33.468  34.843  15.752  1.00  0.00    -0.341 OA
ATOM     20  C   UNL     1      32.569  34.171  14.934  1.00  0.00     0.281 C 
ATOM     21  C   UNL     1      32.490  36.487  14.188  1.00  0.00     0.180 C 
ATOM     22  C   UNL     1      31.973  35.108  13.885  1.00  0.00     0.202 C 
BRANCH  18  23
ATOM     23  C   UNL     1      32.326  35.414  17.784  1.00  0.00     0.191 C 
BRANCH  23  24
ATOM     24  O   UNL     1      30.942  35.461  17.714  1.00  0.00    -0.394 OA
ATOM     25  H   UNL     1      30.654  35.804  16.843  1.00  0.00     0.210 HD
ENDBRANCH  23  24
ENDBRANCH  18  23
BRANCH  20  26
ATOM     26  O   UNL     1      31.548  33.646  15.644  1.00  0.00    -0.350 OA
BRANCH  26  27
ATOM     27  C   UNL     1      31.122  32.386  15.434  1.00  0.00     0.169 C 
BRANCH  27  28
ATOM     28  C   UNL     1      30.587  31.609  16.582  1.00  0.00     0.119 C 
BRANCH  28  29
ATOM     29  N   UNL     1      30.350  32.447  17.708  1.00  0.00    -0.092 NA
ATOM     30  N   UNL     1      30.445  32.061  18.851  1.00  0.00     0.001 N 
ATOM     31  N   UNL     1      30.827  31.635  19.945  1.00  0.00    -0.003 NA
ENDBRANCH  28  29
ENDBRANCH  27  28
ENDBRANCH  26  27
ENDBRANCH  20  26
BRANCH  21  32
ATOM     32  O   UNL     1      31.996  37.468  13.364  1.00  0.00    -0.387 OA
ATOM     33  H   UNL     1      32.344  38.370  13.655  1.00  0.00     0.211 HD
ENDBRANCH  21  32
BRANCH  22  34
ATOM     34  O   UNL     1      32.239  34.713  12.592  1.00  0.00    -0.385 OA
ATOM     35  H   UNL     1      32.737  33.848  12.645  1.00  0.00     0.211 HD
ENDBRANCH  22  34
ENDBRANCH  16  17
ENDBRANCH  11  16
BRANCH  13  36
ATOM     36  O   UNL     1      31.512  40.939  15.142  1.00  0.00    -0.385 OA
ATOM     37  H   UNL     1      31.335  41.654  15.789  1.00  0.00     0.211 HD
ENDBRANCH  13  36
BRANCH  14  38
ATOM     38  O   UNL     1      28.873  41.488  14.990  1.00  0.00    -0.387 OA
ATOM     39  H   UNL     1      28.875  42.311  15.559  1.00  0.00     0.211 HD
ENDBRANCH  14  38
BRANCH  15  40
ATOM     40  O   UNL     1      27.717  39.099  14.812  1.00  0.00    -0.387 OA
ATOM     41  H   UNL     1      27.901  39.756  14.115  1.00  0.00     0.211 HD
ENDBRANCH  15  40
ENDBRANCH   9  10
ENDBRANCH   8   9
ENDBRANCH   3   8
BRANCH   3  42
ATOM     42  C   UNL     1      26.865  34.324  15.902  1.00  0.00     0.364 C 
ATOM     43  O   UNL     1      25.650  34.357  16.084  1.00  0.00    -0.246 OA
BRANCH  42  44
ATOM     44  O   UNL     1      27.611  33.304  16.499  1.00  0.00    -0.477 OA
ATOM     45  H   UNL     1      27.554  32.331  16.165  1.00  0.00     0.296 HD
ENDBRANCH  42  44
ENDBRANCH   3  42
BRANCH   6  46
ATOM     46  O   UNL     1      28.966  36.692  13.451  1.00  0.00    -0.391 OA
ATOM     47  H   UNL     1      29.758  36.536  14.017  1.00  0.00     0.211 HD
ENDBRANCH   6  46
BRANCH   7  48
ATOM     48  N   UNL     1      26.795  35.121  11.072  1.00  0.00    -0.348 N 
ATOM     49  C   UNL     1      26.557  35.693   9.791  1.00  0.00     0.217 C 
ATOM     50  H   UNL     1      26.674  34.074  11.182  1.00  0.00     0.163 HD
ATOM     51  C   UNL     1      26.153  34.890   8.625  1.00  0.00     0.114 C 
ATOM     52  O   UNL     1      26.708  36.918   9.693  1.00  0.00    -0.275 OA
ENDBRANCH   7  48
ENDBRANCH   1   2
BRANCH   1  53
ATOM     53  O   UNL     1      23.915  36.402  13.682  1.00  0.00    -0.388 OA
ATOM     54  H   UNL     1      23.643  37.115  14.297  1.00  0.00     0.211 HD
ENDBRANCH   1  53
BRANCH   1  55
ATOM     55  C   UNL     1      25.413  38.142  12.893  1.00  0.00     0.165 C 
BRANCH  55  56
ATOM     56  O   UNL     1      25.060  38.681  14.134  1.00  0.00    -0.388 OA
ATOM     57  H   UNL     1      24.630  38.030  14.709  1.00  0.00     0.211 HD
ENDBRANCH  55  56
BRANCH  55  58
ATOM     58  C   UNL     1      24.798  38.933  11.764  1.00  0.00     0.154 C 
BRANCH  58  59
ATOM     59  N   UNL     1      24.025  38.160  10.849  1.00  0.00    -0.319 N 
ATOM     60  C   UNL     1      22.608  38.188  10.774  1.00  0.00     0.407 C 
ATOM     61  H   UNL     1      24.520  37.518  10.172  1.00  0.00     0.167 HD
ATOM     62  O   UNL     1      21.995  38.941  11.570  1.00  0.00    -0.225 OA
BRANCH  60  63
ATOM     63  O   UNL     1      21.876  37.438   9.886  1.00  0.00    -0.443 OA
BRANCH  63  64
ATOM     64  C   UNL     1      21.051  36.348  10.296  1.00  0.00     0.294 C 
BRANCH  64  65
ATOM     65  C   UNL     1      21.824  35.335  11.030  1.00  0.00     0.120 A 
ATOM     66  C   UNL     1      21.321  34.591  12.071  1.00  0.00     0.138 A 
ATOM     67  N   UNL     1      23.090  34.931  10.869  1.00  0.00    -0.132 NA
ATOM     68  N   UNL     1      22.273  33.767  12.512  1.00  0.00    -0.248 N 
ATOM     69  N   UNL     1      23.355  34.004  11.746  1.00  0.00    -0.067 NA
BRANCH  68  70
ATOM     70  C   UNL     1      22.247  32.795  13.589  1.00  0.00     0.185 C 
BRANCH  70  71
ATOM     71  C   UNL     1      22.180  31.421  13.082  1.00  0.00     0.016 A 
ATOM     72  C   UNL     1      23.265  30.614  13.043  1.00  0.00     0.135 A 
ATOM     73  C   UNL     1      20.931  30.967  12.649  1.00  0.00     0.009 A 
ATOM     74  C   UNL     1      23.120  29.312  12.561  1.00  0.00     0.047 A 
ATOM     75  C   UNL     1      20.801  29.687  12.177  1.00  0.00     0.001 A 
ATOM     76  C   UNL     1      21.891  28.849  12.129  1.00  0.00     0.004 A 
BRANCH  72  77
ATOM     77  O   UNL     1      24.518  31.017  13.457  1.00  0.00    -0.426 OA
BRANCH  77  78
ATOM     78  C   UNL     1      24.926  30.661  14.747  1.00  0.00     0.308 C 
ATOM     79  O   UNL     1      26.035  31.065  15.159  1.00  0.00    -0.252 OA
ATOM     80  C   UNL     1      24.057  29.831  15.585  1.00  0.00     0.139 C 
ENDBRANCH  77  78
ENDBRANCH  72  77
ENDBRANCH  70  71
ENDBRANCH  68  70
ENDBRANCH  64  65
ENDBRANCH  63  64
ENDBRANCH  60  63
ENDBRANCH  58  59
ENDBRANCH  55  58
ENDBRANCH   1  55
TORSDOF 33
BEGIN_RES LYS A 131
REMARK  4 active torsions:
REMARK  status: ('A' for Active; 'I' for Inactive)
REMARK    1  A    between atoms: CA   and  CB  
REMARK    2  A    between atoms: CB   and  CG  
REMARK    3  A    between atoms: CG   and  CD  
REMARK    4  A    between atoms: CD   and  CE  
ROOT
ATOM      1  CA  LYS A 131      29.867  25.555  16.977  1.00 20.52     0.186 C 
ENDROOT
BRANCH   1   2
ATOM      2  CB  LYS A 131      28.345  25.722  17.026  1.00 20.94     0.034 C 
BRANCH   2   3
ATOM      3  CG  LYS A 131      27.601  24.403  16.886  1.00 22.96     0.005 C 
BRANCH   3   4
ATOM      4  CD  LYS A 131      26.573  24.215  17.967  1.00 24.33     0.041 C 
BRANCH   4   5
ATOM      5  CE  LYS A 131      25.313  23.598  17.370  1.00 26.91     0.338 C 
ATOM      6  NZ  LYS A 131      24.401  24.656  16.876  1.00 27.40     0.618 N 
ENDBRANCH   4   5
ENDBRANCH   3   4
ENDBRANCH   2   3
ENDBRANCH   1   2
END_RES LYS A 131
BEGIN_RES LYS A 135
REMARK  4 active torsions:
REMARK  status: ('A' for Active; 'I' for Inactive)
REMARK    5  A    between atoms: CA   and  CB  
REMARK    6  A    between atoms: CB   and  CG  
REMARK    7  A    between atoms: CG   and  CD  
REMARK    8  A    between atoms: CD   and  CE  
ROOT
ATOM      7  CA  LYS A 135      33.193  34.663   9.290  1.00 25.02     0.186 C 
ENDROOT
BRANCH   7   8
ATOM      8  CB  LYS A 135      32.060  35.360  10.034  1.00 26.63     0.034 C 
BRANCH   8   9
ATOM      9  CG  LYS A 135      30.691  34.852   9.661  1.00 29.45     0.005 C 
BRANCH   9  10
ATOM     10  CD  LYS A 135      30.037  35.771   8.641  1.00 32.00     0.041 C 
BRANCH  10  11
ATOM     11  CE  LYS A 135      29.536  34.976   7.451  1.00 34.25     0.338 C 
ATOM     12  NZ  LYS A 135      28.867  35.861   6.458  1.00 35.99     0.618 N 
ENDBRANCH  10  11
ENDBRANCH   9  10
ENDBRANCH   8   9
ENDBRANCH   7   8
END_RES LYS A 135
