REMARK VINA RESULT:    -4.686      3.207      8.723
REMARK INTER + INTRA:         -23.013
REMARK INTER:                 -13.669
REMARK INTRA:                  -9.344
REMARK UNBOUND:               -11.068
REMARK SMILES CC(=O)N[C@@H]1[C@@H](O)C[C@](OC[C@H]2O[C@@H](O[C@H]3[C@H](O)[C@@H](O)[C@H](OCCN=[N+]=[N-])O[C@@H]3CO)[C@H](O)[C@@H](O)[C@H]2O)(C(=O)O)O[C@H]1C(O)[C@H](O)CNC(=O)OCc1cn(Cc2cc(Br)cc(Br)c2O)nn1
REMARK SMILES IDX 9 1 8 2 6 3 5 4 42 5 41 6 10 7 11 8 12 9 14 10 13 11 32 12
REMARK SMILES IDX 34 13 36 14 15 15 16 16 29 17 28 18 21 19 17 20 19 21 30 22
REMARK SMILES IDX 31 23 22 25 23 26 24 27 25 28 26 29 27 30 18 31 20 33 33 35
REMARK SMILES IDX 35 37 37 39 38 41 39 42 40 43 7 45 43 47 44 48 45 50 46 51
REMARK SMILES IDX 47 53 48 54 49 55 50 57 51 58 52 59 53 60 54 61 67 62 55 63
REMARK SMILES IDX 66 64 56 65 57 66 58 67 64 68 59 69 62 70 60 71 61 72 63 73
REMARK SMILES IDX 65 74 4 76 2 77 1 79 3 80
REMARK H PARENT 31 24 18 32 20 34 33 36 35 38 37 40 40 44 7 46 44 49 46 52
REMARK H PARENT 48 56 65 75 4 78
REMARK Flexibility Score: inf
ROOT
ATOM      1  C   UNL     1      23.786  39.455   8.589  1.00  0.00     0.272 C 
ATOM      2  C   UNL     1      23.942  39.845   7.042  1.00  0.00     0.113 C 
ATOM      3  C   UNL     1      25.340  40.209   6.751  1.00  0.00     0.145 C 
ATOM      4  C   UNL     1      26.266  39.092   7.155  1.00  0.00     0.142 C 
ATOM      5  C   UNL     1      25.706  38.121   8.150  1.00  0.00     0.178 C 
ATOM      6  O   UNL     1      24.588  38.393   8.812  1.00  0.00    -0.332 OA
ENDROOT
BRANCH   1   7
ATOM      7  O   UNL     1      22.482  39.092   8.597  1.00  0.00    -0.338 OA
BRANCH   7   8
ATOM      8  C   UNL     1      21.979  37.981   9.099  1.00  0.00     0.199 C 
BRANCH   8   9
ATOM      9  C   UNL     1      22.086  36.678   8.386  1.00  0.00     0.179 C 
ATOM     10  C   UNL     1      21.497  35.286  10.159  1.00  0.00     0.282 C 
ATOM     11  O   UNL     1      22.386  35.637   9.196  1.00  0.00    -0.341 OA
ATOM     12  C   UNL     1      20.084  35.293   9.672  1.00  0.00     0.202 C 
ATOM     13  C   UNL     1      20.038  35.282   8.169  1.00  0.00     0.179 C 
ATOM     14  C   UNL     1      20.840  36.387   7.546  1.00  0.00     0.177 C 
BRANCH  10  15
ATOM     15  O   UNL     1      21.691  36.042  11.326  1.00  0.00    -0.341 OA
BRANCH  15  16
ATOM     16  C   UNL     1      22.499  35.438  12.262  1.00  0.00     0.184 C 
ATOM     17  C   UNL     1      21.811  35.329  13.604  1.00  0.00     0.178 C 
ATOM     18  O   UNL     1      22.635  34.976  14.634  1.00  0.00    -0.341 OA
ATOM     19  C   UNL     1      23.878  34.480  14.285  1.00  0.00     0.281 C 
ATOM     20  C   UNL     1      23.746  36.283  12.549  1.00  0.00     0.180 C 
ATOM     21  C   UNL     1      24.648  35.403  13.381  1.00  0.00     0.202 C 
BRANCH  17  22
ATOM     22  C   UNL     1      20.600  34.420  13.565  1.00  0.00     0.191 C 
BRANCH  22  23
ATOM     23  O   UNL     1      19.483  35.086  13.110  1.00  0.00    -0.394 OA
ATOM     24  H   UNL     1      18.810  35.094  13.831  1.00  0.00     0.210 HD
ENDBRANCH  22  23
ENDBRANCH  17  22
BRANCH  19  25
ATOM     25  O   UNL     1      23.719  33.213  13.748  1.00  0.00    -0.350 OA
BRANCH  25  26
ATOM     26  C   UNL     1      24.856  32.465  13.894  1.00  0.00     0.169 C 
BRANCH  26  27
ATOM     27  C   UNL     1      24.656  31.004  14.106  1.00  0.00     0.119 C 
BRANCH  27  28
ATOM     28  N   UNL     1      24.349  30.292  12.882  1.00  0.00    -0.092 NA
ATOM     29  N   UNL     1      23.309  29.686  12.716  1.00  0.00     0.001 N 
ATOM     30  N   UNL     1      22.230  29.264  12.307  1.00  0.00    -0.003 NA
ENDBRANCH  27  28
ENDBRANCH  26  27
ENDBRANCH  25  26
ENDBRANCH  19  25
BRANCH  20  31
ATOM     31  O   UNL     1      24.349  36.771  11.423  1.00  0.00    -0.387 OA
ATOM     32  H   UNL     1      25.294  37.007  11.692  1.00  0.00     0.211 HD
ENDBRANCH  20  31
BRANCH  21  33
ATOM     33  O   UNL     1      25.538  36.154  14.140  1.00  0.00    -0.385 OA
ATOM     34  H   UNL     1      26.439  35.793  14.072  1.00  0.00     0.211 HD
ENDBRANCH  21  33
ENDBRANCH  15  16
ENDBRANCH  10  15
BRANCH  12  35
ATOM     35  O   UNL     1      19.454  34.132  10.183  1.00  0.00    -0.385 OA
ATOM     36  H   UNL     1      18.818  34.468  10.858  1.00  0.00     0.211 HD
ENDBRANCH  12  35
BRANCH  13  37
ATOM     37  O   UNL     1      18.730  35.278   7.686  1.00  0.00    -0.387 OA
ATOM     38  H   UNL     1      18.153  35.480   8.466  1.00  0.00     0.211 HD
ENDBRANCH  13  37
BRANCH  14  39
ATOM     39  O   UNL     1      20.069  37.532   7.460  1.00  0.00    -0.387 OA
ATOM     40  H   UNL     1      19.345  37.420   6.787  1.00  0.00     0.211 HD
ENDBRANCH  14  39
ENDBRANCH   8   9
ENDBRANCH   7   8
ENDBRANCH   1   7
BRANCH   1  41
ATOM     41  C   UNL     1      24.165  40.657   9.322  1.00  0.00     0.364 C 
ATOM     42  O   UNL     1      23.511  41.758   9.177  1.00  0.00    -0.246 OA
BRANCH  41  43
ATOM     43  O   UNL     1      25.207  40.736  10.209  1.00  0.00    -0.477 OA
ATOM     44  H   UNL     1      26.113  41.074   9.920  1.00  0.00     0.296 HD
ENDBRANCH  41  43
ENDBRANCH   1  41
BRANCH   3  45
ATOM     45  O   UNL     1      25.455  40.502   5.380  1.00  0.00    -0.391 OA
ATOM     46  H   UNL     1      25.856  41.393   5.262  1.00  0.00     0.211 HD
ENDBRANCH   3  45
BRANCH   5  47
ATOM     47  C   UNL     1      25.742  36.744   7.516  1.00  0.00     0.176 C 
BRANCH  47  48
ATOM     48  O   UNL     1      26.575  36.780   6.369  1.00  0.00    -0.388 OA
ATOM     49  H   UNL     1      26.154  37.291   5.650  1.00  0.00     0.211 HD
ENDBRANCH  47  48
BRANCH  47  50
ATOM     50  C   UNL     1      26.089  35.628   8.412  1.00  0.00     0.165 C 
BRANCH  50  51
ATOM     51  O   UNL     1      25.066  35.301   9.275  1.00  0.00    -0.388 OA
ATOM     52  H   UNL     1      24.813  36.036   9.887  1.00  0.00     0.211 HD
ENDBRANCH  50  51
BRANCH  50  53
ATOM     53  C   UNL     1      27.389  35.689   9.137  1.00  0.00     0.154 C 
BRANCH  53  54
ATOM     54  N   UNL     1      27.388  36.341  10.401  1.00  0.00    -0.319 N 
ATOM     55  C   UNL     1      27.985  35.645  11.507  1.00  0.00     0.407 C 
ATOM     56  H   UNL     1      26.970  37.267  10.585  1.00  0.00     0.167 HD
ATOM     57  O   UNL     1      28.485  34.485  11.308  1.00  0.00    -0.225 OA
BRANCH  55  58
ATOM     58  O   UNL     1      28.014  36.223  12.744  1.00  0.00    -0.443 OA
BRANCH  58  59
ATOM     59  C   UNL     1      28.823  37.330  13.050  1.00  0.00     0.294 C 
BRANCH  59  60
ATOM     60  C   UNL     1      30.133  36.887  13.578  1.00  0.00     0.120 A 
ATOM     61  C   UNL     1      30.546  35.619  13.968  1.00  0.00     0.138 A 
ATOM     62  N   UNL     1      31.213  37.660  13.777  1.00  0.00    -0.132 NA
ATOM     63  N   UNL     1      31.821  35.655  14.383  1.00  0.00    -0.248 N 
ATOM     64  N   UNL     1      32.201  36.929  14.251  1.00  0.00    -0.067 NA
BRANCH  63  65
ATOM     65  C   UNL     1      32.677  34.576  14.886  1.00  0.00     0.185 C 
BRANCH  65  66
ATOM     66  C   UNL     1      31.997  33.978  16.058  1.00  0.00     0.018 A 
ATOM     67  C   UNL     1      32.114  34.602  17.285  1.00  0.00     0.025 A 
ATOM     68  C   UNL     1      31.246  32.812  15.968  1.00  0.00     0.134 A 
ATOM     69  C   UNL     1      31.503  34.099  18.423  1.00  0.00     0.019 A 
ATOM     70  C   UNL     1      30.623  32.285  17.088  1.00  0.00     0.061 A 
ATOM     71  Br  UNL     1      31.691  34.993  20.093  1.00  0.00    -0.051 Br
ATOM     72  C   UNL     1      30.765  32.946  18.308  1.00  0.00     0.035 A 
ATOM     73  Br  UNL     1      29.607  30.700  16.939  1.00  0.00    -0.047 Br
BRANCH  68  74
ATOM     74  O   UNL     1      31.170  32.237  14.715  1.00  0.00    -0.506 OA
ATOM     75  H   UNL     1      31.976  32.258  14.111  1.00  0.00     0.293 HD
ENDBRANCH  68  74
ENDBRANCH  65  66
ENDBRANCH  63  65
ENDBRANCH  59  60
ENDBRANCH  58  59
ENDBRANCH  55  58
ENDBRANCH  53  54
ENDBRANCH  50  53
ENDBRANCH  47  50
ENDBRANCH   5  47
BRANCH   4  76
ATOM     76  N   UNL     1      27.558  39.634   7.515  1.00  0.00    -0.348 N 
ATOM     77  C   UNL     1      28.604  39.614   6.557  1.00  0.00     0.217 C 
ATOM     78  H   UNL     1      27.765  40.042   8.456  1.00  0.00     0.163 HD
ATOM     79  C   UNL     1      29.941  40.175   6.930  1.00  0.00     0.114 C 
ATOM     80  O   UNL     1      28.397  39.124   5.396  1.00  0.00    -0.275 OA
ENDBRANCH   4  76
TORSDOF 32
BEGIN_RES LYS A 131
REMARK  4 active torsions:
REMARK  status: ('A' for Active; 'I' for Inactive)
REMARK    1  A    between atoms: CA   and  CB  
REMARK    2  A    between atoms: CB   and  CG  
REMARK    3  A    between atoms: CG   and  CD  
REMARK    4  A    between atoms: CD   and  CE  
ROOT
ATOM      1  CA  LYS A 131      29.867  25.555  16.977  1.00 20.52     0.186 C 
ENDROOT
BRANCH   1   2
ATOM      2  CB  LYS A 131      28.345  25.722  17.026  1.00 20.94     0.034 C 
BRANCH   2   3
ATOM      3  CG  LYS A 131      27.601  24.402  16.889  1.00 22.96     0.005 C 
BRANCH   3   4
ATOM      4  CD  LYS A 131      26.225  24.462  17.492  1.00 24.33     0.041 C 
BRANCH   4   5
ATOM      5  CE  LYS A 131      26.195  25.525  18.586  1.00 26.91     0.338 C 
ATOM      6  NZ  LYS A 131      25.017  26.408  18.419  1.00 27.40     0.618 N 
ENDBRANCH   4   5
ENDBRANCH   3   4
ENDBRANCH   2   3
ENDBRANCH   1   2
END_RES LYS A 131
BEGIN_RES LYS A 135
REMARK  4 active torsions:
REMARK  status: ('A' for Active; 'I' for Inactive)
REMARK    5  A    between atoms: CA   and  CB  
REMARK    6  A    between atoms: CB   and  CG  
REMARK    7  A    between atoms: CG   and  CD  
REMARK    8  A    between atoms: CD   and  CE  
ROOT
ATOM      7  CA  LYS A 135      33.193  34.663   9.290  1.00 25.02     0.186 C 
ENDROOT
BRANCH   7   8
ATOM      8  CB  LYS A 135      32.060  35.360  10.034  1.00 26.63     0.034 C 
BRANCH   8   9
ATOM      9  CG  LYS A 135      30.899  35.734   9.150  1.00 29.45     0.005 C 
BRANCH   9  10
ATOM     10  CD  LYS A 135      30.710  37.242   9.120  1.00 32.00     0.041 C 
BRANCH  10  11
ATOM     11  CE  LYS A 135      31.436  37.893  10.282  1.00 34.25     0.338 C 
ATOM     12  NZ  LYS A 135      31.082  39.335  10.397  1.00 35.99     0.618 N 
ENDBRANCH  10  11
ENDBRANCH   9  10
ENDBRANCH   8   9
ENDBRANCH   7   8
END_RES LYS A 135
