REMARK VINA RESULT:    -4.260      3.743     10.209
REMARK INTER + INTRA:         -24.556
REMARK INTER:                 -12.821
REMARK INTRA:                 -11.735
REMARK UNBOUND:               -13.073
REMARK SMILES CC(=O)N[C@@H]1[C@@H](O)C[C@](OC[C@H]2O[C@@H](O[C@H]3[C@H](O)[C@@H](O)[C@H](OCCN=[N+]=[N-])O[C@@H]3CO)[C@H](O)[C@@H](O)[C@H]2O)(C(=O)O)O[C@H]1C(O)[C@H](O)CNC(=O)OCc1cn(C[C@@H](C)CN2CCN(c3ccc(Cl)cc3)CC2)nn1
REMARK SMILES IDX 43 1 42 2 9 3 8 4 41 5 6 6 5 7 10 8 11 9 12 10 14 11 13 12
REMARK SMILES IDX 32 13 34 14 36 15 15 16 16 17 29 18 28 19 21 20 17 21 19 22
REMARK SMILES IDX 30 23 31 24 22 26 23 27 24 28 25 29 26 30 27 31 18 32 20 34
REMARK SMILES IDX 33 36 35 38 37 40 38 42 39 43 40 44 7 46 4 48 2 49 1 51 3 52
REMARK SMILES IDX 44 53 45 55 46 56 47 58 48 59 49 60 50 62 51 63 52 64 53 65
REMARK SMILES IDX 54 66 74 67 55 68 73 69 56 70 57 71 58 72 59 73 60 74 61 75
REMARK SMILES IDX 72 76 62 77 71 78 63 79 64 80 65 81 70 82 66 83 69 84 67 85
REMARK SMILES IDX 68 86
REMARK H PARENT 31 25 18 33 20 35 33 37 35 39 37 41 40 45 7 47 4 50 44 54
REMARK H PARENT 46 57 48 61
REMARK Flexibility Score: inf
ROOT
ATOM      1  C   UNL     1      26.876  31.556  15.484  1.00  0.00     0.176 C 
ENDROOT
BRANCH   1   2
ATOM      2  C   UNL     1      28.040  31.993  16.362  1.00  0.00     0.178 C 
ATOM      3  C   UNL     1      29.852  33.501  16.517  1.00  0.00     0.272 C 
ATOM      4  C   UNL     1      30.419  32.534  17.434  1.00  0.00     0.113 C 
ATOM      5  O   UNL     1      28.839  32.882  15.721  1.00  0.00    -0.332 OA
ATOM      6  C   UNL     1      30.220  31.097  16.990  1.00  0.00     0.145 C 
ATOM      7  C   UNL     1      28.708  30.834  17.020  1.00  0.00     0.142 C 
BRANCH   3   8
ATOM      8  O   UNL     1      30.601  34.147  15.628  1.00  0.00    -0.338 OA
BRANCH   8   9
ATOM      9  C   UNL     1      30.811  33.879  14.366  1.00  0.00     0.199 C 
BRANCH   9  10
ATOM     10  C   UNL     1      31.136  34.928  13.343  1.00  0.00     0.179 C 
ATOM     11  C   UNL     1      30.559  37.177  13.110  1.00  0.00     0.282 C 
ATOM     12  O   UNL     1      30.161  35.869  13.174  1.00  0.00    -0.341 OA
ATOM     13  C   UNL     1      31.167  37.576  14.441  1.00  0.00     0.202 C 
ATOM     14  C   UNL     1      32.327  36.676  14.716  1.00  0.00     0.179 C 
ATOM     15  C   UNL     1      32.477  35.571  13.726  1.00  0.00     0.177 C 
BRANCH  11  16
ATOM     16  O   UNL     1      29.376  37.936  12.943  1.00  0.00    -0.341 OA
BRANCH  16  17
ATOM     17  C   UNL     1      28.338  37.318  13.593  1.00  0.00     0.184 C 
ATOM     18  C   UNL     1      27.269  36.817  12.644  1.00  0.00     0.178 C 
ATOM     19  O   UNL     1      26.084  37.483  12.714  1.00  0.00    -0.341 OA
ATOM     20  C   UNL     1      25.489  37.554  13.960  1.00  0.00     0.281 C 
ATOM     21  C   UNL     1      27.730  38.211  14.670  1.00  0.00     0.180 C 
ATOM     22  C   UNL     1      26.451  37.541  15.116  1.00  0.00     0.202 C 
BRANCH  18  23
ATOM     23  C   UNL     1      27.117  35.305  12.704  1.00  0.00     0.191 C 
BRANCH  23  24
ATOM     24  O   UNL     1      27.610  34.778  13.871  1.00  0.00    -0.394 OA
ATOM     25  H   UNL     1      28.589  34.603  13.722  1.00  0.00     0.210 HD
ENDBRANCH  23  24
ENDBRANCH  18  23
BRANCH  20  26
ATOM     26  O   UNL     1      24.522  36.572  14.143  1.00  0.00    -0.350 OA
BRANCH  26  27
ATOM     27  C   UNL     1      23.227  37.002  14.117  1.00  0.00     0.169 C 
BRANCH  27  28
ATOM     28  C   UNL     1      22.330  36.138  14.958  1.00  0.00     0.119 C 
BRANCH  28  29
ATOM     29  N   UNL     1      23.142  35.377  15.895  1.00  0.00    -0.092 NA
ATOM     30  N   UNL     1      22.586  34.609  16.701  1.00  0.00     0.001 N 
ATOM     31  N   UNL     1      21.918  33.895  17.438  1.00  0.00    -0.003 NA
ENDBRANCH  28  29
ENDBRANCH  27  28
ENDBRANCH  26  27
ENDBRANCH  20  26
BRANCH  21  32
ATOM     32  O   UNL     1      28.571  38.290  15.778  1.00  0.00    -0.387 OA
ATOM     33  H   UNL     1      28.374  39.177  16.199  1.00  0.00     0.211 HD
ENDBRANCH  21  32
BRANCH  22  34
ATOM     34  O   UNL     1      25.888  38.323  16.155  1.00  0.00    -0.385 OA
ATOM     35  H   UNL     1      26.537  38.601  16.819  1.00  0.00     0.211 HD
ENDBRANCH  22  34
ENDBRANCH  16  17
ENDBRANCH  11  16
BRANCH  13  36
ATOM     36  O   UNL     1      31.510  38.915  14.373  1.00  0.00    -0.385 OA
ATOM     37  H   UNL     1      32.378  39.014  14.863  1.00  0.00     0.211 HD
ENDBRANCH  13  36
BRANCH  14  38
ATOM     38  O   UNL     1      32.333  36.176  16.025  1.00  0.00    -0.387 OA
ATOM     39  H   UNL     1      33.237  35.892  16.293  1.00  0.00     0.211 HD
ENDBRANCH  14  38
BRANCH  15  40
ATOM     40  O   UNL     1      33.316  34.592  14.199  1.00  0.00    -0.387 OA
ATOM     41  H   UNL     1      33.780  34.110  13.476  1.00  0.00     0.211 HD
ENDBRANCH  15  40
ENDBRANCH   9  10
ENDBRANCH   8   9
ENDBRANCH   3   8
BRANCH   3  42
ATOM     42  C   UNL     1      29.013  34.509  17.278  1.00  0.00     0.364 C 
ATOM     43  O   UNL     1      28.337  35.394  16.646  1.00  0.00    -0.246 OA
BRANCH  42  44
ATOM     44  O   UNL     1      28.918  34.560  18.645  1.00  0.00    -0.477 OA
ATOM     45  H   UNL     1      29.702  34.841  19.222  1.00  0.00     0.296 HD
ENDBRANCH  42  44
ENDBRANCH   3  42
BRANCH   6  46
ATOM     46  O   UNL     1      30.700  31.004  15.684  1.00  0.00    -0.391 OA
ATOM     47  H   UNL     1      30.201  30.331  15.161  1.00  0.00     0.211 HD
ENDBRANCH   6  46
BRANCH   7  48
ATOM     48  N   UNL     1      28.330  30.686  18.411  1.00  0.00    -0.348 N 
ATOM     49  C   UNL     1      27.685  29.502  18.850  1.00  0.00     0.217 C 
ATOM     50  H   UNL     1      28.513  31.436  19.134  1.00  0.00     0.163 HD
ATOM     51  C   UNL     1      27.308  29.388  20.304  1.00  0.00     0.114 C 
ATOM     52  O   UNL     1      27.411  28.537  18.082  1.00  0.00    -0.275 OA
ENDBRANCH   7  48
ENDBRANCH   1   2
BRANCH   1  53
ATOM     53  O   UNL     1      26.586  30.232  15.811  1.00  0.00    -0.388 OA
ATOM     54  H   UNL     1      26.921  30.003  16.708  1.00  0.00     0.211 HD
ENDBRANCH   1  53
BRANCH   1  55
ATOM     55  C   UNL     1      25.613  32.339  15.710  1.00  0.00     0.165 C 
BRANCH  55  56
ATOM     56  O   UNL     1      25.786  33.673  15.969  1.00  0.00    -0.388 OA
ATOM     57  H   UNL     1      24.957  34.129  16.195  1.00  0.00     0.211 HD
ENDBRANCH  55  56
BRANCH  55  58
ATOM     58  C   UNL     1      24.663  31.720  16.677  1.00  0.00     0.154 C 
BRANCH  58  59
ATOM     59  N   UNL     1      23.434  31.372  15.961  1.00  0.00    -0.319 N 
ATOM     60  C   UNL     1      23.155  30.040  15.579  1.00  0.00     0.407 C 
ATOM     61  H   UNL     1      22.756  32.127  15.732  1.00  0.00     0.167 HD
ATOM     62  O   UNL     1      23.998  29.155  15.866  1.00  0.00    -0.225 OA
BRANCH  60  63
ATOM     63  O   UNL     1      21.981  29.732  14.906  1.00  0.00    -0.443 OA
BRANCH  63  64
ATOM     64  C   UNL     1      21.823  30.228  13.577  1.00  0.00     0.294 C 
BRANCH  64  65
ATOM     65  C   UNL     1      20.970  31.436  13.525  1.00  0.00     0.120 A 
ATOM     66  C   UNL     1      20.263  31.910  12.443  1.00  0.00     0.138 A 
ATOM     67  N   UNL     1      20.720  32.313  14.527  1.00  0.00    -0.132 NA
ATOM     68  N   UNL     1      19.638  33.018  12.830  1.00  0.00    -0.252 N 
ATOM     69  N   UNL     1      19.917  33.259  14.091  1.00  0.00    -0.067 NA
BRANCH  68  70
ATOM     70  C   UNL     1      18.787  33.833  11.961  1.00  0.00     0.150 C 
BRANCH  70  71
ATOM     71  C   UNL     1      19.624  34.525  10.882  1.00  0.00     0.022 C 
ATOM     72  C   UNL     1      18.650  34.910   9.789  1.00  0.00     0.011 C 
BRANCH  71  73
ATOM     73  C   UNL     1      20.290  35.727  11.475  1.00  0.00     0.089 C 
BRANCH  73  74
ATOM     74  N   UNL     1      21.610  36.019  11.096  1.00  0.00    -0.299 NA
ATOM     75  C   UNL     1      21.898  37.063  10.207  1.00  0.00     0.106 C 
ATOM     76  C   UNL     1      22.503  34.906  11.098  1.00  0.00     0.106 C 
ATOM     77  C   UNL     1      22.777  36.615   9.039  1.00  0.00     0.132 C 
ATOM     78  C   UNL     1      23.924  35.399  10.890  1.00  0.00     0.132 C 
ATOM     79  N   UNL     1      23.976  35.966   9.568  1.00  0.00    -0.369 N 
BRANCH  79  80
ATOM     80  C   UNL     1      25.130  35.911   8.777  1.00  0.00     0.037 A 
ATOM     81  C   UNL     1      25.980  34.808   8.783  1.00  0.00     0.027 A 
ATOM     82  C   UNL     1      25.505  36.942   7.925  1.00  0.00     0.027 A 
ATOM     83  C   UNL     1      27.114  34.726   8.011  1.00  0.00     0.022 A 
ATOM     84  C   UNL     1      26.643  36.862   7.148  1.00  0.00     0.022 A 
ATOM     85  C   UNL     1      27.464  35.757   7.178  1.00  0.00     0.041 A 
ATOM     86  Cl  UNL     1      28.893  35.653   6.204  1.00  0.00    -0.084 Cl
ENDBRANCH  79  80
ENDBRANCH  73  74
ENDBRANCH  71  73
ENDBRANCH  70  71
ENDBRANCH  68  70
ENDBRANCH  64  65
ENDBRANCH  63  64
ENDBRANCH  60  63
ENDBRANCH  58  59
ENDBRANCH  55  58
ENDBRANCH   1  55
TORSDOF 34
BEGIN_RES LYS A 131
REMARK  4 active torsions:
REMARK  status: ('A' for Active; 'I' for Inactive)
REMARK    1  A    between atoms: CA   and  CB  
REMARK    2  A    between atoms: CB   and  CG  
REMARK    3  A    between atoms: CG   and  CD  
REMARK    4  A    between atoms: CD   and  CE  
ROOT
ATOM      1  CA  LYS A 131      29.867  25.555  16.977  1.00 20.52     0.186 C 
ENDROOT
BRANCH   1   2
ATOM      2  CB  LYS A 131      28.345  25.722  17.026  1.00 20.94     0.034 C 
BRANCH   2   3
ATOM      3  CG  LYS A 131      27.601  24.402  16.896  1.00 22.96     0.005 C 
BRANCH   3   4
ATOM      4  CD  LYS A 131      26.523  24.255  17.934  1.00 24.33     0.041 C 
BRANCH   4   5
ATOM      5  CE  LYS A 131      25.188  23.986  17.246  1.00 26.91     0.338 C 
ATOM      6  NZ  LYS A 131      24.744  22.595  17.501  1.00 27.40     0.618 N 
ENDBRANCH   4   5
ENDBRANCH   3   4
ENDBRANCH   2   3
ENDBRANCH   1   2
END_RES LYS A 131
BEGIN_RES LYS A 135
REMARK  4 active torsions:
REMARK  status: ('A' for Active; 'I' for Inactive)
REMARK    5  A    between atoms: CA   and  CB  
REMARK    6  A    between atoms: CB   and  CG  
REMARK    7  A    between atoms: CG   and  CD  
REMARK    8  A    between atoms: CD   and  CE  
ROOT
ATOM      7  CA  LYS A 135      33.193  34.663   9.290  1.00 25.02     0.186 C 
ENDROOT
BRANCH   7   8
ATOM      8  CB  LYS A 135      32.060  35.360  10.034  1.00 26.63     0.034 C 
BRANCH   8   9
ATOM      9  CG  LYS A 135      30.696  35.072   9.461  1.00 29.45     0.005 C 
BRANCH   9  10
ATOM     10  CD  LYS A 135      29.757  36.245   9.697  1.00 32.00     0.041 C 
BRANCH  10  11
ATOM     11  CE  LYS A 135      30.488  37.560   9.505  1.00 34.25     0.338 C 
ATOM     12  NZ  LYS A 135      30.087  38.216   8.230  1.00 35.99     0.618 N 
ENDBRANCH  10  11
ENDBRANCH   9  10
ENDBRANCH   8   9
ENDBRANCH   7   8
END_RES LYS A 135
