REMARK VINA RESULT:    -5.192      3.484      9.543
REMARK INTER + INTRA:         -24.154
REMARK INTER:                 -12.190
REMARK INTRA:                 -11.964
REMARK UNBOUND:               -10.617
REMARK SMILES CC(=O)N[C@@H]1[C@@H](O)C[C@](OC[C@H]2O[C@@H](O[C@H]3[C@H](O)[C@@H](O)[C@H](OCCN=[N+]=[N-])O[C@@H]3CO)[C@H](O)[C@@H](O)[C@H]2O)(C(=O)O)O[C@H]1C(O)[C@H](O)CNC(=O)OCc1cn(-c2ccc(S(=O)(=O)c3ccc(N)cc3)cc2)nn1
REMARK SMILES IDX 43 1 42 2 9 3 8 4 41 5 6 6 5 7 10 8 11 9 12 10 14 11 13 12
REMARK SMILES IDX 32 13 34 14 36 15 15 16 16 17 29 18 28 19 21 20 17 21 19 22
REMARK SMILES IDX 30 23 31 24 22 26 23 27 24 28 25 29 26 30 27 31 18 32 20 34
REMARK SMILES IDX 33 36 35 38 37 40 38 42 39 43 40 44 7 46 4 48 2 49 1 51 3 52
REMARK SMILES IDX 44 53 45 55 46 56 47 58 48 59 49 60 50 62 51 63 52 64 53 65
REMARK SMILES IDX 54 66 73 67 55 68 72 69 56 70 57 71 71 72 58 73 70 74 59 75
REMARK SMILES IDX 60 76 61 77 62 78 63 79 64 80 69 81 65 82 68 83 66 84 67 85
REMARK H PARENT 31 25 18 33 20 35 33 37 35 39 37 41 40 45 7 47 4 50 44 54
REMARK H PARENT 46 57 48 61 67 86 67 87
REMARK Flexibility Score: inf
ROOT
ATOM      1  C   UNL     1      29.737  33.026  18.935  1.00  0.00     0.176 C 
ENDROOT
BRANCH   1   2
ATOM      2  C   UNL     1      29.143  31.710  18.433  1.00  0.00     0.178 C 
ATOM      3  C   UNL     1      27.474  30.796  17.118  1.00  0.00     0.272 C 
ATOM      4  C   UNL     1      27.176  29.781  18.173  1.00  0.00     0.113 C 
ATOM      5  O   UNL     1      28.031  31.956  17.687  1.00  0.00    -0.332 OA
ATOM      6  C   UNL     1      27.401  30.419  19.534  1.00  0.00     0.145 C 
ATOM      7  C   UNL     1      28.836  30.811  19.642  1.00  0.00     0.142 C 
BRANCH   3   8
ATOM      8  O   UNL     1      26.359  31.265  16.417  1.00  0.00    -0.338 OA
BRANCH   8   9
ATOM      9  C   UNL     1      25.229  30.509  16.502  1.00  0.00     0.199 C 
BRANCH   9  10
ATOM     10  C   UNL     1      24.092  31.223  15.806  1.00  0.00     0.179 C 
ATOM     11  C   UNL     1      23.432  33.229  14.938  1.00  0.00     0.282 C 
ATOM     12  O   UNL     1      24.539  32.501  15.450  1.00  0.00    -0.341 OA
ATOM     13  C   UNL     1      23.156  32.632  13.587  1.00  0.00     0.202 C 
ATOM     14  C   UNL     1      22.652  31.219  13.771  1.00  0.00     0.179 C 
ATOM     15  C   UNL     1      23.644  30.441  14.620  1.00  0.00     0.177 C 
BRANCH  11  16
ATOM     16  O   UNL     1      23.771  34.557  14.940  1.00  0.00    -0.341 OA
BRANCH  16  17
ATOM     17  C   UNL     1      24.981  34.767  15.642  1.00  0.00     0.184 C 
ATOM     18  C   UNL     1      24.713  35.759  16.729  1.00  0.00     0.178 C 
ATOM     19  O   UNL     1      25.547  36.844  16.755  1.00  0.00    -0.341 OA
ATOM     20  C   UNL     1      25.731  37.528  15.588  1.00  0.00     0.281 C 
ATOM     21  C   UNL     1      25.936  35.322  14.595  1.00  0.00     0.180 C 
ATOM     22  C   UNL     1      25.459  36.736  14.330  1.00  0.00     0.202 C 
BRANCH  18  23
ATOM     23  C   UNL     1      24.967  35.008  18.050  1.00  0.00     0.191 C 
BRANCH  23  24
ATOM     24  O   UNL     1      25.663  33.838  17.872  1.00  0.00    -0.394 OA
ATOM     25  H   UNL     1      25.950  33.394  18.708  1.00  0.00     0.210 HD
ENDBRANCH  23  24
ENDBRANCH  18  23
BRANCH  20  26
ATOM     26  O   UNL     1      27.065  37.916  15.533  1.00  0.00    -0.350 OA
BRANCH  26  27
ATOM     27  C   UNL     1      27.320  39.033  14.785  1.00  0.00     0.169 C 
BRANCH  27  28
ATOM     28  C   UNL     1      26.395  40.147  15.145  1.00  0.00     0.119 C 
BRANCH  28  29
ATOM     29  N   UNL     1      25.824  40.728  13.918  1.00  0.00    -0.092 NA
ATOM     30  N   UNL     1      24.975  40.122  13.265  1.00  0.00     0.001 N 
ATOM     31  N   UNL     1      23.855  39.762  12.863  1.00  0.00    -0.003 NA
ENDBRANCH  28  29
ENDBRANCH  27  28
ENDBRANCH  26  27
ENDBRANCH  20  26
BRANCH  21  32
ATOM     32  O   UNL     1      27.217  35.366  15.092  1.00  0.00    -0.387 OA
ATOM     33  H   UNL     1      27.839  34.854  14.507  1.00  0.00     0.211 HD
ENDBRANCH  21  32
BRANCH  22  34
ATOM     34  O   UNL     1      24.147  36.786  13.920  1.00  0.00    -0.385 OA
ATOM     35  H   UNL     1      24.037  37.191  13.020  1.00  0.00     0.211 HD
ENDBRANCH  22  34
ENDBRANCH  16  17
ENDBRANCH  11  16
BRANCH  13  36
ATOM     36  O   UNL     1      22.270  33.399  12.834  1.00  0.00    -0.385 OA
ATOM     37  H   UNL     1      22.758  34.255  12.609  1.00  0.00     0.211 HD
ENDBRANCH  13  36
BRANCH  14  38
ATOM     38  O   UNL     1      22.651  30.585  12.520  1.00  0.00    -0.387 OA
ATOM     39  H   UNL     1      23.171  29.762  12.558  1.00  0.00     0.211 HD
ENDBRANCH  14  38
BRANCH  15  40
ATOM     40  O   UNL     1      24.712  29.998  13.853  1.00  0.00    -0.387 OA
ATOM     41  H   UNL     1      25.379  30.715  13.751  1.00  0.00     0.211 HD
ENDBRANCH  15  40
ENDBRANCH   9  10
ENDBRANCH   8   9
ENDBRANCH   3   8
BRANCH   3  42
ATOM     42  C   UNL     1      28.436  30.317  16.089  1.00  0.00     0.364 C 
ATOM     43  O   UNL     1      29.214  31.044  15.428  1.00  0.00    -0.246 OA
BRANCH  42  44
ATOM     44  O   UNL     1      28.500  28.962  15.814  1.00  0.00    -0.477 OA
ATOM     45  H   UNL     1      29.263  28.371  16.180  1.00  0.00     0.296 HD
ENDBRANCH  42  44
ENDBRANCH   3  42
BRANCH   6  46
ATOM     46  O   UNL     1      26.640  31.592  19.538  1.00  0.00    -0.391 OA
ATOM     47  H   UNL     1      26.801  32.141  18.723  1.00  0.00     0.211 HD
ENDBRANCH   6  46
BRANCH   7  48
ATOM     48  N   UNL     1      29.769  29.731  19.697  1.00  0.00    -0.348 N 
ATOM     49  C   UNL     1      30.964  29.740  20.470  1.00  0.00     0.217 C 
ATOM     50  H   UNL     1      29.574  28.863  19.141  1.00  0.00     0.163 HD
ATOM     51  C   UNL     1      31.855  28.553  20.445  1.00  0.00     0.114 C 
ATOM     52  O   UNL     1      31.215  30.751  21.139  1.00  0.00    -0.275 OA
ENDBRANCH   7  48
ENDBRANCH   1   2
BRANCH   1  53
ATOM     53  O   UNL     1      31.115  32.940  19.047  1.00  0.00    -0.388 OA
ATOM     54  H   UNL     1      31.373  32.721  19.991  1.00  0.00     0.211 HD
ENDBRANCH   1  53
BRANCH   1  55
ATOM     55  C   UNL     1      29.256  34.199  18.171  1.00  0.00     0.165 C 
BRANCH  55  56
ATOM     56  O   UNL     1      29.280  33.948  16.796  1.00  0.00    -0.388 OA
ATOM     57  H   UNL     1      30.107  33.550  16.479  1.00  0.00     0.211 HD
ENDBRANCH  55  56
BRANCH  55  58
ATOM     58  C   UNL     1      30.153  35.399  18.384  1.00  0.00     0.154 C 
BRANCH  58  59
ATOM     59  N   UNL     1      30.907  35.770  17.220  1.00  0.00    -0.319 N 
ATOM     60  C   UNL     1      32.316  35.618  17.244  1.00  0.00     0.407 C 
ATOM     61  H   UNL     1      30.450  36.141  16.373  1.00  0.00     0.167 HD
ATOM     62  O   UNL     1      32.857  35.151  18.288  1.00  0.00    -0.225 OA
BRANCH  60  63
ATOM     63  O   UNL     1      33.155  35.946  16.203  1.00  0.00    -0.443 OA
BRANCH  63  64
ATOM     64  C   UNL     1      33.318  35.171  15.035  1.00  0.00     0.294 C 
BRANCH  64  65
ATOM     65  C   UNL     1      31.980  34.917  14.446  1.00  0.00     0.121 A 
ATOM     66  C   UNL     1      31.224  35.682  13.581  1.00  0.00     0.144 A 
ATOM     67  N   UNL     1      31.223  33.794  14.661  1.00  0.00    -0.131 NA
ATOM     68  N   UNL     1      30.061  35.018  13.301  1.00  0.00    -0.220 N 
ATOM     69  N   UNL     1      30.108  33.894  13.972  1.00  0.00    -0.062 NA
BRANCH  68  70
ATOM     70  C   UNL     1      29.010  35.426  12.451  1.00  0.00     0.066 A 
ATOM     71  C   UNL     1      28.238  34.479  11.772  1.00  0.00     0.030 A 
ATOM     72  C   UNL     1      28.684  36.741  12.237  1.00  0.00     0.030 A 
ATOM     73  C   UNL     1      27.206  34.824  10.935  1.00  0.00     0.023 A 
ATOM     74  C   UNL     1      27.636  37.100  11.387  1.00  0.00     0.023 A 
ATOM     75  C   UNL     1      26.889  36.148  10.729  1.00  0.00     0.072 A 
BRANCH  75  76
ATOM     76  S   UNL     1      25.572  36.600   9.666  1.00  0.00     0.206 S 
ATOM     77  O   UNL     1      24.920  37.856  10.223  1.00  0.00    -0.219 OA
ATOM     78  O   UNL     1      24.577  35.507   9.469  1.00  0.00    -0.219 OA
BRANCH  76  79
ATOM     79  C   UNL     1      26.244  37.076   8.106  1.00  0.00     0.072 A 
ATOM     80  C   UNL     1      26.915  36.166   7.336  1.00  0.00     0.023 A 
ATOM     81  C   UNL     1      26.104  38.364   7.644  1.00  0.00     0.023 A 
ATOM     82  C   UNL     1      27.432  36.545   6.131  1.00  0.00     0.027 A 
ATOM     83  C   UNL     1      26.630  38.731   6.432  1.00  0.00     0.027 A 
ATOM     84  C   UNL     1      27.305  37.844   5.642  1.00  0.00     0.031 A 
BRANCH  84  85
ATOM     85  N   UNL     1      27.857  38.194   4.391  1.00  0.00    -0.399 N 
ATOM     86  H   UNL     1      28.838  38.494   4.305  1.00  0.00     0.156 HD
ATOM     87  H   UNL     1      27.268  38.149   3.542  1.00  0.00     0.156 HD
ENDBRANCH  84  85
ENDBRANCH  76  79
ENDBRANCH  75  76
ENDBRANCH  68  70
ENDBRANCH  64  65
ENDBRANCH  63  64
ENDBRANCH  60  63
ENDBRANCH  58  59
ENDBRANCH  55  58
ENDBRANCH   1  55
TORSDOF 33
BEGIN_RES LYS A 131
REMARK  4 active torsions:
REMARK  status: ('A' for Active; 'I' for Inactive)
REMARK    1  A    between atoms: CA   and  CB  
REMARK    2  A    between atoms: CB   and  CG  
REMARK    3  A    between atoms: CG   and  CD  
REMARK    4  A    between atoms: CD   and  CE  
ROOT
ATOM      1  CA  LYS A 131      29.867  25.555  16.977  1.00 20.52     0.186 C 
ENDROOT
BRANCH   1   2
ATOM      2  CB  LYS A 131      28.345  25.722  17.026  1.00 20.94     0.034 C 
BRANCH   2   3
ATOM      3  CG  LYS A 131      27.601  24.400  16.907  1.00 22.96     0.005 C 
BRANCH   3   4
ATOM      4  CD  LYS A 131      26.624  24.198  18.032  1.00 24.33     0.041 C 
BRANCH   4   5
ATOM      5  CE  LYS A 131      26.166  25.554  18.559  1.00 26.91     0.338 C 
ATOM      6  NZ  LYS A 131      25.697  25.434  19.960  1.00 27.40     0.618 N 
ENDBRANCH   4   5
ENDBRANCH   3   4
ENDBRANCH   2   3
ENDBRANCH   1   2
END_RES LYS A 131
BEGIN_RES LYS A 135
REMARK  4 active torsions:
REMARK  status: ('A' for Active; 'I' for Inactive)
REMARK    5  A    between atoms: CA   and  CB  
REMARK    6  A    between atoms: CB   and  CG  
REMARK    7  A    between atoms: CG   and  CD  
REMARK    8  A    between atoms: CD   and  CE  
ROOT
ATOM      7  CA  LYS A 135      33.193  34.663   9.290  1.00 25.02     0.186 C 
ENDROOT
BRANCH   7   8
ATOM      8  CB  LYS A 135      32.060  35.360  10.034  1.00 26.63     0.034 C 
BRANCH   8   9
ATOM      9  CG  LYS A 135      30.748  35.336   9.293  1.00 29.45     0.005 C 
BRANCH   9  10
ATOM     10  CD  LYS A 135      30.344  36.741   8.871  1.00 32.00     0.041 C 
BRANCH  10  11
ATOM     11  CE  LYS A 135      31.134  37.777   9.647  1.00 34.25     0.338 C 
ATOM     12  NZ  LYS A 135      31.606  38.871   8.754  1.00 35.99     0.618 N 
ENDBRANCH  10  11
ENDBRANCH   9  10
ENDBRANCH   8   9
ENDBRANCH   7   8
END_RES LYS A 135
