REMARK VINA RESULT:    -4.709      2.398      6.163
REMARK INTER + INTRA:         -22.132
REMARK INTER:                 -11.469
REMARK INTRA:                 -10.662
REMARK UNBOUND:               -10.541
REMARK SMILES CC(=O)N[C@@H]1[C@@H](O)C[C@](OC[C@H]2O[C@@H](O[C@H]3[C@H](O)[C@@H](O)[C@H](OCCN=[N+]=[N-])O[C@@H]3CO)[C@H](O)[C@@H](O)[C@H]2O)(C(=O)O)O[C@H]1C(O)[C@H](O)CNC(=O)OCc1cn(-c2ccccc2)nn1
REMARK SMILES IDX 9 1 8 2 6 3 5 4 42 5 41 6 10 7 11 8 12 9 14 10 13 11 32 12
REMARK SMILES IDX 34 13 36 14 15 15 16 16 29 17 28 18 21 19 17 20 19 21 30 22
REMARK SMILES IDX 31 23 22 25 23 26 24 27 25 28 26 29 27 30 18 31 20 33 33 35
REMARK SMILES IDX 35 37 37 39 38 41 39 42 40 43 7 45 43 47 44 48 45 50 46 51
REMARK SMILES IDX 47 53 48 54 49 55 50 57 51 58 52 59 53 60 54 61 63 62 55 63
REMARK SMILES IDX 62 64 56 65 57 66 61 67 58 68 60 69 59 70 4 71 2 72 1 74
REMARK SMILES IDX 3 75
REMARK H PARENT 31 24 18 32 20 34 33 36 35 38 37 40 40 44 7 46 44 49 46 52
REMARK H PARENT 48 56 4 73
REMARK Flexibility Score: inf
ROOT
ATOM      1  C   UNL     1      29.572  32.471  17.261  1.00  0.00     0.272 C 
ATOM      2  C   UNL     1      30.163  31.389  18.086  1.00  0.00     0.113 C 
ATOM      3  C   UNL     1      29.211  30.679  18.973  1.00  0.00     0.145 C 
ATOM      4  C   UNL     1      27.900  30.423  18.252  1.00  0.00     0.142 C 
ATOM      5  C   UNL     1      27.386  31.780  17.826  1.00  0.00     0.178 C 
ATOM      6  O   UNL     1      28.235  32.202  16.837  1.00  0.00    -0.332 OA
ENDROOT
BRANCH   1   7
ATOM      7  O   UNL     1      30.198  32.709  16.072  1.00  0.00    -0.338 OA
BRANCH   7   8
ATOM      8  C   UNL     1      31.475  33.020  15.944  1.00  0.00     0.199 C 
BRANCH   8   9
ATOM      9  C   UNL     1      31.985  33.964  14.927  1.00  0.00     0.179 C 
ATOM     10  C   UNL     1      31.209  35.116  13.052  1.00  0.00     0.282 C 
ATOM     11  O   UNL     1      30.929  34.078  13.967  1.00  0.00    -0.341 OA
ATOM     12  C   UNL     1      32.578  35.697  13.181  1.00  0.00     0.202 C 
ATOM     13  C   UNL     1      32.813  36.247  14.571  1.00  0.00     0.179 C 
ATOM     14  C   UNL     1      32.105  35.359  15.553  1.00  0.00     0.177 C 
BRANCH  10  15
ATOM     15  O   UNL     1      30.296  36.088  13.242  1.00  0.00    -0.341 OA
BRANCH  15  16
ATOM     16  C   UNL     1      29.146  36.142  12.545  1.00  0.00     0.184 C 
ATOM     17  C   UNL     1      28.138  37.154  13.037  1.00  0.00     0.178 C 
ATOM     18  O   UNL     1      26.885  36.687  12.593  1.00  0.00    -0.341 OA
ATOM     19  C   UNL     1      26.492  35.729  13.552  1.00  0.00     0.281 C 
ATOM     20  C   UNL     1      28.447  34.786  12.440  1.00  0.00     0.180 C 
ATOM     21  C   UNL     1      27.499  34.599  13.607  1.00  0.00     0.202 C 
BRANCH  17  22
ATOM     22  C   UNL     1      28.340  38.519  12.416  1.00  0.00     0.191 C 
BRANCH  22  23
ATOM     23  O   UNL     1      28.361  38.373  11.027  1.00  0.00    -0.394 OA
ATOM     24  H   UNL     1      28.827  37.520  10.756  1.00  0.00     0.210 HD
ENDBRANCH  22  23
ENDBRANCH  17  22
BRANCH  19  25
ATOM     25  O   UNL     1      25.262  35.208  13.289  1.00  0.00    -0.350 OA
BRANCH  25  26
ATOM     26  C   UNL     1      24.444  35.900  12.438  1.00  0.00     0.169 C 
BRANCH  26  27
ATOM     27  C   UNL     1      24.023  35.156  11.211  1.00  0.00     0.119 C 
BRANCH  27  28
ATOM     28  N   UNL     1      24.117  35.954  10.044  1.00  0.00    -0.092 NA
ATOM     29  N   UNL     1      25.214  36.248   9.533  1.00  0.00     0.001 N 
ATOM     30  N   UNL     1      26.355  36.709   9.369  1.00  0.00    -0.003 NA
ENDBRANCH  27  28
ENDBRANCH  26  27
ENDBRANCH  25  26
ENDBRANCH  19  25
BRANCH  20  31
ATOM     31  O   UNL     1      27.698  34.650  11.279  1.00  0.00    -0.387 OA
ATOM     32  H   UNL     1      27.326  33.738  11.191  1.00  0.00     0.211 HD
ENDBRANCH  20  31
BRANCH  21  33
ATOM     33  O   UNL     1      28.152  34.577  14.822  1.00  0.00    -0.385 OA
ATOM     34  H   UNL     1      28.838  35.278  14.915  1.00  0.00     0.211 HD
ENDBRANCH  21  33
ENDBRANCH  15  16
ENDBRANCH  10  15
BRANCH  12  35
ATOM     35  O   UNL     1      33.603  34.881  12.723  1.00  0.00    -0.385 OA
ATOM     36  H   UNL     1      33.366  34.596  11.803  1.00  0.00     0.211 HD
ENDBRANCH  12  35
BRANCH  13  37
ATOM     37  O   UNL     1      32.267  37.514  14.646  1.00  0.00    -0.387 OA
ATOM     38  H   UNL     1      32.816  38.165  15.150  1.00  0.00     0.211 HD
ENDBRANCH  13  37
BRANCH  14  39
ATOM     39  O   UNL     1      30.775  35.794  15.761  1.00  0.00    -0.387 OA
ATOM     40  H   UNL     1      30.751  36.701  16.128  1.00  0.00     0.211 HD
ENDBRANCH  14  39
ENDBRANCH   8   9
ENDBRANCH   7   8
ENDBRANCH   1   7
BRANCH   1  41
ATOM     41  C   UNL     1      29.390  33.688  18.084  1.00  0.00     0.364 C 
ATOM     42  O   UNL     1      29.906  33.807  19.195  1.00  0.00    -0.246 OA
BRANCH  41  43
ATOM     43  O   UNL     1      28.603  34.756  17.604  1.00  0.00    -0.477 OA
ATOM     44  H   UNL     1      28.964  35.308  16.828  1.00  0.00     0.296 HD
ENDBRANCH  41  43
ENDBRANCH   1  41
BRANCH   3  45
ATOM     45  O   UNL     1      29.786  29.492  19.423  1.00  0.00    -0.391 OA
ATOM     46  H   UNL     1      30.279  29.703  20.235  1.00  0.00     0.211 HD
ENDBRANCH   3  45
BRANCH   5  47
ATOM     47  C   UNL     1      26.004  31.669  17.191  1.00  0.00     0.176 C 
BRANCH  47  48
ATOM     48  O   UNL     1      25.077  31.676  18.198  1.00  0.00    -0.388 OA
ATOM     49  H   UNL     1      25.009  32.526  18.686  1.00  0.00     0.211 HD
ENDBRANCH  47  48
BRANCH  47  50
ATOM     50  C   UNL     1      25.704  32.645  16.131  1.00  0.00     0.165 C 
BRANCH  50  51
ATOM     51  O   UNL     1      25.817  33.936  16.737  1.00  0.00    -0.388 OA
ATOM     52  H   UNL     1      25.118  33.977  17.414  1.00  0.00     0.211 HD
ENDBRANCH  50  51
BRANCH  50  53
ATOM     53  C   UNL     1      24.230  32.590  15.697  1.00  0.00     0.154 C 
BRANCH  53  54
ATOM     54  N   UNL     1      23.901  31.340  15.059  1.00  0.00    -0.319 N 
ATOM     55  C   UNL     1      24.107  31.136  13.651  1.00  0.00     0.407 C 
ATOM     56  H   UNL     1      23.505  30.524  15.571  1.00  0.00     0.167 HD
ATOM     57  O   UNL     1      24.592  32.041  12.936  1.00  0.00    -0.225 OA
BRANCH  55  58
ATOM     58  O   UNL     1      23.777  29.934  13.051  1.00  0.00    -0.443 OA
BRANCH  58  59
ATOM     59  C   UNL     1      22.480  29.708  12.510  1.00  0.00     0.294 C 
BRANCH  59  60
ATOM     60  C   UNL     1      21.789  28.816  13.487  1.00  0.00     0.121 A 
ATOM     61  C   UNL     1      22.461  28.051  14.430  1.00  0.00     0.144 A 
ATOM     62  N   UNL     1      20.491  28.561  13.676  1.00  0.00    -0.131 NA
ATOM     63  N   UNL     1      21.553  27.355  15.163  1.00  0.00    -0.220 N 
ATOM     64  N   UNL     1      20.377  27.687  14.680  1.00  0.00    -0.062 NA
BRANCH  63  65
ATOM     65  C   UNL     1      21.828  26.454  16.224  1.00  0.00     0.066 A 
ATOM     66  C   UNL     1      21.885  25.094  16.023  1.00  0.00     0.028 A 
ATOM     67  C   UNL     1      22.054  26.935  17.494  1.00  0.00     0.028 A 
ATOM     68  C   UNL     1      22.158  24.212  17.048  1.00  0.00     0.002 A 
ATOM     69  C   UNL     1      22.329  26.045  18.521  1.00  0.00     0.002 A 
ATOM     70  C   UNL     1      22.388  24.684  18.341  1.00  0.00     0.000 A 
ENDBRANCH  63  65
ENDBRANCH  59  60
ENDBRANCH  58  59
ENDBRANCH  55  58
ENDBRANCH  53  54
ENDBRANCH  50  53
ENDBRANCH  47  50
ENDBRANCH   5  47
BRANCH   4  71
ATOM     71  N   UNL     1      27.014  29.624  19.021  1.00  0.00    -0.348 N 
ATOM     72  C   UNL     1      26.632  28.348  18.532  1.00  0.00     0.217 C 
ATOM     73  H   UNL     1      26.643  29.930  19.940  1.00  0.00     0.163 HD
ATOM     74  C   UNL     1      25.702  27.485  19.322  1.00  0.00     0.114 C 
ATOM     75  O   UNL     1      27.053  27.888  17.427  1.00  0.00    -0.275 OA
ENDBRANCH   4  71
TORSDOF 30
BEGIN_RES LYS A 131
REMARK  4 active torsions:
REMARK  status: ('A' for Active; 'I' for Inactive)
REMARK    1  A    between atoms: CA   and  CB  
REMARK    2  A    between atoms: CB   and  CG  
REMARK    3  A    between atoms: CG   and  CD  
REMARK    4  A    between atoms: CD   and  CE  
ROOT
ATOM      1  CA  LYS A 131      29.867  25.555  16.977  1.00 20.52     0.186 C 
ENDROOT
BRANCH   1   2
ATOM      2  CB  LYS A 131      28.345  25.722  17.026  1.00 20.94     0.034 C 
BRANCH   2   3
ATOM      3  CG  LYS A 131      27.601  24.403  16.886  1.00 22.96     0.005 C 
BRANCH   3   4
ATOM      4  CD  LYS A 131      26.162  24.516  17.308  1.00 24.33     0.041 C 
BRANCH   4   5
ATOM      5  CE  LYS A 131      25.832  23.402  18.296  1.00 26.91     0.338 C 
ATOM      6  NZ  LYS A 131      25.159  22.278  17.604  1.00 27.40     0.618 N 
ENDBRANCH   4   5
ENDBRANCH   3   4
ENDBRANCH   2   3
ENDBRANCH   1   2
END_RES LYS A 131
BEGIN_RES LYS A 135
REMARK  4 active torsions:
REMARK  status: ('A' for Active; 'I' for Inactive)
REMARK    5  A    between atoms: CA   and  CB  
REMARK    6  A    between atoms: CB   and  CG  
REMARK    7  A    between atoms: CG   and  CD  
REMARK    8  A    between atoms: CD   and  CE  
ROOT
ATOM      7  CA  LYS A 135      33.193  34.663   9.290  1.00 25.02     0.186 C 
ENDROOT
BRANCH   7   8
ATOM      8  CB  LYS A 135      32.060  35.360  10.034  1.00 26.63     0.034 C 
BRANCH   8   9
ATOM      9  CG  LYS A 135      30.879  35.692   9.159  1.00 29.45     0.005 C 
BRANCH   9  10
ATOM     10  CD  LYS A 135      30.384  34.451   8.431  1.00 32.00     0.041 C 
BRANCH  10  11
ATOM     11  CE  LYS A 135      28.946  34.633   7.987  1.00 34.25     0.338 C 
ATOM     12  NZ  LYS A 135      28.861  35.525   6.797  1.00 35.99     0.618 N 
ENDBRANCH  10  11
ENDBRANCH   9  10
ENDBRANCH   8   9
ENDBRANCH   7   8
END_RES LYS A 135
