REMARK VINA RESULT:    -2.997      3.504      9.329
REMARK INTER + INTRA:         -21.142
REMARK INTER:                 -10.294
REMARK INTRA:                 -10.848
REMARK UNBOUND:               -13.239
REMARK SMILES CCOC(=O)Cn1cc(COC(=O)NC[C@@H](O)C(O)[C@@H]2O[C@@](OC[C@H]3O[C@@H](O[C@H]4[C@H](O)[C@@H](O)[C@H](OCCN=[N+]=[N-])O[C@@H]4CO)[C@H](O)[C@@H](O)[C@H]3O)(C(=O)O)C[C@H](O)[C@H]2NC(C)=O)nn1
REMARK SMILES IDX 18 1 20 2 22 3 54 4 21 5 55 6 57 7 23 8 24 9 25 10 27 11
REMARK SMILES IDX 26 12 45 13 47 14 49 15 28 16 29 17 42 18 41 19 34 20 30 21
REMARK SMILES IDX 32 22 43 23 44 24 35 26 36 27 37 28 38 29 39 30 40 31 31 32
REMARK SMILES IDX 33 34 46 36 48 38 50 40 51 42 52 43 53 44 56 46 58 48 59 49
REMARK SMILES IDX 60 51 61 52 19 53 16 55 17 56 15 58 14 59 12 60 13 62 11 63
REMARK SMILES IDX 10 64 9 65 8 66 62 67 7 68 63 69 6 70 4 71 5 72 3 73 2 74
REMARK SMILES IDX 1 75
REMARK H PARENT 44 25 31 33 33 35 46 37 48 39 50 41 53 45 56 47 58 50 19 54
REMARK H PARENT 17 57 14 61
REMARK Flexibility Score: inf
ROOT
ATOM      1  C   UNL     1      28.859  35.972  14.716  1.00  0.00     0.176 C 
ENDROOT
BRANCH   1   2
ATOM      2  C   UNL     1      29.976  36.055  15.720  1.00  0.00     0.178 C 
ATOM      3  C   UNL     1      31.995  35.022  16.292  1.00  0.00     0.272 C 
ATOM      4  C   UNL     1      31.815  35.816  17.539  1.00  0.00     0.113 C 
ATOM      5  O   UNL     1      31.113  35.436  15.270  1.00  0.00    -0.332 OA
ATOM      6  C   UNL     1      30.428  35.779  18.094  1.00  0.00     0.145 C 
ATOM      7  C   UNL     1      29.483  35.364  16.978  1.00  0.00     0.142 C 
BRANCH   3   8
ATOM      8  O   UNL     1      31.891  33.656  16.436  1.00  0.00    -0.338 OA
BRANCH   8   9
ATOM      9  C   UNL     1      31.257  32.951  15.471  1.00  0.00     0.199 C 
BRANCH   9  10
ATOM     10  C   UNL     1      30.677  31.674  16.110  1.00  0.00     0.179 C 
ATOM     11  C   UNL     1      29.957  30.776  18.123  1.00  0.00     0.282 C 
ATOM     12  O   UNL     1      30.680  31.746  17.467  1.00  0.00    -0.341 OA
ATOM     13  C   UNL     1      28.551  30.624  17.626  1.00  0.00     0.202 C 
ATOM     14  C   UNL     1      28.641  30.220  16.176  1.00  0.00     0.179 C 
ATOM     15  C   UNL     1      29.377  31.302  15.462  1.00  0.00     0.177 C 
BRANCH  11  16
ATOM     16  O   UNL     1      29.914  30.966  19.495  1.00  0.00    -0.341 OA
BRANCH  16  17
ATOM     17  C   UNL     1      31.068  30.658  20.168  1.00  0.00     0.184 C 
ATOM     18  C   UNL     1      30.945  29.428  21.041  1.00  0.00     0.178 C 
ATOM     19  O   UNL     1      30.972  29.754  22.390  1.00  0.00    -0.341 OA
ATOM     20  C   UNL     1      32.224  30.281  22.782  1.00  0.00     0.281 C 
ATOM     21  C   UNL     1      31.469  31.838  21.053  1.00  0.00     0.180 C 
ATOM     22  C   UNL     1      32.670  31.373  21.863  1.00  0.00     0.202 C 
BRANCH  18  23
ATOM     23  C   UNL     1      31.977  28.405  20.643  1.00  0.00     0.191 C 
BRANCH  23  24
ATOM     24  O   UNL     1      31.366  27.184  20.300  1.00  0.00    -0.394 OA
ATOM     25  H   UNL     1      30.647  26.958  20.924  1.00  0.00     0.210 HD
ENDBRANCH  23  24
ENDBRANCH  18  23
BRANCH  20  26
ATOM     26  O   UNL     1      33.153  29.282  22.907  1.00  0.00    -0.350 OA
BRANCH  26  27
ATOM     27  C   UNL     1      33.405  28.735  24.120  1.00  0.00     0.169 C 
BRANCH  27  28
ATOM     28  C   UNL     1      32.315  28.052  24.857  1.00  0.00     0.119 C 
BRANCH  28  29
ATOM     29  N   UNL     1      31.978  26.728  24.458  1.00  0.00    -0.092 NA
ATOM     30  N   UNL     1      30.924  26.488  23.834  1.00  0.00     0.001 N 
ATOM     31  N   UNL     1      29.949  26.500  23.062  1.00  0.00    -0.003 NA
ENDBRANCH  28  29
ENDBRANCH  27  28
ENDBRANCH  26  27
ENDBRANCH  20  26
BRANCH  21  32
ATOM     32  O   UNL     1      31.833  32.917  20.243  1.00  0.00    -0.387 OA
ATOM     33  H   UNL     1      32.832  32.862  20.127  1.00  0.00     0.211 HD
ENDBRANCH  21  32
BRANCH  22  34
ATOM     34  O   UNL     1      33.222  32.466  22.537  1.00  0.00    -0.385 OA
ATOM     35  H   UNL     1      33.892  32.211  23.218  1.00  0.00     0.211 HD
ENDBRANCH  22  34
ENDBRANCH  16  17
ENDBRANCH  11  16
BRANCH  13  36
ATOM     36  O   UNL     1      27.921  29.631  18.365  1.00  0.00    -0.385 OA
ATOM     37  H   UNL     1      28.190  29.568  19.295  1.00  0.00     0.211 HD
ENDBRANCH  13  36
BRANCH  14  38
ATOM     38  O   UNL     1      27.323  30.145  15.671  1.00  0.00    -0.387 OA
ATOM     39  H   UNL     1      27.314  30.365  14.706  1.00  0.00     0.211 HD
ENDBRANCH  14  38
BRANCH  15  40
ATOM     40  O   UNL     1      28.510  32.416  15.375  1.00  0.00    -0.387 OA
ATOM     41  H   UNL     1      27.666  32.103  15.804  1.00  0.00     0.211 HD
ENDBRANCH  15  40
ENDBRANCH   9  10
ENDBRANCH   8   9
ENDBRANCH   3   8
BRANCH   3  42
ATOM     42  C   UNL     1      33.333  35.350  15.744  1.00  0.00     0.364 C 
ATOM     43  O   UNL     1      34.135  36.020  16.433  1.00  0.00    -0.246 OA
BRANCH  42  44
ATOM     44  O   UNL     1      33.701  34.932  14.496  1.00  0.00    -0.477 OA
ATOM     45  H   UNL     1      34.663  34.706  14.259  1.00  0.00     0.296 HD
ENDBRANCH  42  44
ENDBRANCH   3  42
BRANCH   6  46
ATOM     46  O   UNL     1      30.271  35.009  19.222  1.00  0.00    -0.391 OA
ATOM     47  H   UNL     1      29.412  35.263  19.664  1.00  0.00     0.211 HD
ENDBRANCH   6  46
BRANCH   7  48
ATOM     48  N   UNL     1      28.114  35.750  17.292  1.00  0.00    -0.348 N 
ATOM     49  C   UNL     1      27.188  34.846  17.865  1.00  0.00     0.217 C 
ATOM     50  H   UNL     1      27.813  36.720  17.094  1.00  0.00     0.163 HD
ATOM     51  C   UNL     1      25.782  35.229  18.191  1.00  0.00     0.114 C 
ATOM     52  O   UNL     1      27.578  33.671  18.104  1.00  0.00    -0.275 OA
ENDBRANCH   7  48
ENDBRANCH   1   2
BRANCH   1  53
ATOM     53  O   UNL     1      28.295  37.215  14.509  1.00  0.00    -0.388 OA
ATOM     54  H   UNL     1      28.963  37.917  14.261  1.00  0.00     0.211 HD
ENDBRANCH   1  53
BRANCH   1  55
ATOM     55  C   UNL     1      29.304  35.408  13.377  1.00  0.00     0.165 C 
BRANCH  55  56
ATOM     56  O   UNL     1      30.135  36.257  12.686  1.00  0.00    -0.388 OA
ATOM     57  H   UNL     1      30.454  37.027  13.213  1.00  0.00     0.211 HD
ENDBRANCH  55  56
BRANCH  55  58
ATOM     58  C   UNL     1      28.089  35.060  12.584  1.00  0.00     0.154 C 
BRANCH  58  59
ATOM     59  N   UNL     1      26.962  34.676  13.357  1.00  0.00    -0.319 N 
ATOM     60  C   UNL     1      25.621  34.623  12.890  1.00  0.00     0.407 C 
ATOM     61  H   UNL     1      27.088  34.393  14.391  1.00  0.00     0.167 HD
ATOM     62  O   UNL     1      25.319  34.915  11.720  1.00  0.00    -0.225 OA
BRANCH  60  63
ATOM     63  O   UNL     1      24.603  34.225  13.774  1.00  0.00    -0.443 OA
BRANCH  63  64
ATOM     64  C   UNL     1      24.909  33.669  15.010  1.00  0.00     0.294 C 
BRANCH  64  65
ATOM     65  C   UNL     1      24.658  32.218  15.099  1.00  0.00     0.120 A 
ATOM     66  C   UNL     1      24.199  31.532  16.207  1.00  0.00     0.139 A 
ATOM     67  N   UNL     1      24.830  31.289  14.150  1.00  0.00    -0.132 NA
ATOM     68  N   UNL     1      24.106  30.214  15.909  1.00  0.00    -0.241 N 
ATOM     69  N   UNL     1      24.493  30.105  14.657  1.00  0.00    -0.066 NA
BRANCH  68  70
ATOM     70  C   UNL     1      23.662  29.183  16.840  1.00  0.00     0.268 C 
BRANCH  70  71
ATOM     71  C   UNL     1      24.839  28.835  17.714  1.00  0.00     0.327 C 
ATOM     72  O   UNL     1      25.731  28.049  17.341  1.00  0.00    -0.250 OA
BRANCH  71  73
ATOM     73  O   UNL     1      24.976  29.382  18.977  1.00  0.00    -0.465 OA
BRANCH  73  74
ATOM     74  C   UNL     1      23.935  29.529  19.900  1.00  0.00     0.229 C 
ATOM     75  C   UNL     1      23.619  30.972  20.205  1.00  0.00     0.049 C 
ENDBRANCH  73  74
ENDBRANCH  71  73
ENDBRANCH  70  71
ENDBRANCH  68  70
ENDBRANCH  64  65
ENDBRANCH  63  64
ENDBRANCH  60  63
ENDBRANCH  58  59
ENDBRANCH  55  58
ENDBRANCH   1  55
TORSDOF 33
BEGIN_RES LYS A 131
REMARK  4 active torsions:
REMARK  status: ('A' for Active; 'I' for Inactive)
REMARK    1  A    between atoms: CA   and  CB  
REMARK    2  A    between atoms: CB   and  CG  
REMARK    3  A    between atoms: CG   and  CD  
REMARK    4  A    between atoms: CD   and  CE  
ROOT
ATOM      1  CA  LYS A 131      29.867  25.555  16.977  1.00 20.52     0.186 C 
ENDROOT
BRANCH   1   2
ATOM      2  CB  LYS A 131      28.345  25.722  17.026  1.00 20.94     0.034 C 
BRANCH   2   3
ATOM      3  CG  LYS A 131      27.601  24.401  16.904  1.00 22.96     0.005 C 
BRANCH   3   4
ATOM      4  CD  LYS A 131      26.138  24.543  17.219  1.00 24.33     0.041 C 
BRANCH   4   5
ATOM      5  CE  LYS A 131      25.601  23.218  17.749  1.00 26.91     0.338 C 
ATOM      6  NZ  LYS A 131      25.548  23.235  19.230  1.00 27.40     0.618 N 
ENDBRANCH   4   5
ENDBRANCH   3   4
ENDBRANCH   2   3
ENDBRANCH   1   2
END_RES LYS A 131
BEGIN_RES LYS A 135
REMARK  4 active torsions:
REMARK  status: ('A' for Active; 'I' for Inactive)
REMARK    5  A    between atoms: CA   and  CB  
REMARK    6  A    between atoms: CB   and  CG  
REMARK    7  A    between atoms: CG   and  CD  
REMARK    8  A    between atoms: CD   and  CE  
ROOT
ATOM      7  CA  LYS A 135      33.193  34.663   9.290  1.00 25.02     0.186 C 
ENDROOT
BRANCH   7   8
ATOM      8  CB  LYS A 135      32.060  35.360  10.034  1.00 26.63     0.034 C 
BRANCH   8   9
ATOM      9  CG  LYS A 135      30.796  35.489   9.223  1.00 29.45     0.005 C 
BRANCH   9  10
ATOM     10  CD  LYS A 135      29.881  34.298   9.463  1.00 32.00     0.041 C 
BRANCH  10  11
ATOM     11  CE  LYS A 135      28.578  34.466   8.705  1.00 34.25     0.338 C 
ATOM     12  NZ  LYS A 135      27.473  33.720   9.366  1.00 35.99     0.618 N 
ENDBRANCH  10  11
ENDBRANCH   9  10
ENDBRANCH   8   9
ENDBRANCH   7   8
END_RES LYS A 135
