REMARK VINA RESULT:    -5.907      6.163     12.327
REMARK INTER + INTRA:         -22.766
REMARK INTER:                 -12.200
REMARK INTRA:                 -10.566
REMARK UNBOUND:                -8.226
REMARK SMILES CC(=O)N[C@@H]1[C@@H](O)C[C@](OC[C@H]2O[C@@H](O[C@H]3[C@H](O)[C@@H](O)[C@H](OCCN=[N+]=[N-])O[C@@H]3CO)[C@H](O)[C@@H](O)[C@H]2O)(C(=O)O)O[C@H]1C(O)[C@H](O)CNC(=O)OCc1cn(-c2ccccc2Br)nn1
REMARK SMILES IDX 9 1 8 2 6 3 5 4 42 5 41 6 10 7 11 8 12 9 14 10 13 11 32 12
REMARK SMILES IDX 34 13 36 14 15 15 16 16 29 17 28 18 21 19 17 20 19 21 30 22
REMARK SMILES IDX 31 23 22 25 23 26 24 27 25 28 26 29 27 30 18 31 20 33 33 35
REMARK SMILES IDX 35 37 37 39 38 41 39 42 40 43 7 45 43 47 44 48 45 50 46 51
REMARK SMILES IDX 47 53 48 54 49 55 50 57 51 58 52 59 53 60 54 61 64 62 55 63
REMARK SMILES IDX 63 64 56 65 57 66 61 67 58 68 60 69 62 70 59 71 4 72 2 73
REMARK SMILES IDX 1 75 3 76
REMARK H PARENT 31 24 18 32 20 34 33 36 35 38 37 40 40 44 7 46 44 49 46 52
REMARK H PARENT 48 56 4 74
REMARK Flexibility Score: inf
ROOT
ATOM      1  C   UNL     1      32.089  31.823  22.322  1.00  0.00     0.272 C 
ATOM      2  C   UNL     1      33.519  31.905  21.941  1.00  0.00     0.113 C 
ATOM      3  C   UNL     1      34.344  30.870  22.633  1.00  0.00     0.145 C 
ATOM      4  C   UNL     1      33.765  29.501  22.673  1.00  0.00     0.142 C 
ATOM      5  C   UNL     1      32.328  29.484  22.287  1.00  0.00     0.178 C 
ATOM      6  O   UNL     1      31.582  30.571  22.597  1.00  0.00    -0.332 OA
ENDROOT
BRANCH   1   7
ATOM      7  O   UNL     1      31.198  32.356  21.409  1.00  0.00    -0.338 OA
BRANCH   7   8
ATOM      8  C   UNL     1      29.907  32.490  21.796  1.00  0.00     0.199 C 
BRANCH   8   9
ATOM      9  C   UNL     1      29.163  33.208  20.644  1.00  0.00     0.179 C 
ATOM     10  C   UNL     1      29.702  34.279  18.669  1.00  0.00     0.282 C 
ATOM     11  O   UNL     1      29.949  34.087  20.002  1.00  0.00    -0.341 OA
ATOM     12  C   UNL     1      28.227  34.281  18.336  1.00  0.00     0.202 C 
ATOM     13  C   UNL     1      27.565  33.005  18.812  1.00  0.00     0.179 C 
ATOM     14  C   UNL     1      28.467  32.246  19.766  1.00  0.00     0.177 C 
BRANCH  10  15
ATOM     15  O   UNL     1      30.428  33.422  17.854  1.00  0.00    -0.341 OA
BRANCH  15  16
ATOM     16  C   UNL     1      30.603  33.869  16.566  1.00  0.00     0.184 C 
ATOM     17  C   UNL     1      31.037  32.801  15.591  1.00  0.00     0.178 C 
ATOM     18  O   UNL     1      30.765  33.293  14.323  1.00  0.00    -0.341 OA
ATOM     19  C   UNL     1      31.374  34.466  14.012  1.00  0.00     0.281 C 
ATOM     20  C   UNL     1      31.707  34.918  16.493  1.00  0.00     0.180 C 
ATOM     21  C   UNL     1      32.022  35.231  15.089  1.00  0.00     0.202 C 
BRANCH  17  22
ATOM     22  C   UNL     1      30.359  31.483  15.768  1.00  0.00     0.191 C 
BRANCH  22  23
ATOM     23  O   UNL     1      28.984  31.686  15.847  1.00  0.00    -0.394 OA
ATOM     24  H   UNL     1      28.764  32.583  15.540  1.00  0.00     0.210 HD
ENDBRANCH  22  23
ENDBRANCH  17  22
BRANCH  19  25
ATOM     25  O   UNL     1      30.382  35.283  13.421  1.00  0.00    -0.350 OA
BRANCH  25  26
ATOM     26  C   UNL     1      29.216  34.621  13.155  1.00  0.00     0.169 C 
BRANCH  26  27
ATOM     27  C   UNL     1      28.142  35.439  12.510  1.00  0.00     0.119 C 
BRANCH  27  28
ATOM     28  N   UNL     1      26.923  35.228  13.275  1.00  0.00    -0.092 NA
ATOM     29  N   UNL     1      26.871  34.339  14.112  1.00  0.00     0.001 N 
ATOM     30  N   UNL     1      26.820  33.501  15.004  1.00  0.00    -0.003 NA
ENDBRANCH  27  28
ENDBRANCH  26  27
ENDBRANCH  25  26
ENDBRANCH  19  25
BRANCH  20  31
ATOM     31  O   UNL     1      31.356  36.073  17.172  1.00  0.00    -0.387 OA
ATOM     32  H   UNL     1      30.398  36.294  17.099  1.00  0.00     0.211 HD
ENDBRANCH  20  31
BRANCH  21  33
ATOM     33  O   UNL     1      33.443  35.155  14.983  1.00  0.00    -0.385 OA
ATOM     34  H   UNL     1      33.826  36.035  14.762  1.00  0.00     0.211 HD
ENDBRANCH  21  33
ENDBRANCH  15  16
ENDBRANCH  10  15
BRANCH  12  35
ATOM     35  O   UNL     1      27.592  35.422  18.828  1.00  0.00    -0.385 OA
ATOM     36  H   UNL     1      28.244  36.083  19.167  1.00  0.00     0.211 HD
ENDBRANCH  12  35
BRANCH  13  37
ATOM     37  O   UNL     1      27.133  32.242  17.745  1.00  0.00    -0.387 OA
ATOM     38  H   UNL     1      27.880  32.001  17.162  1.00  0.00     0.211 HD
ENDBRANCH  13  37
BRANCH  14  39
ATOM     39  O   UNL     1      29.310  31.449  19.010  1.00  0.00    -0.387 OA
ATOM     40  H   UNL     1      29.693  31.922  18.232  1.00  0.00     0.211 HD
ENDBRANCH  14  39
ENDBRANCH   8   9
ENDBRANCH   7   8
ENDBRANCH   1   7
BRANCH   1  41
ATOM     41  C   UNL     1      31.974  32.554  23.647  1.00  0.00     0.364 C 
ATOM     42  O   UNL     1      31.577  31.881  24.623  1.00  0.00    -0.246 OA
BRANCH  41  43
ATOM     43  O   UNL     1      32.274  33.873  23.812  1.00  0.00    -0.477 OA
ATOM     44  H   UNL     1      32.585  34.225  24.732  1.00  0.00     0.296 HD
ENDBRANCH  41  43
ENDBRANCH   1  41
BRANCH   3  45
ATOM     45  O   UNL     1      35.625  30.860  22.035  1.00  0.00    -0.391 OA
ATOM     46  H   UNL     1      36.137  30.111  22.448  1.00  0.00     0.211 HD
ENDBRANCH   3  45
BRANCH   5  47
ATOM     47  C   UNL     1      32.136  28.957  20.865  1.00  0.00     0.176 C 
BRANCH  47  48
ATOM     48  O   UNL     1      31.140  29.600  20.174  1.00  0.00    -0.388 OA
ATOM     49  H   UNL     1      31.431  29.839  19.245  1.00  0.00     0.211 HD
ENDBRANCH  47  48
BRANCH  47  50
ATOM     50  C   UNL     1      31.808  27.455  20.872  1.00  0.00     0.165 C 
BRANCH  50  51
ATOM     51  O   UNL     1      31.985  26.984  19.596  1.00  0.00    -0.388 OA
ATOM     52  H   UNL     1      32.805  27.241  19.140  1.00  0.00     0.211 HD
ENDBRANCH  50  51
BRANCH  50  53
ATOM     53  C   UNL     1      30.411  27.230  21.351  1.00  0.00     0.154 C 
BRANCH  53  54
ATOM     54  N   UNL     1      29.496  27.030  20.280  1.00  0.00    -0.319 N 
ATOM     55  C   UNL     1      28.434  27.869  19.882  1.00  0.00     0.407 C 
ATOM     56  H   UNL     1      29.609  26.144  19.692  1.00  0.00     0.167 HD
ATOM     57  O   UNL     1      28.210  28.930  20.473  1.00  0.00    -0.225 OA
BRANCH  55  58
ATOM     58  O   UNL     1      27.613  27.516  18.811  1.00  0.00    -0.443 OA
BRANCH  58  59
ATOM     59  C   UNL     1      26.280  27.937  18.651  1.00  0.00     0.294 C 
BRANCH  59  60
ATOM     60  C   UNL     1      26.132  28.805  17.438  1.00  0.00     0.121 A 
ATOM     61  C   UNL     1      24.930  29.025  16.766  1.00  0.00     0.144 A 
ATOM     62  N   UNL     1      27.051  29.492  16.778  1.00  0.00    -0.131 NA
ATOM     63  N   UNL     1      25.195  29.838  15.733  1.00  0.00    -0.219 N 
ATOM     64  N   UNL     1      26.475  30.118  15.745  1.00  0.00    -0.062 NA
BRANCH  63  65
ATOM     65  C   UNL     1      24.264  30.320  14.780  1.00  0.00     0.081 A 
ATOM     66  C   UNL     1      24.079  29.693  13.568  1.00  0.00     0.029 A 
ATOM     67  C   UNL     1      23.518  31.436  15.051  1.00  0.00     0.043 A 
ATOM     68  C   UNL     1      23.154  30.196  12.657  1.00  0.00     0.002 A 
ATOM     69  C   UNL     1      22.604  31.938  14.156  1.00  0.00     0.018 A 
ATOM     70  Br  UNL     1      23.747  32.336  16.714  1.00  0.00    -0.048 Br
ATOM     71  C   UNL     1      22.410  31.320  12.943  1.00  0.00     0.001 A 
ENDBRANCH  63  65
ENDBRANCH  59  60
ENDBRANCH  58  59
ENDBRANCH  55  58
ENDBRANCH  53  54
ENDBRANCH  50  53
ENDBRANCH  47  50
ENDBRANCH   5  47
BRANCH   4  72
ATOM     72  N   UNL     1      33.950  28.841  23.946  1.00  0.00    -0.348 N 
ATOM     73  C   UNL     1      35.132  28.118  24.236  1.00  0.00     0.217 C 
ATOM     74  H   UNL     1      33.209  28.890  24.673  1.00  0.00     0.163 HD
ATOM     75  C   UNL     1      35.240  27.467  25.576  1.00  0.00     0.114 C 
ATOM     76  O   UNL     1      36.065  28.014  23.416  1.00  0.00    -0.275 OA
ENDBRANCH   4  72
TORSDOF 30
BEGIN_RES LYS A 131
REMARK  4 active torsions:
REMARK  status: ('A' for Active; 'I' for Inactive)
REMARK    1  A    between atoms: CA   and  CB  
REMARK    2  A    between atoms: CB   and  CG  
REMARK    3  A    between atoms: CG   and  CD  
REMARK    4  A    between atoms: CD   and  CE  
ROOT
ATOM      1  CA  LYS A 131      29.867  25.555  16.977  1.00 20.52     0.186 C 
ENDROOT
BRANCH   1   2
ATOM      2  CB  LYS A 131      28.345  25.722  17.026  1.00 20.94     0.034 C 
BRANCH   2   3
ATOM      3  CG  LYS A 131      27.599  24.424  16.757  1.00 22.96     0.005 C 
BRANCH   3   4
ATOM      4  CD  LYS A 131      26.187  24.465  17.270  1.00 24.33     0.041 C 
BRANCH   4   5
ATOM      5  CE  LYS A 131      26.181  24.182  18.769  1.00 26.91     0.338 C 
ATOM      6  NZ  LYS A 131      25.093  23.237  19.114  1.00 27.40     0.618 N 
ENDBRANCH   4   5
ENDBRANCH   3   4
ENDBRANCH   2   3
ENDBRANCH   1   2
END_RES LYS A 131
BEGIN_RES LYS A 135
REMARK  4 active torsions:
REMARK  status: ('A' for Active; 'I' for Inactive)
REMARK    5  A    between atoms: CA   and  CB  
REMARK    6  A    between atoms: CB   and  CG  
REMARK    7  A    between atoms: CG   and  CD  
REMARK    8  A    between atoms: CD   and  CE  
ROOT
ATOM      7  CA  LYS A 135      33.193  34.663   9.290  1.00 25.02     0.186 C 
ENDROOT
BRANCH   7   8
ATOM      8  CB  LYS A 135      32.060  35.360  10.034  1.00 26.63     0.034 C 
BRANCH   8   9
ATOM      9  CG  LYS A 135      30.761  35.381   9.270  1.00 29.45     0.005 C 
BRANCH   9  10
ATOM     10  CD  LYS A 135      30.022  34.062   9.431  1.00 32.00     0.041 C 
BRANCH  10  11
ATOM     11  CE  LYS A 135      28.587  34.194   8.959  1.00 34.25     0.338 C 
ATOM     12  NZ  LYS A 135      28.504  35.007   7.715  1.00 35.99     0.618 N 
ENDBRANCH  10  11
ENDBRANCH   9  10
ENDBRANCH   8   9
ENDBRANCH   7   8
END_RES LYS A 135
