REMARK VINA RESULT:    -3.618      3.966      9.854
REMARK INTER + INTRA:         -21.582
REMARK INTER:                 -10.127
REMARK INTRA:                 -11.455
REMARK UNBOUND:               -12.359
REMARK SMILES CC(=O)N[C@@H]1[C@@H](O)C[C@](OC[C@H]2O[C@@H](O[C@H]3[C@H](O)[C@@H](O)[C@H](OCCN=[N+]=[N-])O[C@@H]3CO)[C@H](O)[C@@H](O)[C@H]2O)(C(=O)O)O[C@H]1C(O)[C@H](O)CNC(=O)OCc1cn(CC(=O)O)nn1
REMARK SMILES IDX 9 1 8 2 6 3 5 4 42 5 41 6 10 7 11 8 12 9 14 10 13 11 32 12
REMARK SMILES IDX 34 13 36 14 15 15 16 16 29 17 28 18 21 19 17 20 19 21 30 22
REMARK SMILES IDX 31 23 22 25 23 26 24 27 25 28 26 29 27 30 18 31 20 33 33 35
REMARK SMILES IDX 35 37 37 39 38 41 39 42 40 43 7 45 43 47 44 48 45 50 46 51
REMARK SMILES IDX 47 53 48 54 49 55 50 57 51 58 52 59 53 60 54 61 61 62 55 63
REMARK SMILES IDX 60 64 56 65 57 66 58 67 59 68 4 70 2 71 1 73 3 74
REMARK H PARENT 31 24 18 32 20 34 33 36 35 38 37 40 40 44 7 46 44 49 46 52
REMARK H PARENT 48 56 59 69 4 72
REMARK Flexibility Score: inf
ROOT
ATOM      1  C   UNL     1      30.815  33.768  16.529  1.00  0.00     0.272 C 
ATOM      2  C   UNL     1      31.492  34.757  17.434  1.00  0.00     0.113 C 
ATOM      3  C   UNL     1      30.734  35.971  17.773  1.00  0.00     0.145 C 
ATOM      4  C   UNL     1      29.542  36.290  16.878  1.00  0.00     0.142 C 
ATOM      5  C   UNL     1      29.799  35.601  15.574  1.00  0.00     0.178 C 
ATOM      6  O   UNL     1      29.688  34.228  15.922  1.00  0.00    -0.332 OA
ENDROOT
BRANCH   1   7
ATOM      7  O   UNL     1      30.498  32.572  17.209  1.00  0.00    -0.338 OA
BRANCH   7   8
ATOM      8  C   UNL     1      29.173  32.261  17.234  1.00  0.00     0.199 C 
BRANCH   8   9
ATOM      9  C   UNL     1      29.006  30.756  17.498  1.00  0.00     0.179 C 
ATOM     10  C   UNL     1      27.241  29.551  18.368  1.00  0.00     0.282 C 
ATOM     11  O   UNL     1      28.281  30.497  18.633  1.00  0.00    -0.341 OA
ATOM     12  C   UNL     1      26.319  30.259  17.445  1.00  0.00     0.202 C 
ATOM     13  C   UNL     1      26.999  30.231  16.066  1.00  0.00     0.179 C 
ATOM     14  C   UNL     1      28.483  30.069  16.252  1.00  0.00     0.177 C 
BRANCH  10  15
ATOM     15  O   UNL     1      26.743  29.139  19.568  1.00  0.00    -0.341 OA
BRANCH  15  16
ATOM     16  C   UNL     1      27.581  29.408  20.651  1.00  0.00     0.184 C 
ATOM     17  C   UNL     1      27.815  28.127  21.395  1.00  0.00     0.178 C 
ATOM     18  O   UNL     1      28.033  28.357  22.726  1.00  0.00    -0.341 OA
ATOM     19  C   UNL     1      28.745  29.482  23.056  1.00  0.00     0.281 C 
ATOM     20  C   UNL     1      26.948  30.402  21.602  1.00  0.00     0.180 C 
ATOM     21  C   UNL     1      28.016  30.749  22.643  1.00  0.00     0.202 C 
BRANCH  17  22
ATOM     22  C   UNL     1      29.016  27.415  20.799  1.00  0.00     0.191 C 
BRANCH  22  23
ATOM     23  O   UNL     1      29.714  28.380  20.069  1.00  0.00    -0.394 OA
ATOM     24  H   UNL     1      30.678  28.189  20.066  1.00  0.00     0.210 HD
ENDBRANCH  22  23
ENDBRANCH  17  22
BRANCH  19  25
ATOM     25  O   UNL     1      30.019  29.422  22.561  1.00  0.00    -0.350 OA
BRANCH  25  26
ATOM     26  C   UNL     1      30.777  30.541  22.798  1.00  0.00     0.169 C 
BRANCH  26  27
ATOM     27  C   UNL     1      31.684  30.939  21.664  1.00  0.00     0.119 C 
BRANCH  27  28
ATOM     28  N   UNL     1      30.913  31.398  20.507  1.00  0.00    -0.092 NA
ATOM     29  N   UNL     1      30.350  32.503  20.641  1.00  0.00     0.001 N 
ATOM     30  N   UNL     1      29.414  33.322  20.558  1.00  0.00    -0.003 NA
ENDBRANCH  27  28
ENDBRANCH  26  27
ENDBRANCH  25  26
ENDBRANCH  19  25
BRANCH  20  31
ATOM     31  O   UNL     1      26.574  31.577  20.999  1.00  0.00    -0.387 OA
ATOM     32  H   UNL     1      27.276  32.237  20.889  1.00  0.00     0.211 HD
ENDBRANCH  20  31
BRANCH  21  33
ATOM     33  O   UNL     1      27.454  31.344  23.756  1.00  0.00    -0.385 OA
ATOM     34  H   UNL     1      28.140  31.777  24.327  1.00  0.00     0.211 HD
ENDBRANCH  21  33
ENDBRANCH  15  16
ENDBRANCH  10  15
BRANCH  12  35
ATOM     35  O   UNL     1      25.024  29.830  17.400  1.00  0.00    -0.385 OA
ATOM     36  H   UNL     1      24.594  30.124  16.581  1.00  0.00     0.211 HD
ENDBRANCH  12  35
BRANCH  13  37
ATOM     37  O   UNL     1      26.706  31.437  15.448  1.00  0.00    -0.387 OA
ATOM     38  H   UNL     1      27.522  31.933  15.160  1.00  0.00     0.211 HD
ENDBRANCH  13  37
BRANCH  14  39
ATOM     39  O   UNL     1      29.086  30.670  15.148  1.00  0.00    -0.387 OA
ATOM     40  H   UNL     1      28.651  30.422  14.299  1.00  0.00     0.211 HD
ENDBRANCH  14  39
ENDBRANCH   8   9
ENDBRANCH   7   8
ENDBRANCH   1   7
BRANCH   1  41
ATOM     41  C   UNL     1      31.783  33.365  15.483  1.00  0.00     0.364 C 
ATOM     42  O   UNL     1      32.774  34.067  15.204  1.00  0.00    -0.246 OA
BRANCH  41  43
ATOM     43  O   UNL     1      31.634  32.190  14.767  1.00  0.00    -0.477 OA
ATOM     44  H   UNL     1      30.741  31.901  14.349  1.00  0.00     0.296 HD
ENDBRANCH  41  43
ENDBRANCH   1  41
BRANCH   3  45
ATOM     45  O   UNL     1      30.408  36.088  19.129  1.00  0.00    -0.391 OA
ATOM     46  H   UNL     1      29.599  36.601  19.297  1.00  0.00     0.211 HD
ENDBRANCH   3  45
BRANCH   5  47
ATOM     47  C   UNL     1      28.863  35.886  14.450  1.00  0.00     0.176 C 
BRANCH  47  48
ATOM     48  O   UNL     1      27.595  36.093  15.087  1.00  0.00    -0.388 OA
ATOM     49  H   UNL     1      27.730  36.638  15.914  1.00  0.00     0.211 HD
ENDBRANCH  47  48
BRANCH  47  50
ATOM     50  C   UNL     1      28.704  34.747  13.467  1.00  0.00     0.165 C 
BRANCH  50  51
ATOM     51  O   UNL     1      29.983  34.408  12.952  1.00  0.00    -0.388 OA
ATOM     52  H   UNL     1      30.594  35.134  13.201  1.00  0.00     0.211 HD
ENDBRANCH  50  51
BRANCH  50  53
ATOM     53  C   UNL     1      27.793  35.057  12.344  1.00  0.00     0.154 C 
BRANCH  53  54
ATOM     54  N   UNL     1      26.452  34.608  12.578  1.00  0.00    -0.319 N 
ATOM     55  C   UNL     1      25.327  35.400  12.898  1.00  0.00     0.407 C 
ATOM     56  H   UNL     1      26.213  33.553  12.514  1.00  0.00     0.167 HD
ATOM     57  O   UNL     1      25.411  36.624  13.022  1.00  0.00    -0.225 OA
BRANCH  55  58
ATOM     58  O   UNL     1      24.058  34.844  13.094  1.00  0.00    -0.443 OA
BRANCH  58  59
ATOM     59  C   UNL     1      23.679  34.318  14.355  1.00  0.00     0.294 C 
BRANCH  59  60
ATOM     60  C   UNL     1      23.690  32.822  14.324  1.00  0.00     0.120 A 
ATOM     61  C   UNL     1      23.671  32.016  13.195  1.00  0.00     0.139 A 
ATOM     62  N   UNL     1      23.721  31.978  15.367  1.00  0.00    -0.132 NA
ATOM     63  N   UNL     1      23.690  30.733  13.596  1.00  0.00    -0.241 N 
ATOM     64  N   UNL     1      23.719  30.734  14.919  1.00  0.00    -0.066 NA
BRANCH  63  65
ATOM     65  C   UNL     1      23.683  29.531  12.756  1.00  0.00     0.268 C 
BRANCH  65  66
ATOM     66  C   UNL     1      22.376  28.870  12.916  1.00  0.00     0.325 C 
ATOM     67  O   UNL     1      21.544  28.895  11.997  1.00  0.00    -0.250 OA
BRANCH  66  68
ATOM     68  O   UNL     1      22.078  28.222  14.097  1.00  0.00    -0.480 OA
ATOM     69  H   UNL     1      21.627  28.670  14.868  1.00  0.00     0.296 HD
ENDBRANCH  66  68
ENDBRANCH  65  66
ENDBRANCH  63  65
ENDBRANCH  59  60
ENDBRANCH  58  59
ENDBRANCH  55  58
ENDBRANCH  53  54
ENDBRANCH  50  53
ENDBRANCH  47  50
ENDBRANCH   5  47
BRANCH   4  70
ATOM     70  N   UNL     1      29.275  37.687  16.850  1.00  0.00    -0.348 N 
ATOM     71  C   UNL     1      28.345  38.312  17.751  1.00  0.00     0.217 C 
ATOM     72  H   UNL     1      29.762  38.313  16.179  1.00  0.00     0.163 HD
ATOM     73  C   UNL     1      28.130  39.775  17.651  1.00  0.00     0.114 C 
ATOM     74  O   UNL     1      27.724  37.640  18.607  1.00  0.00    -0.275 OA
ENDBRANCH   4  70
TORSDOF 32
BEGIN_RES LYS A 131
REMARK  4 active torsions:
REMARK  status: ('A' for Active; 'I' for Inactive)
REMARK    1  A    between atoms: CA   and  CB  
REMARK    2  A    between atoms: CB   and  CG  
REMARK    3  A    between atoms: CG   and  CD  
REMARK    4  A    between atoms: CD   and  CE  
ROOT
ATOM      1  CA  LYS A 131      29.867  25.555  16.977  1.00 20.52     0.186 C 
ENDROOT
BRANCH   1   2
ATOM      2  CB  LYS A 131      28.345  25.722  17.026  1.00 20.94     0.034 C 
BRANCH   2   3
ATOM      3  CG  LYS A 131      27.602  24.397  16.945  1.00 22.96     0.005 C 
BRANCH   3   4
ATOM      4  CD  LYS A 131      26.229  24.480  17.550  1.00 24.33     0.041 C 
BRANCH   4   5
ATOM      5  CE  LYS A 131      26.222  25.531  18.656  1.00 26.91     0.338 C 
ATOM      6  NZ  LYS A 131      25.539  25.010  19.863  1.00 27.40     0.618 N 
ENDBRANCH   4   5
ENDBRANCH   3   4
ENDBRANCH   2   3
ENDBRANCH   1   2
END_RES LYS A 131
BEGIN_RES LYS A 135
REMARK  4 active torsions:
REMARK  status: ('A' for Active; 'I' for Inactive)
REMARK    5  A    between atoms: CA   and  CB  
REMARK    6  A    between atoms: CB   and  CG  
REMARK    7  A    between atoms: CG   and  CD  
REMARK    8  A    between atoms: CD   and  CE  
ROOT
ATOM      7  CA  LYS A 135      33.193  34.663   9.290  1.00 25.02     0.186 C 
ENDROOT
BRANCH   7   8
ATOM      8  CB  LYS A 135      32.060  35.360  10.034  1.00 26.63     0.034 C 
BRANCH   8   9
ATOM      9  CG  LYS A 135      30.693  35.044   9.483  1.00 29.45     0.005 C 
BRANCH   9  10
ATOM     10  CD  LYS A 135      30.019  36.305   8.964  1.00 32.00     0.041 C 
BRANCH  10  11
ATOM     11  CE  LYS A 135      28.710  35.966   8.279  1.00 34.25     0.338 C 
ATOM     12  NZ  LYS A 135      28.422  34.507   8.365  1.00 35.99     0.618 N 
ENDBRANCH  10  11
ENDBRANCH   9  10
ENDBRANCH   8   9
ENDBRANCH   7   8
END_RES LYS A 135
