REMARK VINA RESULT:    -4.248      2.634      6.982
REMARK INTER + INTRA:         -22.950
REMARK INTER:                 -12.623
REMARK INTRA:                 -10.328
REMARK UNBOUND:               -12.122
REMARK SMILES CC(=O)N[C@@H]1[C@@H](O)C[C@](OC[C@H]2O[C@@H](O[C@H]3[C@H](O)[C@@H](O)[C@H](OCCN=[N+]=[N-])O[C@@H]3CO)[C@H](O)[C@@H](O)[C@H]2O)(C(=O)O)O[C@H]1C(O)[C@H](O)CNC(=O)OCc1cn(-c2ccc(O)c([N+](=O)[O-])c2)nn1
REMARK SMILES IDX 9 1 8 2 6 3 5 4 42 5 41 6 10 7 11 8 12 9 14 10 13 11 32 12
REMARK SMILES IDX 34 13 36 14 15 15 16 16 29 17 28 18 21 19 17 20 19 21 30 22
REMARK SMILES IDX 31 23 22 25 23 26 24 27 25 28 26 29 27 30 18 31 20 33 33 35
REMARK SMILES IDX 35 37 37 39 38 41 39 42 40 43 7 45 43 47 44 48 45 50 46 51
REMARK SMILES IDX 47 53 48 54 49 55 50 57 51 58 52 59 53 60 54 61 67 62 55 63
REMARK SMILES IDX 66 64 56 65 57 66 65 67 58 68 61 69 59 70 62 71 63 72 64 73
REMARK SMILES IDX 60 74 4 76 2 77 1 79 3 80
REMARK H PARENT 31 24 18 32 20 34 33 36 35 38 37 40 40 44 7 46 44 49 46 52
REMARK H PARENT 48 56 60 75 4 78
REMARK Flexibility Score: inf
ROOT
ATOM      1  C   UNL     1      28.306  32.638  17.171  1.00  0.00     0.272 C 
ATOM      2  C   UNL     1      29.120  32.351  18.447  1.00  0.00     0.113 C 
ATOM      3  C   UNL     1      29.728  30.956  18.341  1.00  0.00     0.145 C 
ATOM      4  C   UNL     1      28.506  30.006  18.418  1.00  0.00     0.142 C 
ATOM      5  C   UNL     1      27.379  30.570  17.600  1.00  0.00     0.178 C 
ATOM      6  O   UNL     1      27.866  31.455  16.620  1.00  0.00    -0.332 OA
ENDROOT
BRANCH   1   7
ATOM      7  O   UNL     1      29.208  33.235  16.311  1.00  0.00    -0.338 OA
BRANCH   7   8
ATOM      8  C   UNL     1      29.267  32.745  15.041  1.00  0.00     0.199 C 
BRANCH   8   9
ATOM      9  C   UNL     1      29.959  33.846  14.203  1.00  0.00     0.179 C 
ATOM     10  C   UNL     1      30.088  36.110  14.245  1.00  0.00     0.282 C 
ATOM     11  O   UNL     1      29.291  34.994  14.507  1.00  0.00    -0.341 OA
ATOM     12  C   UNL     1      31.135  36.155  15.302  1.00  0.00     0.202 C 
ATOM     13  C   UNL     1      32.021  34.943  15.171  1.00  0.00     0.179 C 
ATOM     14  C   UNL     1      31.413  33.792  14.459  1.00  0.00     0.177 C 
BRANCH  10  15
ATOM     15  O   UNL     1      29.285  37.258  14.189  1.00  0.00    -0.341 OA
BRANCH  15  16
ATOM     16  C   UNL     1      29.236  37.695  12.880  1.00  0.00     0.184 C 
ATOM     17  C   UNL     1      29.216  39.173  12.697  1.00  0.00     0.178 C 
ATOM     18  O   UNL     1      29.470  39.429  11.355  1.00  0.00    -0.341 OA
ATOM     19  C   UNL     1      28.346  39.051  10.562  1.00  0.00     0.281 C 
ATOM     20  C   UNL     1      27.922  37.194  12.223  1.00  0.00     0.180 C 
ATOM     21  C   UNL     1      28.011  37.620  10.760  1.00  0.00     0.202 C 
BRANCH  17  22
ATOM     22  C   UNL     1      30.167  39.949  13.545  1.00  0.00     0.191 C 
BRANCH  22  23
ATOM     23  O   UNL     1      31.430  39.382  13.530  1.00  0.00    -0.394 OA
ATOM     24  H   UNL     1      31.310  38.384  13.443  1.00  0.00     0.210 HD
ENDBRANCH  22  23
ENDBRANCH  17  22
BRANCH  19  25
ATOM     25  O   UNL     1      28.786  39.274   9.262  1.00  0.00    -0.350 OA
BRANCH  25  26
ATOM     26  C   UNL     1      29.758  38.386   8.843  1.00  0.00     0.169 C 
BRANCH  26  27
ATOM     27  C   UNL     1      29.542  37.951   7.427  1.00  0.00     0.119 C 
BRANCH  27  28
ATOM     28  N   UNL     1      28.191  38.340   7.030  1.00  0.00    -0.092 NA
ATOM     29  N   UNL     1      27.308  37.460   6.927  1.00  0.00     0.001 N 
ATOM     30  N   UNL     1      26.259  36.844   7.188  1.00  0.00    -0.003 NA
ENDBRANCH  27  28
ENDBRANCH  26  27
ENDBRANCH  25  26
ENDBRANCH  19  25
BRANCH  20  31
ATOM     31  O   UNL     1      27.855  35.811  12.249  1.00  0.00    -0.387 OA
ATOM     32  H   UNL     1      28.142  35.435  13.126  1.00  0.00     0.211 HD
ENDBRANCH  20  31
BRANCH  21  33
ATOM     33  O   UNL     1      26.755  37.340  10.228  1.00  0.00    -0.385 OA
ATOM     34  H   UNL     1      26.037  37.610  10.833  1.00  0.00     0.211 HD
ENDBRANCH  21  33
ENDBRANCH  15  16
ENDBRANCH  10  15
BRANCH  12  35
ATOM     35  O   UNL     1      31.907  37.311  15.268  1.00  0.00    -0.385 OA
ATOM     36  H   UNL     1      32.678  37.248  15.903  1.00  0.00     0.211 HD
ENDBRANCH  12  35
BRANCH  13  37
ATOM     37  O   UNL     1      32.493  34.644  16.454  1.00  0.00    -0.387 OA
ATOM     38  H   UNL     1      33.201  35.311  16.661  1.00  0.00     0.211 HD
ENDBRANCH  13  37
BRANCH  14  39
ATOM     39  O   UNL     1      31.795  32.611  15.130  1.00  0.00    -0.387 OA
ATOM     40  H   UNL     1      32.136  31.925  14.519  1.00  0.00     0.211 HD
ENDBRANCH  14  39
ENDBRANCH   8   9
ENDBRANCH   7   8
ENDBRANCH   1   7
BRANCH   1  41
ATOM     41  C   UNL     1      27.282  33.600  17.563  1.00  0.00     0.364 C 
ATOM     42  O   UNL     1      27.037  33.986  18.737  1.00  0.00    -0.246 OA
BRANCH  41  43
ATOM     43  O   UNL     1      26.476  34.174  16.578  1.00  0.00    -0.477 OA
ATOM     44  H   UNL     1      25.494  33.944  16.469  1.00  0.00     0.296 HD
ENDBRANCH  41  43
ENDBRANCH   1  41
BRANCH   3  45
ATOM     45  O   UNL     1      30.395  30.784  17.157  1.00  0.00    -0.391 OA
ATOM     46  H   UNL     1      29.940  30.090  16.623  1.00  0.00     0.211 HD
ENDBRANCH   3  45
BRANCH   5  47
ATOM     47  C   UNL     1      26.693  29.452  16.854  1.00  0.00     0.176 C 
BRANCH  47  48
ATOM     48  O   UNL     1      27.499  28.327  16.927  1.00  0.00    -0.388 OA
ATOM     49  H   UNL     1      27.867  28.062  16.048  1.00  0.00     0.211 HD
ENDBRANCH  47  48
BRANCH  47  50
ATOM     50  C   UNL     1      25.321  29.108  17.377  1.00  0.00     0.165 C 
BRANCH  50  51
ATOM     51  O   UNL     1      25.438  27.762  17.814  1.00  0.00    -0.388 OA
ATOM     52  H   UNL     1      24.994  27.634  18.698  1.00  0.00     0.211 HD
ENDBRANCH  50  51
BRANCH  50  53
ATOM     53  C   UNL     1      24.291  29.098  16.284  1.00  0.00     0.154 C 
BRANCH  53  54
ATOM     54  N   UNL     1      24.469  30.235  15.421  1.00  0.00    -0.319 N 
ATOM     55  C   UNL     1      24.224  30.263  14.032  1.00  0.00     0.407 C 
ATOM     56  H   UNL     1      24.815  31.152  15.842  1.00  0.00     0.167 HD
ATOM     57  O   UNL     1      23.826  29.218  13.498  1.00  0.00    -0.225 OA
BRANCH  55  58
ATOM     58  O   UNL     1      24.393  31.366  13.229  1.00  0.00    -0.443 OA
BRANCH  58  59
ATOM     59  C   UNL     1      24.710  32.620  13.777  1.00  0.00     0.294 C 
BRANCH  59  60
ATOM     60  C   UNL     1      24.661  33.631  12.680  1.00  0.00     0.121 A 
ATOM     61  C   UNL     1      23.512  34.274  12.209  1.00  0.00     0.144 A 
ATOM     62  N   UNL     1      25.637  34.137  11.915  1.00  0.00    -0.131 NA
ATOM     63  N   UNL     1      23.853  35.098  11.225  1.00  0.00    -0.220 N 
ATOM     64  N   UNL     1      25.164  34.986  11.074  1.00  0.00    -0.062 NA
BRANCH  63  65
ATOM     65  C   UNL     1      22.970  35.941  10.465  1.00  0.00     0.073 A 
ATOM     66  C   UNL     1      23.211  37.276  10.341  1.00  0.00     0.033 A 
ATOM     67  C   UNL     1      21.862  35.440   9.838  1.00  0.00     0.118 A 
ATOM     68  C   UNL     1      22.399  38.123   9.623  1.00  0.00     0.056 A 
ATOM     69  C   UNL     1      21.012  36.283   9.096  1.00  0.00     0.312 A 
ATOM     70  C   UNL     1      21.251  37.625   8.967  1.00  0.00     0.194 A 
BRANCH  69  71
ATOM     71  N   UNL     1      19.899  35.684   8.480  1.00  0.00     0.066 N 
ATOM     72  O   UNL     1      19.666  35.994   7.270  1.00  0.00    -0.258 OA
ATOM     73  O   UNL     1      19.094  34.811   9.139  1.00  0.00    -0.258 OA
ENDBRANCH  69  71
BRANCH  70  74
ATOM     74  O   UNL     1      20.470  38.520   8.255  1.00  0.00    -0.502 OA
ATOM     75  H   UNL     1      20.834  39.255   7.738  1.00  0.00     0.293 HD
ENDBRANCH  70  74
ENDBRANCH  63  65
ENDBRANCH  59  60
ENDBRANCH  58  59
ENDBRANCH  55  58
ENDBRANCH  53  54
ENDBRANCH  50  53
ENDBRANCH  47  50
ENDBRANCH   5  47
BRANCH   4  76
ATOM     76  N   UNL     1      28.194  29.948  19.833  1.00  0.00    -0.348 N 
ATOM     77  C   UNL     1      27.826  28.715  20.464  1.00  0.00     0.217 C 
ATOM     78  H   UNL     1      28.230  30.798  20.425  1.00  0.00     0.163 HD
ATOM     79  C   UNL     1      27.511  28.681  21.912  1.00  0.00     0.114 C 
ATOM     80  O   UNL     1      27.778  27.665  19.756  1.00  0.00    -0.275 OA
ENDBRANCH   4  76
TORSDOF 32
BEGIN_RES LYS A 131
REMARK  4 active torsions:
REMARK  status: ('A' for Active; 'I' for Inactive)
REMARK    1  A    between atoms: CA   and  CB  
REMARK    2  A    between atoms: CB   and  CG  
REMARK    3  A    between atoms: CG   and  CD  
REMARK    4  A    between atoms: CD   and  CE  
ROOT
ATOM      1  CA  LYS A 131      29.867  25.555  16.977  1.00 20.52     0.186 C 
ENDROOT
BRANCH   1   2
ATOM      2  CB  LYS A 131      28.345  25.722  17.026  1.00 20.94     0.034 C 
BRANCH   2   3
ATOM      3  CG  LYS A 131      27.601  24.401  16.907  1.00 22.96     0.005 C 
BRANCH   3   4
ATOM      4  CD  LYS A 131      26.172  24.512  17.358  1.00 24.33     0.041 C 
BRANCH   4   5
ATOM      5  CE  LYS A 131      25.905  23.494  18.462  1.00 26.91     0.338 C 
ATOM      6  NZ  LYS A 131      24.562  23.708  19.051  1.00 27.40     0.618 N 
ENDBRANCH   4   5
ENDBRANCH   3   4
ENDBRANCH   2   3
ENDBRANCH   1   2
END_RES LYS A 131
BEGIN_RES LYS A 135
REMARK  4 active torsions:
REMARK  status: ('A' for Active; 'I' for Inactive)
REMARK    5  A    between atoms: CA   and  CB  
REMARK    6  A    between atoms: CB   and  CG  
REMARK    7  A    between atoms: CG   and  CD  
REMARK    8  A    between atoms: CD   and  CE  
ROOT
ATOM      7  CA  LYS A 135      33.193  34.663   9.290  1.00 25.02     0.186 C 
ENDROOT
BRANCH   7   8
ATOM      8  CB  LYS A 135      32.060  35.360  10.034  1.00 26.63     0.034 C 
BRANCH   8   9
ATOM      9  CG  LYS A 135      30.746  34.627   9.954  1.00 29.45     0.005 C 
BRANCH   9  10
ATOM     10  CD  LYS A 135      30.350  34.391   8.504  1.00 32.00     0.041 C 
BRANCH  10  11
ATOM     11  CE  LYS A 135      28.846  34.488   8.340  1.00 34.25     0.338 C 
ATOM     12  NZ  LYS A 135      28.139  33.807   9.460  1.00 35.99     0.618 N 
ENDBRANCH  10  11
ENDBRANCH   9  10
ENDBRANCH   8   9
ENDBRANCH   7   8
END_RES LYS A 135
