REMARK VINA RESULT:    -4.323      4.592      8.186
REMARK INTER + INTRA:         -22.467
REMARK INTER:                 -10.445
REMARK INTRA:                 -12.022
REMARK UNBOUND:               -11.069
REMARK SMILES COCC(C(N)=O)n1cc(COC(=O)NC[C@@H](O)C(O)[C@@H]2O[C@@](OC[C@H]3O[C@@H](O[C@H]4[C@H](O)[C@@H](O)[C@H](OCCN=[N+]=[N-])O[C@@H]4CO)[C@H](O)[C@@H](O)[C@H]3O)(C(=O)O)C[C@H](O)[C@H]2NC(C)=O)nn1
REMARK SMILES IDX 23 1 55 2 56 3 58 4 21 5 22 6 24 7 25 8 26 9 28 10 27 11
REMARK SMILES IDX 46 12 48 13 50 14 29 15 30 16 43 17 42 18 35 19 31 20 33 21
REMARK SMILES IDX 44 22 45 23 36 25 37 26 38 27 39 28 40 29 41 30 32 31 34 33
REMARK SMILES IDX 47 35 49 37 51 39 52 41 53 42 54 43 57 45 19 47 20 48 17 50
REMARK SMILES IDX 18 51 16 53 15 54 13 55 14 57 12 58 11 59 10 60 9 61 63 62
REMARK SMILES IDX 8 63 64 64 4 65 3 66 2 67 1 68 5 69 7 70 6 71 59 74 60 75
REMARK SMILES IDX 61 77 62 78
REMARK H PARENT 45 24 32 32 34 34 47 36 49 38 51 40 54 44 57 46 20 49 18 52
REMARK H PARENT 15 56 6 72 6 73 59 76
REMARK Flexibility Score: inf
ROOT
ATOM      1  C   UNL     1      27.824  39.525   5.538  1.00  0.00     0.272 C 
ATOM      2  C   UNL     1      28.107  38.220   4.899  1.00  0.00     0.113 C 
ATOM      3  C   UNL     1      28.228  37.040   5.790  1.00  0.00     0.145 C 
ATOM      4  C   UNL     1      28.930  37.423   7.065  1.00  0.00     0.142 C 
ATOM      5  C   UNL     1      29.623  38.752   6.810  1.00  0.00     0.178 C 
ATOM      6  O   UNL     1      28.680  39.728   6.619  1.00  0.00    -0.332 OA
ENDROOT
BRANCH   1   7
ATOM      7  O   UNL     1      26.550  39.746   5.982  1.00  0.00    -0.338 OA
BRANCH   7   8
ATOM      8  C   UNL     1      26.386  40.360   7.179  1.00  0.00     0.199 C 
BRANCH   8   9
ATOM      9  C   UNL     1      25.071  41.146   7.261  1.00  0.00     0.179 C 
ATOM     10  C   UNL     1      23.738  40.114   8.859  1.00  0.00     0.282 C 
ATOM     11  O   UNL     1      24.005  40.330   7.514  1.00  0.00    -0.341 OA
ATOM     12  C   UNL     1      23.594  41.374   9.640  1.00  0.00     0.202 C 
ATOM     13  C   UNL     1      24.791  42.258   9.516  1.00  0.00     0.179 C 
ATOM     14  C   UNL     1      25.178  42.379   8.086  1.00  0.00     0.177 C 
BRANCH  10  15
ATOM     15  O   UNL     1      24.641  39.248   9.448  1.00  0.00    -0.341 OA
BRANCH  15  16
ATOM     16  C   UNL     1      24.115  37.960   9.527  1.00  0.00     0.184 C 
ATOM     17  C   UNL     1      24.166  37.334  10.868  1.00  0.00     0.178 C 
ATOM     18  O   UNL     1      23.473  36.150  10.908  1.00  0.00    -0.341 OA
ATOM     19  C   UNL     1      23.474  35.436   9.709  1.00  0.00     0.281 C 
ATOM     20  C   UNL     1      24.995  37.100   8.602  1.00  0.00     0.180 C 
ATOM     21  C   UNL     1      24.767  35.667   8.942  1.00  0.00     0.202 C 
BRANCH  17  22
ATOM     22  C   UNL     1      23.621  38.196  11.992  1.00  0.00     0.191 C 
BRANCH  22  23
ATOM     23  O   UNL     1      22.293  38.526  11.734  1.00  0.00    -0.394 OA
ATOM     24  H   UNL     1      22.178  39.485  11.540  1.00  0.00     0.210 HD
ENDBRANCH  22  23
ENDBRANCH  17  22
BRANCH  19  25
ATOM     25  O   UNL     1      22.365  35.734   8.999  1.00  0.00    -0.350 OA
BRANCH  25  26
ATOM     26  C   UNL     1      21.138  35.634   9.556  1.00  0.00     0.169 C 
BRANCH  26  27
ATOM     27  C   UNL     1      20.181  36.757   9.354  1.00  0.00     0.119 C 
BRANCH  27  28
ATOM     28  N   UNL     1      20.811  37.971   8.942  1.00  0.00    -0.092 NA
ATOM     29  N   UNL     1      20.326  39.055   9.254  1.00  0.00     0.001 N 
ATOM     30  N   UNL     1      20.195  40.111   9.895  1.00  0.00    -0.003 NA
ENDBRANCH  27  28
ENDBRANCH  26  27
ENDBRANCH  25  26
ENDBRANCH  19  25
BRANCH  20  31
ATOM     31  O   UNL     1      24.676  37.370   7.272  1.00  0.00    -0.387 OA
ATOM     32  H   UNL     1      24.960  36.581   6.755  1.00  0.00     0.211 HD
ENDBRANCH  20  31
BRANCH  21  33
ATOM     33  O   UNL     1      25.804  35.173   9.761  1.00  0.00    -0.385 OA
ATOM     34  H   UNL     1      26.560  35.828   9.757  1.00  0.00     0.211 HD
ENDBRANCH  21  33
ENDBRANCH  15  16
ENDBRANCH  10  15
BRANCH  12  35
ATOM     35  O   UNL     1      22.512  42.079   9.081  1.00  0.00    -0.385 OA
ATOM     36  H   UNL     1      22.718  43.035   9.009  1.00  0.00     0.211 HD
ENDBRANCH  12  35
BRANCH  13  37
ATOM     37  O   UNL     1      25.832  41.878  10.362  1.00  0.00    -0.387 OA
ATOM     38  H   UNL     1      25.524  41.060  10.837  1.00  0.00     0.211 HD
ENDBRANCH  13  37
BRANCH  14  39
ATOM     39  O   UNL     1      26.472  42.889   7.959  1.00  0.00    -0.387 OA
ATOM     40  H   UNL     1      27.138  42.254   8.334  1.00  0.00     0.211 HD
ENDBRANCH  14  39
ENDBRANCH   8   9
ENDBRANCH   7   8
ENDBRANCH   1   7
BRANCH   1  41
ATOM     41  C   UNL     1      28.219  40.593   4.550  1.00  0.00     0.364 C 
ATOM     42  O   UNL     1      27.483  40.899   3.593  1.00  0.00    -0.246 OA
BRANCH  41  43
ATOM     43  O   UNL     1      29.419  41.230   4.724  1.00  0.00    -0.477 OA
ATOM     44  H   UNL     1      29.981  41.128   5.555  1.00  0.00     0.296 HD
ENDBRANCH  41  43
ENDBRANCH   1  41
BRANCH   3  45
ATOM     45  O   UNL     1      27.026  36.380   6.028  1.00  0.00    -0.391 OA
ATOM     46  H   UNL     1      26.445  36.437   5.228  1.00  0.00     0.211 HD
ENDBRANCH   3  45
BRANCH   5  47
ATOM     47  C   UNL     1      30.489  39.111   8.002  1.00  0.00     0.176 C 
BRANCH  47  48
ATOM     48  O   UNL     1      31.752  38.608   7.924  1.00  0.00    -0.388 OA
ATOM     49  H   UNL     1      32.404  38.896   8.576  1.00  0.00     0.211 HD
ENDBRANCH  47  48
BRANCH  47  50
ATOM     50  C   UNL     1      30.527  40.604   8.185  1.00  0.00     0.165 C 
BRANCH  50  51
ATOM     51  O   UNL     1      31.356  41.107   7.152  1.00  0.00    -0.388 OA
ATOM     52  H   UNL     1      30.954  41.944   6.792  1.00  0.00     0.211 HD
ENDBRANCH  50  51
BRANCH  50  53
ATOM     53  C   UNL     1      31.138  41.059   9.467  1.00  0.00     0.154 C 
BRANCH  53  54
ATOM     54  N   UNL     1      30.715  40.370  10.641  1.00  0.00    -0.319 N 
ATOM     55  C   UNL     1      29.488  40.648  11.302  1.00  0.00     0.407 C 
ATOM     56  H   UNL     1      31.316  39.614  11.069  1.00  0.00     0.167 HD
ATOM     57  O   UNL     1      28.742  41.529  10.849  1.00  0.00    -0.225 OA
BRANCH  55  58
ATOM     58  O   UNL     1      29.095  39.955  12.452  1.00  0.00    -0.443 OA
BRANCH  58  59
ATOM     59  C   UNL     1      27.792  39.494  12.645  1.00  0.00     0.294 C 
BRANCH  59  60
ATOM     60  C   UNL     1      27.618  38.044  12.497  1.00  0.00     0.120 A 
ATOM     61  C   UNL     1      27.186  37.210  13.498  1.00  0.00     0.139 A 
ATOM     62  N   UNL     1      27.847  37.327  11.391  1.00  0.00    -0.132 NA
ATOM     63  N   UNL     1      27.162  35.985  12.968  1.00  0.00    -0.237 N 
ATOM     64  N   UNL     1      27.562  36.071  11.697  1.00  0.00    -0.066 NA
BRANCH  63  65
ATOM     65  C   UNL     1      26.765  34.777  13.667  1.00  0.00     0.223 C 
BRANCH  65  66
ATOM     66  C   UNL     1      26.768  35.055  15.135  1.00  0.00     0.197 C 
BRANCH  66  67
ATOM     67  O   UNL     1      27.716  34.315  15.797  1.00  0.00    -0.382 OA
ATOM     68  C   UNL     1      27.883  34.747  17.086  1.00  0.00     0.195 C 
ENDBRANCH  66  67
ENDBRANCH  65  66
BRANCH  65  69
ATOM     69  C   UNL     1      25.379  34.448  13.192  1.00  0.00     0.244 C 
ATOM     70  O   UNL     1      25.241  33.595  12.293  1.00  0.00    -0.273 OA
ATOM     71  N   UNL     1      24.275  35.115  13.780  1.00  0.00    -0.368 N 
ATOM     72  H   UNL     1      23.724  35.853  13.310  1.00  0.00     0.159 HD
ATOM     73  H   UNL     1      24.008  34.842  14.750  1.00  0.00     0.159 HD
ENDBRANCH  65  69
ENDBRANCH  63  65
ENDBRANCH  59  60
ENDBRANCH  58  59
ENDBRANCH  55  58
ENDBRANCH  53  54
ENDBRANCH  50  53
ENDBRANCH  47  50
ENDBRANCH   5  47
BRANCH   4  74
ATOM     74  N   UNL     1      29.876  36.389   7.479  1.00  0.00    -0.348 N 
ATOM     75  C   UNL     1      29.500  35.233   8.216  1.00  0.00     0.217 C 
ATOM     76  H   UNL     1      30.893  36.472   7.233  1.00  0.00     0.163 HD
ATOM     77  C   UNL     1      30.434  34.179   8.642  1.00  0.00     0.114 C 
ATOM     78  O   UNL     1      28.264  35.116   8.519  1.00  0.00    -0.275 OA
ENDBRANCH   4  74
TORSDOF 33
BEGIN_RES LYS A 131
REMARK  4 active torsions:
REMARK  status: ('A' for Active; 'I' for Inactive)
REMARK    1  A    between atoms: CA   and  CB  
REMARK    2  A    between atoms: CB   and  CG  
REMARK    3  A    between atoms: CG   and  CD  
REMARK    4  A    between atoms: CD   and  CE  
ROOT
ATOM      1  CA  LYS A 131      29.867  25.555  16.977  1.00 20.52     0.186 C 
ENDROOT
BRANCH   1   2
ATOM      2  CB  LYS A 131      28.345  25.722  17.026  1.00 20.94     0.034 C 
BRANCH   2   3
ATOM      3  CG  LYS A 131      27.601  24.403  16.881  1.00 22.96     0.005 C 
BRANCH   3   4
ATOM      4  CD  LYS A 131      26.153  24.525  17.266  1.00 24.33     0.041 C 
BRANCH   4   5
ATOM      5  CE  LYS A 131      26.039  24.671  18.780  1.00 26.91     0.338 C 
ATOM      6  NZ  LYS A 131      25.520  23.422  19.385  1.00 27.40     0.618 N 
ENDBRANCH   4   5
ENDBRANCH   3   4
ENDBRANCH   2   3
ENDBRANCH   1   2
END_RES LYS A 131
BEGIN_RES LYS A 135
REMARK  4 active torsions:
REMARK  status: ('A' for Active; 'I' for Inactive)
REMARK    5  A    between atoms: CA   and  CB  
REMARK    6  A    between atoms: CB   and  CG  
REMARK    7  A    between atoms: CG   and  CD  
REMARK    8  A    between atoms: CD   and  CE  
ROOT
ATOM      7  CA  LYS A 135      33.193  34.663   9.290  1.00 25.02     0.186 C 
ENDROOT
BRANCH   7   8
ATOM      8  CB  LYS A 135      32.060  35.360  10.034  1.00 26.63     0.034 C 
BRANCH   8   9
ATOM      9  CG  LYS A 135      32.530  36.216  11.182  1.00 29.45     0.005 C 
BRANCH   9  10
ATOM     10  CD  LYS A 135      32.071  35.632  12.509  1.00 32.00     0.041 C 
BRANCH  10  11
ATOM     11  CE  LYS A 135      30.785  34.847  12.330  1.00 34.25     0.338 C 
ATOM     12  NZ  LYS A 135      30.364  34.207  13.607  1.00 35.99     0.618 N 
ENDBRANCH  10  11
ENDBRANCH   9  10
ENDBRANCH   8   9
ENDBRANCH   7   8
END_RES LYS A 135
