REMARK VINA RESULT:    -4.100      3.596      8.993
REMARK INTER + INTRA:         -21.882
REMARK INTER:                 -10.067
REMARK INTRA:                 -11.815
REMARK UNBOUND:               -11.069
REMARK SMILES COCC(C(N)=O)n1cc(COC(=O)NC[C@@H](O)C(O)[C@@H]2O[C@@](OC[C@H]3O[C@@H](O[C@H]4[C@H](O)[C@@H](O)[C@H](OCCN=[N+]=[N-])O[C@@H]4CO)[C@H](O)[C@@H](O)[C@H]3O)(C(=O)O)C[C@H](O)[C@H]2NC(C)=O)nn1
REMARK SMILES IDX 23 1 55 2 56 3 58 4 21 5 22 6 24 7 25 8 26 9 28 10 27 11
REMARK SMILES IDX 46 12 48 13 50 14 29 15 30 16 43 17 42 18 35 19 31 20 33 21
REMARK SMILES IDX 44 22 45 23 36 25 37 26 38 27 39 28 40 29 41 30 32 31 34 33
REMARK SMILES IDX 47 35 49 37 51 39 52 41 53 42 54 43 57 45 19 47 20 48 17 50
REMARK SMILES IDX 18 51 16 53 15 54 13 55 14 57 12 58 11 59 10 60 9 61 63 62
REMARK SMILES IDX 8 63 64 64 4 65 3 66 2 67 1 68 5 69 7 70 6 71 59 74 60 75
REMARK SMILES IDX 61 77 62 78
REMARK H PARENT 45 24 32 32 34 34 47 36 49 38 51 40 54 44 57 46 20 49 18 52
REMARK H PARENT 15 56 6 72 6 73 59 76
REMARK Flexibility Score: inf
ROOT
ATOM      1  C   UNL     1      28.846  31.980  16.347  1.00  0.00     0.272 C 
ATOM      2  C   UNL     1      30.070  31.698  15.564  1.00  0.00     0.113 C 
ATOM      3  C   UNL     1      30.925  32.857  15.202  1.00  0.00     0.145 C 
ATOM      4  C   UNL     1      30.069  34.047  14.863  1.00  0.00     0.142 C 
ATOM      5  C   UNL     1      28.663  33.526  14.607  1.00  0.00     0.178 C 
ATOM      6  O   UNL     1      28.140  33.037  15.776  1.00  0.00    -0.332 OA
ENDROOT
BRANCH   1   7
ATOM      7  O   UNL     1      29.000  32.264  17.676  1.00  0.00    -0.338 OA
BRANCH   7   8
ATOM      8  C   UNL     1      27.908  32.657  18.377  1.00  0.00     0.199 C 
BRANCH   8   9
ATOM      9  C   UNL     1      28.275  33.439  19.645  1.00  0.00     0.179 C 
ATOM     10  C   UNL     1      29.494  32.014  21.016  1.00  0.00     0.282 C 
ATOM     11  O   UNL     1      28.283  32.638  20.752  1.00  0.00    -0.341 OA
ATOM     12  C   UNL     1      30.642  32.960  21.081  1.00  0.00     0.202 C 
ATOM     13  C   UNL     1      30.775  33.776  19.838  1.00  0.00     0.179 C 
ATOM     14  C   UNL     1      29.449  34.332  19.460  1.00  0.00     0.177 C 
BRANCH  10  15
ATOM     15  O   UNL     1      29.747  30.961  20.156  1.00  0.00    -0.341 OA
BRANCH  15  16
ATOM     16  C   UNL     1      29.478  29.740  20.773  1.00  0.00     0.184 C 
ATOM     17  C   UNL     1      30.507  28.691  20.582  1.00  0.00     0.178 C 
ATOM     18  O   UNL     1      30.264  27.587  21.360  1.00  0.00    -0.341 OA
ATOM     19  C   UNL     1      28.913  27.327  21.593  1.00  0.00     0.281 C 
ATOM     20  C   UNL     1      28.188  29.222  20.113  1.00  0.00     0.180 C 
ATOM     21  C   UNL     1      28.065  27.767  20.410  1.00  0.00     0.202 C 
BRANCH  17  22
ATOM     22  C   UNL     1      31.927  29.133  20.883  1.00  0.00     0.191 C 
BRANCH  22  23
ATOM     23  O   UNL     1      32.590  28.140  21.601  1.00  0.00    -0.394 OA
ATOM     24  H   UNL     1      33.548  28.093  21.374  1.00  0.00     0.210 HD
ENDBRANCH  22  23
ENDBRANCH  17  22
BRANCH  19  25
ATOM     25  O   UNL     1      28.535  27.884  22.764  1.00  0.00    -0.350 OA
BRANCH  25  26
ATOM     26  C   UNL     1      28.997  27.405  23.940  1.00  0.00     0.169 C 
BRANCH  26  27
ATOM     27  C   UNL     1      28.699  25.989  24.289  1.00  0.00     0.119 C 
BRANCH  27  28
ATOM     28  N   UNL     1      29.866  25.169  24.375  1.00  0.00    -0.092 NA
ATOM     29  N   UNL     1      30.438  25.020  25.451  1.00  0.00     0.001 N 
ATOM     30  N   UNL     1      30.764  24.455  26.508  1.00  0.00    -0.003 NA
ENDBRANCH  27  28
ENDBRANCH  26  27
ENDBRANCH  25  26
ENDBRANCH  19  25
BRANCH  20  31
ATOM     31  O   UNL     1      27.097  29.940  20.596  1.00  0.00    -0.387 OA
ATOM     32  H   UNL     1      26.725  30.429  19.826  1.00  0.00     0.211 HD
ENDBRANCH  20  31
BRANCH  21  33
ATOM     33  O   UNL     1      28.490  26.990  19.311  1.00  0.00    -0.385 OA
ATOM     34  H   UNL     1      29.133  27.527  18.764  1.00  0.00     0.211 HD
ENDBRANCH  21  33
ENDBRANCH  15  16
ENDBRANCH  10  15
BRANCH  12  35
ATOM     35  O   UNL     1      30.371  33.860  22.128  1.00  0.00    -0.385 OA
ATOM     36  H   UNL     1      30.857  33.606  22.941  1.00  0.00     0.211 HD
ENDBRANCH  12  35
BRANCH  13  37
ATOM     37  O   UNL     1      31.424  33.093  18.810  1.00  0.00    -0.387 OA
ATOM     38  H   UNL     1      31.026  32.181  18.784  1.00  0.00     0.211 HD
ENDBRANCH  13  37
BRANCH  14  39
ATOM     39  O   UNL     1      29.457  34.792  18.142  1.00  0.00    -0.387 OA
ATOM     40  H   UNL     1      28.789  35.517  18.019  1.00  0.00     0.211 HD
ENDBRANCH  14  39
ENDBRANCH   8   9
ENDBRANCH   7   8
ENDBRANCH   1   7
BRANCH   1  41
ATOM     41  C   UNL     1      27.933  30.793  16.176  1.00  0.00     0.364 C 
ATOM     42  O   UNL     1      28.254  29.660  16.583  1.00  0.00    -0.246 OA
BRANCH  41  43
ATOM     43  O   UNL     1      26.726  30.982  15.556  1.00  0.00    -0.477 OA
ATOM     44  H   UNL     1      25.900  30.454  15.790  1.00  0.00     0.296 HD
ENDBRANCH  41  43
ENDBRANCH   1  41
BRANCH   3  45
ATOM     45  O   UNL     1      31.901  33.161  16.147  1.00  0.00    -0.391 OA
ATOM     46  H   UNL     1      32.156  32.345  16.645  1.00  0.00     0.211 HD
ENDBRANCH   3  45
BRANCH   5  47
ATOM     47  C   UNL     1      27.788  34.654  14.095  1.00  0.00     0.176 C 
BRANCH  47  48
ATOM     48  O   UNL     1      27.631  34.644  12.742  1.00  0.00    -0.388 OA
ATOM     49  H   UNL     1      27.757  35.470  12.256  1.00  0.00     0.211 HD
ENDBRANCH  47  48
BRANCH  47  50
ATOM     50  C   UNL     1      26.450  34.625  14.780  1.00  0.00     0.165 C 
BRANCH  50  51
ATOM     51  O   UNL     1      25.841  33.400  14.409  1.00  0.00    -0.388 OA
ATOM     52  H   UNL     1      25.863  32.779  15.187  1.00  0.00     0.211 HD
ENDBRANCH  50  51
BRANCH  50  53
ATOM     53  C   UNL     1      25.509  35.702  14.356  1.00  0.00     0.154 C 
BRANCH  53  54
ATOM     54  N   UNL     1      24.179  35.288  14.053  1.00  0.00    -0.319 N 
ATOM     55  C   UNL     1      23.783  34.838  12.765  1.00  0.00     0.407 C 
ATOM     56  H   UNL     1      23.427  35.304  14.794  1.00  0.00     0.167 HD
ATOM     57  O   UNL     1      24.622  34.801  11.852  1.00  0.00    -0.225 OA
BRANCH  55  58
ATOM     58  O   UNL     1      22.471  34.435  12.494  1.00  0.00    -0.443 OA
BRANCH  58  59
ATOM     59  C   UNL     1      22.109  33.094  12.352  1.00  0.00     0.294 C 
BRANCH  59  60
ATOM     60  C   UNL     1      22.747  32.176  13.303  1.00  0.00     0.120 A 
ATOM     61  C   UNL     1      22.254  31.889  14.552  1.00  0.00     0.139 A 
ATOM     62  N   UNL     1      23.879  31.490  13.106  1.00  0.00    -0.132 NA
ATOM     63  N   UNL     1      23.112  31.022  15.094  1.00  0.00    -0.237 N 
ATOM     64  N   UNL     1      24.086  30.791  14.210  1.00  0.00    -0.066 NA
BRANCH  63  65
ATOM     65  C   UNL     1      22.992  30.440  16.417  1.00  0.00     0.223 C 
BRANCH  65  66
ATOM     66  C   UNL     1      23.808  29.190  16.463  1.00  0.00     0.197 C 
BRANCH  66  67
ATOM     67  O   UNL     1      24.923  29.331  17.250  1.00  0.00    -0.382 OA
ATOM     68  C   UNL     1      25.345  28.127  17.750  1.00  0.00     0.195 C 
ENDBRANCH  66  67
ENDBRANCH  65  66
BRANCH  65  69
ATOM     69  C   UNL     1      23.529  31.459  17.379  1.00  0.00     0.244 C 
ATOM     70  O   UNL     1      22.976  31.584  18.490  1.00  0.00    -0.273 OA
ATOM     71  N   UNL     1      24.645  32.245  16.996  1.00  0.00    -0.368 N 
ATOM     72  H   UNL     1      24.592  33.245  16.740  1.00  0.00     0.159 HD
ATOM     73  H   UNL     1      25.577  31.778  16.969  1.00  0.00     0.159 HD
ENDBRANCH  65  69
ENDBRANCH  63  65
ENDBRANCH  59  60
ENDBRANCH  58  59
ENDBRANCH  55  58
ENDBRANCH  53  54
ENDBRANCH  50  53
ENDBRANCH  47  50
ENDBRANCH   5  47
BRANCH   4  74
ATOM     74  N   UNL     1      30.598  34.766  13.706  1.00  0.00    -0.348 N 
ATOM     75  C   UNL     1      31.632  35.737  13.793  1.00  0.00     0.217 C 
ATOM     76  H   UNL     1      30.219  34.577  12.745  1.00  0.00     0.163 HD
ATOM     77  C   UNL     1      32.182  36.472  12.643  1.00  0.00     0.114 C 
ATOM     78  O   UNL     1      32.106  35.975  14.956  1.00  0.00    -0.275 OA
ENDBRANCH   4  74
TORSDOF 33
BEGIN_RES LYS A 131
REMARK  4 active torsions:
REMARK  status: ('A' for Active; 'I' for Inactive)
REMARK    1  A    between atoms: CA   and  CB  
REMARK    2  A    between atoms: CB   and  CG  
REMARK    3  A    between atoms: CG   and  CD  
REMARK    4  A    between atoms: CD   and  CE  
ROOT
ATOM      1  CA  LYS A 131      29.867  25.555  16.977  1.00 20.52     0.186 C 
ENDROOT
BRANCH   1   2
ATOM      2  CB  LYS A 131      28.345  25.722  17.026  1.00 20.94     0.034 C 
BRANCH   2   3
ATOM      3  CG  LYS A 131      27.601  24.406  16.862  1.00 22.96     0.005 C 
BRANCH   3   4
ATOM      4  CD  LYS A 131      26.503  24.246  17.877  1.00 24.33     0.041 C 
BRANCH   4   5
ATOM      5  CE  LYS A 131      25.149  24.381  17.188  1.00 26.91     0.338 C 
ATOM      6  NZ  LYS A 131      24.440  23.079  17.176  1.00 27.40     0.618 N 
ENDBRANCH   4   5
ENDBRANCH   3   4
ENDBRANCH   2   3
ENDBRANCH   1   2
END_RES LYS A 131
BEGIN_RES LYS A 135
REMARK  4 active torsions:
REMARK  status: ('A' for Active; 'I' for Inactive)
REMARK    5  A    between atoms: CA   and  CB  
REMARK    6  A    between atoms: CB   and  CG  
REMARK    7  A    between atoms: CG   and  CD  
REMARK    8  A    between atoms: CD   and  CE  
ROOT
ATOM      7  CA  LYS A 135      33.193  34.663   9.290  1.00 25.02     0.186 C 
ENDROOT
BRANCH   7   8
ATOM      8  CB  LYS A 135      32.060  35.360  10.034  1.00 26.63     0.034 C 
BRANCH   8   9
ATOM      9  CG  LYS A 135      30.717  34.704   9.838  1.00 29.45     0.005 C 
BRANCH   9  10
ATOM     10  CD  LYS A 135      30.432  34.498   8.359  1.00 32.00     0.041 C 
BRANCH  10  11
ATOM     11  CE  LYS A 135      29.185  35.256   7.947  1.00 34.25     0.338 C 
ATOM     12  NZ  LYS A 135      27.954  34.559   8.413  1.00 35.99     0.618 N 
ENDBRANCH  10  11
ENDBRANCH   9  10
ENDBRANCH   8   9
ENDBRANCH   7   8
END_RES LYS A 135
