REMARK VINA RESULT:    -4.245      2.855      6.955
REMARK INTER + INTRA:         -22.262
REMARK INTER:                  -8.697
REMARK INTRA:                 -13.565
REMARK UNBOUND:               -11.069
REMARK SMILES COCC(C(N)=O)n1cc(COC(=O)NC[C@@H](O)C(O)[C@@H]2O[C@@](OC[C@H]3O[C@@H](O[C@H]4[C@H](O)[C@@H](O)[C@H](OCCN=[N+]=[N-])O[C@@H]4CO)[C@H](O)[C@@H](O)[C@H]3O)(C(=O)O)C[C@H](O)[C@H]2NC(C)=O)nn1
REMARK SMILES IDX 23 1 55 2 56 3 58 4 21 5 22 6 24 7 25 8 26 9 28 10 27 11
REMARK SMILES IDX 46 12 48 13 50 14 29 15 30 16 43 17 42 18 35 19 31 20 33 21
REMARK SMILES IDX 44 22 45 23 36 25 37 26 38 27 39 28 40 29 41 30 32 31 34 33
REMARK SMILES IDX 47 35 49 37 51 39 52 41 53 42 54 43 57 45 19 47 20 48 17 50
REMARK SMILES IDX 18 51 16 53 15 54 13 55 14 57 12 58 11 59 10 60 9 61 63 62
REMARK SMILES IDX 8 63 64 64 4 65 3 66 2 67 1 68 5 69 7 70 6 71 59 74 60 75
REMARK SMILES IDX 61 77 62 78
REMARK H PARENT 45 24 32 32 34 34 47 36 49 38 51 40 54 44 57 46 20 49 18 52
REMARK H PARENT 15 56 6 72 6 73 59 76
REMARK Flexibility Score: inf
ROOT
ATOM      1  C   UNL     1      27.944  31.933  16.396  1.00  0.00     0.272 C 
ATOM      2  C   UNL     1      26.482  31.782  16.225  1.00  0.00     0.113 C 
ATOM      3  C   UNL     1      25.701  33.010  15.936  1.00  0.00     0.145 C 
ATOM      4  C   UNL     1      26.252  34.171  16.720  1.00  0.00     0.142 C 
ATOM      5  C   UNL     1      27.124  33.590  17.823  1.00  0.00     0.178 C 
ATOM      6  O   UNL     1      28.221  32.987  17.265  1.00  0.00    -0.332 OA
ENDROOT
BRANCH   1   7
ATOM      7  O   UNL     1      28.693  32.129  15.269  1.00  0.00    -0.338 OA
BRANCH   7   8
ATOM      8  C   UNL     1      29.302  33.329  15.105  1.00  0.00     0.199 C 
BRANCH   8   9
ATOM      9  C   UNL     1      30.597  33.223  14.287  1.00  0.00     0.179 C 
ATOM     10  C   UNL     1      31.064  35.335  13.443  1.00  0.00     0.282 C 
ATOM     11  O   UNL     1      30.584  34.055  13.204  1.00  0.00    -0.341 OA
ATOM     12  C   UNL     1      32.418  35.350  14.063  1.00  0.00     0.202 C 
ATOM     13  C   UNL     1      32.468  34.567  15.333  1.00  0.00     0.179 C 
ATOM     14  C   UNL     1      31.822  33.243  15.130  1.00  0.00     0.177 C 
BRANCH  10  15
ATOM     15  O   UNL     1      30.168  36.115  14.151  1.00  0.00    -0.341 OA
BRANCH  15  16
ATOM     16  C   UNL     1      29.531  37.028  13.311  1.00  0.00     0.184 C 
ATOM     17  C   UNL     1      29.481  38.422  13.810  1.00  0.00     0.178 C 
ATOM     18  O   UNL     1      29.005  39.289  12.858  1.00  0.00    -0.341 OA
ATOM     19  C   UNL     1      28.070  38.735  11.983  1.00  0.00     0.281 C 
ATOM     20  C   UNL     1      28.075  36.541  13.205  1.00  0.00     0.180 C 
ATOM     21  C   UNL     1      27.247  37.662  12.678  1.00  0.00     0.202 C 
BRANCH  17  22
ATOM     22  C   UNL     1      30.813  38.977  14.278  1.00  0.00     0.191 C 
BRANCH  22  23
ATOM     23  O   UNL     1      31.228  38.306  15.426  1.00  0.00    -0.394 OA
ATOM     24  H   UNL     1      31.625  37.427  15.221  1.00  0.00     0.210 HD
ENDBRANCH  22  23
ENDBRANCH  17  22
BRANCH  19  25
ATOM     25  O   UNL     1      28.691  38.298  10.867  1.00  0.00    -0.350 OA
BRANCH  25  26
ATOM     26  C   UNL     1      29.541  39.101  10.187  1.00  0.00     0.169 C 
BRANCH  26  27
ATOM     27  C   UNL     1      29.205  39.449   8.779  1.00  0.00     0.119 C 
BRANCH  27  28
ATOM     28  N   UNL     1      28.295  38.531   8.171  1.00  0.00    -0.092 NA
ATOM     29  N   UNL     1      28.501  38.121   7.032  1.00  0.00     0.001 N 
ATOM     30  N   UNL     1      28.865  37.329   6.146  1.00  0.00    -0.003 NA
ENDBRANCH  27  28
ENDBRANCH  26  27
ENDBRANCH  25  26
ENDBRANCH  19  25
BRANCH  20  31
ATOM     31  O   UNL     1      28.017  35.423  12.375  1.00  0.00    -0.387 OA
ATOM     32  H   UNL     1      28.922  35.309  12.003  1.00  0.00     0.211 HD
ENDBRANCH  20  31
BRANCH  21  33
ATOM     33  O   UNL     1      26.555  38.312  13.723  1.00  0.00    -0.385 OA
ATOM     34  H   UNL     1      25.593  38.040  13.693  1.00  0.00     0.211 HD
ENDBRANCH  21  33
ENDBRANCH  15  16
ENDBRANCH  10  15
BRANCH  12  35
ATOM     35  O   UNL     1      33.288  34.713  13.160  1.00  0.00    -0.385 OA
ATOM     36  H   UNL     1      33.038  33.773  13.039  1.00  0.00     0.211 HD
ENDBRANCH  12  35
BRANCH  13  37
ATOM     37  O   UNL     1      31.982  35.280  16.428  1.00  0.00    -0.387 OA
ATOM     38  H   UNL     1      31.020  35.040  16.515  1.00  0.00     0.211 HD
ENDBRANCH  13  37
BRANCH  14  39
ATOM     39  O   UNL     1      31.533  32.635  16.353  1.00  0.00    -0.387 OA
ATOM     40  H   UNL     1      31.133  33.290  16.985  1.00  0.00     0.211 HD
ENDBRANCH  14  39
ENDBRANCH   8   9
ENDBRANCH   7   8
ENDBRANCH   1   7
BRANCH   1  41
ATOM     41  C   UNL     1      28.429  30.712  17.133  1.00  0.00     0.364 C 
ATOM     42  O   UNL     1      27.639  29.833  17.528  1.00  0.00    -0.246 OA
BRANCH  41  43
ATOM     43  O   UNL     1      29.773  30.581  17.366  1.00  0.00    -0.477 OA
ATOM     44  H   UNL     1      30.269  31.137  18.044  1.00  0.00     0.296 HD
ENDBRANCH  41  43
ENDBRANCH   1  41
BRANCH   3  45
ATOM     45  O   UNL     1      25.577  33.301  14.581  1.00  0.00    -0.391 OA
ATOM     46  H   UNL     1      25.269  32.498  14.090  1.00  0.00     0.211 HD
ENDBRANCH   3  45
BRANCH   5  47
ATOM     47  C   UNL     1      27.573  34.700  18.753  1.00  0.00     0.176 C 
BRANCH  47  48
ATOM     48  O   UNL     1      28.336  34.259  19.792  1.00  0.00    -0.388 OA
ATOM     49  H   UNL     1      28.014  33.514  20.317  1.00  0.00     0.211 HD
ENDBRANCH  47  48
BRANCH  47  50
ATOM     50  C   UNL     1      28.304  35.762  17.978  1.00  0.00     0.165 C 
BRANCH  50  51
ATOM     51  O   UNL     1      29.476  35.147  17.472  1.00  0.00    -0.388 OA
ATOM     52  H   UNL     1      30.048  34.861  18.236  1.00  0.00     0.211 HD
ENDBRANCH  50  51
BRANCH  50  53
ATOM     53  C   UNL     1      28.763  36.924  18.792  1.00  0.00     0.154 C 
BRANCH  53  54
ATOM     54  N   UNL     1      29.837  36.671  19.695  1.00  0.00    -0.319 N 
ATOM     55  C   UNL     1      31.195  36.936  19.376  1.00  0.00     0.407 C 
ATOM     56  H   UNL     1      29.652  36.266  20.653  1.00  0.00     0.167 HD
ATOM     57  O   UNL     1      31.475  37.408  18.263  1.00  0.00    -0.225 OA
BRANCH  55  58
ATOM     58  O   UNL     1      32.231  36.681  20.281  1.00  0.00    -0.443 OA
BRANCH  58  59
ATOM     59  C   UNL     1      32.923  35.469  20.311  1.00  0.00     0.294 C 
BRANCH  59  60
ATOM     60  C   UNL     1      32.088  34.273  20.148  1.00  0.00     0.120 A 
ATOM     61  C   UNL     1      31.784  33.397  21.160  1.00  0.00     0.139 A 
ATOM     62  N   UNL     1      31.505  33.861  19.016  1.00  0.00    -0.132 NA
ATOM     63  N   UNL     1      31.011  32.457  20.611  1.00  0.00    -0.237 N 
ATOM     64  N   UNL     1      30.852  32.751  19.318  1.00  0.00    -0.066 NA
BRANCH  63  65
ATOM     65  C   UNL     1      30.449  31.318  21.313  1.00  0.00     0.223 C 
BRANCH  65  66
ATOM     66  C   UNL     1      29.050  31.108  20.834  1.00  0.00     0.197 C 
BRANCH  66  67
ATOM     67  O   UNL     1      28.158  31.933  21.472  1.00  0.00    -0.382 OA
ATOM     68  C   UNL     1      27.697  31.375  22.635  1.00  0.00     0.195 C 
ENDBRANCH  66  67
ENDBRANCH  65  66
BRANCH  65  69
ATOM     69  C   UNL     1      31.311  30.139  20.967  1.00  0.00     0.244 C 
ATOM     70  O   UNL     1      32.147  29.742  21.804  1.00  0.00    -0.273 OA
ATOM     71  N   UNL     1      31.149  29.516  19.704  1.00  0.00    -0.368 N 
ATOM     72  H   UNL     1      31.818  29.603  18.922  1.00  0.00     0.159 HD
ATOM     73  H   UNL     1      30.295  28.935  19.561  1.00  0.00     0.159 HD
ENDBRANCH  65  69
ENDBRANCH  63  65
ENDBRANCH  59  60
ENDBRANCH  58  59
ENDBRANCH  55  58
ENDBRANCH  53  54
ENDBRANCH  50  53
ENDBRANCH  47  50
ENDBRANCH   5  47
BRANCH   4  74
ATOM     74  N   UNL     1      25.178  35.002  17.259  1.00  0.00    -0.348 N 
ATOM     75  C   UNL     1      24.618  36.107  16.564  1.00  0.00     0.217 C 
ATOM     76  H   UNL     1      24.774  34.797  18.207  1.00  0.00     0.163 HD
ATOM     77  C   UNL     1      23.536  36.957  17.086  1.00  0.00     0.114 C 
ATOM     78  O   UNL     1      25.097  36.366  15.407  1.00  0.00    -0.275 OA
ENDBRANCH   4  74
TORSDOF 33
BEGIN_RES LYS A 131
REMARK  4 active torsions:
REMARK  status: ('A' for Active; 'I' for Inactive)
REMARK    1  A    between atoms: CA   and  CB  
REMARK    2  A    between atoms: CB   and  CG  
REMARK    3  A    between atoms: CG   and  CD  
REMARK    4  A    between atoms: CD   and  CE  
ROOT
ATOM      1  CA  LYS A 131      29.867  25.555  16.977  1.00 20.52     0.186 C 
ENDROOT
BRANCH   1   2
ATOM      2  CB  LYS A 131      28.345  25.722  17.026  1.00 20.94     0.034 C 
BRANCH   2   3
ATOM      3  CG  LYS A 131      27.601  24.404  16.877  1.00 22.96     0.005 C 
BRANCH   3   4
ATOM      4  CD  LYS A 131      26.538  24.232  17.926  1.00 24.33     0.041 C 
BRANCH   4   5
ATOM      5  CE  LYS A 131      25.202  23.934  17.253  1.00 26.91     0.338 C 
ATOM      6  NZ  LYS A 131      24.807  22.525  17.484  1.00 27.40     0.618 N 
ENDBRANCH   4   5
ENDBRANCH   3   4
ENDBRANCH   2   3
ENDBRANCH   1   2
END_RES LYS A 131
BEGIN_RES LYS A 135
REMARK  4 active torsions:
REMARK  status: ('A' for Active; 'I' for Inactive)
REMARK    5  A    between atoms: CA   and  CB  
REMARK    6  A    between atoms: CB   and  CG  
REMARK    7  A    between atoms: CG   and  CD  
REMARK    8  A    between atoms: CD   and  CE  
ROOT
ATOM      7  CA  LYS A 135      33.193  34.663   9.290  1.00 25.02     0.186 C 
ENDROOT
BRANCH   7   8
ATOM      8  CB  LYS A 135      32.060  35.360  10.034  1.00 26.63     0.034 C 
BRANCH   8   9
ATOM      9  CG  LYS A 135      30.883  35.700   9.157  1.00 29.45     0.005 C 
BRANCH   9  10
ATOM     10  CD  LYS A 135      30.389  34.466   8.418  1.00 32.00     0.041 C 
BRANCH  10  11
ATOM     11  CE  LYS A 135      28.875  34.462   8.339  1.00 34.25     0.338 C 
ATOM     12  NZ  LYS A 135      28.280  33.712   9.480  1.00 35.99     0.618 N 
ENDBRANCH  10  11
ENDBRANCH   9  10
ENDBRANCH   8   9
ENDBRANCH   7   8
END_RES LYS A 135
