REMARK VINA RESULT:    -4.583      4.648      9.193
REMARK INTER + INTRA:         -21.610
REMARK INTER:                  -9.230
REMARK INTRA:                 -12.380
REMARK UNBOUND:                -9.660
REMARK SMILES CC(=O)N[C@@H]1[C@@H](O)C[C@](OC[C@H]2O[C@@H](O[C@H]3[C@H](O)[C@@H](O)[C@H](OCCN=[N+]=[N-])O[C@@H]3CO)[C@H](O)[C@@H](O)[C@H]2O)(C(=O)O)O[C@H]1C(O)[C@H](O)CNC(=O)OCc1cn(CCC(=O)O)nn1
REMARK SMILES IDX 43 1 42 2 9 3 8 4 41 5 6 6 5 7 10 8 11 9 12 10 14 11 13 12
REMARK SMILES IDX 32 13 34 14 36 15 15 16 16 17 29 18 28 19 21 20 17 21 19 22
REMARK SMILES IDX 30 23 31 24 22 26 23 27 24 28 25 29 26 30 27 31 18 32 20 34
REMARK SMILES IDX 33 36 35 38 37 40 38 42 39 43 40 44 7 46 4 48 2 49 1 51 3 52
REMARK SMILES IDX 44 53 45 55 46 56 47 58 48 59 49 60 50 62 51 63 52 64 53 65
REMARK SMILES IDX 54 66 62 67 55 68 61 69 56 70 57 71 58 72 59 73 60 74
REMARK H PARENT 31 25 18 33 20 35 33 37 35 39 37 41 40 45 7 47 4 50 44 54
REMARK H PARENT 46 57 48 61 60 75
REMARK Flexibility Score: inf
ROOT
ATOM      1  C   UNL     1      31.836  33.520  15.256  1.00  0.00     0.176 C 
ENDROOT
BRANCH   1   2
ATOM      2  C   UNL     1      31.544  33.590  16.736  1.00  0.00     0.178 C 
ATOM      3  C   UNL     1      30.056  32.760  18.349  1.00  0.00     0.272 C 
ATOM      4  C   UNL     1      31.118  33.486  19.155  1.00  0.00     0.113 C 
ATOM      5  O   UNL     1      30.230  33.339  17.036  1.00  0.00    -0.332 OA
ATOM      6  C   UNL     1      31.251  34.955  18.705  1.00  0.00     0.145 C 
ATOM      7  C   UNL     1      31.857  34.966  17.307  1.00  0.00     0.142 C 
BRANCH   3   8
ATOM      8  O   UNL     1      28.824  33.062  18.798  1.00  0.00    -0.338 OA
BRANCH   8   9
ATOM      9  C   UNL     1      27.727  32.359  18.744  1.00  0.00     0.199 C 
BRANCH   9  10
ATOM     10  C   UNL     1      26.590  32.548  17.836  1.00  0.00     0.179 C 
ATOM     11  C   UNL     1      25.460  33.820  16.292  1.00  0.00     0.282 C 
ATOM     12  O   UNL     1      26.464  33.761  17.216  1.00  0.00    -0.341 OA
ATOM     13  C   UNL     1      24.641  32.571  16.130  1.00  0.00     0.202 C 
ATOM     14  C   UNL     1      25.508  31.331  16.028  1.00  0.00     0.179 C 
ATOM     15  C   UNL     1      26.870  31.564  16.641  1.00  0.00     0.177 C 
BRANCH  11  16
ATOM     16  O   UNL     1      25.897  34.173  15.016  1.00  0.00    -0.341 OA
BRANCH  16  17
ATOM     17  C   UNL     1      25.728  35.525  14.727  1.00  0.00     0.184 C 
ATOM     18  C   UNL     1      24.428  35.704  14.024  1.00  0.00     0.178 C 
ATOM     19  O   UNL     1      24.556  36.120  12.688  1.00  0.00    -0.341 OA
ATOM     20  C   UNL     1      25.446  35.194  12.108  1.00  0.00     0.281 C 
ATOM     21  C   UNL     1      26.926  35.968  13.940  1.00  0.00     0.180 C 
ATOM     22  C   UNL     1      26.831  35.678  12.475  1.00  0.00     0.202 C 
BRANCH  18  23
ATOM     23  C   UNL     1      23.543  36.711  14.743  1.00  0.00     0.191 C 
BRANCH  23  24
ATOM     24  O   UNL     1      24.159  37.960  14.772  1.00  0.00    -0.394 OA
ATOM     25  H   UNL     1      23.553  38.595  15.221  1.00  0.00     0.210 HD
ENDBRANCH  23  24
ENDBRANCH  18  23
BRANCH  20  26
ATOM     26  O   UNL     1      25.270  35.095  10.748  1.00  0.00    -0.350 OA
BRANCH  26  27
ATOM     27  C   UNL     1      24.235  35.940  10.356  1.00  0.00     0.169 C 
BRANCH  27  28
ATOM     28  C   UNL     1      24.394  36.274   8.879  1.00  0.00     0.119 C 
BRANCH  28  29
ATOM     29  N   UNL     1      25.745  36.768   8.715  1.00  0.00    -0.092 NA
ATOM     30  N   UNL     1      26.222  36.808   7.582  1.00  0.00     0.001 N 
ATOM     31  N   UNL     1      26.901  37.042   6.559  1.00  0.00    -0.003 NA
ENDBRANCH  28  29
ENDBRANCH  27  28
ENDBRANCH  26  27
ENDBRANCH  20  26
BRANCH  21  32
ATOM     32  O   UNL     1      27.050  37.343  14.112  1.00  0.00    -0.387 OA
ATOM     33  H   UNL     1      26.686  37.579  14.987  1.00  0.00     0.211 HD
ENDBRANCH  21  32
BRANCH  22  34
ATOM     34  O   UNL     1      27.805  34.759  12.082  1.00  0.00    -0.385 OA
ATOM     35  H   UNL     1      28.410  34.550  12.846  1.00  0.00     0.211 HD
ENDBRANCH  22  34
ENDBRANCH  16  17
ENDBRANCH  11  16
BRANCH  13  36
ATOM     36  O   UNL     1      23.644  32.431  17.108  1.00  0.00    -0.385 OA
ATOM     37  H   UNL     1      23.895  32.927  17.903  1.00  0.00     0.211 HD
ENDBRANCH  13  36
BRANCH  14  38
ATOM     38  O   UNL     1      25.569  30.889  14.726  1.00  0.00    -0.387 OA
ATOM     39  H   UNL     1      25.019  31.446  14.138  1.00  0.00     0.211 HD
ENDBRANCH  14  38
BRANCH  15  40
ATOM     40  O   UNL     1      27.722  32.243  15.803  1.00  0.00    -0.387 OA
ATOM     41  H   UNL     1      28.451  31.701  15.420  1.00  0.00     0.211 HD
ENDBRANCH  15  40
ENDBRANCH   9  10
ENDBRANCH   8   9
ENDBRANCH   3   8
BRANCH   3  42
ATOM     42  C   UNL     1      30.309  31.326  18.184  1.00  0.00     0.364 C 
ATOM     43  O   UNL     1      30.684  30.635  19.163  1.00  0.00    -0.246 OA
BRANCH  42  44
ATOM     44  O   UNL     1      30.146  30.704  16.972  1.00  0.00    -0.477 OA
ATOM     45  H   UNL     1      29.620  31.057  16.199  1.00  0.00     0.296 HD
ENDBRANCH  42  44
ENDBRANCH   3  42
BRANCH   6  46
ATOM     46  O   UNL     1      29.976  35.472  18.630  1.00  0.00    -0.391 OA
ATOM     47  H   UNL     1      29.375  34.892  19.183  1.00  0.00     0.211 HD
ENDBRANCH   6  46
BRANCH   7  48
ATOM     48  N   UNL     1      33.258  35.223  17.366  1.00  0.00    -0.348 N 
ATOM     49  C   UNL     1      33.754  36.492  16.963  1.00  0.00     0.217 C 
ATOM     50  H   UNL     1      33.950  34.515  17.694  1.00  0.00     0.163 HD
ATOM     51  C   UNL     1      35.195  36.842  16.990  1.00  0.00     0.114 C 
ATOM     52  O   UNL     1      32.967  37.395  16.555  1.00  0.00    -0.275 OA
ENDBRANCH   7  48
ENDBRANCH   1   2
BRANCH   1  53
ATOM     53  O   UNL     1      31.540  32.229  14.817  1.00  0.00    -0.388 OA
ATOM     54  H   UNL     1      32.264  31.604  15.025  1.00  0.00     0.211 HD
ENDBRANCH   1  53
BRANCH   1  55
ATOM     55  C   UNL     1      31.071  34.496  14.420  1.00  0.00     0.165 C 
BRANCH  55  56
ATOM     56  O   UNL     1      30.388  33.792  13.424  1.00  0.00    -0.388 OA
ATOM     57  H   UNL     1      30.998  33.116  13.043  1.00  0.00     0.211 HD
ENDBRANCH  55  56
BRANCH  55  58
ATOM     58  C   UNL     1      32.108  35.380  13.718  1.00  0.00     0.154 C 
BRANCH  58  59
ATOM     59  N   UNL     1      31.815  36.772  13.920  1.00  0.00    -0.319 N 
ATOM     60  C   UNL     1      30.768  37.479  13.267  1.00  0.00     0.407 C 
ATOM     61  H   UNL     1      32.394  37.351  14.600  1.00  0.00     0.167 HD
ATOM     62  O   UNL     1      30.051  36.841  12.456  1.00  0.00    -0.225 OA
BRANCH  60  63
ATOM     63  O   UNL     1      30.524  38.821  13.495  1.00  0.00    -0.443 OA
BRANCH  63  64
ATOM     64  C   UNL     1      30.648  39.331  14.799  1.00  0.00     0.294 C 
BRANCH  64  65
ATOM     65  C   UNL     1      29.679  38.692  15.708  1.00  0.00     0.120 A 
ATOM     66  C   UNL     1      28.655  39.390  16.335  1.00  0.00     0.138 A 
ATOM     67  N   UNL     1      29.589  37.389  16.072  1.00  0.00    -0.132 NA
ATOM     68  N   UNL     1      27.978  38.469  17.062  1.00  0.00    -0.252 N 
ATOM     69  N   UNL     1      28.558  37.291  16.885  1.00  0.00    -0.067 NA
BRANCH  68  70
ATOM     70  C   UNL     1      26.815  38.717  17.887  1.00  0.00     0.158 C 
BRANCH  70  71
ATOM     71  C   UNL     1      25.905  37.515  18.011  1.00  0.00     0.146 C 
BRANCH  71  72
ATOM     72  C   UNL     1      26.261  36.794  19.240  1.00  0.00     0.305 C 
ATOM     73  O   UNL     1      25.715  37.106  20.321  1.00  0.00    -0.252 OA
BRANCH  72  74
ATOM     74  O   UNL     1      27.200  35.763  19.243  1.00  0.00    -0.481 OA
ATOM     75  H   UNL     1      28.032  35.765  18.662  1.00  0.00     0.296 HD
ENDBRANCH  72  74
ENDBRANCH  71  72
ENDBRANCH  70  71
ENDBRANCH  68  70
ENDBRANCH  64  65
ENDBRANCH  63  64
ENDBRANCH  60  63
ENDBRANCH  58  59
ENDBRANCH  55  58
ENDBRANCH   1  55
TORSDOF 33
BEGIN_RES LYS A 131
REMARK  4 active torsions:
REMARK  status: ('A' for Active; 'I' for Inactive)
REMARK    1  A    between atoms: CA   and  CB  
REMARK    2  A    between atoms: CB   and  CG  
REMARK    3  A    between atoms: CG   and  CD  
REMARK    4  A    between atoms: CD   and  CE  
ROOT
ATOM      1  CA  LYS A 131      29.867  25.555  16.977  1.00 20.52     0.186 C 
ENDROOT
BRANCH   1   2
ATOM      2  CB  LYS A 131      28.345  25.722  17.026  1.00 20.94     0.034 C 
BRANCH   2   3
ATOM      3  CG  LYS A 131      27.602  24.399  16.927  1.00 22.96     0.005 C 
BRANCH   3   4
ATOM      4  CD  LYS A 131      26.470  24.310  17.913  1.00 24.33     0.041 C 
BRANCH   4   5
ATOM      5  CE  LYS A 131      26.063  25.713  18.349  1.00 26.91     0.338 C 
ATOM      6  NZ  LYS A 131      25.886  25.769  19.819  1.00 27.40     0.618 N 
ENDBRANCH   4   5
ENDBRANCH   3   4
ENDBRANCH   2   3
ENDBRANCH   1   2
END_RES LYS A 131
BEGIN_RES LYS A 135
REMARK  4 active torsions:
REMARK  status: ('A' for Active; 'I' for Inactive)
REMARK    5  A    between atoms: CA   and  CB  
REMARK    6  A    between atoms: CB   and  CG  
REMARK    7  A    between atoms: CG   and  CD  
REMARK    8  A    between atoms: CD   and  CE  
ROOT
ATOM      7  CA  LYS A 135      33.193  34.663   9.290  1.00 25.02     0.186 C 
ENDROOT
BRANCH   7   8
ATOM      8  CB  LYS A 135      32.060  35.360  10.034  1.00 26.63     0.034 C 
BRANCH   8   9
ATOM      9  CG  LYS A 135      30.823  35.561   9.197  1.00 29.45     0.005 C 
BRANCH   9  10
ATOM     10  CD  LYS A 135      30.087  34.245   9.002  1.00 32.00     0.041 C 
BRANCH  10  11
ATOM     11  CE  LYS A 135      28.734  34.481   8.358  1.00 34.25     0.338 C 
ATOM     12  NZ  LYS A 135      27.659  33.750   9.085  1.00 35.99     0.618 N 
ENDBRANCH  10  11
ENDBRANCH   9  10
ENDBRANCH   8   9
ENDBRANCH   7   8
END_RES LYS A 135
