REMARK VINA RESULT:    -4.624      3.754     10.634
REMARK INTER + INTRA:         -25.072
REMARK INTER:                 -12.805
REMARK INTRA:                 -12.267
REMARK UNBOUND:               -11.931
REMARK SMILES CC(=O)N[C@@H]1[C@@H](O)C[C@](OC[C@H]2O[C@@H](O[C@H]3[C@H](O)[C@@H](O)[C@H](OCCN=[N+]=[N-])O[C@@H]3CO)[C@H](O)[C@@H](O)[C@H]2O)(C(=O)O)O[C@H]1C(O)[C@H](O)CNC(=O)OCc1cn(CC(=O)NCC(O)Cn2ccnc2[N+](=O)[O-])nn1
REMARK SMILES IDX 47 1 45 2 43 3 42 4 9 5 8 6 41 7 6 8 5 9 10 10 11 11 12 12
REMARK SMILES IDX 14 13 13 14 32 15 34 16 36 17 15 18 16 19 29 20 28 21 21 22
REMARK SMILES IDX 17 23 19 24 30 25 31 26 22 28 23 29 24 30 25 31 26 32 27 33
REMARK SMILES IDX 18 34 20 36 33 38 35 40 37 42 38 44 39 45 40 46 7 48 4 50
REMARK SMILES IDX 2 51 1 53 3 54 44 55 46 57 48 59 49 60 50 62 51 63 52 64
REMARK SMILES IDX 53 65 54 66 73 67 55 68 72 69 56 70 57 71 58 72 59 73 60 75
REMARK SMILES IDX 61 76 62 77 63 79 64 80 65 81 68 82 66 83 67 84 69 85 70 86
REMARK SMILES IDX 71 87
REMARK H PARENT 31 27 18 35 20 37 33 39 35 41 37 43 40 47 7 49 4 52 44 56
REMARK H PARENT 46 58 48 61 59 74 62 78
REMARK Flexibility Score: inf
ROOT
ATOM      1  C   UNL     1      26.229  36.768   7.580  1.00  0.00     0.154 C 
ENDROOT
BRANCH   1   2
ATOM      2  C   UNL     1      26.359  37.531   8.855  1.00  0.00     0.165 C 
BRANCH   2   3
ATOM      3  C   UNL     1      27.086  38.821   8.778  1.00  0.00     0.176 C 
BRANCH   3   4
ATOM      4  C   UNL     1      28.207  39.071   9.699  1.00  0.00     0.178 C 
ATOM      5  C   UNL     1      30.407  38.568  10.255  1.00  0.00     0.272 C 
ATOM      6  C   UNL     1      30.285  39.887  10.933  1.00  0.00     0.113 C 
ATOM      7  O   UNL     1      29.282  38.237   9.477  1.00  0.00    -0.332 OA
ATOM      8  C   UNL     1      29.035  40.072  11.727  1.00  0.00     0.145 C 
ATOM      9  C   UNL     1      27.919  39.155  11.150  1.00  0.00     0.142 C 
BRANCH   5  10
ATOM     10  O   UNL     1      30.693  37.492  11.042  1.00  0.00    -0.338 OA
BRANCH  10  11
ATOM     11  C   UNL     1      31.836  37.526  11.777  1.00  0.00     0.199 C 
BRANCH  11  12
ATOM     12  C   UNL     1      31.611  37.205  13.242  1.00  0.00     0.179 C 
ATOM     13  C   UNL     1      30.057  36.235  14.684  1.00  0.00     0.282 C 
ATOM     14  O   UNL     1      30.314  37.036  13.577  1.00  0.00    -0.341 OA
ATOM     15  C   UNL     1      31.113  36.397  15.750  1.00  0.00     0.202 C 
ATOM     16  C   UNL     1      32.492  36.087  15.216  1.00  0.00     0.179 C 
ATOM     17  C   UNL     1      32.470  36.058  13.700  1.00  0.00     0.177 C 
BRANCH  13  18
ATOM     18  O   UNL     1      29.897  34.927  14.399  1.00  0.00    -0.341 OA
BRANCH  18  19
ATOM     19  C   UNL     1      28.951  34.176  14.987  1.00  0.00     0.184 C 
ATOM     20  C   UNL     1      29.255  32.718  15.198  1.00  0.00     0.178 C 
ATOM     21  O   UNL     1      28.369  32.274  16.183  1.00  0.00    -0.341 OA
ATOM     22  C   UNL     1      27.065  32.227  15.702  1.00  0.00     0.281 C 
ATOM     23  C   UNL     1      27.631  34.170  14.201  1.00  0.00     0.180 C 
ATOM     24  C   UNL     1      26.611  33.529  15.115  1.00  0.00     0.202 C 
BRANCH  20  25
ATOM     25  C   UNL     1      30.642  32.557  15.747  1.00  0.00     0.191 C 
BRANCH  25  26
ATOM     26  O   UNL     1      31.591  32.418  14.725  1.00  0.00    -0.394 OA
ATOM     27  H   UNL     1      31.276  31.615  14.201  1.00  0.00     0.210 HD
ENDBRANCH  25  26
ENDBRANCH  20  25
BRANCH  22  28
ATOM     28  O   UNL     1      26.237  31.942  16.785  1.00  0.00    -0.350 OA
BRANCH  28  29
ATOM     29  C   UNL     1      26.857  32.258  17.995  1.00  0.00     0.169 C 
BRANCH  29  30
ATOM     30  C   UNL     1      26.691  31.027  18.889  1.00  0.00     0.119 C 
BRANCH  30  31
ATOM     31  N   UNL     1      27.734  30.056  18.608  1.00  0.00    -0.092 NA
ATOM     32  N   UNL     1      27.364  28.948  18.165  1.00  0.00     0.001 N 
ATOM     33  N   UNL     1      27.100  27.974  17.471  1.00  0.00    -0.003 NA
ENDBRANCH  30  31
ENDBRANCH  29  30
ENDBRANCH  28  29
ENDBRANCH  22  28
BRANCH  23  34
ATOM     34  O   UNL     1      27.189  35.465  13.949  1.00  0.00    -0.387 OA
ATOM     35  H   UNL     1      27.677  36.036  14.623  1.00  0.00     0.211 HD
ENDBRANCH  23  34
BRANCH  24  36
ATOM     36  O   UNL     1      25.384  33.315  14.489  1.00  0.00    -0.385 OA
ATOM     37  H   UNL     1      24.746  34.015  14.816  1.00  0.00     0.211 HD
ENDBRANCH  24  36
ENDBRANCH  18  19
ENDBRANCH  13  18
BRANCH  15  38
ATOM     38  O   UNL     1      31.064  37.669  16.336  1.00  0.00    -0.385 OA
ATOM     39  H   UNL     1      30.531  38.230  15.689  1.00  0.00     0.211 HD
ENDBRANCH  15  38
BRANCH  16  40
ATOM     40  O   UNL     1      32.926  34.836  15.646  1.00  0.00    -0.387 OA
ATOM     41  H   UNL     1      33.804  34.579  15.235  1.00  0.00     0.211 HD
ENDBRANCH  16  40
BRANCH  17  42
ATOM     42  O   UNL     1      32.125  34.840  13.165  1.00  0.00    -0.387 OA
ATOM     43  H   UNL     1      31.810  34.905  12.222  1.00  0.00     0.211 HD
ENDBRANCH  17  42
ENDBRANCH  11  12
ENDBRANCH  10  11
ENDBRANCH   5  10
BRANCH   5  44
ATOM     44  C   UNL     1      31.493  38.719   9.216  1.00  0.00     0.364 C 
ATOM     45  O   UNL     1      32.315  39.636   9.391  1.00  0.00    -0.246 OA
BRANCH  44  46
ATOM     46  O   UNL     1      31.604  37.903   8.115  1.00  0.00    -0.477 OA
ATOM     47  H   UNL     1      32.486  37.395   7.923  1.00  0.00     0.296 HD
ENDBRANCH  44  46
ENDBRANCH   5  44
BRANCH   8  48
ATOM     48  O   UNL     1      29.122  39.927  13.074  1.00  0.00    -0.391 OA
ATOM     49  H   UNL     1      29.996  40.053  13.471  1.00  0.00     0.211 HD
ENDBRANCH   8  48
BRANCH   9  50
ATOM     50  N   UNL     1      26.685  39.720  11.551  1.00  0.00    -0.348 N 
ATOM     51  C   UNL     1      25.722  38.952  12.299  1.00  0.00     0.217 C 
ATOM     52  H   UNL     1      26.438  40.694  11.336  1.00  0.00     0.163 HD
ATOM     53  C   UNL     1      24.416  39.523  12.723  1.00  0.00     0.114 C 
ATOM     54  O   UNL     1      26.012  37.771  12.586  1.00  0.00    -0.275 OA
ENDBRANCH   9  50
ENDBRANCH   3   4
BRANCH   3  55
ATOM     55  O   UNL     1      26.111  39.848   8.844  1.00  0.00    -0.388 OA
ATOM     56  H   UNL     1      25.785  39.997   7.941  1.00  0.00     0.211 HD
ENDBRANCH   3  55
ENDBRANCH   2   3
BRANCH   2  57
ATOM     57  O   UNL     1      26.619  36.733   9.943  1.00  0.00    -0.388 OA
ATOM     58  H   UNL     1      27.023  37.176  10.711  1.00  0.00     0.211 HD
ENDBRANCH   2  57
ENDBRANCH   1   2
BRANCH   1  59
ATOM     59  N   UNL     1      26.381  37.642   6.448  1.00  0.00    -0.319 N 
ATOM     60  C   UNL     1      27.555  37.699   5.657  1.00  0.00     0.407 C 
ATOM     61  H   UNL     1      25.591  38.293   6.164  1.00  0.00     0.167 HD
ATOM     62  O   UNL     1      28.515  36.950   5.936  1.00  0.00    -0.225 OA
BRANCH  60  63
ATOM     63  O   UNL     1      27.724  38.540   4.578  1.00  0.00    -0.443 OA
BRANCH  63  64
ATOM     64  C   UNL     1      28.068  39.892   4.735  1.00  0.00     0.294 C 
BRANCH  64  65
ATOM     65  C   UNL     1      27.077  40.750   5.381  1.00  0.00     0.120 A 
ATOM     66  C   UNL     1      25.790  41.013   4.986  1.00  0.00     0.138 A 
ATOM     67  N   UNL     1      27.251  41.471   6.501  1.00  0.00    -0.132 NA
ATOM     68  N   UNL     1      25.227  41.874   5.865  1.00  0.00    -0.243 N 
ATOM     69  N   UNL     1      26.118  42.140   6.769  1.00  0.00    -0.067 NA
BRANCH  68  70
ATOM     70  C   UNL     1      23.862  42.383   5.816  1.00  0.00     0.245 C 
BRANCH  70  71
ATOM     71  C   UNL     1      23.204  42.126   7.115  1.00  0.00     0.241 C 
ATOM     72  O   UNL     1      22.405  42.978   7.631  1.00  0.00    -0.273 OA
ATOM     73  N   UNL     1      23.410  40.928   7.862  1.00  0.00    -0.352 N 
ATOM     74  H   UNL     1      24.049  40.207   7.486  1.00  0.00     0.163 HD
BRANCH  73  75
ATOM     75  C   UNL     1      22.718  40.766   9.127  1.00  0.00     0.151 C 
BRANCH  75  76
ATOM     76  C   UNL     1      21.931  39.494   9.187  1.00  0.00     0.168 C 
BRANCH  76  77
ATOM     77  O   UNL     1      21.557  39.163  10.478  1.00  0.00    -0.388 OA
ATOM     78  H   UNL     1      22.328  39.344  11.066  1.00  0.00     0.211 HD
ENDBRANCH  76  77
BRANCH  76  79
ATOM     79  C   UNL     1      22.792  38.397   8.580  1.00  0.00     0.239 C 
BRANCH  79  80
ATOM     80  N   UNL     1      22.119  37.130   8.582  1.00  0.00    -0.227 N 
ATOM     81  C   UNL     1      21.205  36.737   7.655  1.00  0.00     0.204 A 
ATOM     82  C   UNL     1      22.210  36.097   9.456  1.00  0.00     0.434 A 
ATOM     83  C   UNL     1      20.752  35.480   7.971  1.00  0.00     0.245 A 
ATOM     84  N   UNL     1      21.380  35.105   9.080  1.00  0.00    -0.074 NA
BRANCH  82  85
ATOM     85  N   UNL     1      23.067  36.060  10.596  1.00  0.00    -0.047 N 
ATOM     86  O   UNL     1      22.839  36.654  11.650  1.00  0.00    -0.390 OA
ATOM     87  O   UNL     1      24.236  35.316  10.511  1.00  0.00    -0.390 OA
ENDBRANCH  82  85
ENDBRANCH  79  80
ENDBRANCH  76  79
ENDBRANCH  75  76
ENDBRANCH  73  75
ENDBRANCH  70  71
ENDBRANCH  68  70
ENDBRANCH  64  65
ENDBRANCH  63  64
ENDBRANCH  60  63
ENDBRANCH   1  59
TORSDOF 37
BEGIN_RES LYS A 131
REMARK  4 active torsions:
REMARK  status: ('A' for Active; 'I' for Inactive)
REMARK    1  A    between atoms: CA   and  CB  
REMARK    2  A    between atoms: CB   and  CG  
REMARK    3  A    between atoms: CG   and  CD  
REMARK    4  A    between atoms: CD   and  CE  
ROOT
ATOM      1  CA  LYS A 131      29.867  25.555  16.977  1.00 20.52     0.186 C 
ENDROOT
BRANCH   1   2
ATOM      2  CB  LYS A 131      28.345  25.722  17.026  1.00 20.94     0.034 C 
BRANCH   2   3
ATOM      3  CG  LYS A 131      27.601  24.402  16.889  1.00 22.96     0.005 C 
BRANCH   3   4
ATOM      4  CD  LYS A 131      26.539  24.239  17.940  1.00 24.33     0.041 C 
BRANCH   4   5
ATOM      5  CE  LYS A 131      25.194  23.977  17.269  1.00 26.91     0.338 C 
ATOM      6  NZ  LYS A 131      24.769  22.575  17.489  1.00 27.40     0.618 N 
ENDBRANCH   4   5
ENDBRANCH   3   4
ENDBRANCH   2   3
ENDBRANCH   1   2
END_RES LYS A 131
BEGIN_RES LYS A 135
REMARK  4 active torsions:
REMARK  status: ('A' for Active; 'I' for Inactive)
REMARK    5  A    between atoms: CA   and  CB  
REMARK    6  A    between atoms: CB   and  CG  
REMARK    7  A    between atoms: CG   and  CD  
REMARK    8  A    between atoms: CD   and  CE  
ROOT
ATOM      7  CA  LYS A 135      33.193  34.663   9.290  1.00 25.02     0.186 C 
ENDROOT
BRANCH   7   8
ATOM      8  CB  LYS A 135      32.060  35.360  10.034  1.00 26.63     0.034 C 
BRANCH   8   9
ATOM      9  CG  LYS A 135      30.740  34.640   9.932  1.00 29.45     0.005 C 
BRANCH   9  10
ATOM     10  CD  LYS A 135      30.326  34.480   8.478  1.00 32.00     0.041 C 
BRANCH  10  11
ATOM     11  CE  LYS A 135      28.815  34.477   8.351  1.00 34.25     0.338 C 
ATOM     12  NZ  LYS A 135      28.182  33.766   9.496  1.00 35.99     0.618 N 
ENDBRANCH  10  11
ENDBRANCH   9  10
ENDBRANCH   8   9
ENDBRANCH   7   8
END_RES LYS A 135
