REMARK VINA RESULT:    -5.107      2.596      7.839
REMARK INTER + INTRA:         -24.984
REMARK INTER:                 -14.682
REMARK INTRA:                 -10.301
REMARK UNBOUND:               -11.071
REMARK SMILES CC(=O)N[C@@H]1[C@@H](O)C[C@](OC[C@H]2O[C@@H](O[C@H]3[C@H](O)[C@@H](O)[C@H](OCCN=[N+]=[N-])O[C@@H]3CO)[C@H](O)[C@@H](O)[C@H]2O)(C(=O)O)O[C@H]1C(O)[C@H](O)CNC(=O)OCc1cn(CC(O)CCc2ccccc2)nn1
REMARK SMILES IDX 43 1 42 2 9 3 8 4 41 5 6 6 5 7 10 8 11 9 12 10 14 11 13 12
REMARK SMILES IDX 32 13 34 14 36 15 15 16 16 17 29 18 28 19 21 20 17 21 19 22
REMARK SMILES IDX 30 23 31 24 22 26 23 27 24 28 25 29 26 30 27 31 18 32 20 34
REMARK SMILES IDX 33 36 35 38 37 40 38 42 39 43 40 44 7 46 4 48 2 49 1 51 3 52
REMARK SMILES IDX 44 53 45 55 46 56 47 58 48 59 49 60 50 62 51 63 52 64 53 65
REMARK SMILES IDX 54 66 68 67 55 68 67 69 56 70 57 71 58 72 59 74 60 75 61 76
REMARK SMILES IDX 62 77 66 78 63 79 65 80 64 81
REMARK H PARENT 31 25 18 33 20 35 33 37 35 39 37 41 40 45 7 47 4 50 44 54
REMARK H PARENT 46 57 48 61 58 73
REMARK Flexibility Score: inf
ROOT
ATOM      1  C   UNL     1      23.455  38.757   7.502  1.00  0.00     0.176 C 
ENDROOT
BRANCH   1   2
ATOM      2  C   UNL     1      23.102  38.041   8.819  1.00  0.00     0.178 C 
ATOM      3  C   UNL     1      24.249  36.212   9.802  1.00  0.00     0.272 C 
ATOM      4  C   UNL     1      23.429  35.329   8.921  1.00  0.00     0.113 C 
ATOM      5  O   UNL     1      24.210  37.493   9.319  1.00  0.00    -0.332 OA
ATOM      6  C   UNL     1      22.014  35.780   8.872  1.00  0.00     0.145 C 
ATOM      7  C   UNL     1      21.869  37.248   8.605  1.00  0.00     0.142 C 
BRANCH   3   8
ATOM      8  O   UNL     1      25.570  35.730   9.900  1.00  0.00    -0.338 OA
BRANCH   8   9
ATOM      9  C   UNL     1      25.953  34.817   8.984  1.00  0.00     0.199 C 
BRANCH   9  10
ATOM     10  C   UNL     1      27.247  35.257   8.259  1.00  0.00     0.179 C 
ATOM     11  C   UNL     1      28.744  36.935   7.960  1.00  0.00     0.282 C 
ATOM     12  O   UNL     1      27.508  36.569   8.427  1.00  0.00    -0.341 OA
ATOM     13  C   UNL     1      29.750  36.126   8.826  1.00  0.00     0.202 C 
ATOM     14  C   UNL     1      29.656  34.729   8.206  1.00  0.00     0.179 C 
ATOM     15  C   UNL     1      28.284  34.247   8.590  1.00  0.00     0.177 C 
BRANCH  11  16
ATOM     16  O   UNL     1      28.989  38.245   8.174  1.00  0.00    -0.341 OA
BRANCH  16  17
ATOM     17  C   UNL     1      28.832  39.143   7.145  1.00  0.00     0.184 C 
ATOM     18  C   UNL     1      27.545  39.896   7.196  1.00  0.00     0.178 C 
ATOM     19  O   UNL     1      26.735  39.824   6.107  1.00  0.00    -0.341 OA
ATOM     20  C   UNL     1      27.309  39.672   4.881  1.00  0.00     0.281 C 
ATOM     21  C   UNL     1      29.124  38.406   5.869  1.00  0.00     0.180 C 
ATOM     22  C   UNL     1      28.024  38.343   4.872  1.00  0.00     0.202 C 
BRANCH  18  23
ATOM     23  C   UNL     1      27.834  41.359   7.454  1.00  0.00     0.191 C 
BRANCH  23  24
ATOM     24  O   UNL     1      26.658  42.093   7.598  1.00  0.00    -0.394 OA
ATOM     25  H   UNL     1      26.944  43.051   7.692  1.00  0.00     0.210 HD
ENDBRANCH  23  24
ENDBRANCH  18  23
BRANCH  20  26
ATOM     26  O   UNL     1      28.130  40.722   4.504  1.00  0.00    -0.350 OA
BRANCH  26  27
ATOM     27  C   UNL     1      27.493  41.484   3.522  1.00  0.00     0.169 C 
BRANCH  27  28
ATOM     28  C   UNL     1      27.102  42.807   4.178  1.00  0.00     0.119 C 
BRANCH  28  29
ATOM     29  N   UNL     1      25.755  42.766   4.677  1.00  0.00    -0.092 NA
ATOM     30  N   UNL     1      25.219  43.824   5.067  1.00  0.00     0.001 N 
ATOM     31  N   UNL     1      24.804  44.807   5.711  1.00  0.00    -0.003 NA
ENDBRANCH  28  29
ENDBRANCH  27  28
ENDBRANCH  26  27
ENDBRANCH  20  26
BRANCH  21  32
ATOM     32  O   UNL     1      30.231  38.980   5.188  1.00  0.00    -0.387 OA
ATOM     33  H   UNL     1      30.103  38.982   4.212  1.00  0.00     0.211 HD
ENDBRANCH  21  32
BRANCH  22  34
ATOM     34  O   UNL     1      27.092  37.359   5.215  1.00  0.00    -0.385 OA
ATOM     35  H   UNL     1      26.220  37.736   5.451  1.00  0.00     0.211 HD
ENDBRANCH  22  34
ENDBRANCH  16  17
ENDBRANCH  11  16
BRANCH  13  36
ATOM     36  O   UNL     1      31.003  36.642   8.830  1.00  0.00    -0.385 OA
ATOM     37  H   UNL     1      31.135  37.529   8.458  1.00  0.00     0.211 HD
ENDBRANCH  13  36
BRANCH  14  38
ATOM     38  O   UNL     1      30.664  33.899   8.688  1.00  0.00    -0.387 OA
ATOM     39  H   UNL     1      30.464  33.614   9.608  1.00  0.00     0.211 HD
ENDBRANCH  14  38
BRANCH  15  40
ATOM     40  O   UNL     1      28.318  34.029   9.972  1.00  0.00    -0.387 OA
ATOM     41  H   UNL     1      28.112  34.854  10.470  1.00  0.00     0.211 HD
ENDBRANCH  15  40
ENDBRANCH   9  10
ENDBRANCH   8   9
ENDBRANCH   3   8
BRANCH   3  42
ATOM     42  C   UNL     1      23.746  36.107  11.194  1.00  0.00     0.364 C 
ATOM     43  O   UNL     1      23.412  34.971  11.636  1.00  0.00    -0.246 OA
BRANCH  42  44
ATOM     44  O   UNL     1      23.620  37.178  12.034  1.00  0.00    -0.477 OA
ATOM     45  H   UNL     1      23.296  38.063  11.671  1.00  0.00     0.296 HD
ENDBRANCH  42  44
ENDBRANCH   3  42
BRANCH   6  46
ATOM     46  O   UNL     1      21.399  35.002   7.852  1.00  0.00    -0.391 OA
ATOM     47  H   UNL     1      20.893  34.251   8.220  1.00  0.00     0.211 HD
ENDBRANCH   6  46
BRANCH   7  48
ATOM     48  N   UNL     1      20.720  37.831   9.251  1.00  0.00    -0.348 N 
ATOM     49  C   UNL     1      19.400  37.760   8.730  1.00  0.00     0.217 C 
ATOM     50  H   UNL     1      20.829  38.357  10.169  1.00  0.00     0.163 HD
ATOM     51  C   UNL     1      18.303  38.394   9.491  1.00  0.00     0.114 C 
ATOM     52  O   UNL     1      19.170  37.180   7.664  1.00  0.00    -0.275 OA
ENDBRANCH   7  48
ENDBRANCH   1   2
BRANCH   1  53
ATOM     53  O   UNL     1      24.639  38.257   6.996  1.00  0.00    -0.388 OA
ATOM     54  H   UNL     1      25.163  38.930   6.498  1.00  0.00     0.211 HD
ENDBRANCH   1  53
BRANCH   1  55
ATOM     55  C   UNL     1      23.327  40.233   7.537  1.00  0.00     0.165 C 
BRANCH  55  56
ATOM     56  O   UNL     1      24.132  40.801   6.582  1.00  0.00    -0.388 OA
ATOM     57  H   UNL     1      24.944  40.290   6.397  1.00  0.00     0.211 HD
ENDBRANCH  55  56
BRANCH  55  58
ATOM     58  C   UNL     1      23.716  40.686   8.926  1.00  0.00     0.154 C 
BRANCH  58  59
ATOM     59  N   UNL     1      24.984  40.281   9.400  1.00  0.00    -0.319 N 
ATOM     60  C   UNL     1      25.430  40.220  10.747  1.00  0.00     0.407 C 
ATOM     61  H   UNL     1      25.741  39.968   8.697  1.00  0.00     0.167 HD
ATOM     62  O   UNL     1      24.669  40.527  11.672  1.00  0.00    -0.225 OA
BRANCH  60  63
ATOM     63  O   UNL     1      26.720  39.818  11.055  1.00  0.00    -0.443 OA
BRANCH  63  64
ATOM     64  C   UNL     1      27.233  39.492  12.293  1.00  0.00     0.294 C 
BRANCH  64  65
ATOM     65  C   UNL     1      26.845  38.194  12.864  1.00  0.00     0.120 A 
ATOM     66  C   UNL     1      27.268  36.935  12.456  1.00  0.00     0.138 A 
ATOM     67  N   UNL     1      25.971  37.995  13.874  1.00  0.00    -0.132 NA
ATOM     68  N   UNL     1      26.636  36.054  13.227  1.00  0.00    -0.250 N 
ATOM     69  N   UNL     1      25.867  36.698  14.069  1.00  0.00    -0.067 NA
BRANCH  68  70
ATOM     70  C   UNL     1      26.805  34.584  13.087  1.00  0.00     0.177 C 
BRANCH  70  71
ATOM     71  C   UNL     1      26.499  33.999  14.424  1.00  0.00     0.136 C 
BRANCH  71  72
ATOM     72  O   UNL     1      27.669  33.643  15.117  1.00  0.00    -0.391 OA
ATOM     73  H   UNL     1      27.504  33.500  16.073  1.00  0.00     0.211 HD
ENDBRANCH  71  72
BRANCH  71  74
ATOM     74  C   UNL     1      25.533  32.881  14.418  1.00  0.00     0.038 C 
BRANCH  74  75
ATOM     75  C   UNL     1      24.278  32.937  13.678  1.00  0.00     0.038 C 
BRANCH  75  76
ATOM     76  C   UNL     1      23.651  31.720  13.207  1.00  0.00    -0.048 A 
ATOM     77  C   UNL     1      22.301  31.696  12.869  1.00  0.00     0.004 A 
ATOM     78  C   UNL     1      24.350  30.514  13.149  1.00  0.00     0.004 A 
ATOM     79  C   UNL     1      21.696  30.531  12.497  1.00  0.00     0.000 A 
ATOM     80  C   UNL     1      23.710  29.358  12.771  1.00  0.00     0.000 A 
ATOM     81  C   UNL     1      22.364  29.333  12.434  1.00  0.00     0.000 A 
ENDBRANCH  75  76
ENDBRANCH  74  75
ENDBRANCH  71  74
ENDBRANCH  70  71
ENDBRANCH  68  70
ENDBRANCH  64  65
ENDBRANCH  63  64
ENDBRANCH  60  63
ENDBRANCH  58  59
ENDBRANCH  55  58
ENDBRANCH   1  55
TORSDOF 35
BEGIN_RES LYS A 131
REMARK  4 active torsions:
REMARK  status: ('A' for Active; 'I' for Inactive)
REMARK    1  A    between atoms: CA   and  CB  
REMARK    2  A    between atoms: CB   and  CG  
REMARK    3  A    between atoms: CG   and  CD  
REMARK    4  A    between atoms: CD   and  CE  
ROOT
ATOM      1  CA  LYS A 131      29.867  25.555  16.977  1.00 20.52     0.186 C 
ENDROOT
BRANCH   1   2
ATOM      2  CB  LYS A 131      28.345  25.722  17.026  1.00 20.94     0.034 C 
BRANCH   2   3
ATOM      3  CG  LYS A 131      27.599  24.462  16.616  1.00 22.96     0.005 C 
BRANCH   3   4
ATOM      4  CD  LYS A 131      26.898  23.815  17.779  1.00 24.33     0.041 C 
BRANCH   4   5
ATOM      5  CE  LYS A 131      25.831  24.761  18.320  1.00 26.91     0.338 C 
ATOM      6  NZ  LYS A 131      25.554  24.469  19.746  1.00 27.40     0.618 N 
ENDBRANCH   4   5
ENDBRANCH   3   4
ENDBRANCH   2   3
ENDBRANCH   1   2
END_RES LYS A 131
BEGIN_RES LYS A 135
REMARK  4 active torsions:
REMARK  status: ('A' for Active; 'I' for Inactive)
REMARK    5  A    between atoms: CA   and  CB  
REMARK    6  A    between atoms: CB   and  CG  
REMARK    7  A    between atoms: CG   and  CD  
REMARK    8  A    between atoms: CD   and  CE  
ROOT
ATOM      7  CA  LYS A 135      33.193  34.663   9.290  1.00 25.02     0.186 C 
ENDROOT
BRANCH   7   8
ATOM      8  CB  LYS A 135      32.060  35.360  10.034  1.00 26.63     0.034 C 
BRANCH   8   9
ATOM      9  CG  LYS A 135      32.204  35.312  11.533  1.00 29.45     0.005 C 
BRANCH   9  10
ATOM     10  CD  LYS A 135      32.271  36.717  12.111  1.00 32.00     0.041 C 
BRANCH  10  11
ATOM     11  CE  LYS A 135      31.032  37.014  12.934  1.00 34.25     0.338 C 
ATOM     12  NZ  LYS A 135      30.544  35.791  13.630  1.00 35.99     0.618 N 
ENDBRANCH  10  11
ENDBRANCH   9  10
ENDBRANCH   8   9
ENDBRANCH   7   8
END_RES LYS A 135
