REMARK VINA RESULT:    -5.026      3.336     11.164
REMARK INTER + INTRA:         -24.280
REMARK INTER:                 -13.106
REMARK INTRA:                 -11.174
REMARK UNBOUND:               -11.174
REMARK SMILES CC(=O)N[C@@H]1[C@@H](O)C[C@](OC[C@H]2O[C@@H](O[C@H]3[C@H](O)[C@@H](O)[C@H](OCCN=[N+]=[N-])O[C@@H]3CO)[C@H](O)[C@@H](O)[C@H]2O)(C(=O)O)O[C@H]1C(O)[C@H](O)CNC(=O)OCc1cn(-c2cc(C(=O)O)nc(-c3ccccc3)c2)nn1
REMARK SMILES IDX 9 1 8 2 6 3 5 4 42 5 41 6 10 7 11 8 12 9 14 10 13 11 32 12
REMARK SMILES IDX 34 13 36 14 15 15 16 16 29 17 28 18 21 19 17 20 19 21 30 22
REMARK SMILES IDX 31 23 22 25 23 26 24 27 25 28 26 29 27 30 18 31 20 33 33 35
REMARK SMILES IDX 35 37 37 39 38 41 39 42 40 43 7 45 43 47 44 48 45 50 46 51
REMARK SMILES IDX 47 53 48 54 49 55 50 57 51 58 52 59 53 60 54 61 72 62 55 63
REMARK SMILES IDX 71 64 56 65 57 66 70 67 58 68 63 69 62 70 59 71 60 72 61 73
REMARK SMILES IDX 64 75 65 76 69 77 66 78 68 79 67 80 4 81 2 82 1 84 3 85
REMARK H PARENT 31 24 18 32 20 34 33 36 35 38 37 40 40 44 7 46 44 49 46 52
REMARK H PARENT 48 56 61 74 4 83
REMARK Flexibility Score: inf
ROOT
ATOM      1  C   UNL     1      27.539  39.602   6.376  1.00  0.00     0.272 C 
ATOM      2  C   UNL     1      26.653  40.202   5.265  1.00  0.00     0.113 C 
ATOM      3  C   UNL     1      25.549  41.060   5.767  1.00  0.00     0.145 C 
ATOM      4  C   UNL     1      24.869  40.501   7.011  1.00  0.00     0.142 C 
ATOM      5  C   UNL     1      25.491  39.113   7.189  1.00  0.00     0.178 C 
ATOM      6  O   UNL     1      26.805  39.340   7.531  1.00  0.00    -0.332 OA
ENDROOT
BRANCH   1   7
ATOM      7  O   UNL     1      28.474  40.550   6.638  1.00  0.00    -0.338 OA
BRANCH   7   8
ATOM      8  C   UNL     1      29.684  40.490   6.026  1.00  0.00     0.199 C 
BRANCH   8   9
ATOM      9  C   UNL     1      30.807  40.929   6.999  1.00  0.00     0.179 C 
ATOM     10  C   UNL     1      31.077  41.439   9.265  1.00  0.00     0.282 C 
ATOM     11  O   UNL     1      30.248  41.107   8.224  1.00  0.00    -0.341 OA
ATOM     12  C   UNL     1      32.515  41.220   8.835  1.00  0.00     0.202 C 
ATOM     13  C   UNL     1      32.736  39.892   8.154  1.00  0.00     0.179 C 
ATOM     14  C   UNL     1      31.753  39.740   7.048  1.00  0.00     0.177 C 
BRANCH  10  15
ATOM     15  O   UNL     1      30.744  40.638  10.342  1.00  0.00    -0.341 OA
BRANCH  15  16
ATOM     16  C   UNL     1      29.431  40.198  10.360  1.00  0.00     0.184 C 
ATOM     17  C   UNL     1      28.615  40.793  11.447  1.00  0.00     0.178 C 
ATOM     18  O   UNL     1      28.143  39.835  12.327  1.00  0.00    -0.341 OA
ATOM     19  C   UNL     1      29.158  39.010  12.808  1.00  0.00     0.281 C 
ATOM     20  C   UNL     1      29.462  38.696  10.356  1.00  0.00     0.180 C 
ATOM     21  C   UNL     1      29.488  38.043  11.692  1.00  0.00     0.202 C 
BRANCH  17  22
ATOM     22  C   UNL     1      27.403  41.478  10.851  1.00  0.00     0.191 C 
BRANCH  22  23
ATOM     23  O   UNL     1      27.277  41.236   9.496  1.00  0.00    -0.394 OA
ATOM     24  H   UNL     1      26.783  40.386   9.357  1.00  0.00     0.210 HD
ENDBRANCH  22  23
ENDBRANCH  17  22
BRANCH  19  25
ATOM     25  O   UNL     1      28.632  38.305  13.880  1.00  0.00    -0.350 OA
BRANCH  25  26
ATOM     26  C   UNL     1      29.632  37.780  14.700  1.00  0.00     0.169 C 
BRANCH  26  27
ATOM     27  C   UNL     1      29.109  36.602  15.482  1.00  0.00     0.119 C 
BRANCH  27  28
ATOM     28  N   UNL     1      28.747  35.543  14.566  1.00  0.00    -0.092 NA
ATOM     29  N   UNL     1      29.551  35.214  13.705  1.00  0.00     0.001 N 
ATOM     30  N   UNL     1      30.223  34.510  12.933  1.00  0.00    -0.003 NA
ENDBRANCH  27  28
ENDBRANCH  26  27
ENDBRANCH  25  26
ENDBRANCH  19  25
BRANCH  20  31
ATOM     31  O   UNL     1      28.277  38.265   9.714  1.00  0.00    -0.387 OA
ATOM     32  H   UNL     1      28.451  37.451   9.179  1.00  0.00     0.211 HD
ENDBRANCH  20  31
BRANCH  21  33
ATOM     33  O   UNL     1      30.761  37.462  11.876  1.00  0.00    -0.385 OA
ATOM     34  H   UNL     1      30.960  37.320  12.842  1.00  0.00     0.211 HD
ENDBRANCH  21  33
ENDBRANCH  15  16
ENDBRANCH  10  15
BRANCH  12  35
ATOM     35  O   UNL     1      32.998  42.221   8.001  1.00  0.00    -0.385 OA
ATOM     36  H   UNL     1      33.234  41.759   7.148  1.00  0.00     0.211 HD
ENDBRANCH  12  35
BRANCH  13  37
ATOM     37  O   UNL     1      32.608  38.910   9.137  1.00  0.00    -0.387 OA
ATOM     38  H   UNL     1      32.918  39.313   9.988  1.00  0.00     0.211 HD
ENDBRANCH  13  37
BRANCH  14  39
ATOM     39  O   UNL     1      30.990  38.590   7.337  1.00  0.00    -0.387 OA
ATOM     40  H   UNL     1      31.537  37.835   7.608  1.00  0.00     0.211 HD
ENDBRANCH  14  39
ENDBRANCH   8   9
ENDBRANCH   7   8
ENDBRANCH   1   7
BRANCH   1  41
ATOM     41  C   UNL     1      28.065  38.299   5.896  1.00  0.00     0.364 C 
ATOM     42  O   UNL     1      28.076  37.984   4.675  1.00  0.00    -0.246 OA
BRANCH  41  43
ATOM     43  O   UNL     1      28.571  37.379   6.787  1.00  0.00    -0.477 OA
ATOM     44  H   UNL     1      29.457  37.502   7.292  1.00  0.00     0.296 HD
ENDBRANCH  41  43
ENDBRANCH   1  41
BRANCH   3  45
ATOM     45  O   UNL     1      25.894  42.387   5.900  1.00  0.00    -0.391 OA
ATOM     46  H   UNL     1      25.550  42.887   5.132  1.00  0.00     0.211 HD
ENDBRANCH   3  45
BRANCH   5  47
ATOM     47  C   UNL     1      24.719  38.219   8.084  1.00  0.00     0.176 C 
BRANCH  47  48
ATOM     48  O   UNL     1      23.592  37.738   7.379  1.00  0.00    -0.388 OA
ATOM     49  H   UNL     1      23.232  38.466   6.780  1.00  0.00     0.211 HD
ENDBRANCH  47  48
BRANCH  47  50
ATOM     50  C   UNL     1      24.289  38.809   9.398  1.00  0.00     0.165 C 
BRANCH  50  51
ATOM     51  O   UNL     1      25.357  38.826  10.273  1.00  0.00    -0.388 OA
ATOM     52  H   UNL     1      25.077  38.711  11.219  1.00  0.00     0.211 HD
ENDBRANCH  50  51
BRANCH  50  53
ATOM     53  C   UNL     1      23.152  37.957   9.906  1.00  0.00     0.154 C 
BRANCH  53  54
ATOM     54  N   UNL     1      23.489  36.962  10.859  1.00  0.00    -0.319 N 
ATOM     55  C   UNL     1      23.562  35.588  10.514  1.00  0.00     0.407 C 
ATOM     56  H   UNL     1      23.696  37.218  11.856  1.00  0.00     0.167 HD
ATOM     57  O   UNL     1      23.305  35.238   9.347  1.00  0.00    -0.225 OA
BRANCH  55  58
ATOM     58  O   UNL     1      23.922  34.619  11.470  1.00  0.00    -0.443 OA
BRANCH  58  59
ATOM     59  C   UNL     1      22.906  34.010  12.226  1.00  0.00     0.294 C 
BRANCH  59  60
ATOM     60  C   UNL     1      23.447  32.932  13.087  1.00  0.00     0.121 A 
ATOM     61  C   UNL     1      24.610  32.883  13.819  1.00  0.00     0.144 A 
ATOM     62  N   UNL     1      22.879  31.711  13.304  1.00  0.00    -0.131 NA
ATOM     63  N   UNL     1      24.734  31.691  14.442  1.00  0.00    -0.220 N 
ATOM     64  N   UNL     1      23.648  30.998  14.100  1.00  0.00    -0.062 NA
BRANCH  63  65
ATOM     65  C   UNL     1      25.812  31.267  15.258  1.00  0.00     0.071 A 
ATOM     66  C   UNL     1      25.657  30.077  15.952  1.00  0.00     0.064 A 
ATOM     67  C   UNL     1      27.011  31.933  15.406  1.00  0.00     0.057 A 
ATOM     68  C   UNL     1      26.692  29.619  16.746  1.00  0.00     0.151 A 
ATOM     69  C   UNL     1      28.024  31.476  16.189  1.00  0.00     0.073 A 
ATOM     70  N   UNL     1      27.842  30.317  16.851  1.00  0.00    -0.241 NA
BRANCH  68  71
ATOM     71  C   UNL     1      26.561  28.370  17.485  1.00  0.00     0.354 C 
ATOM     72  O   UNL     1      25.426  27.835  17.543  1.00  0.00    -0.245 OA
BRANCH  71  73
ATOM     73  O   UNL     1      27.605  27.742  18.121  1.00  0.00    -0.477 OA
ATOM     74  H   UNL     1      28.465  27.458  17.635  1.00  0.00     0.297 HD
ENDBRANCH  71  73
ENDBRANCH  68  71
BRANCH  69  75
ATOM     75  C   UNL     1      29.286  32.194  16.326  1.00  0.00     0.000 A 
ATOM     76  C   UNL     1      29.390  33.140  17.344  1.00  0.00     0.010 A 
ATOM     77  C   UNL     1      30.367  31.995  15.518  1.00  0.00     0.010 A 
ATOM     78  C   UNL     1      30.537  33.860  17.548  1.00  0.00     0.001 A 
ATOM     79  C   UNL     1      31.521  32.729  15.733  1.00  0.00     0.001 A 
ATOM     80  C   UNL     1      31.633  33.656  16.727  1.00  0.00     0.000 A 
ENDBRANCH  69  75
ENDBRANCH  63  65
ENDBRANCH  59  60
ENDBRANCH  58  59
ENDBRANCH  55  58
ENDBRANCH  53  54
ENDBRANCH  50  53
ENDBRANCH  47  50
ENDBRANCH   5  47
BRANCH   4  81
ATOM     81  N   UNL     1      23.449  40.474   6.884  1.00  0.00    -0.348 N 
ATOM     82  C   UNL     1      22.682  41.620   7.218  1.00  0.00     0.217 C 
ATOM     83  H   UNL     1      22.988  39.599   6.542  1.00  0.00     0.163 HD
ATOM     84  C   UNL     1      21.201  41.651   7.104  1.00  0.00     0.114 C 
ATOM     85  O   UNL     1      23.252  42.684   7.634  1.00  0.00    -0.275 OA
ENDBRANCH   4  81
TORSDOF 33
BEGIN_RES LYS A 131
REMARK  4 active torsions:
REMARK  status: ('A' for Active; 'I' for Inactive)
REMARK    1  A    between atoms: CA   and  CB  
REMARK    2  A    between atoms: CB   and  CG  
REMARK    3  A    between atoms: CG   and  CD  
REMARK    4  A    between atoms: CD   and  CE  
ROOT
ATOM      1  CA  LYS A 131      29.867  25.555  16.977  1.00 20.52     0.186 C 
ENDROOT
BRANCH   1   2
ATOM      2  CB  LYS A 131      28.345  25.722  17.026  1.00 20.94     0.034 C 
BRANCH   2   3
ATOM      3  CG  LYS A 131      27.601  24.401  16.905  1.00 22.96     0.005 C 
BRANCH   3   4
ATOM      4  CD  LYS A 131      26.520  24.263  17.941  1.00 24.33     0.041 C 
BRANCH   4   5
ATOM      5  CE  LYS A 131      25.157  24.257  17.256  1.00 26.91     0.338 C 
ATOM      6  NZ  LYS A 131      24.089  23.929  18.230  1.00 27.40     0.618 N 
ENDBRANCH   4   5
ENDBRANCH   3   4
ENDBRANCH   2   3
ENDBRANCH   1   2
END_RES LYS A 131
BEGIN_RES LYS A 135
REMARK  4 active torsions:
REMARK  status: ('A' for Active; 'I' for Inactive)
REMARK    5  A    between atoms: CA   and  CB  
REMARK    6  A    between atoms: CB   and  CG  
REMARK    7  A    between atoms: CG   and  CD  
REMARK    8  A    between atoms: CD   and  CE  
ROOT
ATOM      7  CA  LYS A 135      33.193  34.663   9.290  1.00 25.02     0.186 C 
ENDROOT
BRANCH   7   8
ATOM      8  CB  LYS A 135      32.060  35.360  10.034  1.00 26.63     0.034 C 
BRANCH   8   9
ATOM      9  CG  LYS A 135      30.799  35.498   9.220  1.00 29.45     0.005 C 
BRANCH   9  10
ATOM     10  CD  LYS A 135      30.124  34.146   9.044  1.00 32.00     0.041 C 
BRANCH  10  11
ATOM     11  CE  LYS A 135      28.663  34.325   8.679  1.00 34.25     0.338 C 
ATOM     12  NZ  LYS A 135      27.773  33.750   9.726  1.00 35.99     0.618 N 
ENDBRANCH  10  11
ENDBRANCH   9  10
ENDBRANCH   8   9
ENDBRANCH   7   8
END_RES LYS A 135
