REMARK VINA RESULT:    -5.109      1.870      3.859
REMARK INTER + INTRA:         -24.497
REMARK INTER:                 -11.725
REMARK INTRA:                 -12.772
REMARK UNBOUND:               -11.174
REMARK SMILES CC(=O)N[C@@H]1[C@@H](O)C[C@](OC[C@H]2O[C@@H](O[C@H]3[C@H](O)[C@@H](O)[C@H](OCCN=[N+]=[N-])O[C@@H]3CO)[C@H](O)[C@@H](O)[C@H]2O)(C(=O)O)O[C@H]1C(O)[C@H](O)CNC(=O)OCc1cn(-c2cc(C(=O)O)nc(-c3ccccc3)c2)nn1
REMARK SMILES IDX 9 1 8 2 6 3 5 4 42 5 41 6 10 7 11 8 12 9 14 10 13 11 32 12
REMARK SMILES IDX 34 13 36 14 15 15 16 16 29 17 28 18 21 19 17 20 19 21 30 22
REMARK SMILES IDX 31 23 22 25 23 26 24 27 25 28 26 29 27 30 18 31 20 33 33 35
REMARK SMILES IDX 35 37 37 39 38 41 39 42 40 43 7 45 43 47 44 48 45 50 46 51
REMARK SMILES IDX 47 53 48 54 49 55 50 57 51 58 52 59 53 60 54 61 72 62 55 63
REMARK SMILES IDX 71 64 56 65 57 66 70 67 58 68 63 69 62 70 59 71 60 72 61 73
REMARK SMILES IDX 64 75 65 76 69 77 66 78 68 79 67 80 4 81 2 82 1 84 3 85
REMARK H PARENT 31 24 18 32 20 34 33 36 35 38 37 40 40 44 7 46 44 49 46 52
REMARK H PARENT 48 56 61 74 4 83
REMARK Flexibility Score: inf
ROOT
ATOM      1  C   UNL     1      26.384  34.581  15.004  1.00  0.00     0.272 C 
ATOM      2  C   UNL     1      27.112  35.659  14.176  1.00  0.00     0.113 C 
ATOM      3  C   UNL     1      28.477  35.269  13.740  1.00  0.00     0.145 C 
ATOM      4  C   UNL     1      29.265  34.529  14.814  1.00  0.00     0.142 C 
ATOM      5  C   UNL     1      28.379  34.617  16.060  1.00  0.00     0.178 C 
ATOM      6  O   UNL     1      27.274  33.843  15.781  1.00  0.00    -0.332 OA
ENDROOT
BRANCH   1   7
ATOM      7  O   UNL     1      25.796  33.766  14.091  1.00  0.00    -0.338 OA
BRANCH   7   8
ATOM      8  C   UNL     1      24.442  33.730  13.994  1.00  0.00     0.199 C 
BRANCH   8   9
ATOM      9  C   UNL     1      23.946  32.267  13.874  1.00  0.00     0.179 C 
ATOM     10  C   UNL     1      24.691  30.106  14.364  1.00  0.00     0.282 C 
ATOM     11  O   UNL     1      24.938  31.454  14.320  1.00  0.00    -0.341 OA
ATOM     12  C   UNL     1      23.204  29.874  14.180  1.00  0.00     0.202 C 
ATOM     13  C   UNL     1      22.351  30.775  15.039  1.00  0.00     0.179 C 
ATOM     14  C   UNL     1      22.765  32.188  14.828  1.00  0.00     0.177 C 
BRANCH  10  15
ATOM     15  O   UNL     1      25.129  29.636  15.589  1.00  0.00    -0.341 OA
BRANCH  15  16
ATOM     16  C   UNL     1      26.177  30.348  16.148  1.00  0.00     0.184 C 
ATOM     17  C   UNL     1      27.466  29.612  16.149  1.00  0.00     0.178 C 
ATOM     18  O   UNL     1      27.939  29.394  17.431  1.00  0.00    -0.341 OA
ATOM     19  C   UNL     1      26.983  28.803  18.256  1.00  0.00     0.281 C 
ATOM     20  C   UNL     1      25.729  30.818  17.502  1.00  0.00     0.180 C 
ATOM     21  C   UNL     1      26.011  29.898  18.636  1.00  0.00     0.202 C 
BRANCH  17  22
ATOM     22  C   UNL     1      28.515  30.432  15.427  1.00  0.00     0.191 C 
BRANCH  22  23
ATOM     23  O   UNL     1      29.705  30.496  16.129  1.00  0.00    -0.394 OA
ATOM     24  H   UNL     1      29.848  29.641  16.614  1.00  0.00     0.210 HD
ENDBRANCH  22  23
ENDBRANCH  17  22
BRANCH  19  25
ATOM     25  O   UNL     1      27.646  28.368  19.393  1.00  0.00    -0.350 OA
BRANCH  25  26
ATOM     26  C   UNL     1      27.764  29.380  20.348  1.00  0.00     0.169 C 
BRANCH  26  27
ATOM     27  C   UNL     1      29.186  29.875  20.420  1.00  0.00     0.119 C 
BRANCH  27  28
ATOM     28  N   UNL     1      29.226  31.270  20.040  1.00  0.00    -0.092 NA
ATOM     29  N   UNL     1      30.261  31.896  20.219  1.00  0.00     0.001 N 
ATOM     30  N   UNL     1      31.201  32.688  20.038  1.00  0.00    -0.003 NA
ENDBRANCH  27  28
ENDBRANCH  26  27
ENDBRANCH  25  26
ENDBRANCH  19  25
BRANCH  20  31
ATOM     31  O   UNL     1      26.424  32.021  17.769  1.00  0.00    -0.387 OA
ATOM     32  H   UNL     1      26.310  32.282  18.717  1.00  0.00     0.211 HD
ENDBRANCH  20  31
BRANCH  21  33
ATOM     33  O   UNL     1      24.787  29.363  19.089  1.00  0.00    -0.385 OA
ATOM     34  H   UNL     1      24.655  28.431  18.763  1.00  0.00     0.211 HD
ENDBRANCH  21  33
ENDBRANCH  15  16
ENDBRANCH  10  15
BRANCH  12  35
ATOM     35  O   UNL     1      22.786  30.008  12.862  1.00  0.00    -0.385 OA
ATOM     36  H   UNL     1      23.625  30.005  12.321  1.00  0.00     0.211 HD
ENDBRANCH  12  35
BRANCH  13  37
ATOM     37  O   UNL     1      22.518  30.349  16.357  1.00  0.00    -0.387 OA
ATOM     38  H   UNL     1      22.895  31.115  16.862  1.00  0.00     0.211 HD
ENDBRANCH  13  37
BRANCH  14  39
ATOM     39  O   UNL     1      23.185  32.681  16.080  1.00  0.00    -0.387 OA
ATOM     40  H   UNL     1      24.016  32.279  16.381  1.00  0.00     0.211 HD
ENDBRANCH  14  39
ENDBRANCH   8   9
ENDBRANCH   7   8
ENDBRANCH   1   7
BRANCH   1  41
ATOM     41  C   UNL     1      25.458  35.264  15.943  1.00  0.00     0.364 C 
ATOM     42  O   UNL     1      24.988  34.690  16.963  1.00  0.00    -0.246 OA
BRANCH  41  43
ATOM     43  O   UNL     1      25.079  36.569  15.724  1.00  0.00    -0.477 OA
ATOM     44  H   UNL     1      24.537  37.126  16.397  1.00  0.00     0.296 HD
ENDBRANCH  41  43
ENDBRANCH   1  41
BRANCH   3  45
ATOM     45  O   UNL     1      28.509  34.630  12.520  1.00  0.00    -0.391 OA
ATOM     46  H   UNL     1      28.513  33.662  12.664  1.00  0.00     0.211 HD
ENDBRANCH   3  45
BRANCH   5  47
ATOM     47  C   UNL     1      29.091  34.323  17.325  1.00  0.00     0.176 C 
BRANCH  47  48
ATOM     48  O   UNL     1      29.236  32.923  17.447  1.00  0.00    -0.388 OA
ATOM     49  H   UNL     1      29.781  32.710  18.269  1.00  0.00     0.211 HD
ENDBRANCH  47  48
BRANCH  47  50
ATOM     50  C   UNL     1      28.476  34.887  18.576  1.00  0.00     0.165 C 
BRANCH  50  51
ATOM     51  O   UNL     1      27.169  34.459  18.687  1.00  0.00    -0.388 OA
ATOM     52  H   UNL     1      26.640  35.009  19.324  1.00  0.00     0.211 HD
ENDBRANCH  50  51
BRANCH  50  53
ATOM     53  C   UNL     1      28.576  36.389  18.472  1.00  0.00     0.154 C 
BRANCH  53  54
ATOM     54  N   UNL     1      29.768  36.901  17.897  1.00  0.00    -0.319 N 
ATOM     55  C   UNL     1      29.751  37.968  16.963  1.00  0.00     0.407 C 
ATOM     56  H   UNL     1      30.704  36.500  18.151  1.00  0.00     0.167 HD
ATOM     57  O   UNL     1      28.660  38.461  16.618  1.00  0.00    -0.225 OA
BRANCH  55  58
ATOM     58  O   UNL     1      30.948  38.477  16.423  1.00  0.00    -0.443 OA
BRANCH  58  59
ATOM     59  C   UNL     1      30.870  39.391  15.358  1.00  0.00     0.294 C 
BRANCH  59  60
ATOM     60  C   UNL     1      30.699  38.694  14.061  1.00  0.00     0.121 A 
ATOM     61  C   UNL     1      29.784  38.905  13.057  1.00  0.00     0.144 A 
ATOM     62  N   UNL     1      31.435  37.638  13.609  1.00  0.00    -0.131 NA
ATOM     63  N   UNL     1      29.961  38.019  12.053  1.00  0.00    -0.220 N 
ATOM     64  N   UNL     1      30.988  37.257  12.431  1.00  0.00    -0.062 NA
BRANCH  63  65
ATOM     65  C   UNL     1      29.191  37.910  10.869  1.00  0.00     0.071 A 
ATOM     66  C   UNL     1      29.780  38.324   9.684  1.00  0.00     0.064 A 
ATOM     67  C   UNL     1      27.907  37.411  10.795  1.00  0.00     0.057 A 
ATOM     68  C   UNL     1      29.068  38.220   8.503  1.00  0.00     0.151 A 
ATOM     69  C   UNL     1      27.214  37.311   9.630  1.00  0.00     0.073 A 
ATOM     70  N   UNL     1      27.814  37.722   8.496  1.00  0.00    -0.241 NA
BRANCH  68  71
ATOM     71  C   UNL     1      29.661  38.643   7.242  1.00  0.00     0.354 C 
ATOM     72  O   UNL     1      30.206  39.775   7.196  1.00  0.00    -0.245 OA
BRANCH  71  73
ATOM     73  O   UNL     1      29.660  37.879   6.100  1.00  0.00    -0.477 OA
ATOM     74  H   UNL     1      29.057  38.083   5.293  1.00  0.00     0.297 HD
ENDBRANCH  71  73
ENDBRANCH  68  71
BRANCH  69  75
ATOM     75  C   UNL     1      25.860  36.774   9.575  1.00  0.00     0.000 A 
ATOM     76  C   UNL     1      25.476  35.870  10.564  1.00  0.00     0.010 A 
ATOM     77  C   UNL     1      24.948  37.102   8.614  1.00  0.00     0.010 A 
ATOM     78  C   UNL     1      24.223  35.317  10.592  1.00  0.00     0.001 A 
ATOM     79  C   UNL     1      23.686  36.536   8.651  1.00  0.00     0.001 A 
ATOM     80  C   UNL     1      23.301  35.651   9.616  1.00  0.00     0.000 A 
ENDBRANCH  69  75
ENDBRANCH  63  65
ENDBRANCH  59  60
ENDBRANCH  58  59
ENDBRANCH  55  58
ENDBRANCH  53  54
ENDBRANCH  50  53
ENDBRANCH  47  50
ENDBRANCH   5  47
BRANCH   4  81
ATOM     81  N   UNL     1      30.567  35.079  15.004  1.00  0.00    -0.348 N 
ATOM     82  C   UNL     1      31.681  34.222  15.194  1.00  0.00     0.217 C 
ATOM     83  H   UNL     1      30.683  36.119  15.001  1.00  0.00     0.163 HD
ATOM     84  C   UNL     1      33.060  34.737  15.396  1.00  0.00     0.114 C 
ATOM     85  O   UNL     1      31.533  32.953  15.196  1.00  0.00    -0.275 OA
ENDBRANCH   4  81
TORSDOF 33
BEGIN_RES LYS A 131
REMARK  4 active torsions:
REMARK  status: ('A' for Active; 'I' for Inactive)
REMARK    1  A    between atoms: CA   and  CB  
REMARK    2  A    between atoms: CB   and  CG  
REMARK    3  A    between atoms: CG   and  CD  
REMARK    4  A    between atoms: CD   and  CE  
ROOT
ATOM      1  CA  LYS A 131      29.867  25.555  16.977  1.00 20.52     0.186 C 
ENDROOT
BRANCH   1   2
ATOM      2  CB  LYS A 131      28.345  25.722  17.026  1.00 20.94     0.034 C 
BRANCH   2   3
ATOM      3  CG  LYS A 131      27.601  24.402  16.890  1.00 22.96     0.005 C 
BRANCH   3   4
ATOM      4  CD  LYS A 131      26.515  24.256  17.920  1.00 24.33     0.041 C 
BRANCH   4   5
ATOM      5  CE  LYS A 131      25.191  23.958  17.224  1.00 26.91     0.338 C 
ATOM      6  NZ  LYS A 131      24.334  25.167  17.199  1.00 27.40     0.618 N 
ENDBRANCH   4   5
ENDBRANCH   3   4
ENDBRANCH   2   3
ENDBRANCH   1   2
END_RES LYS A 131
BEGIN_RES LYS A 135
REMARK  4 active torsions:
REMARK  status: ('A' for Active; 'I' for Inactive)
REMARK    5  A    between atoms: CA   and  CB  
REMARK    6  A    between atoms: CB   and  CG  
REMARK    7  A    between atoms: CG   and  CD  
REMARK    8  A    between atoms: CD   and  CE  
ROOT
ATOM      7  CA  LYS A 135      33.193  34.663   9.290  1.00 25.02     0.186 C 
ENDROOT
BRANCH   7   8
ATOM      8  CB  LYS A 135      32.060  35.360  10.034  1.00 26.63     0.034 C 
BRANCH   8   9
ATOM      9  CG  LYS A 135      30.720  34.695   9.852  1.00 29.45     0.005 C 
BRANCH   9  10
ATOM     10  CD  LYS A 135      30.351  34.626   8.378  1.00 32.00     0.041 C 
BRANCH  10  11
ATOM     11  CE  LYS A 135      28.851  34.476   8.211  1.00 34.25     0.338 C 
ATOM     12  NZ  LYS A 135      28.251  33.760   9.370  1.00 35.99     0.618 N 
ENDBRANCH  10  11
ENDBRANCH   9  10
ENDBRANCH   8   9
ENDBRANCH   7   8
END_RES LYS A 135
