REMARK VINA RESULT:    -3.683      4.482     10.169
REMARK INTER + INTRA:         -21.080
REMARK INTER:                 -10.731
REMARK INTRA:                 -10.348
REMARK UNBOUND:               -11.690
REMARK SMILES CC(=O)N[C@@H]1[C@@H](O)C[C@](OC[C@H]2O[C@@H](O[C@H]3[C@H](O)[C@@H](O)[C@H](OCCN=[N+]=[N-])O[C@@H]3CO)[C@H](O)[C@@H](O)[C@H]2O)(C(=O)O)O[C@H]1C(O)[C@H](O)CNC(=O)OCc1cn(CCO)nn1
REMARK SMILES IDX 9 1 8 2 6 3 5 4 42 5 41 6 10 7 11 8 12 9 14 10 13 11 32 12
REMARK SMILES IDX 34 13 36 14 15 15 16 16 29 17 28 18 21 19 17 20 19 21 30 22
REMARK SMILES IDX 31 23 22 25 23 26 24 27 25 28 26 29 27 30 18 31 20 33 33 35
REMARK SMILES IDX 35 37 37 39 38 41 39 42 40 43 7 45 43 47 44 48 45 50 46 51
REMARK SMILES IDX 47 53 48 54 49 55 50 57 51 58 52 59 53 60 54 61 60 62 55 63
REMARK SMILES IDX 59 64 56 65 57 66 58 67 4 69 2 70 1 72 3 73
REMARK H PARENT 31 24 18 32 20 34 33 36 35 38 37 40 40 44 7 46 44 49 46 52
REMARK H PARENT 48 56 58 68 4 71
REMARK Flexibility Score: inf
ROOT
ATOM      1  C   UNL     1      25.442  36.436  11.525  1.00  0.00     0.272 C 
ATOM      2  C   UNL     1      24.160  36.520  10.764  1.00  0.00     0.113 C 
ATOM      3  C   UNL     1      23.570  35.147  10.591  1.00  0.00     0.145 C 
ATOM      4  C   UNL     1      23.415  34.577  12.001  1.00  0.00     0.142 C 
ATOM      5  C   UNL     1      24.831  34.404  12.540  1.00  0.00     0.178 C 
ATOM      6  O   UNL     1      25.289  35.735  12.684  1.00  0.00    -0.332 OA
ENDROOT
BRANCH   1   7
ATOM      7  O   UNL     1      25.916  37.724  11.866  1.00  0.00    -0.338 OA
BRANCH   7   8
ATOM      8  C   UNL     1      26.058  37.969  13.191  1.00  0.00     0.199 C 
BRANCH   8   9
ATOM      9  C   UNL     1      27.521  38.283  13.543  1.00  0.00     0.179 C 
ATOM     10  C   UNL     1      29.684  37.470  13.338  1.00  0.00     0.282 C 
ATOM     11  O   UNL     1      28.320  37.208  13.220  1.00  0.00    -0.341 OA
ATOM     12  C   UNL     1      30.141  38.549  12.391  1.00  0.00     0.202 C 
ATOM     13  C   UNL     1      29.029  39.447  11.912  1.00  0.00     0.179 C 
ATOM     14  C   UNL     1      27.989  39.584  12.988  1.00  0.00     0.177 C 
BRANCH  10  15
ATOM     15  O   UNL     1      30.319  36.325  13.043  1.00  0.00    -0.341 OA
BRANCH  15  16
ATOM     16  C   UNL     1      30.850  35.550  14.002  1.00  0.00     0.184 C 
ATOM     17  C   UNL     1      32.293  35.447  14.218  1.00  0.00     0.178 C 
ATOM     18  O   UNL     1      32.640  34.166  14.608  1.00  0.00    -0.341 OA
ATOM     19  C   UNL     1      31.838  33.532  15.503  1.00  0.00     0.281 C 
ATOM     20  C   UNL     1      30.352  34.118  13.674  1.00  0.00     0.180 C 
ATOM     21  C   UNL     1      30.393  33.392  15.001  1.00  0.00     0.202 C 
BRANCH  17  22
ATOM     22  C   UNL     1      32.821  36.404  15.283  1.00  0.00     0.191 C 
BRANCH  22  23
ATOM     23  O   UNL     1      32.325  37.697  15.110  1.00  0.00    -0.394 OA
ATOM     24  H   UNL     1      31.379  37.695  15.347  1.00  0.00     0.210 HD
ENDBRANCH  22  23
ENDBRANCH  17  22
BRANCH  19  25
ATOM     25  O   UNL     1      31.880  33.968  16.797  1.00  0.00    -0.350 OA
BRANCH  25  26
ATOM     26  C   UNL     1      30.690  34.224  17.408  1.00  0.00     0.169 C 
BRANCH  26  27
ATOM     27  C   UNL     1      30.891  34.797  18.770  1.00  0.00     0.119 C 
BRANCH  27  28
ATOM     28  N   UNL     1      31.381  36.180  18.645  1.00  0.00    -0.092 NA
ATOM     29  N   UNL     1      30.600  36.957  18.065  1.00  0.00     0.001 N 
ATOM     30  N   UNL     1      29.766  37.880  18.047  1.00  0.00    -0.003 NA
ENDBRANCH  27  28
ENDBRANCH  26  27
ENDBRANCH  25  26
ENDBRANCH  19  25
BRANCH  20  31
ATOM     31  O   UNL     1      29.104  34.151  13.109  1.00  0.00    -0.387 OA
ATOM     32  H   UNL     1      28.399  34.423  13.749  1.00  0.00     0.211 HD
ENDBRANCH  20  31
BRANCH  21  33
ATOM     33  O   UNL     1      29.986  32.092  14.868  1.00  0.00    -0.385 OA
ATOM     34  H   UNL     1      30.176  31.544  15.670  1.00  0.00     0.211 HD
ENDBRANCH  21  33
ENDBRANCH  15  16
ENDBRANCH  10  15
BRANCH  12  35
ATOM     35  O   UNL     1      31.025  39.384  13.093  1.00  0.00    -0.385 OA
ATOM     36  H   UNL     1      31.060  39.192  14.051  1.00  0.00     0.211 HD
ENDBRANCH  12  35
BRANCH  13  37
ATOM     37  O   UNL     1      28.537  38.973  10.723  1.00  0.00    -0.387 OA
ATOM     38  H   UNL     1      27.544  39.128  10.638  1.00  0.00     0.211 HD
ENDBRANCH  13  37
BRANCH  14  39
ATOM     39  O   UNL     1      26.871  40.218  12.401  1.00  0.00    -0.387 OA
ATOM     40  H   UNL     1      27.158  40.890  11.734  1.00  0.00     0.211 HD
ENDBRANCH  14  39
ENDBRANCH   8   9
ENDBRANCH   7   8
ENDBRANCH   1   7
BRANCH   1  41
ATOM     41  C   UNL     1      26.490  35.893  10.633  1.00  0.00     0.364 C 
ATOM     42  O   UNL     1      26.308  35.692   9.418  1.00  0.00    -0.246 OA
BRANCH  41  43
ATOM     43  O   UNL     1      27.745  35.580  11.126  1.00  0.00    -0.477 OA
ATOM     44  H   UNL     1      28.302  36.239  11.696  1.00  0.00     0.296 HD
ENDBRANCH  41  43
ENDBRANCH   1  41
BRANCH   3  45
ATOM     45  O   UNL     1      22.265  35.231  10.058  1.00  0.00    -0.391 OA
ATOM     46  H   UNL     1      22.179  34.572   9.318  1.00  0.00     0.211 HD
ENDBRANCH   3  45
BRANCH   5  47
ATOM     47  C   UNL     1      24.757  33.882  13.938  1.00  0.00     0.176 C 
BRANCH  47  48
ATOM     48  O   UNL     1      25.127  32.539  14.011  1.00  0.00    -0.388 OA
ATOM     49  H   UNL     1      25.271  32.242  14.949  1.00  0.00     0.211 HD
ENDBRANCH  47  48
BRANCH  47  50
ATOM     50  C   UNL     1      25.404  34.653  15.023  1.00  0.00     0.165 C 
BRANCH  50  51
ATOM     51  O   UNL     1      26.812  34.615  14.630  1.00  0.00    -0.388 OA
ATOM     52  H   UNL     1      27.069  33.672  14.511  1.00  0.00     0.211 HD
ENDBRANCH  50  51
BRANCH  50  53
ATOM     53  C   UNL     1      25.462  33.930  16.357  1.00  0.00     0.154 C 
BRANCH  53  54
ATOM     54  N   UNL     1      26.761  33.444  16.695  1.00  0.00    -0.319 N 
ATOM     55  C   UNL     1      27.003  32.054  16.836  1.00  0.00     0.407 C 
ATOM     56  H   UNL     1      27.575  34.101  16.860  1.00  0.00     0.167 HD
ATOM     57  O   UNL     1      25.998  31.287  16.653  1.00  0.00    -0.225 OA
BRANCH  55  58
ATOM     58  O   UNL     1      28.201  31.469  17.145  1.00  0.00    -0.443 OA
BRANCH  58  59
ATOM     59  C   UNL     1      28.659  31.500  18.484  1.00  0.00     0.294 C 
BRANCH  59  60
ATOM     60  C   UNL     1      28.664  30.179  19.118  1.00  0.00     0.120 A 
ATOM     61  C   UNL     1      29.631  29.709  19.972  1.00  0.00     0.138 A 
ATOM     62  N   UNL     1      27.767  29.186  19.009  1.00  0.00    -0.132 NA
ATOM     63  N   UNL     1      29.310  28.459  20.359  1.00  0.00    -0.250 N 
ATOM     64  N   UNL     1      28.177  28.160  19.767  1.00  0.00    -0.067 NA
BRANCH  63  65
ATOM     65  C   UNL     1      30.097  27.619  21.274  1.00  0.00     0.174 C 
BRANCH  65  66
ATOM     66  C   UNL     1      31.559  27.888  21.019  1.00  0.00     0.179 C 
BRANCH  66  67
ATOM     67  O   UNL     1      31.949  27.093  19.929  1.00  0.00    -0.394 OA
ATOM     68  H   UNL     1      32.906  27.117  19.756  1.00  0.00     0.210 HD
ENDBRANCH  66  67
ENDBRANCH  65  66
ENDBRANCH  63  65
ENDBRANCH  59  60
ENDBRANCH  58  59
ENDBRANCH  55  58
ENDBRANCH  53  54
ENDBRANCH  50  53
ENDBRANCH  47  50
ENDBRANCH   5  47
BRANCH   4  69
ATOM     69  N   UNL     1      22.569  33.452  12.064  1.00  0.00    -0.348 N 
ATOM     70  C   UNL     1      21.199  33.470  12.414  1.00  0.00     0.217 C 
ATOM     71  H   UNL     1      22.954  32.503  11.820  1.00  0.00     0.163 HD
ATOM     72  C   UNL     1      20.433  32.208  12.443  1.00  0.00     0.114 C 
ATOM     73  O   UNL     1      20.628  34.534  12.700  1.00  0.00    -0.275 OA
ENDBRANCH   4  69
TORSDOF 32
BEGIN_RES LYS A 131
REMARK  4 active torsions:
REMARK  status: ('A' for Active; 'I' for Inactive)
REMARK    1  A    between atoms: CA   and  CB  
REMARK    2  A    between atoms: CB   and  CG  
REMARK    3  A    between atoms: CG   and  CD  
REMARK    4  A    between atoms: CD   and  CE  
ROOT
ATOM      1  CA  LYS A 131      29.867  25.555  16.977  1.00 20.52     0.186 C 
ENDROOT
BRANCH   1   2
ATOM      2  CB  LYS A 131      28.345  25.722  17.026  1.00 20.94     0.034 C 
BRANCH   2   3
ATOM      3  CG  LYS A 131      27.601  24.401  16.899  1.00 22.96     0.005 C 
BRANCH   3   4
ATOM      4  CD  LYS A 131      26.584  24.217  17.990  1.00 24.33     0.041 C 
BRANCH   4   5
ATOM      5  CE  LYS A 131      26.068  25.580  18.441  1.00 26.91     0.338 C 
ATOM      6  NZ  LYS A 131      25.639  25.530  19.858  1.00 27.40     0.618 N 
ENDBRANCH   4   5
ENDBRANCH   3   4
ENDBRANCH   2   3
ENDBRANCH   1   2
END_RES LYS A 131
BEGIN_RES LYS A 135
REMARK  4 active torsions:
REMARK  status: ('A' for Active; 'I' for Inactive)
REMARK    5  A    between atoms: CA   and  CB  
REMARK    6  A    between atoms: CB   and  CG  
REMARK    7  A    between atoms: CG   and  CD  
REMARK    8  A    between atoms: CD   and  CE  
ROOT
ATOM      7  CA  LYS A 135      33.193  34.663   9.290  1.00 25.02     0.186 C 
ENDROOT
BRANCH   7   8
ATOM      8  CB  LYS A 135      32.060  35.360  10.034  1.00 26.63     0.034 C 
BRANCH   8   9
ATOM      9  CG  LYS A 135      30.699  34.789   9.731  1.00 29.45     0.005 C 
BRANCH   9  10
ATOM     10  CD  LYS A 135      30.559  34.495   8.245  1.00 32.00     0.041 C 
BRANCH  10  11
ATOM     11  CE  LYS A 135      29.268  35.079   7.706  1.00 34.25     0.338 C 
ATOM     12  NZ  LYS A 135      29.261  36.564   7.823  1.00 35.99     0.618 N 
ENDBRANCH  10  11
ENDBRANCH   9  10
ENDBRANCH   8   9
ENDBRANCH   7   8
END_RES LYS A 135
