REMARK VINA RESULT:    -4.426      4.093     10.428
REMARK INTER + INTRA:         -24.670
REMARK INTER:                 -12.485
REMARK INTRA:                 -12.186
REMARK UNBOUND:               -13.000
REMARK SMILES CC(=O)N[C@@H]1[C@@H](O)C[C@](OC[C@H]2O[C@@H](O[C@H]3[C@H](O)[C@@H](O)[C@H](OCCN=[N+]=[N-])O[C@@H]3CO)[C@H](O)[C@@H](O)[C@H]2O)(C(=O)O)O[C@H]1C(O)[C@H](O)CNC(=O)OCc1cn(C(C)CC(=O)c2ccccc2)nn1
REMARK SMILES IDX 43 1 42 2 9 3 8 4 41 5 6 6 5 7 10 8 11 9 12 10 14 11 13 12
REMARK SMILES IDX 32 13 34 14 36 15 15 16 16 17 29 18 28 19 21 20 17 21 19 22
REMARK SMILES IDX 30 23 31 24 22 26 23 27 24 28 25 29 26 30 27 31 18 32 20 34
REMARK SMILES IDX 33 36 35 38 37 40 38 42 39 43 40 44 7 46 4 48 2 49 1 51 3 52
REMARK SMILES IDX 44 53 45 55 46 56 47 58 48 59 49 60 50 62 51 63 52 64 53 65
REMARK SMILES IDX 54 66 68 67 55 68 67 69 56 70 57 71 58 72 59 73 60 74 61 75
REMARK SMILES IDX 62 76 66 77 63 78 65 79 64 80
REMARK H PARENT 31 25 18 33 20 35 33 37 35 39 37 41 40 45 7 47 4 50 44 54
REMARK H PARENT 46 57 48 61
REMARK Flexibility Score: inf
ROOT
ATOM      1  C   UNL     1      30.319  38.360  15.162  1.00  0.00     0.176 C 
ENDROOT
BRANCH   1   2
ATOM      2  C   UNL     1      31.522  37.599  15.509  1.00  0.00     0.178 C 
ATOM      3  C   UNL     1      32.044  35.691  14.223  1.00  0.00     0.272 C 
ATOM      4  C   UNL     1      32.668  34.970  15.369  1.00  0.00     0.113 C 
ATOM      5  O   UNL     1      32.264  37.086  14.519  1.00  0.00    -0.332 OA
ATOM      6  C   UNL     1      32.442  35.703  16.678  1.00  0.00     0.145 C 
ATOM      7  C   UNL     1      31.236  36.562  16.619  1.00  0.00     0.142 C 
BRANCH   3   8
ATOM      8  O   UNL     1      30.788  35.560  13.911  1.00  0.00    -0.338 OA
BRANCH   8   9
ATOM      9  C   UNL     1      30.014  34.749  13.282  1.00  0.00     0.199 C 
BRANCH   9  10
ATOM     10  C   UNL     1      28.696  34.201  13.725  1.00  0.00     0.179 C 
ATOM     11  C   UNL     1      27.801  33.392  15.762  1.00  0.00     0.282 C 
ATOM     12  O   UNL     1      28.832  33.672  14.945  1.00  0.00    -0.341 OA
ATOM     13  C   UNL     1      26.895  34.566  15.923  1.00  0.00     0.202 C 
ATOM     14  C   UNL     1      26.632  35.277  14.674  1.00  0.00     0.179 C 
ATOM     15  C   UNL     1      27.493  35.024  13.483  1.00  0.00     0.177 C 
BRANCH  11  16
ATOM     16  O   UNL     1      28.400  33.048  17.004  1.00  0.00    -0.341 OA
BRANCH  16  17
ATOM     17  C   UNL     1      28.528  31.682  17.083  1.00  0.00     0.184 C 
ATOM     18  C   UNL     1      27.244  30.988  16.738  1.00  0.00     0.178 C 
ATOM     19  O   UNL     1      26.245  31.262  17.659  1.00  0.00    -0.341 OA
ATOM     20  C   UNL     1      26.521  31.015  18.968  1.00  0.00     0.281 C 
ATOM     21  C   UNL     1      28.926  31.314  18.528  1.00  0.00     0.180 C 
ATOM     22  C   UNL     1      27.810  31.563  19.475  1.00  0.00     0.202 C 
BRANCH  18  23
ATOM     23  C   UNL     1      27.446  29.497  16.555  1.00  0.00     0.191 C 
BRANCH  23  24
ATOM     24  O   UNL     1      28.580  29.200  15.809  1.00  0.00    -0.394 OA
ATOM     25  H   UNL     1      29.388  29.405  16.351  1.00  0.00     0.210 HD
ENDBRANCH  23  24
ENDBRANCH  18  23
BRANCH  20  26
ATOM     26  O   UNL     1      26.352  29.711  19.361  1.00  0.00    -0.350 OA
BRANCH  26  27
ATOM     27  C   UNL     1      25.876  29.537  20.631  1.00  0.00     0.169 C 
BRANCH  27  28
ATOM     28  C   UNL     1      26.480  28.346  21.326  1.00  0.00     0.119 C 
BRANCH  28  29
ATOM     29  N   UNL     1      27.797  28.718  21.812  1.00  0.00    -0.092 NA
ATOM     30  N   UNL     1      28.792  28.172  21.342  1.00  0.00     0.001 N 
ATOM     31  N   UNL     1      29.779  27.768  20.725  1.00  0.00    -0.003 NA
ENDBRANCH  28  29
ENDBRANCH  27  28
ENDBRANCH  26  27
ENDBRANCH  20  26
BRANCH  21  32
ATOM     32  O   UNL     1      29.426  30.019  18.585  1.00  0.00    -0.387 OA
ATOM     33  H   UNL     1      30.407  29.995  18.696  1.00  0.00     0.211 HD
ENDBRANCH  21  32
BRANCH  22  34
ATOM     34  O   UNL     1      27.727  32.904  19.855  1.00  0.00    -0.385 OA
ATOM     35  H   UNL     1      27.276  33.365  19.103  1.00  0.00     0.211 HD
ENDBRANCH  22  34
ENDBRANCH  16  17
ENDBRANCH  11  16
BRANCH  13  36
ATOM     36  O   UNL     1      25.648  34.139  16.466  1.00  0.00    -0.385 OA
ATOM     37  H   UNL     1      25.690  33.146  16.437  1.00  0.00     0.211 HD
ENDBRANCH  13  36
BRANCH  14  38
ATOM     38  O   UNL     1      26.621  36.672  14.964  1.00  0.00    -0.387 OA
ATOM     39  H   UNL     1      26.678  36.839  15.934  1.00  0.00     0.211 HD
ENDBRANCH  14  38
BRANCH  15  40
ATOM     40  O   UNL     1      27.703  36.229  12.843  1.00  0.00    -0.387 OA
ATOM     41  H   UNL     1      27.591  36.266  11.890  1.00  0.00     0.211 HD
ENDBRANCH  15  40
ENDBRANCH   9  10
ENDBRANCH   8   9
ENDBRANCH   3   8
BRANCH   3  42
ATOM     42  C   UNL     1      32.960  35.487  13.017  1.00  0.00     0.364 C 
ATOM     43  O   UNL     1      32.837  36.217  12.026  1.00  0.00    -0.246 OA
BRANCH  42  44
ATOM     44  O   UNL     1      33.922  34.503  13.021  1.00  0.00    -0.477 OA
ATOM     45  H   UNL     1      34.480  34.402  13.861  1.00  0.00     0.296 HD
ENDBRANCH  42  44
ENDBRANCH   3  42
BRANCH   6  46
ATOM     46  O   UNL     1      32.442  34.827  17.756  1.00  0.00    -0.391 OA
ATOM     47  H   UNL     1      32.841  33.949  17.440  1.00  0.00     0.211 HD
ENDBRANCH   6  46
BRANCH   7  48
ATOM     48  N   UNL     1      31.090  37.322  17.857  1.00  0.00    -0.348 N 
ATOM     49  C   UNL     1      29.911  37.295  18.650  1.00  0.00     0.217 C 
ATOM     50  H   UNL     1      31.882  37.908  18.177  1.00  0.00     0.163 HD
ATOM     51  C   UNL     1      29.769  38.060  19.890  1.00  0.00     0.114 C 
ATOM     52  O   UNL     1      28.930  36.572  18.261  1.00  0.00    -0.275 OA
ENDBRANCH   7  48
ENDBRANCH   1   2
BRANCH   1  53
ATOM     53  O   UNL     1      29.110  37.639  15.312  1.00  0.00    -0.388 OA
ATOM     54  H   UNL     1      29.338  36.831  15.867  1.00  0.00     0.211 HD
ENDBRANCH   1  53
BRANCH   1  55
ATOM     55  C   UNL     1      30.258  38.987  13.786  1.00  0.00     0.165 C 
BRANCH  55  56
ATOM     56  O   UNL     1      31.460  39.337  13.263  1.00  0.00    -0.388 OA
ATOM     57  H   UNL     1      32.187  38.954  13.808  1.00  0.00     0.211 HD
ENDBRANCH  55  56
BRANCH  55  58
ATOM     58  C   UNL     1      29.364  40.229  13.921  1.00  0.00     0.154 C 
BRANCH  58  59
ATOM     59  N   UNL     1      28.054  39.972  13.365  1.00  0.00    -0.319 N 
ATOM     60  C   UNL     1      26.881  39.697  14.101  1.00  0.00     0.407 C 
ATOM     61  H   UNL     1      27.914  39.990  12.307  1.00  0.00     0.167 HD
ATOM     62  O   UNL     1      26.889  39.703  15.347  1.00  0.00    -0.225 OA
BRANCH  60  63
ATOM     63  O   UNL     1      25.663  39.403  13.455  1.00  0.00    -0.443 OA
BRANCH  63  64
ATOM     64  C   UNL     1      25.627  39.446  12.012  1.00  0.00     0.294 C 
BRANCH  64  65
ATOM     65  C   UNL     1      25.330  38.017  11.625  1.00  0.00     0.120 A 
ATOM     66  C   UNL     1      24.372  37.231  12.292  1.00  0.00     0.138 A 
ATOM     67  N   UNL     1      25.863  37.226  10.715  1.00  0.00    -0.132 NA
ATOM     68  N   UNL     1      24.374  36.001  11.756  1.00  0.00    -0.249 N 
ATOM     69  N   UNL     1      25.276  36.014  10.806  1.00  0.00    -0.067 NA
BRANCH  68  70
ATOM     70  C   UNL     1      23.516  34.910  12.225  1.00  0.00     0.114 C 
ATOM     71  C   UNL     1      22.340  34.791  11.308  1.00  0.00     0.034 C 
BRANCH  70  72
ATOM     72  C   UNL     1      24.312  33.662  12.424  1.00  0.00     0.108 C 
BRANCH  72  73
ATOM     73  C   UNL     1      23.625  32.843  13.457  1.00  0.00     0.164 C 
ATOM     74  O   UNL     1      23.407  33.283  14.588  1.00  0.00    -0.294 OA
BRANCH  73  75
ATOM     75  C   UNL     1      23.212  31.483  13.076  1.00  0.00     0.018 A 
ATOM     76  C   UNL     1      24.065  30.442  13.050  1.00  0.00     0.012 A 
ATOM     77  C   UNL     1      21.861  31.306  12.737  1.00  0.00     0.012 A 
ATOM     78  C   UNL     1      23.611  29.163  12.686  1.00  0.00     0.001 A 
ATOM     79  C   UNL     1      21.439  30.056  12.386  1.00  0.00     0.001 A 
ATOM     80  C   UNL     1      22.288  28.982  12.354  1.00  0.00     0.000 A 
ENDBRANCH  73  75
ENDBRANCH  72  73
ENDBRANCH  70  72
ENDBRANCH  68  70
ENDBRANCH  64  65
ENDBRANCH  63  64
ENDBRANCH  60  63
ENDBRANCH  58  59
ENDBRANCH  55  58
ENDBRANCH   1  55
TORSDOF 33
BEGIN_RES LYS A 131
REMARK  4 active torsions:
REMARK  status: ('A' for Active; 'I' for Inactive)
REMARK    1  A    between atoms: CA   and  CB  
REMARK    2  A    between atoms: CB   and  CG  
REMARK    3  A    between atoms: CG   and  CD  
REMARK    4  A    between atoms: CD   and  CE  
ROOT
ATOM      1  CA  LYS A 131      29.867  25.555  16.977  1.00 20.52     0.186 C 
ENDROOT
BRANCH   1   2
ATOM      2  CB  LYS A 131      28.345  25.722  17.026  1.00 20.94     0.034 C 
BRANCH   2   3
ATOM      3  CG  LYS A 131      27.601  24.402  16.897  1.00 22.96     0.005 C 
BRANCH   3   4
ATOM      4  CD  LYS A 131      26.523  24.255  17.934  1.00 24.33     0.041 C 
BRANCH   4   5
ATOM      5  CE  LYS A 131      25.159  24.226  17.250  1.00 26.91     0.338 C 
ATOM      6  NZ  LYS A 131      24.386  25.446  17.581  1.00 27.40     0.618 N 
ENDBRANCH   4   5
ENDBRANCH   3   4
ENDBRANCH   2   3
ENDBRANCH   1   2
END_RES LYS A 131
BEGIN_RES LYS A 135
REMARK  4 active torsions:
REMARK  status: ('A' for Active; 'I' for Inactive)
REMARK    5  A    between atoms: CA   and  CB  
REMARK    6  A    between atoms: CB   and  CG  
REMARK    7  A    between atoms: CG   and  CD  
REMARK    8  A    between atoms: CD   and  CE  
ROOT
ATOM      7  CA  LYS A 135      33.193  34.663   9.290  1.00 25.02     0.186 C 
ENDROOT
BRANCH   7   8
ATOM      8  CB  LYS A 135      32.060  35.360  10.034  1.00 26.63     0.034 C 
BRANCH   8   9
ATOM      9  CG  LYS A 135      30.835  35.590   9.187  1.00 29.45     0.005 C 
BRANCH   9  10
ATOM     10  CD  LYS A 135      29.991  34.328   9.110  1.00 32.00     0.041 C 
BRANCH  10  11
ATOM     11  CE  LYS A 135      28.748  34.465   9.969  1.00 34.25     0.338 C 
ATOM     12  NZ  LYS A 135      27.609  33.699   9.391  1.00 35.99     0.618 N 
ENDBRANCH  10  11
ENDBRANCH   9  10
ENDBRANCH   8   9
ENDBRANCH   7   8
END_RES LYS A 135
