REMARK VINA RESULT:    -5.407      2.657      8.135
REMARK INTER + INTRA:         -23.476
REMARK INTER:                  -9.103
REMARK INTRA:                 -14.373
REMARK UNBOUND:                -9.852
REMARK SMILES CC(=O)N[C@@H]1[C@@H](O)C[C@](OC[C@H]2O[C@@H](O[C@H]3[C@H](O)[C@@H](O)[C@H](OCCN=[N+]=[N-])O[C@@H]3CO)[C@H](O)[C@@H](O)[C@H]2O)(C(=O)O)O[C@H]1C(O)[C@H](O)CNC(=O)OCc1cn(Cc2ccc3c(c2)OCO3)nn1
REMARK SMILES IDX 9 1 8 2 6 3 5 4 42 5 41 6 10 7 11 8 12 9 14 10 13 11 32 12
REMARK SMILES IDX 34 13 36 14 15 15 16 16 29 17 28 18 21 19 17 20 19 21 30 22
REMARK SMILES IDX 31 23 22 25 23 26 24 27 25 28 26 29 27 30 18 31 20 33 33 35
REMARK SMILES IDX 35 37 37 39 38 41 39 42 40 43 7 45 43 47 44 48 45 50 46 51
REMARK SMILES IDX 47 53 48 54 49 55 50 57 51 58 52 59 53 60 54 61 67 62 55 63
REMARK SMILES IDX 66 64 56 65 57 66 58 67 62 68 59 69 61 70 60 71 63 72 65 73
REMARK SMILES IDX 64 74 4 75 2 76 1 78 3 79
REMARK H PARENT 31 24 18 32 20 34 33 36 35 38 37 40 40 44 7 46 44 49 46 52
REMARK H PARENT 48 56 4 77
REMARK Flexibility Score: inf
ROOT
ATOM      1  C   UNL     1      29.021  35.670  13.330  1.00  0.00     0.272 C 
ATOM      2  C   UNL     1      30.302  36.458  13.139  1.00  0.00     0.113 C 
ATOM      3  C   UNL     1      31.470  35.518  13.140  1.00  0.00     0.145 C 
ATOM      4  C   UNL     1      31.494  34.862  14.546  1.00  0.00     0.142 C 
ATOM      5  C   UNL     1      30.154  34.261  14.776  1.00  0.00     0.178 C 
ATOM      6  O   UNL     1      29.281  34.372  13.696  1.00  0.00    -0.332 OA
ENDROOT
BRANCH   1   7
ATOM      7  O   UNL     1      28.229  35.731  12.173  1.00  0.00    -0.338 OA
BRANCH   7   8
ATOM      8  C   UNL     1      28.078  34.582  11.473  1.00  0.00     0.199 C 
BRANCH   8   9
ATOM      9  C   UNL     1      26.575  34.316  11.288  1.00  0.00     0.179 C 
ATOM     10  C   UNL     1      24.607  34.053  12.449  1.00  0.00     0.282 C 
ATOM     11  O   UNL     1      26.001  34.080  12.508  1.00  0.00    -0.341 OA
ATOM     12  C   UNL     1      24.116  35.460  12.097  1.00  0.00     0.202 C 
ATOM     13  C   UNL     1      25.067  36.240  11.263  1.00  0.00     0.179 C 
ATOM     14  C   UNL     1      25.924  35.344  10.434  1.00  0.00     0.177 C 
BRANCH  10  15
ATOM     15  O   UNL     1      24.118  33.759  13.659  1.00  0.00    -0.341 OA
BRANCH  15  16
ATOM     16  C   UNL     1      24.462  32.610  14.305  1.00  0.00     0.184 C 
ATOM     17  C   UNL     1      23.361  31.589  14.383  1.00  0.00     0.178 C 
ATOM     18  O   UNL     1      22.936  31.356  15.649  1.00  0.00    -0.341 OA
ATOM     19  C   UNL     1      23.903  30.852  16.542  1.00  0.00     0.281 C 
ATOM     20  C   UNL     1      24.962  32.951  15.684  1.00  0.00     0.180 C 
ATOM     21  C   UNL     1      25.181  31.653  16.436  1.00  0.00     0.202 C 
BRANCH  17  22
ATOM     22  C   UNL     1      23.837  30.305  13.751  1.00  0.00     0.191 C 
BRANCH  22  23
ATOM     23  O   UNL     1      24.909  30.562  12.857  1.00  0.00    -0.394 OA
ATOM     24  H   UNL     1      25.772  30.647  13.324  1.00  0.00     0.210 HD
ENDBRANCH  22  23
ENDBRANCH  17  22
BRANCH  19  25
ATOM     25  O   UNL     1      24.058  29.509  16.407  1.00  0.00    -0.350 OA
BRANCH  25  26
ATOM     26  C   UNL     1      23.939  28.645  17.413  1.00  0.00     0.169 C 
BRANCH  26  27
ATOM     27  C   UNL     1      25.163  27.870  17.785  1.00  0.00     0.119 C 
BRANCH  27  28
ATOM     28  N   UNL     1      26.386  28.314  17.216  1.00  0.00    -0.092 NA
ATOM     29  N   UNL     1      27.226  28.983  17.811  1.00  0.00     0.001 N 
ATOM     30  N   UNL     1      27.739  29.955  18.393  1.00  0.00    -0.003 NA
ENDBRANCH  27  28
ENDBRANCH  26  27
ENDBRANCH  25  26
ENDBRANCH  19  25
BRANCH  20  31
ATOM     31  O   UNL     1      26.185  33.602  15.550  1.00  0.00    -0.387 OA
ATOM     32  H   UNL     1      26.309  34.293  16.251  1.00  0.00     0.211 HD
ENDBRANCH  20  31
BRANCH  21  33
ATOM     33  O   UNL     1      25.638  32.013  17.701  1.00  0.00    -0.385 OA
ATOM     34  H   UNL     1      25.288  32.911  17.949  1.00  0.00     0.211 HD
ENDBRANCH  21  33
ENDBRANCH  15  16
ENDBRANCH  10  15
BRANCH  12  35
ATOM     35  O   UNL     1      22.862  35.394  11.492  1.00  0.00    -0.385 OA
ATOM     36  H   UNL     1      22.311  34.714  11.913  1.00  0.00     0.211 HD
ENDBRANCH  12  35
BRANCH  13  37
ATOM     37  O   UNL     1      25.816  37.157  11.984  1.00  0.00    -0.387 OA
ATOM     38  H   UNL     1      26.765  37.080  11.706  1.00  0.00     0.211 HD
ENDBRANCH  13  37
BRANCH  14  39
ATOM     39  O   UNL     1      26.873  36.145   9.782  1.00  0.00    -0.387 OA
ATOM     40  H   UNL     1      26.953  35.834   8.860  1.00  0.00     0.211 HD
ENDBRANCH  14  39
ENDBRANCH   8   9
ENDBRANCH   7   8
ENDBRANCH   1   7
BRANCH   1  41
ATOM     41  C   UNL     1      28.205  36.323  14.370  1.00  0.00     0.364 C 
ATOM     42  O   UNL     1      28.675  37.088  15.222  1.00  0.00    -0.246 OA
BRANCH  41  43
ATOM     43  O   UNL     1      26.826  36.107  14.447  1.00  0.00    -0.477 OA
ATOM     44  H   UNL     1      26.185  36.619  13.817  1.00  0.00     0.296 HD
ENDBRANCH  41  43
ENDBRANCH   1  41
BRANCH   3  45
ATOM     45  O   UNL     1      31.426  34.483  12.252  1.00  0.00    -0.391 OA
ATOM     46  H   UNL     1      30.510  34.180  12.026  1.00  0.00     0.211 HD
ENDBRANCH   3  45
BRANCH   5  47
ATOM     47  C   UNL     1      30.281  32.729  14.964  1.00  0.00     0.176 C 
BRANCH  47  48
ATOM     48  O   UNL     1      31.536  32.268  14.707  1.00  0.00    -0.388 OA
ATOM     49  H   UNL     1      31.720  32.307  13.739  1.00  0.00     0.211 HD
ENDBRANCH  47  48
BRANCH  47  50
ATOM     50  C   UNL     1      29.667  32.186  16.178  1.00  0.00     0.165 C 
BRANCH  50  51
ATOM     51  O   UNL     1      28.357  31.713  16.028  1.00  0.00    -0.388 OA
ATOM     52  H   UNL     1      27.848  32.285  15.398  1.00  0.00     0.211 HD
ENDBRANCH  50  51
BRANCH  50  53
ATOM     53  C   UNL     1      29.689  33.063  17.400  1.00  0.00     0.154 C 
BRANCH  53  54
ATOM     54  N   UNL     1      28.303  33.161  17.891  1.00  0.00    -0.319 N 
ATOM     55  C   UNL     1      27.720  34.411  18.246  1.00  0.00     0.407 C 
ATOM     56  H   UNL     1      27.761  32.295  17.972  1.00  0.00     0.167 HD
ATOM     57  O   UNL     1      28.441  35.436  18.122  1.00  0.00    -0.225 OA
BRANCH  55  58
ATOM     58  O   UNL     1      26.431  34.534  18.707  1.00  0.00    -0.443 OA
BRANCH  58  59
ATOM     59  C   UNL     1      25.861  35.800  18.941  1.00  0.00     0.294 C 
BRANCH  59  60
ATOM     60  C   UNL     1      24.846  36.061  17.894  1.00  0.00     0.120 A 
ATOM     61  C   UNL     1      23.461  36.016  18.009  1.00  0.00     0.138 A 
ATOM     62  N   UNL     1      25.068  36.389  16.605  1.00  0.00    -0.132 NA
ATOM     63  N   UNL     1      22.912  36.312  16.816  1.00  0.00    -0.248 N 
ATOM     64  N   UNL     1      23.902  36.531  15.989  1.00  0.00    -0.067 NA
BRANCH  63  65
ATOM     65  C   UNL     1      21.509  36.373  16.534  1.00  0.00     0.181 C 
BRANCH  65  66
ATOM     66  C   UNL     1      20.980  35.189  15.818  1.00  0.00    -0.023 A 
ATOM     67  C   UNL     1      20.385  34.180  16.510  1.00  0.00     0.010 A 
ATOM     68  C   UNL     1      21.092  35.102  14.425  1.00  0.00     0.056 A 
ATOM     69  C   UNL     1      19.904  33.092  15.827  1.00  0.00     0.051 A 
ATOM     70  C   UNL     1      20.618  34.022  13.733  1.00  0.00     0.166 A 
ATOM     71  C   UNL     1      20.019  33.014  14.466  1.00  0.00     0.165 A 
ATOM     72  O   UNL     1      20.566  33.628  12.409  1.00  0.00    -0.454 OA
ATOM     73  O   UNL     1      19.601  32.003  13.590  1.00  0.00    -0.454 OA
ATOM     74  C   UNL     1      19.617  32.570  12.298  1.00  0.00     0.468 C 
ENDBRANCH  65  66
ENDBRANCH  63  65
ENDBRANCH  59  60
ENDBRANCH  58  59
ENDBRANCH  55  58
ENDBRANCH  53  54
ENDBRANCH  50  53
ENDBRANCH  47  50
ENDBRANCH   5  47
BRANCH   4  75
ATOM     75  N   UNL     1      31.862  35.931  15.431  1.00  0.00    -0.348 N 
ATOM     76  C   UNL     1      33.248  36.080  15.774  1.00  0.00     0.217 C 
ATOM     77  H   UNL     1      31.234  36.631  15.864  1.00  0.00     0.163 HD
ATOM     78  C   UNL     1      33.661  37.188  16.701  1.00  0.00     0.114 C 
ATOM     79  O   UNL     1      34.105  35.294  15.305  1.00  0.00    -0.275 OA
ENDBRANCH   4  75
TORSDOF 31
BEGIN_RES LYS A 131
REMARK  4 active torsions:
REMARK  status: ('A' for Active; 'I' for Inactive)
REMARK    1  A    between atoms: CA   and  CB  
REMARK    2  A    between atoms: CB   and  CG  
REMARK    3  A    between atoms: CG   and  CD  
REMARK    4  A    between atoms: CD   and  CE  
ROOT
ATOM      1  CA  LYS A 131      29.867  25.555  16.977  1.00 20.52     0.186 C 
ENDROOT
BRANCH   1   2
ATOM      2  CB  LYS A 131      28.345  25.722  17.026  1.00 20.94     0.034 C 
BRANCH   2   3
ATOM      3  CG  LYS A 131      27.601  24.403  16.887  1.00 22.96     0.005 C 
BRANCH   3   4
ATOM      4  CD  LYS A 131      26.519  24.251  17.921  1.00 24.33     0.041 C 
BRANCH   4   5
ATOM      5  CE  LYS A 131      25.171  24.093  17.226  1.00 26.91     0.338 C 
ATOM      6  NZ  LYS A 131      24.620  22.738  17.465  1.00 27.40     0.618 N 
ENDBRANCH   4   5
ENDBRANCH   3   4
ENDBRANCH   2   3
ENDBRANCH   1   2
END_RES LYS A 131
BEGIN_RES LYS A 135
REMARK  4 active torsions:
REMARK  status: ('A' for Active; 'I' for Inactive)
REMARK    5  A    between atoms: CA   and  CB  
REMARK    6  A    between atoms: CB   and  CG  
REMARK    7  A    between atoms: CG   and  CD  
REMARK    8  A    between atoms: CD   and  CE  
ROOT
ATOM      7  CA  LYS A 135      33.193  34.663   9.290  1.00 25.02     0.186 C 
ENDROOT
BRANCH   7   8
ATOM      8  CB  LYS A 135      32.060  35.360  10.034  1.00 26.63     0.034 C 
BRANCH   8   9
ATOM      9  CG  LYS A 135      30.901  35.740   9.148  1.00 29.45     0.005 C 
BRANCH   9  10
ATOM     10  CD  LYS A 135      30.391  34.528   8.383  1.00 32.00     0.041 C 
BRANCH  10  11
ATOM     11  CE  LYS A 135      29.128  34.875   7.618  1.00 34.25     0.338 C 
ATOM     12  NZ  LYS A 135      29.111  36.313   7.234  1.00 35.99     0.618 N 
ENDBRANCH  10  11
ENDBRANCH   9  10
ENDBRANCH   8   9
ENDBRANCH   7   8
END_RES LYS A 135
