REMARK VINA RESULT:    -4.793      3.095      5.638
REMARK INTER + INTRA:         -23.597
REMARK INTER:                  -9.244
REMARK INTRA:                 -14.353
REMARK UNBOUND:               -10.398
REMARK SMILES CC(=O)N[C@@H]1[C@@H](O)C[C@](OC[C@H]2O[C@@H](O[C@H]3[C@H](O)[C@@H](O)[C@H](OCCN=[N+]=[N-])O[C@@H]3CO)[C@H](O)[C@@H](O)[C@H]2O)(C(=O)O)O[C@H]1C(O)[C@H](O)CNC(=O)OCc1cn([C@@H](CCC(=O)O)C(=O)O)nn1
REMARK SMILES IDX 43 1 42 2 9 3 8 4 41 5 6 6 5 7 10 8 11 9 12 10 14 11 13 12
REMARK SMILES IDX 32 13 34 14 36 15 15 16 16 17 29 18 28 19 21 20 17 21 19 22
REMARK SMILES IDX 30 23 31 24 22 26 23 27 24 28 25 29 26 30 27 31 18 32 20 34
REMARK SMILES IDX 33 36 35 38 37 40 38 42 39 43 40 44 7 46 4 48 2 49 1 51 3 52
REMARK SMILES IDX 44 53 45 55 46 56 47 58 48 59 49 60 50 62 51 63 52 64 53 65
REMARK SMILES IDX 54 66 66 67 55 68 65 69 56 70 57 71 58 72 59 73 60 74 61 75
REMARK SMILES IDX 62 77 63 78 64 79
REMARK H PARENT 31 25 18 33 20 35 33 37 35 39 37 41 40 45 7 47 4 50 44 54
REMARK H PARENT 46 57 48 61 61 76 64 80
REMARK Flexibility Score: inf
ROOT
ATOM      1  C   UNL     1      29.654  34.106  18.695  1.00  0.00     0.176 C 
ENDROOT
BRANCH   1   2
ATOM      2  C   UNL     1      29.527  33.577  17.266  1.00  0.00     0.178 C 
ATOM      3  C   UNL     1      28.054  32.094  16.182  1.00  0.00     0.272 C 
ATOM      4  C   UNL     1      29.107  31.140  15.784  1.00  0.00     0.113 C 
ATOM      5  O   UNL     1      28.501  32.641  17.404  1.00  0.00    -0.332 OA
ATOM      6  C   UNL     1      30.407  31.394  16.499  1.00  0.00     0.145 C 
ATOM      7  C   UNL     1      30.737  32.807  16.819  1.00  0.00     0.142 C 
BRANCH   3   8
ATOM      8  O   UNL     1      26.866  31.453  16.470  1.00  0.00    -0.338 OA
BRANCH   8   9
ATOM      9  C   UNL     1      26.700  30.159  16.559  1.00  0.00     0.199 C 
BRANCH   9  10
ATOM     10  C   UNL     1      26.560  29.415  17.858  1.00  0.00     0.179 C 
ATOM     11  C   UNL     1      27.816  29.458  19.823  1.00  0.00     0.282 C 
ATOM     12  O   UNL     1      27.758  29.204  18.478  1.00  0.00    -0.341 OA
ATOM     13  C   UNL     1      27.460  30.911  20.053  1.00  0.00     0.202 C 
ATOM     14  C   UNL     1      26.035  31.123  19.652  1.00  0.00     0.179 C 
ATOM     15  C   UNL     1      25.507  30.071  18.743  1.00  0.00     0.177 C 
BRANCH  11  16
ATOM     16  O   UNL     1      29.128  29.252  20.256  1.00  0.00    -0.341 OA
BRANCH  16  17
ATOM     17  C   UNL     1      29.295  28.217  21.141  1.00  0.00     0.184 C 
ATOM     18  C   UNL     1      29.665  28.721  22.533  1.00  0.00     0.178 C 
ATOM     19  O   UNL     1      30.916  28.216  22.881  1.00  0.00    -0.341 OA
ATOM     20  C   UNL     1      31.921  28.827  22.079  1.00  0.00     0.281 C 
ATOM     21  C   UNL     1      30.462  27.386  20.645  1.00  0.00     0.180 C 
ATOM     22  C   UNL     1      31.704  28.301  20.693  1.00  0.00     0.202 C 
BRANCH  18  23
ATOM     23  C   UNL     1      28.666  28.186  23.544  1.00  0.00     0.191 C 
BRANCH  23  24
ATOM     24  O   UNL     1      29.288  27.540  24.596  1.00  0.00    -0.394 OA
ATOM     25  H   UNL     1      29.515  26.600  24.373  1.00  0.00     0.210 HD
ENDBRANCH  23  24
ENDBRANCH  18  23
BRANCH  20  26
ATOM     26  O   UNL     1      33.123  28.535  22.655  1.00  0.00    -0.350 OA
BRANCH  26  27
ATOM     27  C   UNL     1      34.077  29.510  22.566  1.00  0.00     0.169 C 
BRANCH  27  28
ATOM     28  C   UNL     1      35.299  29.263  23.427  1.00  0.00     0.119 C 
BRANCH  28  29
ATOM     29  N   UNL     1      35.032  28.328  24.502  1.00  0.00    -0.092 NA
ATOM     30  N   UNL     1      35.844  27.504  24.909  1.00  0.00     0.001 N 
ATOM     31  N   UNL     1      36.766  26.858  25.358  1.00  0.00    -0.003 NA
ENDBRANCH  28  29
ENDBRANCH  27  28
ENDBRANCH  26  27
ENDBRANCH  20  26
BRANCH  21  32
ATOM     32  O   UNL     1      30.671  26.244  21.409  1.00  0.00    -0.387 OA
ATOM     33  H   UNL     1      30.039  25.497  21.167  1.00  0.00     0.211 HD
ENDBRANCH  21  32
BRANCH  22  34
ATOM     34  O   UNL     1      31.335  29.408  19.889  1.00  0.00    -0.385 OA
ATOM     35  H   UNL     1      30.382  29.605  20.080  1.00  0.00     0.211 HD
ENDBRANCH  22  34
ENDBRANCH  16  17
ENDBRANCH  11  16
BRANCH  13  36
ATOM     36  O   UNL     1      27.653  31.258  21.391  1.00  0.00    -0.385 OA
ATOM     37  H   UNL     1      28.171  30.493  21.799  1.00  0.00     0.211 HD
ENDBRANCH  13  36
BRANCH  14  38
ATOM     38  O   UNL     1      25.822  32.391  19.104  1.00  0.00    -0.387 OA
ATOM     39  H   UNL     1      24.904  32.703  19.358  1.00  0.00     0.211 HD
ENDBRANCH  14  38
BRANCH  15  40
ATOM     40  O   UNL     1      24.565  30.688  17.918  1.00  0.00    -0.387 OA
ATOM     41  H   UNL     1      23.983  30.022  17.487  1.00  0.00     0.211 HD
ENDBRANCH  15  40
ENDBRANCH   9  10
ENDBRANCH   8   9
ENDBRANCH   3   8
BRANCH   3  42
ATOM     42  C   UNL     1      27.743  33.197  15.282  1.00  0.00     0.364 C 
ATOM     43  O   UNL     1      26.571  33.720  15.357  1.00  0.00    -0.246 OA
BRANCH  42  44
ATOM     44  O   UNL     1      28.548  33.783  14.325  1.00  0.00    -0.477 OA
ATOM     45  H   UNL     1      29.502  34.001  14.494  1.00  0.00     0.296 HD
ENDBRANCH  42  44
ENDBRANCH   3  42
BRANCH   6  46
ATOM     46  O   UNL     1      30.318  30.721  17.750  1.00  0.00    -0.391 OA
ATOM     47  H   UNL     1      30.161  31.365  18.486  1.00  0.00     0.211 HD
ENDBRANCH   6  46
BRANCH   7  48
ATOM     48  N   UNL     1      31.496  33.329  15.737  1.00  0.00    -0.348 N 
ATOM     49  C   UNL     1      32.431  34.386  15.857  1.00  0.00     0.217 C 
ATOM     50  H   UNL     1      31.415  32.934  14.780  1.00  0.00     0.163 HD
ATOM     51  C   UNL     1      33.199  34.893  14.665  1.00  0.00     0.114 C 
ATOM     52  O   UNL     1      32.638  34.916  16.946  1.00  0.00    -0.275 OA
ENDBRANCH   7  48
ENDBRANCH   1   2
BRANCH   1  53
ATOM     53  O   UNL     1      28.645  33.561  19.479  1.00  0.00    -0.388 OA
ATOM     54  H   UNL     1      28.938  32.685  19.847  1.00  0.00     0.211 HD
ENDBRANCH   1  53
BRANCH   1  55
ATOM     55  C   UNL     1      29.736  35.551  18.864  1.00  0.00     0.165 C 
BRANCH  55  56
ATOM     56  O   UNL     1      29.867  36.143  17.571  1.00  0.00    -0.388 OA
ATOM     57  H   UNL     1      29.459  35.525  16.920  1.00  0.00     0.211 HD
ENDBRANCH  55  56
BRANCH  55  58
ATOM     58  C   UNL     1      30.880  36.110  19.657  1.00  0.00     0.154 C 
BRANCH  58  59
ATOM     59  N   UNL     1      32.010  35.216  19.739  1.00  0.00    -0.319 N 
ATOM     60  C   UNL     1      33.052  35.344  20.705  1.00  0.00     0.407 C 
ATOM     61  H   UNL     1      32.089  34.443  19.060  1.00  0.00     0.167 HD
ATOM     62  O   UNL     1      33.032  36.250  21.537  1.00  0.00    -0.225 OA
BRANCH  60  63
ATOM     63  O   UNL     1      34.076  34.430  20.676  1.00  0.00    -0.443 OA
BRANCH  63  64
ATOM     64  C   UNL     1      34.111  33.276  21.463  1.00  0.00     0.294 C 
BRANCH  64  65
ATOM     65  C   UNL     1      32.726  32.841  21.772  1.00  0.00     0.120 A 
ATOM     66  C   UNL     1      32.058  32.847  22.978  1.00  0.00     0.139 A 
ATOM     67  N   UNL     1      31.847  32.316  20.877  1.00  0.00    -0.132 NA
ATOM     68  N   UNL     1      30.807  32.335  22.791  1.00  0.00    -0.238 N 
ATOM     69  N   UNL     1      30.723  32.024  21.497  1.00  0.00    -0.066 NA
BRANCH  68  70
ATOM     70  C   UNL     1      29.798  32.191  23.775  1.00  0.00     0.219 C 
BRANCH  70  71
ATOM     71  C   UNL     1      30.182  32.003  25.196  1.00  0.00     0.051 C 
BRANCH  71  72
ATOM     72  C   UNL     1      30.488  30.655  25.703  1.00  0.00     0.125 C 
BRANCH  72  73
ATOM     73  C   UNL     1      31.844  30.153  25.638  1.00  0.00     0.303 C 
ATOM     74  O   UNL     1      32.913  30.785  25.704  1.00  0.00    -0.252 OA
BRANCH  73  75
ATOM     75  O   UNL     1      32.044  28.744  25.478  1.00  0.00    -0.481 OA
ATOM     76  H   UNL     1      32.569  28.414  24.684  1.00  0.00     0.296 HD
ENDBRANCH  73  75
ENDBRANCH  72  73
ENDBRANCH  71  72
ENDBRANCH  70  71
BRANCH  70  77
ATOM     77  C   UNL     1      28.882  33.373  23.692  1.00  0.00     0.328 C 
ATOM     78  O   UNL     1      28.451  33.911  24.730  1.00  0.00    -0.250 OA
BRANCH  77  79
ATOM     79  O   UNL     1      28.485  33.905  22.480  1.00  0.00    -0.480 OA
ATOM     80  H   UNL     1      27.502  33.944  22.206  1.00  0.00     0.296 HD
ENDBRANCH  77  79
ENDBRANCH  70  77
ENDBRANCH  68  70
ENDBRANCH  64  65
ENDBRANCH  63  64
ENDBRANCH  60  63
ENDBRANCH  58  59
ENDBRANCH  55  58
ENDBRANCH   1  55
TORSDOF 36
BEGIN_RES LYS A 131
REMARK  4 active torsions:
REMARK  status: ('A' for Active; 'I' for Inactive)
REMARK    1  A    between atoms: CA   and  CB  
REMARK    2  A    between atoms: CB   and  CG  
REMARK    3  A    between atoms: CG   and  CD  
REMARK    4  A    between atoms: CD   and  CE  
ROOT
ATOM      1  CA  LYS A 131      29.867  25.555  16.977  1.00 20.52     0.186 C 
ENDROOT
BRANCH   1   2
ATOM      2  CB  LYS A 131      28.345  25.722  17.026  1.00 20.94     0.034 C 
BRANCH   2   3
ATOM      3  CG  LYS A 131      27.602  24.398  16.928  1.00 22.96     0.005 C 
BRANCH   3   4
ATOM      4  CD  LYS A 131      26.352  24.388  17.764  1.00 24.33     0.041 C 
BRANCH   4   5
ATOM      5  CE  LYS A 131      25.989  25.816  18.155  1.00 26.91     0.338 C 
ATOM      6  NZ  LYS A 131      25.929  25.951  19.630  1.00 27.40     0.618 N 
ENDBRANCH   4   5
ENDBRANCH   3   4
ENDBRANCH   2   3
ENDBRANCH   1   2
END_RES LYS A 131
BEGIN_RES LYS A 135
REMARK  4 active torsions:
REMARK  status: ('A' for Active; 'I' for Inactive)
REMARK    5  A    between atoms: CA   and  CB  
REMARK    6  A    between atoms: CB   and  CG  
REMARK    7  A    between atoms: CG   and  CD  
REMARK    8  A    between atoms: CD   and  CE  
ROOT
ATOM      7  CA  LYS A 135      33.193  34.663   9.290  1.00 25.02     0.186 C 
ENDROOT
BRANCH   7   8
ATOM      8  CB  LYS A 135      32.060  35.360  10.034  1.00 26.63     0.034 C 
BRANCH   8   9
ATOM      9  CG  LYS A 135      30.793  35.478   9.227  1.00 29.45     0.005 C 
BRANCH   9  10
ATOM     10  CD  LYS A 135      30.163  34.110   9.014  1.00 32.00     0.041 C 
BRANCH  10  11
ATOM     11  CE  LYS A 135      28.719  34.110   9.478  1.00 34.25     0.338 C 
ATOM     12  NZ  LYS A 135      28.616  34.501  10.911  1.00 35.99     0.618 N 
ENDBRANCH  10  11
ENDBRANCH   9  10
ENDBRANCH   8   9
ENDBRANCH   7   8
END_RES LYS A 135
