REMARK VINA RESULT:    -4.586      0.000      0.000
REMARK INTER + INTRA:         -25.066
REMARK INTER:                 -12.945
REMARK INTRA:                 -12.121
REMARK UNBOUND:               -13.108
REMARK SMILES CC(=O)N[C@@H]1[C@@H](O)C[C@](OC[C@H]2O[C@@H](O[C@H]3[C@H](O)[C@@H](O)[C@H](OCCN=[N+]=[N-])O[C@@H]3CO)[C@H](O)[C@@H](O)[C@H]2O)(C(=O)O)O[C@H]1C(O)[C@H](O)CNC(=O)OCc1cn(-c2cccc(C=CC(=O)O)c2)nn1
REMARK SMILES IDX 43 1 42 2 9 3 8 4 41 5 6 6 5 7 10 8 11 9 12 10 14 11 13 12
REMARK SMILES IDX 32 13 34 14 36 15 15 16 16 17 29 18 28 19 21 20 17 21 19 22
REMARK SMILES IDX 30 23 31 24 22 26 23 27 24 28 25 29 26 30 27 31 18 32 20 34
REMARK SMILES IDX 33 36 35 38 37 40 38 42 39 43 40 44 7 46 4 48 2 49 1 51 3 52
REMARK SMILES IDX 44 53 45 55 46 56 47 58 48 59 49 60 50 62 51 63 52 64 53 65
REMARK SMILES IDX 54 66 68 67 55 68 67 69 56 70 66 71 57 72 60 73 58 74 59 75
REMARK SMILES IDX 61 76 62 77 63 78 64 79 65 80
REMARK H PARENT 31 25 18 33 20 35 33 37 35 39 37 41 40 45 7 47 4 50 44 54
REMARK H PARENT 46 57 48 61 65 81
REMARK Flexibility Score: inf
ROOT
ATOM      1  C   UNL     1      22.671  39.725  11.247  1.00  0.00     0.176 C 
ENDROOT
BRANCH   1   2
ATOM      2  C   UNL     1      21.558  40.463  10.532  1.00  0.00     0.178 C 
ATOM      3  C   UNL     1      19.272  40.131  10.059  1.00  0.00     0.272 C 
ATOM      4  C   UNL     1      19.632  41.529   9.362  1.00  0.00     0.113 C 
ATOM      5  O   UNL     1      20.463  39.644  10.556  1.00  0.00    -0.332 OA
ATOM      6  C   UNL     1      20.700  41.209   8.377  1.00  0.00     0.145 C 
ATOM      7  C   UNL     1      21.948  40.760   9.111  1.00  0.00     0.142 C 
BRANCH   3   8
ATOM      8  O   UNL     1      18.884  39.386   9.017  1.00  0.00    -0.338 OA
BRANCH   8   9
ATOM      9  C   UNL     1      18.014  38.393   9.034  1.00  0.00     0.199 C 
BRANCH   9  10
ATOM     10  C   UNL     1      18.419  37.041   8.485  1.00  0.00     0.179 C 
ATOM     11  C   UNL     1      20.564  36.271   7.853  1.00  0.00     0.282 C 
ATOM     12  O   UNL     1      19.547  37.201   7.772  1.00  0.00    -0.341 OA
ATOM     13  C   UNL     1      20.000  34.927   8.094  1.00  0.00     0.202 C 
ATOM     14  C   UNL     1      19.121  34.803   9.301  1.00  0.00     0.179 C 
ATOM     15  C   UNL     1      18.667  36.178   9.714  1.00  0.00     0.177 C 
BRANCH  11  16
ATOM     16  O   UNL     1      21.471  36.766   8.764  1.00  0.00    -0.341 OA
BRANCH  16  17
ATOM     17  C   UNL     1      22.777  36.569   8.475  1.00  0.00     0.184 C 
ATOM     18  C   UNL     1      23.550  36.148   9.687  1.00  0.00     0.178 C 
ATOM     19  O   UNL     1      24.761  35.617   9.182  1.00  0.00    -0.341 OA
ATOM     20  C   UNL     1      25.570  36.657   8.716  1.00  0.00     0.281 C 
ATOM     21  C   UNL     1      23.474  37.843   7.988  1.00  0.00     0.180 C 
ATOM     22  C   UNL     1      24.910  37.488   7.665  1.00  0.00     0.202 C 
BRANCH  18  23
ATOM     23  C   UNL     1      22.887  35.127  10.539  1.00  0.00     0.191 C 
BRANCH  23  24
ATOM     24  O   UNL     1      22.178  35.767  11.553  1.00  0.00    -0.394 OA
ATOM     25  H   UNL     1      21.400  36.275  11.164  1.00  0.00     0.210 HD
ENDBRANCH  23  24
ENDBRANCH  18  23
BRANCH  20  26
ATOM     26  O   UNL     1      26.717  36.082   8.178  1.00  0.00    -0.350 OA
BRANCH  26  27
ATOM     27  C   UNL     1      27.701  37.031   7.914  1.00  0.00     0.169 C 
BRANCH  27  28
ATOM     28  C   UNL     1      28.407  36.629   6.639  1.00  0.00     0.119 C 
BRANCH  28  29
ATOM     29  N   UNL     1      27.619  37.045   5.504  1.00  0.00    -0.092 NA
ATOM     30  N   UNL     1      27.825  38.147   4.963  1.00  0.00     0.001 N 
ATOM     31  N   UNL     1      27.731  39.351   4.681  1.00  0.00    -0.003 NA
ENDBRANCH  28  29
ENDBRANCH  27  28
ENDBRANCH  26  27
ENDBRANCH  20  26
BRANCH  21  32
ATOM     32  O   UNL     1      22.908  38.340   6.821  1.00  0.00    -0.387 OA
ATOM     33  H   UNL     1      22.458  39.182   7.084  1.00  0.00     0.211 HD
ENDBRANCH  21  32
BRANCH  22  34
ATOM     34  O   UNL     1      25.606  38.718   7.615  1.00  0.00    -0.385 OA
ATOM     35  H   UNL     1      25.572  39.198   8.472  1.00  0.00     0.211 HD
ENDBRANCH  22  34
ENDBRANCH  16  17
ENDBRANCH  11  16
BRANCH  13  36
ATOM     36  O   UNL     1      19.209  34.547   6.971  1.00  0.00    -0.385 OA
ATOM     37  H   UNL     1      19.589  34.964   6.148  1.00  0.00     0.211 HD
ENDBRANCH  13  36
BRANCH  14  38
ATOM     38  O   UNL     1      19.714  34.115  10.363  1.00  0.00    -0.387 OA
ATOM     39  H   UNL     1      19.147  33.367  10.681  1.00  0.00     0.211 HD
ENDBRANCH  14  38
BRANCH  15  40
ATOM     40  O   UNL     1      19.625  36.747  10.530  1.00  0.00    -0.387 OA
ATOM     41  H   UNL     1      19.217  37.310  11.259  1.00  0.00     0.211 HD
ENDBRANCH  15  40
ENDBRANCH   9  10
ENDBRANCH   8   9
ENDBRANCH   3   8
BRANCH   3  42
ATOM     42  C   UNL     1      18.355  40.472  11.134  1.00  0.00     0.364 C 
ATOM     43  O   UNL     1      18.396  40.138  12.332  1.00  0.00    -0.246 OA
BRANCH  42  44
ATOM     44  O   UNL     1      17.253  41.298  10.806  1.00  0.00    -0.477 OA
ATOM     45  H   UNL     1      16.316  40.868  10.830  1.00  0.00     0.296 HD
ENDBRANCH  42  44
ENDBRANCH   3  42
BRANCH   6  46
ATOM     46  O   UNL     1      20.208  40.100   7.612  1.00  0.00    -0.391 OA
ATOM     47  H   UNL     1      20.578  39.253   7.984  1.00  0.00     0.211 HD
ENDBRANCH   6  46
BRANCH   7  48
ATOM     48  N   UNL     1      23.088  41.586   8.937  1.00  0.00    -0.348 N 
ATOM     49  C   UNL     1      23.925  41.689   7.822  1.00  0.00     0.217 C 
ATOM     50  H   UNL     1      23.389  42.211   9.772  1.00  0.00     0.163 HD
ATOM     51  C   UNL     1      25.106  42.639   7.877  1.00  0.00     0.114 C 
ATOM     52  O   UNL     1      23.768  41.041   6.753  1.00  0.00    -0.275 OA
ENDBRANCH   7  48
ENDBRANCH   1   2
BRANCH   1  53
ATOM     53  O   UNL     1      23.725  40.591  11.476  1.00  0.00    -0.388 OA
ATOM     54  H   UNL     1      24.257  40.394  12.267  1.00  0.00     0.211 HD
ENDBRANCH   1  53
BRANCH   1  55
ATOM     55  C   UNL     1      22.228  39.224  12.623  1.00  0.00     0.165 C 
BRANCH  55  56
ATOM     56  O   UNL     1      21.319  40.038  13.240  1.00  0.00    -0.388 OA
ATOM     57  H   UNL     1      20.734  40.542  12.628  1.00  0.00     0.211 HD
ENDBRANCH  55  56
BRANCH  55  58
ATOM     58  C   UNL     1      23.406  38.936  13.498  1.00  0.00     0.154 C 
BRANCH  58  59
ATOM     59  N   UNL     1      24.030  37.705  13.169  1.00  0.00    -0.319 N 
ATOM     60  C   UNL     1      25.336  37.628  12.632  1.00  0.00     0.407 C 
ATOM     61  H   UNL     1      23.529  36.788  13.316  1.00  0.00     0.167 HD
ATOM     62  O   UNL     1      26.013  38.671  12.416  1.00  0.00    -0.225 OA
BRANCH  60  63
ATOM     63  O   UNL     1      25.944  36.416  12.316  1.00  0.00    -0.443 OA
BRANCH  63  64
ATOM     64  C   UNL     1      26.201  35.527  13.409  1.00  0.00     0.294 C 
BRANCH  64  65
ATOM     65  C   UNL     1      25.045  34.616  13.507  1.00  0.00     0.121 A 
ATOM     66  C   UNL     1      24.945  33.311  13.034  1.00  0.00     0.144 A 
ATOM     67  N   UNL     1      23.867  34.891  14.090  1.00  0.00    -0.131 NA
ATOM     68  N   UNL     1      23.714  32.848  13.350  1.00  0.00    -0.220 N 
ATOM     69  N   UNL     1      23.091  33.821  13.983  1.00  0.00    -0.062 NA
BRANCH  68  70
ATOM     70  C   UNL     1      23.260  31.542  13.034  1.00  0.00     0.067 A 
ATOM     71  C   UNL     1      21.930  31.343  12.662  1.00  0.00     0.036 A 
ATOM     72  C   UNL     1      24.091  30.473  13.082  1.00  0.00     0.028 A 
ATOM     73  C   UNL     1      21.448  30.111  12.348  1.00  0.00    -0.023 A 
ATOM     74  C   UNL     1      23.642  29.193  12.768  1.00  0.00     0.003 A 
ATOM     75  C   UNL     1      22.323  29.043  12.406  1.00  0.00     0.008 A 
BRANCH  73  76
ATOM     76  C   UNL     1      20.069  29.901  11.965  1.00  0.00     0.015 C 
ATOM     77  C   UNL     1      19.542  28.703  11.951  1.00  0.00     0.094 C 
BRANCH  77  78
ATOM     78  C   UNL     1      18.142  28.537  11.557  1.00  0.00     0.328 C 
ATOM     79  O   UNL     1      17.618  29.271  10.711  1.00  0.00    -0.247 OA
BRANCH  78  80
ATOM     80  O   UNL     1      17.363  27.538  12.136  1.00  0.00    -0.478 OA
ATOM     81  H   UNL     1      16.350  27.670  12.126  1.00  0.00     0.297 HD
ENDBRANCH  78  80
ENDBRANCH  77  78
ENDBRANCH  73  76
ENDBRANCH  68  70
ENDBRANCH  64  65
ENDBRANCH  63  64
ENDBRANCH  60  63
ENDBRANCH  58  59
ENDBRANCH  55  58
ENDBRANCH   1  55
TORSDOF 33
BEGIN_RES LYS A 131
REMARK  4 active torsions:
REMARK  status: ('A' for Active; 'I' for Inactive)
REMARK    1  A    between atoms: CA   and  CB  
REMARK    2  A    between atoms: CB   and  CG  
REMARK    3  A    between atoms: CG   and  CD  
REMARK    4  A    between atoms: CD   and  CE  
ROOT
ATOM      1  CA  LYS A 131      29.867  25.555  16.977  1.00 20.52     0.186 C 
ENDROOT
BRANCH   1   2
ATOM      2  CB  LYS A 131      28.345  25.722  17.026  1.00 20.94     0.034 C 
BRANCH   2   3
ATOM      3  CG  LYS A 131      27.602  24.399  16.919  1.00 22.96     0.005 C 
BRANCH   3   4
ATOM      4  CD  LYS A 131      26.524  24.269  17.960  1.00 24.33     0.041 C 
BRANCH   4   5
ATOM      5  CE  LYS A 131      25.614  25.492  17.905  1.00 26.91     0.338 C 
ATOM      6  NZ  LYS A 131      25.489  26.106  19.248  1.00 27.40     0.618 N 
ENDBRANCH   4   5
ENDBRANCH   3   4
ENDBRANCH   2   3
ENDBRANCH   1   2
END_RES LYS A 131
BEGIN_RES LYS A 135
REMARK  4 active torsions:
REMARK  status: ('A' for Active; 'I' for Inactive)
REMARK    5  A    between atoms: CA   and  CB  
REMARK    6  A    between atoms: CB   and  CG  
REMARK    7  A    between atoms: CG   and  CD  
REMARK    8  A    between atoms: CD   and  CE  
ROOT
ATOM      7  CA  LYS A 135      33.193  34.663   9.290  1.00 25.02     0.186 C 
ENDROOT
BRANCH   7   8
ATOM      8  CB  LYS A 135      32.060  35.360  10.034  1.00 26.63     0.034 C 
BRANCH   8   9
ATOM      9  CG  LYS A 135      30.803  35.507   9.216  1.00 29.45     0.005 C 
BRANCH   9  10
ATOM     10  CD  LYS A 135      30.309  34.149   8.742  1.00 32.00     0.041 C 
BRANCH  10  11
ATOM     11  CE  LYS A 135      28.949  33.839   9.338  1.00 34.25     0.338 C 
ATOM     12  NZ  LYS A 135      28.686  34.678  10.539  1.00 35.99     0.618 N 
ENDBRANCH  10  11
ENDBRANCH   9  10
ENDBRANCH   8   9
ENDBRANCH   7   8
END_RES LYS A 135
