REMARK VINA RESULT:    -7.836      0.000      0.000
REMARK INTER + INTRA:         -22.326
REMARK INTER:                  -9.518
REMARK INTRA:                 -12.808
REMARK UNBOUND:                -1.206
REMARK SMILES CC(=O)N[C@@H]1[C@@H](O)C[C@](OC[C@H]2O[C@@H](O[C@H]3[C@H](O)[C@@H](O)[C@H](OCCN=[N+]=[N-])O[C@@H]3CO)[C@H](O)[C@@H](O)[C@H]2O)(C(=O)O)O[C@H]1C(O)[C@H](O)CNC(=O)OCc1cn(C2CCc3ccccc3NC2=O)nn1
REMARK SMILES IDX 43 1 42 2 9 3 8 4 41 5 6 6 5 7 10 8 11 9 12 10 14 11 13 12
REMARK SMILES IDX 32 13 34 14 36 15 15 16 16 17 29 18 28 19 21 20 17 21 19 22
REMARK SMILES IDX 30 23 31 24 22 26 23 27 24 28 25 29 26 30 27 31 18 32 20 34
REMARK SMILES IDX 33 36 35 38 37 40 38 42 39 43 40 44 7 46 4 48 2 49 1 51 3 52
REMARK SMILES IDX 44 53 45 55 46 56 47 58 48 59 49 60 50 62 51 63 52 64 53 65
REMARK SMILES IDX 54 66 69 67 55 68 68 69 56 70 57 71 66 73 65 74 67 75 64 77
REMARK SMILES IDX 59 78 63 79 60 80 62 81 61 82 58 83
REMARK H PARENT 31 25 18 33 20 35 33 37 35 39 37 41 40 45 7 47 4 50 44 54
REMARK H PARENT 46 57 48 61 65 76
REMARK Flexibility Score: 90.00
ROOT
ATOM      1  C   UNL     1      28.526  34.774  13.540  1.00  0.00     0.176 C 
ENDROOT
BRANCH   1   2
ATOM      2  C   UNL     1      29.222  35.869  14.373  1.00  0.00     0.178 C 
ATOM      3  C   UNL     1      30.716  37.464  13.416  1.00  0.00     0.272 C 
ATOM      4  C   UNL     1      31.850  36.867  14.147  1.00  0.00     0.113 C 
ATOM      5  O   UNL     1      29.436  36.994  13.717  1.00  0.00    -0.332 OA
ATOM      6  C   UNL     1      31.669  35.411  14.409  1.00  0.00     0.145 C 
ATOM      7  C   UNL     1      30.349  35.242  15.147  1.00  0.00     0.142 C 
BRANCH   3   8
ATOM      8  O   UNL     1      30.795  37.430  12.069  1.00  0.00    -0.338 OA
BRANCH   8   9
ATOM      9  C   UNL     1      31.876  37.704  11.357  1.00  0.00     0.199 C 
BRANCH   9  10
ATOM     10  C   UNL     1      31.918  38.487  10.118  1.00  0.00     0.179 C 
ATOM     11  C   UNL     1      30.716  38.720   8.155  1.00  0.00     0.282 C 
ATOM     12  O   UNL     1      30.662  38.248   9.465  1.00  0.00    -0.341 OA
ATOM     13  C   UNL     1      31.793  39.685   7.853  1.00  0.00     0.202 C 
ATOM     14  C   UNL     1      32.249  40.574   8.959  1.00  0.00     0.179 C 
ATOM     15  C   UNL     1      31.873  40.003  10.303  1.00  0.00     0.177 C 
BRANCH  11  16
ATOM     16  O   UNL     1      29.426  39.159   7.791  1.00  0.00    -0.341 OA
BRANCH  16  17
ATOM     17  C   UNL     1      28.437  38.365   8.307  1.00  0.00     0.184 C 
ATOM     18  C   UNL     1      27.386  37.917   7.325  1.00  0.00     0.178 C 
ATOM     19  O   UNL     1      26.576  37.015   8.018  1.00  0.00    -0.341 OA
ATOM     20  C   UNL     1      25.698  37.666   8.872  1.00  0.00     0.281 C 
ATOM     21  C   UNL     1      27.701  39.067   9.439  1.00  0.00     0.180 C 
ATOM     22  C   UNL     1      26.220  38.990   9.346  1.00  0.00     0.202 C 
BRANCH  18  23
ATOM     23  C   UNL     1      27.986  37.154   6.161  1.00  0.00     0.191 C 
BRANCH  23  24
ATOM     24  O   UNL     1      27.005  36.652   5.309  1.00  0.00    -0.394 OA
ATOM     25  H   UNL     1      26.101  36.703   5.689  1.00  0.00     0.210 HD
ENDBRANCH  23  24
ENDBRANCH  18  23
BRANCH  20  26
ATOM     26  O   UNL     1      25.389  36.815   9.916  1.00  0.00    -0.350 OA
BRANCH  26  27
ATOM     27  C   UNL     1      24.617  35.745   9.498  1.00  0.00     0.169 C 
BRANCH  27  28
ATOM     28  C   UNL     1      23.172  36.057   9.276  1.00  0.00     0.119 C 
BRANCH  28  29
ATOM     29  N   UNL     1      22.461  35.934  10.538  1.00  0.00    -0.092 NA
ATOM     30  N   UNL     1      21.317  36.399  10.696  1.00  0.00     0.001 N 
ATOM     31  N   UNL     1      20.088  36.456  10.551  1.00  0.00    -0.003 NA
ENDBRANCH  28  29
ENDBRANCH  27  28
ENDBRANCH  26  27
ENDBRANCH  20  26
BRANCH  21  32
ATOM     32  O   UNL     1      28.185  38.661  10.691  1.00  0.00    -0.387 OA
ATOM     33  H   UNL     1      27.612  37.925  11.027  1.00  0.00     0.211 HD
ENDBRANCH  21  32
BRANCH  22  34
ATOM     34  O   UNL     1      25.673  40.018   8.543  1.00  0.00    -0.385 OA
ATOM     35  H   UNL     1      25.604  39.757   7.605  1.00  0.00     0.211 HD
ENDBRANCH  22  34
ENDBRANCH  16  17
ENDBRANCH  11  16
BRANCH  13  36
ATOM     36  O   UNL     1      32.851  39.033   7.211  1.00  0.00    -0.385 OA
ATOM     37  H   UNL     1      33.573  39.684   7.015  1.00  0.00     0.211 HD
ENDBRANCH  13  36
BRANCH  14  38
ATOM     38  O   UNL     1      31.836  41.896   8.806  1.00  0.00    -0.387 OA
ATOM     39  H   UNL     1      30.850  41.865   8.694  1.00  0.00     0.211 HD
ENDBRANCH  14  38
BRANCH  15  40
ATOM     40  O   UNL     1      30.547  40.384  10.630  1.00  0.00    -0.387 OA
ATOM     41  H   UNL     1      29.978  39.978   9.940  1.00  0.00     0.211 HD
ENDBRANCH  15  40
ENDBRANCH   9  10
ENDBRANCH   8   9
ENDBRANCH   3   8
BRANCH   3  42
ATOM     42  C   UNL     1      30.601  38.886  13.919  1.00  0.00     0.364 C 
ATOM     43  O   UNL     1      31.146  39.254  14.933  1.00  0.00    -0.246 OA
BRANCH  42  44
ATOM     44  O   UNL     1      29.841  39.813  13.197  1.00  0.00    -0.477 OA
ATOM     45  H   UNL     1      28.852  39.930  13.343  1.00  0.00     0.296 HD
ENDBRANCH  42  44
ENDBRANCH   3  42
BRANCH   6  46
ATOM     46  O   UNL     1      31.605  34.766  13.163  1.00  0.00    -0.391 OA
ATOM     47  H   UNL     1      31.392  35.369  12.432  1.00  0.00     0.211 HD
ENDBRANCH   6  46
BRANCH   7  48
ATOM     48  N   UNL     1      30.517  35.728  16.476  1.00  0.00    -0.348 N 
ATOM     49  C   UNL     1      29.854  35.101  17.568  1.00  0.00     0.217 C 
ATOM     50  H   UNL     1      31.127  36.554  16.681  1.00  0.00     0.163 HD
ATOM     51  C   UNL     1      29.996  35.572  18.972  1.00  0.00     0.114 C 
ATOM     52  O   UNL     1      29.135  34.126  17.321  1.00  0.00    -0.275 OA
ENDBRANCH   7  48
ENDBRANCH   1   2
BRANCH   1  53
ATOM     53  O   UNL     1      28.027  33.788  14.397  1.00  0.00    -0.388 OA
ATOM     54  H   UNL     1      28.695  33.449  15.033  1.00  0.00     0.211 HD
ENDBRANCH   1  53
BRANCH   1  55
ATOM     55  C   UNL     1      27.400  35.289  12.720  1.00  0.00     0.165 C 
BRANCH  55  56
ATOM     56  O   UNL     1      27.762  36.168  11.706  1.00  0.00    -0.388 OA
ATOM     57  H   UNL     1      28.157  35.629  10.970  1.00  0.00     0.211 HD
ENDBRANCH  55  56
BRANCH  55  58
ATOM     58  C   UNL     1      26.265  35.909  13.469  1.00  0.00     0.154 C 
BRANCH  58  59
ATOM     59  N   UNL     1      25.677  37.061  12.856  1.00  0.00    -0.319 N 
ATOM     60  C   UNL     1      25.823  38.383  13.338  1.00  0.00     0.407 C 
ATOM     61  H   UNL     1      25.103  36.920  12.000  1.00  0.00     0.167 HD
ATOM     62  O   UNL     1      26.502  38.626  14.365  1.00  0.00    -0.225 OA
BRANCH  60  63
ATOM     63  O   UNL     1      25.210  39.412  12.664  1.00  0.00    -0.443 OA
BRANCH  63  64
ATOM     64  C   UNL     1      25.362  40.749  12.989  1.00  0.00     0.294 C 
BRANCH  64  65
ATOM     65  C   UNL     1      26.347  41.388  12.114  1.00  0.00     0.120 A 
ATOM     66  C   UNL     1      26.087  42.295  11.116  1.00  0.00     0.139 A 
ATOM     67  N   UNL     1      27.691  41.222  12.099  1.00  0.00    -0.132 NA
ATOM     68  N   UNL     1      27.253  42.657  10.524  1.00  0.00    -0.240 N 
ATOM     69  N   UNL     1      28.201  41.987  11.146  1.00  0.00    -0.066 NA
BRANCH  68  70
ATOM     70  C   UNL     1      27.421  43.610   9.414  1.00  0.00     0.198 C 
BRANCH  70  71
ATOM     71  C   UNL     1      28.817  43.456   8.939  1.00  0.00     0.042 CG0
ATOM     72  G   UNL     1      29.126  43.961   7.573  1.00  0.00     0.000 G0
ENDBRANCH  70  71
BRANCH  70  73
ATOM     73  C   UNL     1      26.364  43.288   8.450  1.00  0.00     0.249 C 
ATOM     74  N   UNL     1      26.405  42.488   7.278  1.00  0.00    -0.324 N 
ATOM     75  O   UNL     1      25.243  43.804   8.706  1.00  0.00    -0.272 OA
ATOM     76  H   UNL     1      25.517  42.069   6.925  1.00  0.00     0.170 HD
BRANCH  74  77
ATOM     77  C   UNL     1      27.611  42.213   6.534  1.00  0.00     0.044 A 
ATOM     78  C   UNL     1      28.854  42.828   6.622  1.00  0.00    -0.024 A 
ATOM     79  C   UNL     1      27.428  41.189   5.631  1.00  0.00     0.026 A 
ATOM     80  C   UNL     1      29.910  42.439   5.831  1.00  0.00     0.006 A 
ATOM     81  C   UNL     1      28.471  40.778   4.824  1.00  0.00     0.002 A 
ATOM     82  C   UNL     1      29.711  41.417   4.936  1.00  0.00     0.000 A 
BRANCH  78  83
ATOM     83  C   UNL     1      29.153  43.943   7.566  1.00  0.00     0.040 CG0
ATOM     84  G   UNL     1      28.819  43.455   8.932  1.00  0.00     0.000 G0
ENDBRANCH  78  83
ENDBRANCH  74  77
ENDBRANCH  70  73
ENDBRANCH  68  70
ENDBRANCH  64  65
ENDBRANCH  63  64
ENDBRANCH  60  63
ENDBRANCH  58  59
ENDBRANCH  55  58
ENDBRANCH   1  55
TORSDOF 30
BEGIN_RES LYS A 131
REMARK  4 active torsions:
REMARK  status: ('A' for Active; 'I' for Inactive)
REMARK    1  A    between atoms: CA   and  CB  
REMARK    2  A    between atoms: CB   and  CG  
REMARK    3  A    between atoms: CG   and  CD  
REMARK    4  A    between atoms: CD   and  CE  
ROOT
ATOM      1  CA  LYS A 131      29.867  25.555  16.977  1.00 20.52     0.186 C 
ENDROOT
BRANCH   1   2
ATOM      2  CB  LYS A 131      28.345  25.722  17.026  1.00 20.94     0.034 C 
BRANCH   2   3
ATOM      3  CG  LYS A 131      27.602  24.398  16.935  1.00 22.96     0.005 C 
BRANCH   3   4
ATOM      4  CD  LYS A 131      26.617  24.223  18.057  1.00 24.33     0.041 C 
BRANCH   4   5
ATOM      5  CE  LYS A 131      25.237  23.921  17.480  1.00 26.91     0.338 C 
ATOM      6  NZ  LYS A 131      25.030  22.458  17.369  1.00 27.40     0.618 N 
ENDBRANCH   4   5
ENDBRANCH   3   4
ENDBRANCH   2   3
ENDBRANCH   1   2
END_RES LYS A 131
BEGIN_RES LYS A 135
REMARK  4 active torsions:
REMARK  status: ('A' for Active; 'I' for Inactive)
REMARK    5  A    between atoms: CA   and  CB  
REMARK    6  A    between atoms: CB   and  CG  
REMARK    7  A    between atoms: CG   and  CD  
REMARK    8  A    between atoms: CD   and  CE  
ROOT
ATOM      7  CA  LYS A 135      33.193  34.663   9.290  1.00 25.02     0.186 C 
ENDROOT
BRANCH   7   8
ATOM      8  CB  LYS A 135      32.060  35.360  10.034  1.00 26.63     0.034 C 
BRANCH   8   9
ATOM      9  CG  LYS A 135      30.718  34.704   9.839  1.00 29.45     0.005 C 
BRANCH   9  10
ATOM     10  CD  LYS A 135      30.250  34.855   8.400  1.00 32.00     0.041 C 
BRANCH  10  11
ATOM     11  CE  LYS A 135      28.782  34.497   8.276  1.00 34.25     0.338 C 
ATOM     12  NZ  LYS A 135      28.308  33.753   9.476  1.00 35.99     0.618 N 
ENDBRANCH  10  11
ENDBRANCH   9  10
ENDBRANCH   8   9
ENDBRANCH   7   8
END_RES LYS A 135
