REMARK VINA RESULT:    -3.783      5.702     11.886
REMARK INTER + INTRA:         -23.490
REMARK INTER:                  -9.185
REMARK INTRA:                 -14.305
REMARK UNBOUND:               -13.184
REMARK SMILES CC(=O)N[C@@H]1[C@@H](O)C[C@](OC[C@H]2O[C@@H](O[C@H]3[C@H](O)[C@@H](O)[C@H](OCCN=[N+]=[N-])O[C@@H]3CO)[C@H](O)[C@@H](O)[C@H]2O)(C(=O)O)O[C@H]1C(O)[C@H](O)CNC(=O)OCc1cn(CC(O)Cn2ccnc2[N+](=O)[O-])nn1
REMARK SMILES IDX 43 1 42 2 9 3 8 4 41 5 6 6 5 7 10 8 11 9 12 10 14 11 13 12
REMARK SMILES IDX 32 13 34 14 36 15 15 16 16 17 29 18 28 19 21 20 17 21 19 22
REMARK SMILES IDX 30 23 31 24 22 26 23 27 24 28 25 29 26 30 27 31 18 32 20 34
REMARK SMILES IDX 33 36 35 38 37 40 38 42 39 43 40 44 7 46 4 48 2 49 1 51 3 52
REMARK SMILES IDX 44 53 45 55 46 56 47 58 48 59 49 60 50 62 51 63 52 64 53 65
REMARK SMILES IDX 54 66 69 67 55 68 68 69 56 70 57 71 58 72 59 74 60 75 61 76
REMARK SMILES IDX 64 77 62 78 63 79 65 80 66 81 67 82
REMARK H PARENT 31 25 18 33 20 35 33 37 35 39 37 41 40 45 7 47 4 50 44 54
REMARK H PARENT 46 57 48 61 58 73
REMARK Flexibility Score: inf
ROOT
ATOM      1  C   UNL     1      29.082  37.628   7.663  1.00  0.00     0.176 C 
ENDROOT
BRANCH   1   2
ATOM      2  C   UNL     1      28.740  37.204   9.124  1.00  0.00     0.178 C 
ATOM      3  C   UNL     1      27.086  35.915  10.101  1.00  0.00     0.272 C 
ATOM      4  C   UNL     1      26.950  36.912  11.213  1.00  0.00     0.113 C 
ATOM      5  O   UNL     1      27.525  36.541   8.939  1.00  0.00    -0.332 OA
ATOM      6  C   UNL     1      27.194  38.333  10.720  1.00  0.00     0.145 C 
ATOM      7  C   UNL     1      28.502  38.404   9.943  1.00  0.00     0.142 C 
BRANCH   3   8
ATOM      8  O   UNL     1      25.875  35.347   9.726  1.00  0.00    -0.338 OA
BRANCH   8   9
ATOM      9  C   UNL     1      25.422  35.528   8.474  1.00  0.00     0.199 C 
BRANCH   9  10
ATOM     10  C   UNL     1      24.081  36.232   8.409  1.00  0.00     0.179 C 
ATOM     11  C   UNL     1      22.330  36.886   9.631  1.00  0.00     0.282 C 
ATOM     12  O   UNL     1      23.745  36.822   9.658  1.00  0.00    -0.341 OA
ATOM     13  C   UNL     1      21.859  37.736   8.477  1.00  0.00     0.202 C 
ATOM     14  C   UNL     1      23.084  38.476   7.942  1.00  0.00     0.179 C 
ATOM     15  C   UNL     1      24.056  37.400   7.448  1.00  0.00     0.177 C 
BRANCH  11  16
ATOM     16  O   UNL     1      21.816  37.377  10.814  1.00  0.00    -0.341 OA
BRANCH  16  17
ATOM     17  C   UNL     1      22.705  37.064  11.816  1.00  0.00     0.184 C 
ATOM     18  C   UNL     1      22.150  36.101  12.854  1.00  0.00     0.178 C 
ATOM     19  O   UNL     1      23.281  35.611  13.514  1.00  0.00    -0.341 OA
ATOM     20  C   UNL     1      23.942  36.541  14.268  1.00  0.00     0.281 C 
ATOM     21  C   UNL     1      23.127  38.289  12.614  1.00  0.00     0.180 C 
ATOM     22  C   UNL     1      24.027  37.924  13.734  1.00  0.00     0.202 C 
BRANCH  18  23
ATOM     23  C   UNL     1      21.335  34.995  12.285  1.00  0.00     0.191 C 
BRANCH  23  24
ATOM     24  O   UNL     1      22.196  34.074  11.700  1.00  0.00    -0.394 OA
ATOM     25  H   UNL     1      21.726  33.278  11.346  1.00  0.00     0.210 HD
ENDBRANCH  23  24
ENDBRANCH  18  23
BRANCH  20  26
ATOM     26  O   UNL     1      25.276  36.067  14.389  1.00  0.00    -0.350 OA
BRANCH  26  27
ATOM     27  C   UNL     1      25.464  34.852  13.782  1.00  0.00     0.169 C 
BRANCH  27  28
ATOM     28  C   UNL     1      26.180  33.969  14.814  1.00  0.00     0.119 C 
BRANCH  28  29
ATOM     29  N   UNL     1      27.592  33.915  14.593  1.00  0.00    -0.092 NA
ATOM     30  N   UNL     1      28.365  34.773  15.079  1.00  0.00     0.001 N 
ATOM     31  N   UNL     1      29.277  35.232  15.747  1.00  0.00    -0.003 NA
ENDBRANCH  28  29
ENDBRANCH  27  28
ENDBRANCH  26  27
ENDBRANCH  20  26
BRANCH  21  32
ATOM     32  O   UNL     1      23.804  39.183  11.759  1.00  0.00    -0.387 OA
ATOM     33  H   UNL     1      23.277  39.225  10.941  1.00  0.00     0.211 HD
ENDBRANCH  21  32
BRANCH  22  34
ATOM     34  O   UNL     1      23.694  38.792  14.804  1.00  0.00    -0.385 OA
ATOM     35  H   UNL     1      23.900  39.735  14.571  1.00  0.00     0.211 HD
ENDBRANCH  22  34
ENDBRANCH  16  17
ENDBRANCH  11  16
BRANCH  13  36
ATOM     36  O   UNL     1      21.320  36.900   7.501  1.00  0.00    -0.385 OA
ATOM     37  H   UNL     1      22.031  36.372   7.040  1.00  0.00     0.211 HD
ENDBRANCH  13  36
BRANCH  14  38
ATOM     38  O   UNL     1      23.702  39.083   9.020  1.00  0.00    -0.387 OA
ATOM     39  H   UNL     1      24.012  39.971   8.775  1.00  0.00     0.211 HD
ENDBRANCH  14  38
BRANCH  15  40
ATOM     40  O   UNL     1      25.277  38.027   7.337  1.00  0.00    -0.387 OA
ATOM     41  H   UNL     1      25.903  37.534   6.749  1.00  0.00     0.211 HD
ENDBRANCH  15  40
ENDBRANCH   9  10
ENDBRANCH   8   9
ENDBRANCH   3   8
BRANCH   3  42
ATOM     42  C   UNL     1      28.035  34.851  10.455  1.00  0.00     0.364 C 
ATOM     43  O   UNL     1      28.277  33.869   9.669  1.00  0.00    -0.246 OA
BRANCH  42  44
ATOM     44  O   UNL     1      28.735  34.808  11.644  1.00  0.00    -0.477 OA
ATOM     45  H   UNL     1      28.625  35.502  12.389  1.00  0.00     0.296 HD
ENDBRANCH  42  44
ENDBRANCH   3  42
BRANCH   6  46
ATOM     46  O   UNL     1      26.130  38.814   9.984  1.00  0.00    -0.391 OA
ATOM     47  H   UNL     1      25.723  38.108   9.421  1.00  0.00     0.211 HD
ENDBRANCH   6  46
BRANCH   7  48
ATOM     48  N   UNL     1      29.560  38.878  10.777  1.00  0.00    -0.348 N 
ATOM     49  C   UNL     1      30.378  39.988  10.599  1.00  0.00     0.217 C 
ATOM     50  H   UNL     1      29.770  38.307  11.702  1.00  0.00     0.163 HD
ATOM     51  C   UNL     1      31.439  40.357  11.622  1.00  0.00     0.114 C 
ATOM     52  O   UNL     1      30.311  40.745   9.628  1.00  0.00    -0.275 OA
ENDBRANCH   7  48
ENDBRANCH   1   2
BRANCH   1  53
ATOM     53  O   UNL     1      28.802  39.014   7.569  1.00  0.00    -0.388 OA
ATOM     54  H   UNL     1      28.077  39.205   6.955  1.00  0.00     0.211 HD
ENDBRANCH   1  53
BRANCH   1  55
ATOM     55  C   UNL     1      28.384  36.891   6.618  1.00  0.00     0.165 C 
BRANCH  55  56
ATOM     56  O   UNL     1      28.600  35.540   6.536  1.00  0.00    -0.388 OA
ATOM     57  H   UNL     1      29.427  35.291   6.065  1.00  0.00     0.211 HD
ENDBRANCH  55  56
BRANCH  55  58
ATOM     58  C   UNL     1      28.575  37.511   5.213  1.00  0.00     0.154 C 
BRANCH  58  59
ATOM     59  N   UNL     1      27.379  38.310   4.971  1.00  0.00    -0.319 N 
ATOM     60  C   UNL     1      27.457  39.709   4.672  1.00  0.00     0.407 C 
ATOM     61  H   UNL     1      26.432  37.870   5.011  1.00  0.00     0.167 HD
ATOM     62  O   UNL     1      28.574  40.266   4.612  1.00  0.00    -0.225 OA
BRANCH  60  63
ATOM     63  O   UNL     1      26.321  40.460   4.450  1.00  0.00    -0.443 OA
BRANCH  63  64
ATOM     64  C   UNL     1      25.446  40.968   5.409  1.00  0.00     0.294 C 
BRANCH  64  65
ATOM     65  C   UNL     1      26.195  41.331   6.638  1.00  0.00     0.120 A 
ATOM     66  C   UNL     1      26.944  42.475   6.843  1.00  0.00     0.138 A 
ATOM     67  N   UNL     1      26.300  40.648   7.788  1.00  0.00    -0.132 NA
ATOM     68  N   UNL     1      27.463  42.438   8.095  1.00  0.00    -0.249 N 
ATOM     69  N   UNL     1      27.057  41.321   8.642  1.00  0.00    -0.067 NA
BRANCH  68  70
ATOM     70  C   UNL     1      28.275  43.515   8.653  1.00  0.00     0.181 C 
BRANCH  70  71
ATOM     71  C   UNL     1      27.565  43.925   9.941  1.00  0.00     0.170 C 
BRANCH  71  72
ATOM     72  O   UNL     1      26.214  43.740   9.774  1.00  0.00    -0.388 OA
ATOM     73  H   UNL     1      25.882  43.056  10.404  1.00  0.00     0.211 HD
ENDBRANCH  71  72
BRANCH  71  74
ATOM     74  C   UNL     1      28.130  43.178  11.109  1.00  0.00     0.239 C 
BRANCH  74  75
ATOM     75  N   UNL     1      27.404  43.536  12.317  1.00  0.00    -0.227 N 
ATOM     76  C   UNL     1      27.630  44.719  12.975  1.00  0.00     0.204 A 
ATOM     77  C   UNL     1      26.447  42.855  12.948  1.00  0.00     0.434 A 
ATOM     78  C   UNL     1      26.770  44.753  14.050  1.00  0.00     0.245 A 
ATOM     79  N   UNL     1      26.059  43.609  14.015  1.00  0.00    -0.074 NA
BRANCH  77  80
ATOM     80  N   UNL     1      25.934  41.583  12.594  1.00  0.00    -0.047 N 
ATOM     81  O   UNL     1      25.305  41.415  11.502  1.00  0.00    -0.390 OA
ATOM     82  O   UNL     1      26.064  40.469  13.377  1.00  0.00    -0.390 OA
ENDBRANCH  77  80
ENDBRANCH  74  75
ENDBRANCH  71  74
ENDBRANCH  70  71
ENDBRANCH  68  70
ENDBRANCH  64  65
ENDBRANCH  63  64
ENDBRANCH  60  63
ENDBRANCH  58  59
ENDBRANCH  55  58
ENDBRANCH   1  55
TORSDOF 35
BEGIN_RES LYS A 131
REMARK  4 active torsions:
REMARK  status: ('A' for Active; 'I' for Inactive)
REMARK    1  A    between atoms: CA   and  CB  
REMARK    2  A    between atoms: CB   and  CG  
REMARK    3  A    between atoms: CG   and  CD  
REMARK    4  A    between atoms: CD   and  CE  
ROOT
ATOM      1  CA  LYS A 131      29.867  25.555  16.977  1.00 20.52     0.186 C 
ENDROOT
BRANCH   1   2
ATOM      2  CB  LYS A 131      28.345  25.722  17.026  1.00 20.94     0.034 C 
BRANCH   2   3
ATOM      3  CG  LYS A 131      27.601  24.405  16.866  1.00 22.96     0.005 C 
BRANCH   3   4
ATOM      4  CD  LYS A 131      26.237  24.445  17.499  1.00 24.33     0.041 C 
BRANCH   4   5
ATOM      5  CE  LYS A 131      26.256  25.398  18.690  1.00 26.91     0.338 C 
ATOM      6  NZ  LYS A 131      25.516  24.814  19.833  1.00 27.40     0.618 N 
ENDBRANCH   4   5
ENDBRANCH   3   4
ENDBRANCH   2   3
ENDBRANCH   1   2
END_RES LYS A 131
BEGIN_RES LYS A 135
REMARK  4 active torsions:
REMARK  status: ('A' for Active; 'I' for Inactive)
REMARK    5  A    between atoms: CA   and  CB  
REMARK    6  A    between atoms: CB   and  CG  
REMARK    7  A    between atoms: CG   and  CD  
REMARK    8  A    between atoms: CD   and  CE  
ROOT
ATOM      7  CA  LYS A 135      33.193  34.663   9.290  1.00 25.02     0.186 C 
ENDROOT
BRANCH   7   8
ATOM      8  CB  LYS A 135      32.060  35.360  10.034  1.00 26.63     0.034 C 
BRANCH   8   9
ATOM      9  CG  LYS A 135      32.224  35.345  11.532  1.00 29.45     0.005 C 
BRANCH   9  10
ATOM     10  CD  LYS A 135      32.270  36.762  12.081  1.00 32.00     0.041 C 
BRANCH  10  11
ATOM     11  CE  LYS A 135      31.288  36.921  13.227  1.00 34.25     0.338 C 
ATOM     12  NZ  LYS A 135      31.998  37.207  14.505  1.00 35.99     0.618 N 
ENDBRANCH  10  11
ENDBRANCH   9  10
ENDBRANCH   8   9
ENDBRANCH   7   8
END_RES LYS A 135
