REMARK VINA RESULT:    -4.124      4.743      9.604
REMARK INTER + INTRA:         -22.227
REMARK INTER:                 -10.639
REMARK INTRA:                 -11.587
REMARK UNBOUND:               -11.833
REMARK SMILES CC(=O)N[C@@H]1[C@@H](O)C[C@](OC[C@H]2O[C@@H](O[C@H]3[C@H](O)[C@@H](O)[C@H](OCCN=[N+]=[N-])O[C@@H]3CO)[C@H](O)[C@@H](O)[C@H]2O)(C(=O)O)O[C@H]1C(O)[C@H](O)CNC(=O)OCc1cn(-c2ccccc2C(N)=O)nn1
REMARK SMILES IDX 9 1 8 2 6 3 5 4 42 5 41 6 10 7 11 8 12 9 14 10 13 11 32 12
REMARK SMILES IDX 34 13 36 14 15 15 16 16 29 17 28 18 21 19 17 20 19 21 30 22
REMARK SMILES IDX 31 23 22 25 23 26 24 27 25 28 26 29 27 30 18 31 20 33 33 35
REMARK SMILES IDX 35 37 37 39 38 41 39 42 40 43 7 45 43 47 44 48 45 50 46 51
REMARK SMILES IDX 47 53 48 54 49 55 50 57 51 58 52 59 53 60 54 61 66 62 55 63
REMARK SMILES IDX 65 64 56 65 61 66 57 67 60 68 58 69 59 70 62 71 64 72 63 73
REMARK SMILES IDX 4 76 2 77 1 79 3 80
REMARK H PARENT 31 24 18 32 20 34 33 36 35 38 37 40 40 44 7 46 44 49 46 52
REMARK H PARENT 48 56 63 74 63 75 4 78
REMARK Flexibility Score: inf
ROOT
ATOM      1  C   UNL     1      28.149  38.327   7.232  1.00  0.00     0.272 C 
ATOM      2  C   UNL     1      28.698  39.211   6.076  1.00  0.00     0.113 C 
ATOM      3  C   UNL     1      28.265  40.611   6.409  1.00  0.00     0.145 C 
ATOM      4  C   UNL     1      26.807  40.741   6.212  1.00  0.00     0.142 C 
ATOM      5  C   UNL     1      26.195  39.376   6.575  1.00  0.00     0.178 C 
ATOM      6  O   UNL     1      26.900  38.791   7.610  1.00  0.00    -0.332 OA
ENDROOT
BRANCH   1   7
ATOM      7  O   UNL     1      29.062  38.519   8.251  1.00  0.00    -0.338 OA
BRANCH   7   8
ATOM      8  C   UNL     1      28.678  38.035   9.466  1.00  0.00     0.199 C 
BRANCH   8   9
ATOM      9  C   UNL     1      29.491  38.611  10.612  1.00  0.00     0.179 C 
ATOM     10  C   UNL     1      31.586  39.571  10.956  1.00  0.00     0.282 C 
ATOM     11  O   UNL     1      30.663  39.095  10.037  1.00  0.00    -0.341 OA
ATOM     12  C   UNL     1      31.119  39.633  12.363  1.00  0.00     0.202 C 
ATOM     13  C   UNL     1      29.686  40.033  12.557  1.00  0.00     0.179 C 
ATOM     14  C   UNL     1      28.826  39.748  11.318  1.00  0.00     0.177 C 
BRANCH  10  15
ATOM     15  O   UNL     1      31.976  40.825  10.525  1.00  0.00    -0.341 OA
BRANCH  15  16
ATOM     16  C   UNL     1      31.960  40.963   9.147  1.00  0.00     0.184 C 
ATOM     17  C   UNL     1      33.298  40.500   8.613  1.00  0.00     0.178 C 
ATOM     18  O   UNL     1      34.163  41.518   8.402  1.00  0.00    -0.341 OA
ATOM     19  C   UNL     1      33.788  42.381   7.437  1.00  0.00     0.281 C 
ATOM     20  C   UNL     1      31.791  42.452   8.866  1.00  0.00     0.180 C 
ATOM     21  C   UNL     1      32.389  42.837   7.561  1.00  0.00     0.202 C 
BRANCH  17  22
ATOM     22  C   UNL     1      33.099  39.697   7.357  1.00  0.00     0.191 C 
BRANCH  22  23
ATOM     23  O   UNL     1      31.963  38.885   7.439  1.00  0.00    -0.394 OA
ATOM     24  H   UNL     1      32.307  37.945   7.529  1.00  0.00     0.210 HD
ENDBRANCH  22  23
ENDBRANCH  17  22
BRANCH  19  25
ATOM     25  O   UNL     1      34.117  41.964   6.139  1.00  0.00    -0.350 OA
BRANCH  25  26
ATOM     26  C   UNL     1      35.413  42.231   5.779  1.00  0.00     0.169 C 
BRANCH  26  27
ATOM     27  C   UNL     1      35.992  41.077   5.031  1.00  0.00     0.119 C 
BRANCH  27  28
ATOM     28  N   UNL     1      36.437  40.072   5.963  1.00  0.00    -0.092 NA
ATOM     29  N   UNL     1      36.155  38.874   5.837  1.00  0.00     0.001 N 
ATOM     30  N   UNL     1      35.926  37.741   5.405  1.00  0.00    -0.003 NA
ENDBRANCH  27  28
ENDBRANCH  26  27
ENDBRANCH  25  26
ENDBRANCH  19  25
BRANCH  20  31
ATOM     31  O   UNL     1      30.440  42.785   8.866  1.00  0.00    -0.387 OA
ATOM     32  H   UNL     1      30.084  42.802   7.922  1.00  0.00     0.211 HD
ENDBRANCH  20  31
BRANCH  21  33
ATOM     33  O   UNL     1      32.363  44.252   7.484  1.00  0.00    -0.385 OA
ATOM     34  H   UNL     1      31.855  44.505   6.660  1.00  0.00     0.211 HD
ENDBRANCH  21  33
ENDBRANCH  15  16
ENDBRANCH  10  15
BRANCH  12  35
ATOM     35  O   UNL     1      31.426  38.459  13.083  1.00  0.00    -0.385 OA
ATOM     36  H   UNL     1      32.392  38.316  12.985  1.00  0.00     0.211 HD
ENDBRANCH  12  35
BRANCH  13  37
ATOM     37  O   UNL     1      29.585  41.402  12.809  1.00  0.00    -0.387 OA
ATOM     38  H   UNL     1      30.024  41.651  13.679  1.00  0.00     0.211 HD
ENDBRANCH  13  37
BRANCH  14  39
ATOM     39  O   UNL     1      28.872  40.872  10.475  1.00  0.00    -0.387 OA
ATOM     40  H   UNL     1      28.019  41.324  10.373  1.00  0.00     0.211 HD
ENDBRANCH  14  39
ENDBRANCH   8   9
ENDBRANCH   7   8
ENDBRANCH   1   7
BRANCH   1  41
ATOM     41  C   UNL     1      28.051  36.939   6.773  1.00  0.00     0.364 C 
ATOM     42  O   UNL     1      26.947  36.301   6.865  1.00  0.00    -0.246 OA
BRANCH  41  43
ATOM     43  O   UNL     1      29.167  36.297   6.229  1.00  0.00    -0.477 OA
ATOM     44  H   UNL     1      29.804  36.881   5.693  1.00  0.00     0.296 HD
ENDBRANCH  41  43
ENDBRANCH   1  41
BRANCH   3  45
ATOM     45  O   UNL     1      28.498  40.769   7.800  1.00  0.00    -0.391 OA
ATOM     46  H   UNL     1      27.727  41.250   8.198  1.00  0.00     0.211 HD
ENDBRANCH   3  45
BRANCH   5  47
ATOM     47  C   UNL     1      24.718  39.512   6.810  1.00  0.00     0.176 C 
BRANCH  47  48
ATOM     48  O   UNL     1      24.230  38.212   7.046  1.00  0.00    -0.388 OA
ATOM     49  H   UNL     1      23.382  38.260   7.567  1.00  0.00     0.211 HD
ENDBRANCH  47  48
BRANCH  47  50
ATOM     50  C   UNL     1      24.432  40.275   8.107  1.00  0.00     0.165 C 
BRANCH  50  51
ATOM     51  O   UNL     1      24.218  39.342   9.135  1.00  0.00    -0.388 OA
ATOM     52  H   UNL     1      23.993  39.877   9.940  1.00  0.00     0.211 HD
ENDBRANCH  50  51
BRANCH  50  53
ATOM     53  C   UNL     1      23.235  41.156   7.995  1.00  0.00     0.154 C 
BRANCH  53  54
ATOM     54  N   UNL     1      22.028  40.451   8.333  1.00  0.00    -0.319 N 
ATOM     55  C   UNL     1      21.327  40.616   9.553  1.00  0.00     0.407 C 
ATOM     56  H   UNL     1      21.649  39.767   7.616  1.00  0.00     0.167 HD
ATOM     57  O   UNL     1      21.638  41.382  10.467  1.00  0.00    -0.225 OA
BRANCH  55  58
ATOM     58  O   UNL     1      20.159  39.850   9.780  1.00  0.00    -0.443 OA
BRANCH  58  59
ATOM     59  C   UNL     1      19.938  38.661   9.018  1.00  0.00     0.294 C 
BRANCH  59  60
ATOM     60  C   UNL     1      21.013  37.680   9.252  1.00  0.00     0.121 A 
ATOM     61  C   UNL     1      21.325  37.010  10.411  1.00  0.00     0.144 A 
ATOM     62  N   UNL     1      21.912  37.255   8.347  1.00  0.00    -0.131 NA
ATOM     63  N   UNL     1      22.388  36.204  10.195  1.00  0.00    -0.220 N 
ATOM     64  N   UNL     1      22.721  36.382   8.913  1.00  0.00    -0.062 NA
BRANCH  63  65
ATOM     65  C   UNL     1      23.051  35.339  11.099  1.00  0.00     0.079 A 
ATOM     66  C   UNL     1      24.385  35.542  11.345  1.00  0.00     0.065 A 
ATOM     67  C   UNL     1      22.383  34.307  11.727  1.00  0.00     0.029 A 
ATOM     68  C   UNL     1      25.088  34.722  12.223  1.00  0.00     0.016 A 
ATOM     69  C   UNL     1      23.072  33.473  12.611  1.00  0.00     0.002 A 
ATOM     70  C   UNL     1      24.411  33.693  12.844  1.00  0.00     0.001 A 
BRANCH  66  71
ATOM     71  C   UNL     1      25.080  36.627  10.682  1.00  0.00     0.250 C 
ATOM     72  O   UNL     1      25.251  37.705  11.304  1.00  0.00    -0.269 OA
ATOM     73  N   UNL     1      25.583  36.552   9.367  1.00  0.00    -0.366 N 
ATOM     74  H   UNL     1      26.589  36.692   9.193  1.00  0.00     0.159 HD
ATOM     75  H   UNL     1      24.942  36.358   8.584  1.00  0.00     0.159 HD
ENDBRANCH  66  71
ENDBRANCH  63  65
ENDBRANCH  59  60
ENDBRANCH  58  59
ENDBRANCH  55  58
ENDBRANCH  53  54
ENDBRANCH  50  53
ENDBRANCH  47  50
ENDBRANCH   5  47
BRANCH   4  76
ATOM     76  N   UNL     1      26.350  41.082   4.923  1.00  0.00    -0.348 N 
ATOM     77  C   UNL     1      25.588  42.246   4.651  1.00  0.00     0.217 C 
ATOM     78  H   UNL     1      26.582  40.450   4.120  1.00  0.00     0.163 HD
ATOM     79  C   UNL     1      25.092  42.637   3.314  1.00  0.00     0.114 C 
ATOM     80  O   UNL     1      25.345  42.967   5.672  1.00  0.00    -0.275 OA
ENDBRANCH   4  76
TORSDOF 31
BEGIN_RES LYS A 131
REMARK  4 active torsions:
REMARK  status: ('A' for Active; 'I' for Inactive)
REMARK    1  A    between atoms: CA   and  CB  
REMARK    2  A    between atoms: CB   and  CG  
REMARK    3  A    between atoms: CG   and  CD  
REMARK    4  A    between atoms: CD   and  CE  
ROOT
ATOM      1  CA  LYS A 131      29.867  25.555  16.977  1.00 20.52     0.186 C 
ENDROOT
BRANCH   1   2
ATOM      2  CB  LYS A 131      28.345  25.722  17.026  1.00 20.94     0.034 C 
BRANCH   2   3
ATOM      3  CG  LYS A 131      27.602  24.400  16.910  1.00 22.96     0.005 C 
BRANCH   3   4
ATOM      4  CD  LYS A 131      26.533  24.258  17.958  1.00 24.33     0.041 C 
BRANCH   4   5
ATOM      5  CE  LYS A 131      25.160  24.321  17.296  1.00 26.91     0.338 C 
ATOM      6  NZ  LYS A 131      24.530  22.980  17.278  1.00 27.40     0.618 N 
ENDBRANCH   4   5
ENDBRANCH   3   4
ENDBRANCH   2   3
ENDBRANCH   1   2
END_RES LYS A 131
BEGIN_RES LYS A 135
REMARK  4 active torsions:
REMARK  status: ('A' for Active; 'I' for Inactive)
REMARK    5  A    between atoms: CA   and  CB  
REMARK    6  A    between atoms: CB   and  CG  
REMARK    7  A    between atoms: CG   and  CD  
REMARK    8  A    between atoms: CD   and  CE  
ROOT
ATOM      7  CA  LYS A 135      33.193  34.663   9.290  1.00 25.02     0.186 C 
ENDROOT
BRANCH   7   8
ATOM      8  CB  LYS A 135      32.060  35.360  10.034  1.00 26.63     0.034 C 
BRANCH   8   9
ATOM      9  CG  LYS A 135      30.786  35.458   9.236  1.00 29.45     0.005 C 
BRANCH   9  10
ATOM     10  CD  LYS A 135      30.220  34.075   8.956  1.00 32.00     0.041 C 
BRANCH  10  11
ATOM     11  CE  LYS A 135      28.716  34.065   9.150  1.00 34.25     0.338 C 
ATOM     12  NZ  LYS A 135      28.352  34.468  10.537  1.00 35.99     0.618 N 
ENDBRANCH  10  11
ENDBRANCH   9  10
ENDBRANCH   8   9
ENDBRANCH   7   8
END_RES LYS A 135
