REMARK VINA RESULT:    -3.682      3.831      8.338
REMARK INTER + INTRA:         -23.589
REMARK INTER:                 -11.673
REMARK INTRA:                 -11.917
REMARK UNBOUND:               -13.881
REMARK SMILES CCOC(=O)c1cccc(-n2cc(COC(=O)NC[C@@H](O)C(O)[C@@H]3O[C@@](OC[C@H]4O[C@@H](O[C@H]5[C@H](O)[C@@H](O)[C@H](OCCN=[N+]=[N-])O[C@@H]5CO)[C@H](O)[C@@H](O)[C@H]4O)(C(=O)O)C[C@H](O)[C@H]3NC(C)=O)nn2)c1
REMARK SMILES IDX 22 1 24 2 26 3 58 4 25 5 59 6 61 7 27 8 28 9 29 10 31 11
REMARK SMILES IDX 30 12 49 13 51 14 53 15 32 16 33 17 46 18 45 19 38 20 34 21
REMARK SMILES IDX 36 22 47 23 48 24 39 26 40 27 41 28 42 29 43 30 44 31 35 32
REMARK SMILES IDX 37 34 50 36 52 38 54 40 55 42 56 43 57 44 60 46 62 48 63 49
REMARK SMILES IDX 64 51 65 52 23 53 20 55 21 56 19 58 18 59 16 60 17 62 15 63
REMARK SMILES IDX 14 64 13 65 12 66 66 67 11 68 67 69 10 70 68 71 9 72 6 73
REMARK SMILES IDX 8 74 7 75 4 76 5 77 3 78 2 79 1 80
REMARK H PARENT 48 25 35 33 37 35 50 37 52 39 54 41 57 45 60 47 62 50 23 54
REMARK H PARENT 21 57 18 61
REMARK Flexibility Score: inf
ROOT
ATOM      1  C   UNL     1      31.428  37.231  17.223  1.00  0.00     0.176 C 
ENDROOT
BRANCH   1   2
ATOM      2  C   UNL     1      31.634  35.822  16.857  1.00  0.00     0.178 C 
ATOM      3  C   UNL     1      31.490  34.566  14.859  1.00  0.00     0.272 C 
ATOM      4  C   UNL     1      31.927  33.524  15.837  1.00  0.00     0.113 C 
ATOM      5  O   UNL     1      30.887  35.566  15.704  1.00  0.00    -0.332 OA
ATOM      6  C   UNL     1      31.056  33.459  17.081  1.00  0.00     0.145 C 
ATOM      7  C   UNL     1      31.286  34.790  17.871  1.00  0.00     0.142 C 
BRANCH   3   8
ATOM      8  O   UNL     1      30.475  34.098  14.085  1.00  0.00    -0.338 OA
BRANCH   8   9
ATOM      9  C   UNL     1      29.442  34.775  13.645  1.00  0.00     0.199 C 
BRANCH   9  10
ATOM     10  C   UNL     1      28.019  34.501  13.881  1.00  0.00     0.179 C 
ATOM     11  C   UNL     1      26.523  33.196  15.118  1.00  0.00     0.282 C 
ATOM     12  O   UNL     1      27.790  33.327  14.506  1.00  0.00    -0.341 OA
ATOM     13  C   UNL     1      25.561  34.224  14.607  1.00  0.00     0.202 C 
ATOM     14  C   UNL     1      26.053  35.627  14.756  1.00  0.00     0.179 C 
ATOM     15  C   UNL     1      27.540  35.631  14.848  1.00  0.00     0.177 C 
BRANCH  11  16
ATOM     16  O   UNL     1      26.771  33.207  16.459  1.00  0.00    -0.341 OA
BRANCH  16  17
ATOM     17  C   UNL     1      26.469  32.119  17.203  1.00  0.00     0.184 C 
ATOM     18  C   UNL     1      26.235  32.560  18.624  1.00  0.00     0.178 C 
ATOM     19  O   UNL     1      25.867  31.486  19.437  1.00  0.00    -0.341 OA
ATOM     20  C   UNL     1      27.005  30.643  19.570  1.00  0.00     0.281 C 
ATOM     21  C   UNL     1      27.617  31.096  17.246  1.00  0.00     0.180 C 
ATOM     22  C   UNL     1      27.181  30.004  18.220  1.00  0.00     0.202 C 
BRANCH  18  23
ATOM     23  C   UNL     1      25.153  33.599  18.698  1.00  0.00     0.191 C 
BRANCH  23  24
ATOM     24  O   UNL     1      25.657  34.861  18.285  1.00  0.00    -0.394 OA
ATOM     25  H   UNL     1      25.085  35.589  18.637  1.00  0.00     0.210 HD
ENDBRANCH  23  24
ENDBRANCH  18  23
BRANCH  20  26
ATOM     26  O   UNL     1      26.758  29.765  20.586  1.00  0.00    -0.350 OA
BRANCH  26  27
ATOM     27  C   UNL     1      27.550  30.005  21.699  1.00  0.00     0.169 C 
BRANCH  27  28
ATOM     28  C   UNL     1      28.768  29.133  21.769  1.00  0.00     0.119 C 
BRANCH  28  29
ATOM     29  N   UNL     1      29.962  29.963  21.569  1.00  0.00    -0.092 NA
ATOM     30  N   UNL     1      30.323  30.173  20.403  1.00  0.00     0.001 N 
ATOM     31  N   UNL     1      30.660  30.670  19.310  1.00  0.00    -0.003 NA
ENDBRANCH  28  29
ENDBRANCH  27  28
ENDBRANCH  26  27
ENDBRANCH  20  26
BRANCH  21  32
ATOM     32  O   UNL     1      27.764  30.457  16.024  1.00  0.00    -0.387 OA
ATOM     33  H   UNL     1      26.871  30.137  15.750  1.00  0.00     0.211 HD
ENDBRANCH  21  32
BRANCH  22  34
ATOM     34  O   UNL     1      28.106  28.965  18.247  1.00  0.00    -0.385 OA
ATOM     35  H   UNL     1      27.679  28.060  18.334  1.00  0.00     0.211 HD
ENDBRANCH  22  34
ENDBRANCH  16  17
ENDBRANCH  11  16
BRANCH  13  36
ATOM     36  O   UNL     1      25.221  33.911  13.277  1.00  0.00    -0.385 OA
ATOM     37  H   UNL     1      24.496  33.248  13.223  1.00  0.00     0.211 HD
ENDBRANCH  13  36
BRANCH  14  38
ATOM     38  O   UNL     1      25.394  36.346  15.727  1.00  0.00    -0.387 OA
ATOM     39  H   UNL     1      25.233  35.728  16.489  1.00  0.00     0.211 HD
ENDBRANCH  14  38
BRANCH  15  40
ATOM     40  O   UNL     1      28.000  35.448  16.113  1.00  0.00    -0.387 OA
ATOM     41  H   UNL     1      28.976  35.612  16.140  1.00  0.00     0.211 HD
ENDBRANCH  15  40
ENDBRANCH   9  10
ENDBRANCH   8   9
ENDBRANCH   3   8
BRANCH   3  42
ATOM     42  C   UNL     1      32.548  35.229  14.110  1.00  0.00     0.364 C 
ATOM     43  O   UNL     1      32.444  36.393  13.694  1.00  0.00    -0.246 OA
BRANCH  42  44
ATOM     44  O   UNL     1      33.741  34.562  13.830  1.00  0.00    -0.477 OA
ATOM     45  H   UNL     1      34.022  33.714  14.276  1.00  0.00     0.296 HD
ENDBRANCH  42  44
ENDBRANCH   3  42
BRANCH   6  46
ATOM     46  O   UNL     1      29.740  33.472  16.694  1.00  0.00    -0.391 OA
ATOM     47  H   UNL     1      29.306  34.294  17.026  1.00  0.00     0.211 HD
ENDBRANCH   6  46
BRANCH   7  48
ATOM     48  N   UNL     1      32.356  34.517  18.802  1.00  0.00    -0.348 N 
ATOM     49  C   UNL     1      32.147  34.077  20.150  1.00  0.00     0.217 C 
ATOM     50  H   UNL     1      33.379  34.626  18.531  1.00  0.00     0.163 HD
ATOM     51  C   UNL     1      33.274  33.805  21.082  1.00  0.00     0.114 C 
ATOM     52  O   UNL     1      30.985  33.912  20.573  1.00  0.00    -0.275 OA
ENDBRANCH   7  48
ENDBRANCH   1   2
BRANCH   1  53
ATOM     53  O   UNL     1      31.356  37.513  18.560  1.00  0.00    -0.388 OA
ATOM     54  H   UNL     1      30.892  36.812  19.075  1.00  0.00     0.211 HD
ENDBRANCH   1  53
BRANCH   1  55
ATOM     55  C   UNL     1      32.256  38.255  16.489  1.00  0.00     0.165 C 
BRANCH  55  56
ATOM     56  O   UNL     1      33.566  37.798  16.319  1.00  0.00    -0.388 OA
ATOM     57  H   UNL     1      34.184  38.564  16.196  1.00  0.00     0.211 HD
ENDBRANCH  55  56
BRANCH  55  58
ATOM     58  C   UNL     1      32.138  39.653  17.014  1.00  0.00     0.154 C 
BRANCH  58  59
ATOM     59  N   UNL     1      32.864  39.838  18.249  1.00  0.00    -0.319 N 
ATOM     60  C   UNL     1      34.204  40.285  18.257  1.00  0.00     0.407 C 
ATOM     61  H   UNL     1      32.395  39.639  19.187  1.00  0.00     0.167 HD
ATOM     62  O   UNL     1      34.877  40.566  17.240  1.00  0.00    -0.225 OA
BRANCH  60  63
ATOM     63  O   UNL     1      34.892  40.438  19.477  1.00  0.00    -0.443 OA
BRANCH  63  64
ATOM     64  C   UNL     1      35.267  39.391  20.317  1.00  0.00     0.294 C 
BRANCH  64  65
ATOM     65  C   UNL     1      35.362  38.065  19.692  1.00  0.00     0.121 A 
ATOM     66  C   UNL     1      36.536  37.407  19.338  1.00  0.00     0.144 A 
ATOM     67  N   UNL     1      34.368  37.255  19.350  1.00  0.00    -0.131 NA
ATOM     68  N   UNL     1      36.195  36.237  18.800  1.00  0.00    -0.220 N 
ATOM     69  N   UNL     1      34.885  36.152  18.811  1.00  0.00    -0.062 NA
BRANCH  68  70
ATOM     70  C   UNL     1      37.093  35.264  18.311  1.00  0.00     0.067 A 
ATOM     71  C   UNL     1      37.504  35.253  16.981  1.00  0.00     0.044 A 
ATOM     72  C   UNL     1      37.613  34.289  19.120  1.00  0.00     0.028 A 
ATOM     73  C   UNL     1      38.380  34.338  16.463  1.00  0.00     0.062 A 
ATOM     74  C   UNL     1      38.504  33.344  18.634  1.00  0.00     0.003 A 
ATOM     75  C   UNL     1      38.889  33.362  17.314  1.00  0.00     0.016 A 
BRANCH  73  76
ATOM     76  C   UNL     1      38.764  34.382  15.068  1.00  0.00     0.338 C 
ATOM     77  O   UNL     1      39.812  34.970  14.738  1.00  0.00    -0.246 OA
BRANCH  76  78
ATOM     78  O   UNL     1      37.980  33.780  14.118  1.00  0.00    -0.462 OA
BRANCH  78  79
ATOM     79  C   UNL     1      38.291  33.738  12.745  1.00  0.00     0.230 C 
ATOM     80  C   UNL     1      37.043  33.442  11.942  1.00  0.00     0.049 C 
ENDBRANCH  78  79
ENDBRANCH  76  78
ENDBRANCH  73  76
ENDBRANCH  68  70
ENDBRANCH  64  65
ENDBRANCH  63  64
ENDBRANCH  60  63
ENDBRANCH  58  59
ENDBRANCH  55  58
ENDBRANCH   1  55
TORSDOF 33
BEGIN_RES LYS A 131
REMARK  4 active torsions:
REMARK  status: ('A' for Active; 'I' for Inactive)
REMARK    1  A    between atoms: CA   and  CB  
REMARK    2  A    between atoms: CB   and  CG  
REMARK    3  A    between atoms: CG   and  CD  
REMARK    4  A    between atoms: CD   and  CE  
ROOT
ATOM      1  CA  LYS A 131      29.867  25.555  16.977  1.00 20.52     0.186 C 
ENDROOT
BRANCH   1   2
ATOM      2  CB  LYS A 131      28.345  25.722  17.026  1.00 20.94     0.034 C 
BRANCH   2   3
ATOM      3  CG  LYS A 131      27.601  24.402  16.889  1.00 22.96     0.005 C 
BRANCH   3   4
ATOM      4  CD  LYS A 131      26.158  24.521  17.293  1.00 24.33     0.041 C 
BRANCH   4   5
ATOM      5  CE  LYS A 131      25.665  23.178  17.822  1.00 26.91     0.338 C 
ATOM      6  NZ  LYS A 131      24.970  23.355  19.119  1.00 27.40     0.618 N 
ENDBRANCH   4   5
ENDBRANCH   3   4
ENDBRANCH   2   3
ENDBRANCH   1   2
END_RES LYS A 131
BEGIN_RES LYS A 135
REMARK  4 active torsions:
REMARK  status: ('A' for Active; 'I' for Inactive)
REMARK    5  A    between atoms: CA   and  CB  
REMARK    6  A    between atoms: CB   and  CG  
REMARK    7  A    between atoms: CG   and  CD  
REMARK    8  A    between atoms: CD   and  CE  
ROOT
ATOM      7  CA  LYS A 135      33.193  34.663   9.290  1.00 25.02     0.186 C 
ENDROOT
BRANCH   7   8
ATOM      8  CB  LYS A 135      32.060  35.360  10.034  1.00 26.63     0.034 C 
BRANCH   8   9
ATOM      9  CG  LYS A 135      30.782  35.446   9.241  1.00 29.45     0.005 C 
BRANCH   9  10
ATOM     10  CD  LYS A 135      29.959  34.178   9.408  1.00 32.00     0.041 C 
BRANCH  10  11
ATOM     11  CE  LYS A 135      28.633  34.487  10.077  1.00 34.25     0.338 C 
ATOM     12  NZ  LYS A 135      27.518  33.748   9.423  1.00 35.99     0.618 N 
ENDBRANCH  10  11
ENDBRANCH   9  10
ENDBRANCH   8   9
ENDBRANCH   7   8
END_RES LYS A 135
