REMARK VINA RESULT:    -4.005      6.540     13.972
REMARK INTER + INTRA:         -22.480
REMARK INTER:                  -9.109
REMARK INTRA:                 -13.371
REMARK UNBOUND:               -12.270
REMARK SMILES CC(=O)N[C@@H]1[C@@H](O)C[C@](OC[C@H]2O[C@@H](O[C@H]3[C@H](O)[C@@H](O)[C@H](OCCN=[N+]=[N-])O[C@@H]3CO)[C@H](O)[C@@H](O)[C@H]2O)(C(=O)O)O[C@H]1C(O)[C@H](O)CNC(=O)OCc1cn(-c2ccc(S(N)(=O)=O)cc2)nn1
REMARK SMILES IDX 9 1 8 2 6 3 5 4 42 5 41 6 10 7 11 8 12 9 14 10 13 11 32 12
REMARK SMILES IDX 34 13 36 14 15 15 16 16 29 17 28 18 21 19 17 20 19 21 30 22
REMARK SMILES IDX 31 23 22 25 23 26 24 27 25 28 26 29 27 30 18 31 20 33 33 35
REMARK SMILES IDX 35 37 37 39 38 41 39 42 40 43 7 45 43 47 44 48 45 50 46 51
REMARK SMILES IDX 47 53 48 54 49 55 50 57 51 58 52 59 53 60 54 61 67 62 55 63
REMARK SMILES IDX 66 64 56 65 57 66 65 67 58 68 64 69 59 70 60 71 62 72 63 73
REMARK SMILES IDX 61 74 4 77 2 78 1 80 3 81
REMARK H PARENT 31 24 18 32 20 34 33 36 35 38 37 40 40 44 7 46 44 49 46 52
REMARK H PARENT 48 56 61 75 61 76 4 79
REMARK Flexibility Score: inf
ROOT
ATOM      1  C   UNL     1      30.253  29.150  20.889  1.00  0.00     0.272 C 
ATOM      2  C   UNL     1      30.846  27.834  20.360  1.00  0.00     0.113 C 
ATOM      3  C   UNL     1      31.459  27.019  21.443  1.00  0.00     0.145 C 
ATOM      4  C   UNL     1      32.183  27.931  22.399  1.00  0.00     0.142 C 
ATOM      5  C   UNL     1      32.459  29.212  21.601  1.00  0.00     0.178 C 
ATOM      6  O   UNL     1      31.234  29.873  21.525  1.00  0.00    -0.332 OA
ENDROOT
BRANCH   1   7
ATOM      7  O   UNL     1      29.192  28.777  21.704  1.00  0.00    -0.338 OA
BRANCH   7   8
ATOM      8  C   UNL     1      28.976  29.605  22.769  1.00  0.00     0.199 C 
BRANCH   8   9
ATOM      9  C   UNL     1      27.880  28.962  23.638  1.00  0.00     0.179 C 
ATOM     10  C   UNL     1      26.110  27.471  23.300  1.00  0.00     0.282 C 
ATOM     11  O   UNL     1      26.905  28.543  22.789  1.00  0.00    -0.341 OA
ATOM     12  C   UNL     1      27.077  26.325  23.375  1.00  0.00     0.202 C 
ATOM     13  C   UNL     1      28.090  26.580  24.485  1.00  0.00     0.179 C 
ATOM     14  C   UNL     1      28.410  28.021  24.641  1.00  0.00     0.177 C 
BRANCH  10  15
ATOM     15  O   UNL     1      25.127  27.242  22.401  1.00  0.00    -0.341 OA
BRANCH  15  16
ATOM     16  C   UNL     1      25.198  28.027  21.221  1.00  0.00     0.184 C 
ATOM     17  C   UNL     1      23.926  28.725  21.061  1.00  0.00     0.178 C 
ATOM     18  O   UNL     1      23.413  28.814  19.783  1.00  0.00    -0.341 OA
ATOM     19  C   UNL     1      24.308  28.735  18.754  1.00  0.00     0.281 C 
ATOM     20  C   UNL     1      25.621  27.150  20.066  1.00  0.00     0.180 C 
ATOM     21  C   UNL     1      24.914  27.357  18.784  1.00  0.00     0.202 C 
BRANCH  17  22
ATOM     22  C   UNL     1      23.912  30.132  21.623  1.00  0.00     0.191 C 
BRANCH  22  23
ATOM     23  O   UNL     1      25.193  30.666  21.634  1.00  0.00    -0.394 OA
ATOM     24  H   UNL     1      25.866  30.012  21.948  1.00  0.00     0.210 HD
ENDBRANCH  22  23
ENDBRANCH  17  22
BRANCH  19  25
ATOM     25  O   UNL     1      25.253  29.731  18.694  1.00  0.00    -0.350 OA
BRANCH  25  26
ATOM     26  C   UNL     1      25.844  29.758  17.437  1.00  0.00     0.169 C 
BRANCH  26  27
ATOM     27  C   UNL     1      26.033  31.220  17.041  1.00  0.00     0.119 C 
BRANCH  27  28
ATOM     28  N   UNL     1      26.919  31.268  15.911  1.00  0.00    -0.092 NA
ATOM     29  N   UNL     1      27.954  30.567  15.849  1.00  0.00     0.001 N 
ATOM     30  N   UNL     1      29.181  30.396  15.959  1.00  0.00    -0.003 NA
ENDBRANCH  27  28
ENDBRANCH  26  27
ENDBRANCH  25  26
ENDBRANCH  19  25
BRANCH  20  31
ATOM     31  O   UNL     1      26.992  27.268  19.821  1.00  0.00    -0.387 OA
ATOM     32  H   UNL     1      27.253  26.618  19.128  1.00  0.00     0.211 HD
ENDBRANCH  20  31
BRANCH  21  33
ATOM     33  O   UNL     1      23.935  26.409  18.510  1.00  0.00    -0.385 OA
ATOM     34  H   UNL     1      23.507  26.222  19.407  1.00  0.00     0.211 HD
ENDBRANCH  21  33
ENDBRANCH  15  16
ENDBRANCH  10  15
BRANCH  12  35
ATOM     35  O   UNL     1      26.517  25.083  23.436  1.00  0.00    -0.385 OA
ATOM     36  H   UNL     1      26.931  24.463  24.066  1.00  0.00     0.211 HD
ENDBRANCH  12  35
BRANCH  13  37
ATOM     37  O   UNL     1      29.186  25.740  24.373  1.00  0.00    -0.387 OA
ATOM     38  H   UNL     1      29.890  25.877  25.040  1.00  0.00     0.211 HD
ENDBRANCH  13  37
BRANCH  14  39
ATOM     39  O   UNL     1      29.822  28.137  24.625  1.00  0.00    -0.387 OA
ATOM     40  H   UNL     1      30.006  28.952  24.073  1.00  0.00     0.211 HD
ENDBRANCH  14  39
ENDBRANCH   8   9
ENDBRANCH   7   8
ENDBRANCH   1   7
BRANCH   1  41
ATOM     41  C   UNL     1      29.746  29.842  19.646  1.00  0.00     0.364 C 
ATOM     42  O   UNL     1      28.517  29.994  19.446  1.00  0.00    -0.246 OA
BRANCH  41  43
ATOM     43  O   UNL     1      30.617  30.332  18.692  1.00  0.00    -0.477 OA
ATOM     44  H   UNL     1      31.606  30.205  18.842  1.00  0.00     0.296 HD
ENDBRANCH  41  43
ENDBRANCH   1  41
BRANCH   3  45
ATOM     45  O   UNL     1      30.460  26.262  22.051  1.00  0.00    -0.391 OA
ATOM     46  H   UNL     1      29.898  26.854  22.604  1.00  0.00     0.211 HD
ENDBRANCH   3  45
BRANCH   5  47
ATOM     47  C   UNL     1      33.447  30.090  22.320  1.00  0.00     0.176 C 
BRANCH  47  48
ATOM     48  O   UNL     1      34.429  30.619  21.508  1.00  0.00    -0.388 OA
ATOM     49  H   UNL     1      34.590  31.582  21.670  1.00  0.00     0.211 HD
ENDBRANCH  47  48
BRANCH  47  50
ATOM     50  C   UNL     1      32.729  31.206  23.045  1.00  0.00     0.165 C 
BRANCH  50  51
ATOM     51  O   UNL     1      33.504  32.384  23.016  1.00  0.00    -0.388 OA
ATOM     52  H   UNL     1      32.943  33.156  22.716  1.00  0.00     0.211 HD
ENDBRANCH  50  51
BRANCH  50  53
ATOM     53  C   UNL     1      32.412  30.839  24.472  1.00  0.00     0.154 C 
BRANCH  53  54
ATOM     54  N   UNL     1      31.006  30.988  24.768  1.00  0.00    -0.319 N 
ATOM     55  C   UNL     1      30.500  32.255  25.159  1.00  0.00     0.407 C 
ATOM     56  H   UNL     1      30.337  30.196  24.708  1.00  0.00     0.167 HD
ATOM     57  O   UNL     1      31.303  33.230  25.240  1.00  0.00    -0.225 OA
BRANCH  55  58
ATOM     58  O   UNL     1      29.172  32.503  25.459  1.00  0.00    -0.443 OA
BRANCH  58  59
ATOM     59  C   UNL     1      28.452  33.569  24.889  1.00  0.00     0.294 C 
BRANCH  59  60
ATOM     60  C   UNL     1      28.271  33.310  23.436  1.00  0.00     0.121 A 
ATOM     61  C   UNL     1      29.187  33.626  22.426  1.00  0.00     0.144 A 
ATOM     62  N   UNL     1      27.242  32.745  22.783  1.00  0.00    -0.131 NA
ATOM     63  N   UNL     1      28.677  33.244  21.229  1.00  0.00    -0.220 N 
ATOM     64  N   UNL     1      27.513  32.719  21.469  1.00  0.00    -0.062 NA
BRANCH  63  65
ATOM     65  C   UNL     1      29.300  33.393  19.947  1.00  0.00     0.066 A 
ATOM     66  C   UNL     1      28.558  33.377  18.789  1.00  0.00     0.030 A 
ATOM     67  C   UNL     1      30.662  33.559  19.835  1.00  0.00     0.030 A 
ATOM     68  C   UNL     1      29.167  33.525  17.544  1.00  0.00     0.024 A 
ATOM     69  C   UNL     1      31.281  33.708  18.596  1.00  0.00     0.024 A 
ATOM     70  C   UNL     1      30.533  33.692  17.436  1.00  0.00     0.082 A 
BRANCH  70  71
ATOM     71  S   UNL     1      31.272  33.877  15.846  1.00  0.00     0.238 S 
ATOM     72  O   UNL     1      30.433  34.765  14.960  1.00  0.00    -0.207 OA
ATOM     73  O   UNL     1      32.620  34.520  15.968  1.00  0.00    -0.207 OA
BRANCH  71  74
ATOM     74  N   UNL     1      31.470  32.336  15.072  1.00  0.00    -0.225 NA
ATOM     75  H   UNL     1      31.677  32.522  14.049  1.00  0.00     0.137 HD
ATOM     76  H   UNL     1      30.620  31.732  15.168  1.00  0.00     0.137 HD
ENDBRANCH  71  74
ENDBRANCH  70  71
ENDBRANCH  63  65
ENDBRANCH  59  60
ENDBRANCH  58  59
ENDBRANCH  55  58
ENDBRANCH  53  54
ENDBRANCH  50  53
ENDBRANCH  47  50
ENDBRANCH   5  47
BRANCH   4  77
ATOM     77  N   UNL     1      33.403  27.387  22.932  1.00  0.00    -0.348 N 
ATOM     78  C   UNL     1      33.383  26.622  24.117  1.00  0.00     0.217 C 
ATOM     79  H   UNL     1      34.311  27.545  22.456  1.00  0.00     0.163 HD
ATOM     80  C   UNL     1      34.662  26.079  24.635  1.00  0.00     0.114 C 
ATOM     81  O   UNL     1      32.331  26.381  24.752  1.00  0.00    -0.275 OA
ENDBRANCH   4  77
TORSDOF 32
BEGIN_RES LYS A 131
REMARK  4 active torsions:
REMARK  status: ('A' for Active; 'I' for Inactive)
REMARK    1  A    between atoms: CA   and  CB  
REMARK    2  A    between atoms: CB   and  CG  
REMARK    3  A    between atoms: CG   and  CD  
REMARK    4  A    between atoms: CD   and  CE  
ROOT
ATOM      1  CA  LYS A 131      29.867  25.555  16.977  1.00 20.52     0.186 C 
ENDROOT
BRANCH   1   2
ATOM      2  CB  LYS A 131      28.345  25.722  17.026  1.00 20.94     0.034 C 
BRANCH   2   3
ATOM      3  CG  LYS A 131      27.601  24.406  16.863  1.00 22.96     0.005 C 
BRANCH   3   4
ATOM      4  CD  LYS A 131      26.669  24.135  18.012  1.00 24.33     0.041 C 
BRANCH   4   5
ATOM      5  CE  LYS A 131      25.347  23.593  17.479  1.00 26.91     0.338 C 
ATOM      6  NZ  LYS A 131      25.392  22.114  17.388  1.00 27.40     0.618 N 
ENDBRANCH   4   5
ENDBRANCH   3   4
ENDBRANCH   2   3
ENDBRANCH   1   2
END_RES LYS A 131
BEGIN_RES LYS A 135
REMARK  4 active torsions:
REMARK  status: ('A' for Active; 'I' for Inactive)
REMARK    5  A    between atoms: CA   and  CB  
REMARK    6  A    between atoms: CB   and  CG  
REMARK    7  A    between atoms: CG   and  CD  
REMARK    8  A    between atoms: CD   and  CE  
ROOT
ATOM      7  CA  LYS A 135      33.193  34.663   9.290  1.00 25.02     0.186 C 
ENDROOT
BRANCH   7   8
ATOM      8  CB  LYS A 135      32.060  35.360  10.034  1.00 26.63     0.034 C 
BRANCH   8   9
ATOM      9  CG  LYS A 135      30.717  34.704   9.838  1.00 29.45     0.005 C 
BRANCH   9  10
ATOM     10  CD  LYS A 135      30.441  34.479   8.360  1.00 32.00     0.041 C 
BRANCH  10  11
ATOM     11  CE  LYS A 135      29.420  35.478   7.851  1.00 34.25     0.338 C 
ATOM     12  NZ  LYS A 135      28.051  34.892   7.848  1.00 35.99     0.618 N 
ENDBRANCH  10  11
ENDBRANCH   9  10
ENDBRANCH   8   9
ENDBRANCH   7   8
END_RES LYS A 135
