REMARK VINA RESULT:    -4.158      5.190      9.826
REMARK INTER + INTRA:         -24.281
REMARK INTER:                 -14.083
REMARK INTRA:                 -10.198
REMARK UNBOUND:               -13.073
REMARK SMILES CC(=O)N[C@@H]1[C@@H](O)C[C@](OC[C@H]2O[C@@H](O[C@H]3[C@H](O)[C@@H](O)[C@H](OCCN=[N+]=[N-])O[C@@H]3CO)[C@H](O)[C@@H](O)[C@H]2O)(C(=O)O)O[C@H]1C(O)[C@H](O)CNC(=O)OCc1cn(C[C@@H](C)CN2CCN(c3ccc(Cl)cc3)CC2)nn1
REMARK SMILES IDX 43 1 42 2 9 3 8 4 41 5 6 6 5 7 10 8 11 9 12 10 14 11 13 12
REMARK SMILES IDX 32 13 34 14 36 15 15 16 16 17 29 18 28 19 21 20 17 21 19 22
REMARK SMILES IDX 30 23 31 24 22 26 23 27 24 28 25 29 26 30 27 31 18 32 20 34
REMARK SMILES IDX 33 36 35 38 37 40 38 42 39 43 40 44 7 46 4 48 2 49 1 51 3 52
REMARK SMILES IDX 44 53 45 55 46 56 47 58 48 59 49 60 50 62 51 63 52 64 53 65
REMARK SMILES IDX 54 66 74 67 55 68 73 69 56 70 57 71 58 72 59 73 60 74 61 75
REMARK SMILES IDX 72 76 62 77 71 78 63 79 64 80 65 81 70 82 66 83 69 84 67 85
REMARK SMILES IDX 68 86
REMARK H PARENT 31 25 18 33 20 35 33 37 35 39 37 41 40 45 7 47 4 50 44 54
REMARK H PARENT 46 57 48 61
REMARK Flexibility Score: inf
ROOT
ATOM      1  C   UNL     1      30.186  33.683  16.478  1.00  0.00     0.176 C 
ENDROOT
BRANCH   1   2
ATOM      2  C   UNL     1      30.109  34.753  15.398  1.00  0.00     0.178 C 
ATOM      3  C   UNL     1      29.042  35.352  13.377  1.00  0.00     0.272 C 
ATOM      4  C   UNL     1      30.207  36.180  13.149  1.00  0.00     0.113 C 
ATOM      5  O   UNL     1      29.336  34.354  14.358  1.00  0.00    -0.332 OA
ATOM      6  C   UNL     1      31.508  35.508  13.548  1.00  0.00     0.145 C 
ATOM      7  C   UNL     1      31.452  35.312  15.069  1.00  0.00     0.142 C 
BRANCH   3   8
ATOM      8  O   UNL     1      28.464  34.667  12.394  1.00  0.00    -0.338 OA
BRANCH   8   9
ATOM      9  C   UNL     1      27.640  35.079  11.467  1.00  0.00     0.199 C 
BRANCH   9  10
ATOM     10  C   UNL     1      26.235  34.569  11.327  1.00  0.00     0.179 C 
ATOM     11  C   UNL     1      24.385  34.549  12.750  1.00  0.00     0.282 C 
ATOM     12  O   UNL     1      25.671  34.152  12.499  1.00  0.00    -0.341 OA
ATOM     13  C   UNL     1      24.354  36.059  12.896  1.00  0.00     0.202 C 
ATOM     14  C   UNL     1      24.864  36.664  11.629  1.00  0.00     0.179 C 
ATOM     15  C   UNL     1      25.392  35.664  10.657  1.00  0.00     0.177 C 
BRANCH  11  16
ATOM     16  O   UNL     1      24.046  33.998  14.009  1.00  0.00    -0.341 OA
BRANCH  16  17
ATOM     17  C   UNL     1      24.430  32.683  14.053  1.00  0.00     0.184 C 
ATOM     18  C   UNL     1      23.253  31.729  14.050  1.00  0.00     0.178 C 
ATOM     19  O   UNL     1      23.059  31.055  15.217  1.00  0.00    -0.341 OA
ATOM     20  C   UNL     1      24.137  30.334  15.699  1.00  0.00     0.281 C 
ATOM     21  C   UNL     1      25.352  32.400  15.235  1.00  0.00     0.180 C 
ATOM     22  C   UNL     1      25.482  30.897  15.332  1.00  0.00     0.202 C 
BRANCH  18  23
ATOM     23  C   UNL     1      23.253  30.828  12.825  1.00  0.00     0.191 C 
BRANCH  23  24
ATOM     24  O   UNL     1      22.310  29.834  12.909  1.00  0.00    -0.394 OA
ATOM     25  H   UNL     1      22.291  29.531  13.868  1.00  0.00     0.210 HD
ENDBRANCH  23  24
ENDBRANCH  18  23
BRANCH  20  26
ATOM     26  O   UNL     1      24.077  28.991  15.346  1.00  0.00    -0.350 OA
BRANCH  26  27
ATOM     27  C   UNL     1      23.295  28.202  16.139  1.00  0.00     0.169 C 
BRANCH  27  28
ATOM     28  C   UNL     1      23.724  28.251  17.579  1.00  0.00     0.119 C 
BRANCH  28  29
ATOM     29  N   UNL     1      24.724  27.222  17.814  1.00  0.00    -0.092 NA
ATOM     30  N   UNL     1      25.931  27.510  17.724  1.00  0.00     0.001 N 
ATOM     31  N   UNL     1      27.077  27.924  17.604  1.00  0.00    -0.003 NA
ENDBRANCH  28  29
ENDBRANCH  27  28
ENDBRANCH  26  27
ENDBRANCH  20  26
BRANCH  21  32
ATOM     32  O   UNL     1      26.625  32.917  15.002  1.00  0.00    -0.387 OA
ATOM     33  H   UNL     1      27.196  32.126  14.773  1.00  0.00     0.211 HD
ENDBRANCH  21  32
BRANCH  22  34
ATOM     34  O   UNL     1      26.375  30.604  16.392  1.00  0.00    -0.385 OA
ATOM     35  H   UNL     1      26.273  31.195  17.154  1.00  0.00     0.211 HD
ENDBRANCH  22  34
ENDBRANCH  16  17
ENDBRANCH  11  16
BRANCH  13  36
ATOM     36  O   UNL     1      23.057  36.434  13.204  1.00  0.00    -0.385 OA
ATOM     37  H   UNL     1      22.507  36.266  12.385  1.00  0.00     0.211 HD
ENDBRANCH  13  36
BRANCH  14  38
ATOM     38  O   UNL     1      25.796  37.687  11.847  1.00  0.00    -0.387 OA
ATOM     39  H   UNL     1      26.354  37.836  11.050  1.00  0.00     0.211 HD
ENDBRANCH  14  38
BRANCH  15  40
ATOM     40  O   UNL     1      26.150  36.269   9.684  1.00  0.00    -0.387 OA
ATOM     41  H   UNL     1      26.074  37.251   9.702  1.00  0.00     0.211 HD
ENDBRANCH  15  40
ENDBRANCH   9  10
ENDBRANCH   8   9
ENDBRANCH   3   8
BRANCH   3  42
ATOM     42  C   UNL     1      27.979  36.142  14.115  1.00  0.00     0.364 C 
ATOM     43  O   UNL     1      27.209  35.562  14.957  1.00  0.00    -0.246 OA
BRANCH  42  44
ATOM     44  O   UNL     1      27.758  37.485  13.944  1.00  0.00    -0.477 OA
ATOM     45  H   UNL     1      27.794  38.133  14.722  1.00  0.00     0.296 HD
ENDBRANCH  42  44
ENDBRANCH   3  42
BRANCH   6  46
ATOM     46  O   UNL     1      31.542  34.272  12.903  1.00  0.00    -0.391 OA
ATOM     47  H   UNL     1      31.735  33.538  13.535  1.00  0.00     0.211 HD
ENDBRANCH   6  46
BRANCH   7  48
ATOM     48  N   UNL     1      31.683  36.608  15.674  1.00  0.00    -0.348 N 
ATOM     49  C   UNL     1      32.842  36.830  16.459  1.00  0.00     0.217 C 
ATOM     50  H   UNL     1      31.012  37.417  15.559  1.00  0.00     0.163 HD
ATOM     51  C   UNL     1      33.045  38.191  17.071  1.00  0.00     0.114 C 
ATOM     52  O   UNL     1      33.715  35.941  16.671  1.00  0.00    -0.275 OA
ENDBRANCH   7  48
ENDBRANCH   1   2
BRANCH   1  53
ATOM     53  O   UNL     1      28.890  33.480  16.950  1.00  0.00    -0.388 OA
ATOM     54  H   UNL     1      28.550  32.591  16.695  1.00  0.00     0.211 HD
ENDBRANCH   1  53
BRANCH   1  55
ATOM     55  C   UNL     1      30.674  32.350  15.983  1.00  0.00     0.165 C 
BRANCH  55  56
ATOM     56  O   UNL     1      30.996  32.298  14.653  1.00  0.00    -0.388 OA
ATOM     57  H   UNL     1      31.795  31.774  14.474  1.00  0.00     0.211 HD
ENDBRANCH  55  56
BRANCH  55  58
ATOM     58  C   UNL     1      29.824  31.191  16.378  1.00  0.00     0.154 C 
BRANCH  58  59
ATOM     59  N   UNL     1      30.243  30.742  17.708  1.00  0.00    -0.319 N 
ATOM     60  C   UNL     1      29.333  30.685  18.788  1.00  0.00     0.407 C 
ATOM     61  H   UNL     1      31.234  30.460  17.853  1.00  0.00     0.167 HD
ATOM     62  O   UNL     1      28.146  31.038  18.579  1.00  0.00    -0.225 OA
BRANCH  60  63
ATOM     63  O   UNL     1      29.751  30.249  20.039  1.00  0.00    -0.443 OA
BRANCH  63  64
ATOM     64  C   UNL     1      31.142  30.339  20.346  1.00  0.00     0.294 C 
BRANCH  64  65
ATOM     65  C   UNL     1      31.629  29.162  21.100  1.00  0.00     0.120 A 
ATOM     66  C   UNL     1      32.529  29.155  22.141  1.00  0.00     0.138 A 
ATOM     67  N   UNL     1      31.288  27.865  20.914  1.00  0.00    -0.132 NA
ATOM     68  N   UNL     1      32.687  27.891  22.523  1.00  0.00    -0.252 N 
ATOM     69  N   UNL     1      31.934  27.114  21.778  1.00  0.00    -0.067 NA
BRANCH  68  70
ATOM     70  C   UNL     1      33.577  27.459  23.602  1.00  0.00     0.150 C 
BRANCH  70  71
ATOM     71  C   UNL     1      34.082  28.665  24.400  1.00  0.00     0.022 C 
ATOM     72  C   UNL     1      33.682  28.405  25.837  1.00  0.00     0.011 C 
BRANCH  71  73
ATOM     73  C   UNL     1      35.567  28.764  24.250  1.00  0.00     0.089 C 
BRANCH  73  74
ATOM     74  N   UNL     1      36.110  29.933  23.695  1.00  0.00    -0.299 NA
ATOM     75  C   UNL     1      35.299  31.027  23.362  1.00  0.00     0.106 C 
ATOM     76  C   UNL     1      37.293  29.745  22.919  1.00  0.00     0.106 C 
ATOM     77  C   UNL     1      35.517  31.503  21.925  1.00  0.00     0.132 C 
ATOM     78  C   UNL     1      37.891  31.097  22.573  1.00  0.00     0.132 C 
ATOM     79  N   UNL     1      36.941  31.764  21.721  1.00  0.00    -0.369 N 
BRANCH  79  80
ATOM     80  C   UNL     1      37.337  32.643  20.706  1.00  0.00     0.037 A 
ATOM     81  C   UNL     1      38.288  32.292  19.751  1.00  0.00     0.027 A 
ATOM     82  C   UNL     1      36.807  33.920  20.571  1.00  0.00     0.027 A 
ATOM     83  C   UNL     1      38.689  33.134  18.742  1.00  0.00     0.022 A 
ATOM     84  C   UNL     1      37.207  34.767  19.557  1.00  0.00     0.022 A 
ATOM     85  C   UNL     1      38.152  34.390  18.629  1.00  0.00     0.041 A 
ATOM     86  Cl  UNL     1      38.656  35.450  17.355  1.00  0.00    -0.084 Cl
ENDBRANCH  79  80
ENDBRANCH  73  74
ENDBRANCH  71  73
ENDBRANCH  70  71
ENDBRANCH  68  70
ENDBRANCH  64  65
ENDBRANCH  63  64
ENDBRANCH  60  63
ENDBRANCH  58  59
ENDBRANCH  55  58
ENDBRANCH   1  55
TORSDOF 34
BEGIN_RES LYS A 131
REMARK  4 active torsions:
REMARK  status: ('A' for Active; 'I' for Inactive)
REMARK    1  A    between atoms: CA   and  CB  
REMARK    2  A    between atoms: CB   and  CG  
REMARK    3  A    between atoms: CG   and  CD  
REMARK    4  A    between atoms: CD   and  CE  
ROOT
ATOM      1  CA  LYS A 131      29.867  25.555  16.977  1.00 20.52     0.186 C 
ENDROOT
BRANCH   1   2
ATOM      2  CB  LYS A 131      28.345  25.722  17.026  1.00 20.94     0.034 C 
BRANCH   2   3
ATOM      3  CG  LYS A 131      27.599  24.421  16.771  1.00 22.96     0.005 C 
BRANCH   3   4
ATOM      4  CD  LYS A 131      26.846  23.953  17.985  1.00 24.33     0.041 C 
BRANCH   4   5
ATOM      5  CE  LYS A 131      25.583  23.217  17.548  1.00 26.91     0.338 C 
ATOM      6  NZ  LYS A 131      24.912  22.600  18.716  1.00 27.40     0.618 N 
ENDBRANCH   4   5
ENDBRANCH   3   4
ENDBRANCH   2   3
ENDBRANCH   1   2
END_RES LYS A 131
BEGIN_RES LYS A 135
REMARK  4 active torsions:
REMARK  status: ('A' for Active; 'I' for Inactive)
REMARK    5  A    between atoms: CA   and  CB  
REMARK    6  A    between atoms: CB   and  CG  
REMARK    7  A    between atoms: CG   and  CD  
REMARK    8  A    between atoms: CD   and  CE  
ROOT
ATOM      7  CA  LYS A 135      33.193  34.663   9.290  1.00 25.02     0.186 C 
ENDROOT
BRANCH   7   8
ATOM      8  CB  LYS A 135      32.060  35.360  10.034  1.00 26.63     0.034 C 
BRANCH   8   9
ATOM      9  CG  LYS A 135      30.694  34.826   9.688  1.00 29.45     0.005 C 
BRANCH   9  10
ATOM     10  CD  LYS A 135      30.087  35.611   8.535  1.00 32.00     0.041 C 
BRANCH  10  11
ATOM     11  CE  LYS A 135      28.942  34.838   7.909  1.00 34.25     0.338 C 
ATOM     12  NZ  LYS A 135      28.422  35.536   6.700  1.00 35.99     0.618 N 
ENDBRANCH  10  11
ENDBRANCH   9  10
ENDBRANCH   8   9
ENDBRANCH   7   8
END_RES LYS A 135
