REMARK VINA RESULT:    -4.321      3.558      8.206
REMARK INTER + INTRA:         -21.299
REMARK INTER:                 -11.616
REMARK INTRA:                  -9.683
REMARK UNBOUND:               -10.664
REMARK SMILES CC(=O)N[C@@H]1[C@@H](O)C[C@](OC[C@H]2O[C@@H](O[C@H]3[C@H](O)[C@@H](O)[C@H](OCCN=[N+]=[N-])O[C@@H]3CO)[C@H](O)[C@@H](O)[C@H]2O)(C(=O)O)O[C@H]1C(O)[C@H](O)CNC(=O)OCc1cn(-c2ccc(Br)cc2)nn1
REMARK SMILES IDX 9 1 8 2 6 3 5 4 42 5 41 6 10 7 11 8 12 9 14 10 13 11 32 12
REMARK SMILES IDX 34 13 36 14 15 15 16 16 29 17 28 18 21 19 17 20 19 21 30 22
REMARK SMILES IDX 31 23 22 25 23 26 24 27 25 28 26 29 27 30 18 31 20 33 33 35
REMARK SMILES IDX 35 37 37 39 38 41 39 42 40 43 7 45 43 47 44 48 45 50 46 51
REMARK SMILES IDX 47 53 48 54 49 55 50 57 51 58 52 59 53 60 54 61 64 62 55 63
REMARK SMILES IDX 63 64 56 65 57 66 62 67 58 68 61 69 59 70 60 71 4 72 2 73
REMARK SMILES IDX 1 75 3 76
REMARK H PARENT 31 24 18 32 20 34 33 36 35 38 37 40 40 44 7 46 44 49 46 52
REMARK H PARENT 48 56 4 74
REMARK Flexibility Score: inf
ROOT
ATOM      1  C   UNL     1      25.722  30.246  15.824  1.00  0.00     0.272 C 
ATOM      2  C   UNL     1      25.654  29.525  17.198  1.00  0.00     0.113 C 
ATOM      3  C   UNL     1      24.230  29.460  17.609  1.00  0.00     0.145 C 
ATOM      4  C   UNL     1      23.476  28.713  16.491  1.00  0.00     0.142 C 
ATOM      5  C   UNL     1      23.523  29.652  15.308  1.00  0.00     0.178 C 
ATOM      6  O   UNL     1      24.845  29.709  14.927  1.00  0.00    -0.332 OA
ENDROOT
BRANCH   1   7
ATOM      7  O   UNL     1      27.023  29.957  15.401  1.00  0.00    -0.338 OA
BRANCH   7   8
ATOM      8  C   UNL     1      27.945  29.785  16.388  1.00  0.00     0.199 C 
BRANCH   8   9
ATOM      9  C   UNL     1      29.095  30.770  16.093  1.00  0.00     0.179 C 
ATOM     10  C   UNL     1      29.315  32.986  15.425  1.00  0.00     0.282 C 
ATOM     11  O   UNL     1      28.688  31.775  15.264  1.00  0.00    -0.341 OA
ATOM     12  C   UNL     1      30.654  32.908  16.039  1.00  0.00     0.202 C 
ATOM     13  C   UNL     1      30.762  32.091  17.286  1.00  0.00     0.179 C 
ATOM     14  C   UNL     1      29.520  31.278  17.462  1.00  0.00     0.177 C 
BRANCH  10  15
ATOM     15  O   UNL     1      28.392  33.829  16.043  1.00  0.00    -0.341 OA
BRANCH  15  16
ATOM     16  C   UNL     1      28.548  35.146  15.650  1.00  0.00     0.184 C 
ATOM     17  C   UNL     1      28.298  36.099  16.775  1.00  0.00     0.178 C 
ATOM     18  O   UNL     1      28.615  37.371  16.390  1.00  0.00    -0.341 OA
ATOM     19  C   UNL     1      28.716  37.648  15.061  1.00  0.00     0.281 C 
ATOM     20  C   UNL     1      27.503  35.514  14.583  1.00  0.00     0.180 C 
ATOM     21  C   UNL     1      27.714  36.953  14.166  1.00  0.00     0.202 C 
BRANCH  17  22
ATOM     22  C   UNL     1      29.180  35.732  17.953  1.00  0.00     0.191 C 
BRANCH  22  23
ATOM     23  O   UNL     1      28.590  34.756  18.720  1.00  0.00    -0.394 OA
ATOM     24  H   UNL     1      29.256  34.195  19.155  1.00  0.00     0.210 HD
ENDBRANCH  22  23
ENDBRANCH  17  22
BRANCH  19  25
ATOM     25  O   UNL     1      30.014  37.534  14.573  1.00  0.00    -0.350 OA
BRANCH  25  26
ATOM     26  C   UNL     1      30.133  37.765  13.217  1.00  0.00     0.169 C 
BRANCH  26  27
ATOM     27  C   UNL     1      31.500  37.536  12.666  1.00  0.00     0.119 C 
BRANCH  27  28
ATOM     28  N   UNL     1      31.940  36.189  12.984  1.00  0.00    -0.092 NA
ATOM     29  N   UNL     1      31.124  35.278  12.826  1.00  0.00     0.001 N 
ATOM     30  N   UNL     1      30.409  34.283  12.580  1.00  0.00    -0.003 NA
ENDBRANCH  27  28
ENDBRANCH  26  27
ENDBRANCH  25  26
ENDBRANCH  19  25
BRANCH  20  31
ATOM     31  O   UNL     1      27.554  34.616  13.532  1.00  0.00    -0.387 OA
ATOM     32  H   UNL     1      26.653  34.254  13.317  1.00  0.00     0.211 HD
ENDBRANCH  20  31
BRANCH  21  33
ATOM     33  O   UNL     1      26.551  37.686  14.086  1.00  0.00    -0.385 OA
ATOM     34  H   UNL     1      26.444  38.000  13.157  1.00  0.00     0.211 HD
ENDBRANCH  21  33
ENDBRANCH  15  16
ENDBRANCH  10  15
BRANCH  12  35
ATOM     35  O   UNL     1      31.533  32.414  15.036  1.00  0.00    -0.385 OA
ATOM     36  H   UNL     1      31.464  32.995  14.224  1.00  0.00     0.211 HD
ENDBRANCH  12  35
BRANCH  13  37
ATOM     37  O   UNL     1      30.916  32.928  18.417  1.00  0.00    -0.387 OA
ATOM     38  H   UNL     1      30.398  33.745  18.208  1.00  0.00     0.211 HD
ENDBRANCH  13  37
BRANCH  14  39
ATOM     39  O   UNL     1      28.500  31.992  18.087  1.00  0.00    -0.387 OA
ATOM     40  H   UNL     1      27.614  31.710  17.749  1.00  0.00     0.211 HD
ENDBRANCH  14  39
ENDBRANCH   8   9
ENDBRANCH   7   8
ENDBRANCH   1   7
BRANCH   1  41
ATOM     41  C   UNL     1      25.617  31.677  16.103  1.00  0.00     0.364 C 
ATOM     42  O   UNL     1      25.461  32.152  17.253  1.00  0.00    -0.246 OA
BRANCH  41  43
ATOM     43  O   UNL     1      25.691  32.596  15.074  1.00  0.00    -0.477 OA
ATOM     44  H   UNL     1      26.402  32.578  14.344  1.00  0.00     0.296 HD
ENDBRANCH  41  43
ENDBRANCH   1  41
BRANCH   3  45
ATOM     45  O   UNL     1      24.050  28.687  18.747  1.00  0.00    -0.391 OA
ATOM     46  H   UNL     1      24.650  29.003  19.455  1.00  0.00     0.211 HD
ENDBRANCH   3  45
BRANCH   5  47
ATOM     47  C   UNL     1      22.734  29.214  14.121  1.00  0.00     0.176 C 
BRANCH  47  48
ATOM     48  O   UNL     1      23.580  29.457  13.002  1.00  0.00    -0.388 OA
ATOM     49  H   UNL     1      24.425  29.852  13.335  1.00  0.00     0.211 HD
ENDBRANCH  47  48
BRANCH  47  50
ATOM     50  C   UNL     1      21.507  30.064  13.827  1.00  0.00     0.165 C 
BRANCH  50  51
ATOM     51  O   UNL     1      20.445  29.118  13.846  1.00  0.00    -0.388 OA
ATOM     52  H   UNL     1      19.711  29.439  13.233  1.00  0.00     0.211 HD
ENDBRANCH  50  51
BRANCH  50  53
ATOM     53  C   UNL     1      21.540  30.632  12.451  1.00  0.00     0.154 C 
BRANCH  53  54
ATOM     54  N   UNL     1      21.505  32.060  12.460  1.00  0.00    -0.319 N 
ATOM     55  C   UNL     1      22.629  32.907  12.712  1.00  0.00     0.407 C 
ATOM     56  H   UNL     1      20.588  32.579  12.269  1.00  0.00     0.167 HD
ATOM     57  O   UNL     1      23.739  32.377  12.952  1.00  0.00    -0.225 OA
BRANCH  55  58
ATOM     58  O   UNL     1      22.528  34.279  12.695  1.00  0.00    -0.443 OA
BRANCH  58  59
ATOM     59  C   UNL     1      22.521  34.972  11.474  1.00  0.00     0.294 C 
BRANCH  59  60
ATOM     60  C   UNL     1      23.866  35.544  11.241  1.00  0.00     0.121 A 
ATOM     61  C   UNL     1      24.344  35.951   9.989  1.00  0.00     0.144 A 
ATOM     62  N   UNL     1      24.875  35.786  12.091  1.00  0.00    -0.131 NA
ATOM     63  N   UNL     1      25.597  36.412  10.138  1.00  0.00    -0.220 N 
ATOM     64  N   UNL     1      25.888  36.300  11.419  1.00  0.00    -0.062 NA
BRANCH  63  65
ATOM     65  C   UNL     1      26.386  36.904   9.062  1.00  0.00     0.066 A 
ATOM     66  C   UNL     1      26.124  36.700   7.746  1.00  0.00     0.029 A 
ATOM     67  C   UNL     1      27.501  37.657   9.416  1.00  0.00     0.029 A 
ATOM     68  C   UNL     1      26.966  37.242   6.798  1.00  0.00     0.018 A 
ATOM     69  C   UNL     1      28.333  38.192   8.458  1.00  0.00     0.018 A 
ATOM     70  C   UNL     1      28.072  37.989   7.119  1.00  0.00     0.018 A 
ATOM     71  Br  UNL     1      29.210  38.725   5.776  1.00  0.00    -0.051 Br
ENDBRANCH  63  65
ENDBRANCH  59  60
ENDBRANCH  58  59
ENDBRANCH  55  58
ENDBRANCH  53  54
ENDBRANCH  50  53
ENDBRANCH  47  50
ENDBRANCH   5  47
BRANCH   4  72
ATOM     72  N   UNL     1      22.167  28.439  17.000  1.00  0.00    -0.348 N 
ATOM     73  C   UNL     1      21.501  27.207  16.759  1.00  0.00     0.217 C 
ATOM     74  H   UNL     1      21.681  29.157  17.565  1.00  0.00     0.163 HD
ATOM     75  C   UNL     1      20.145  26.896  17.272  1.00  0.00     0.114 C 
ATOM     76  O   UNL     1      22.078  26.306  16.067  1.00  0.00    -0.275 OA
ENDBRANCH   4  72
TORSDOF 30
BEGIN_RES LYS A 131
REMARK  4 active torsions:
REMARK  status: ('A' for Active; 'I' for Inactive)
REMARK    1  A    between atoms: CA   and  CB  
REMARK    2  A    between atoms: CB   and  CG  
REMARK    3  A    between atoms: CG   and  CD  
REMARK    4  A    between atoms: CD   and  CE  
ROOT
ATOM      1  CA  LYS A 131      29.867  25.555  16.977  1.00 20.52     0.186 C 
ENDROOT
BRANCH   1   2
ATOM      2  CB  LYS A 131      28.345  25.722  17.026  1.00 20.94     0.034 C 
BRANCH   2   3
ATOM      3  CG  LYS A 131      27.838  26.117  18.405  1.00 22.96     0.005 C 
BRANCH   3   4
ATOM      4  CD  LYS A 131      26.347  25.966  18.524  1.00 24.33     0.041 C 
BRANCH   4   5
ATOM      5  CE  LYS A 131      25.952  25.967  19.997  1.00 26.91     0.338 C 
ATOM      6  NZ  LYS A 131      24.520  25.617  20.151  1.00 27.40     0.618 N 
ENDBRANCH   4   5
ENDBRANCH   3   4
ENDBRANCH   2   3
ENDBRANCH   1   2
END_RES LYS A 131
BEGIN_RES LYS A 135
REMARK  4 active torsions:
REMARK  status: ('A' for Active; 'I' for Inactive)
REMARK    5  A    between atoms: CA   and  CB  
REMARK    6  A    between atoms: CB   and  CG  
REMARK    7  A    between atoms: CG   and  CD  
REMARK    8  A    between atoms: CD   and  CE  
ROOT
ATOM      7  CA  LYS A 135      33.193  34.663   9.290  1.00 25.02     0.186 C 
ENDROOT
BRANCH   7   8
ATOM      8  CB  LYS A 135      32.060  35.360  10.034  1.00 26.63     0.034 C 
BRANCH   8   9
ATOM      9  CG  LYS A 135      30.798  35.493   9.221  1.00 29.45     0.005 C 
BRANCH   9  10
ATOM     10  CD  LYS A 135      30.200  34.126   8.929  1.00 32.00     0.041 C 
BRANCH  10  11
ATOM     11  CE  LYS A 135      28.725  34.248   8.601  1.00 34.25     0.338 C 
ATOM     12  NZ  LYS A 135      27.883  33.682   9.691  1.00 35.99     0.618 N 
ENDBRANCH  10  11
ENDBRANCH   9  10
ENDBRANCH   8   9
ENDBRANCH   7   8
END_RES LYS A 135
