REMARK VINA RESULT:    -4.212      2.076      3.101
REMARK INTER + INTRA:         -21.940
REMARK INTER:                 -10.855
REMARK INTRA:                 -11.085
REMARK UNBOUND:               -11.571
REMARK SMILES CC(=O)N[C@@H]1[C@@H](O)C[C@](OC[C@H]2O[C@@H](O[C@H]3[C@H](O)[C@@H](O)[C@H](OCCN=[N+]=[N-])O[C@@H]3CO)[C@H](O)[C@@H](O)[C@H]2O)(C(=O)O)O[C@H]1C(O)[C@H](O)CNC(=O)OCc1cn(-c2ccc3[nH]ncc3c2)nn1
REMARK SMILES IDX 9 1 8 2 6 3 5 4 42 5 41 6 10 7 11 8 12 9 14 10 13 11 32 12
REMARK SMILES IDX 34 13 36 14 15 15 16 16 29 17 28 18 21 19 17 20 19 21 30 22
REMARK SMILES IDX 31 23 22 25 23 26 24 27 25 28 26 29 27 30 18 31 20 33 33 35
REMARK SMILES IDX 35 37 37 39 38 41 39 42 40 43 7 45 43 47 44 48 45 50 46 51
REMARK SMILES IDX 47 53 48 54 49 55 50 57 51 58 52 59 53 60 54 61 66 62 55 63
REMARK SMILES IDX 65 64 56 65 57 66 64 67 58 68 63 69 59 70 62 71 60 72 61 73
REMARK SMILES IDX 4 75 2 76 1 78 3 79
REMARK H PARENT 31 24 18 32 20 34 33 36 35 38 37 40 40 44 7 46 44 49 46 52
REMARK H PARENT 48 56 60 74 4 77
REMARK Flexibility Score: inf
ROOT
ATOM      1  C   UNL     1      32.347  32.564  21.983  1.00  0.00     0.272 C 
ATOM      2  C   UNL     1      33.823  32.531  22.149  1.00  0.00     0.113 C 
ATOM      3  C   UNL     1      34.334  31.618  23.234  1.00  0.00     0.145 C 
ATOM      4  C   UNL     1      33.803  30.213  22.843  1.00  0.00     0.142 C 
ATOM      5  C   UNL     1      32.336  30.376  22.728  1.00  0.00     0.178 C 
ATOM      6  O   UNL     1      31.846  31.272  21.843  1.00  0.00    -0.332 OA
ENDROOT
BRANCH   1   7
ATOM      7  O   UNL     1      32.052  33.280  20.803  1.00  0.00    -0.338 OA
BRANCH   7   8
ATOM      8  C   UNL     1      31.497  32.552  19.802  1.00  0.00     0.199 C 
BRANCH   8   9
ATOM      9  C   UNL     1      30.181  33.182  19.292  1.00  0.00     0.179 C 
ATOM     10  C   UNL     1      29.340  33.068  17.137  1.00  0.00     0.282 C 
ATOM     11  O   UNL     1      30.304  33.610  18.004  1.00  0.00    -0.341 OA
ATOM     12  C   UNL     1      29.568  31.592  17.124  1.00  0.00     0.202 C 
ATOM     13  C   UNL     1      29.108  31.070  18.493  1.00  0.00     0.179 C 
ATOM     14  C   UNL     1      29.048  32.194  19.491  1.00  0.00     0.177 C 
BRANCH  10  15
ATOM     15  O   UNL     1      29.423  33.695  15.907  1.00  0.00    -0.341 OA
BRANCH  15  16
ATOM     16  C   UNL     1      30.637  34.363  15.805  1.00  0.00     0.184 C 
ATOM     17  C   UNL     1      30.528  35.806  15.415  1.00  0.00     0.178 C 
ATOM     18  O   UNL     1      31.729  36.408  15.424  1.00  0.00    -0.341 OA
ATOM     19  C   UNL     1      32.884  35.694  15.375  1.00  0.00     0.281 C 
ATOM     20  C   UNL     1      31.459  33.750  14.654  1.00  0.00     0.180 C 
ATOM     21  C   UNL     1      32.817  34.357  14.719  1.00  0.00     0.202 C 
BRANCH  17  22
ATOM     22  C   UNL     1      29.557  36.607  16.258  1.00  0.00     0.191 C 
BRANCH  22  23
ATOM     23  O   UNL     1      29.777  36.433  17.613  1.00  0.00    -0.394 OA
ATOM     24  H   UNL     1      29.377  37.241  18.056  1.00  0.00     0.210 HD
ENDBRANCH  22  23
ENDBRANCH  17  22
BRANCH  19  25
ATOM     25  O   UNL     1      33.358  35.584  16.659  1.00  0.00    -0.350 OA
BRANCH  25  26
ATOM     26  C   UNL     1      34.200  36.546  17.095  1.00  0.00     0.169 C 
BRANCH  26  27
ATOM     27  C   UNL     1      33.835  37.139  18.418  1.00  0.00     0.119 C 
BRANCH  27  28
ATOM     28  N   UNL     1      32.469  37.548  18.557  1.00  0.00    -0.092 NA
ATOM     29  N   UNL     1      32.052  38.213  19.484  1.00  0.00     0.001 N 
ATOM     30  N   UNL     1      31.550  38.571  20.573  1.00  0.00    -0.003 NA
ENDBRANCH  27  28
ENDBRANCH  26  27
ENDBRANCH  25  26
ENDBRANCH  19  25
BRANCH  20  31
ATOM     31  O   UNL     1      31.485  32.383  14.718  1.00  0.00    -0.387 OA
ATOM     32  H   UNL     1      30.686  31.946  14.324  1.00  0.00     0.211 HD
ENDBRANCH  20  31
BRANCH  21  33
ATOM     33  O   UNL     1      33.314  34.408  13.404  1.00  0.00    -0.385 OA
ATOM     34  H   UNL     1      33.576  33.509  13.080  1.00  0.00     0.211 HD
ENDBRANCH  21  33
ENDBRANCH  15  16
ENDBRANCH  10  15
BRANCH  12  35
ATOM     35  O   UNL     1      28.967  30.898  16.104  1.00  0.00    -0.385 OA
ATOM     36  H   UNL     1      28.058  31.268  15.882  1.00  0.00     0.211 HD
ENDBRANCH  12  35
BRANCH  13  37
ATOM     37  O   UNL     1      29.844  29.978  18.902  1.00  0.00    -0.387 OA
ATOM     38  H   UNL     1      30.117  29.482  18.073  1.00  0.00     0.211 HD
ENDBRANCH  13  37
BRANCH  14  39
ATOM     39  O   UNL     1      29.236  31.604  20.767  1.00  0.00    -0.387 OA
ATOM     40  H   UNL     1      29.611  30.712  20.715  1.00  0.00     0.211 HD
ENDBRANCH  14  39
ENDBRANCH   8   9
ENDBRANCH   7   8
ENDBRANCH   1   7
BRANCH   1  41
ATOM     41  C   UNL     1      31.609  33.152  23.133  1.00  0.00     0.364 C 
ATOM     42  O   UNL     1      30.437  32.699  23.354  1.00  0.00    -0.246 OA
BRANCH  41  43
ATOM     43  O   UNL     1      32.041  34.124  23.982  1.00  0.00    -0.477 OA
ATOM     44  H   UNL     1      32.809  34.761  23.768  1.00  0.00     0.296 HD
ENDBRANCH  41  43
ENDBRANCH   1  41
BRANCH   3  45
ATOM     45  O   UNL     1      35.715  31.629  23.198  1.00  0.00    -0.391 OA
ATOM     46  H   UNL     1      36.110  30.939  23.811  1.00  0.00     0.211 HD
ENDBRANCH   3  45
BRANCH   5  47
ATOM     47  C   UNL     1      31.631  29.054  22.717  1.00  0.00     0.176 C 
BRANCH  47  48
ATOM     48  O   UNL     1      30.247  29.411  22.520  1.00  0.00    -0.388 OA
ATOM     49  H   UNL     1      30.037  29.446  21.565  1.00  0.00     0.211 HD
ENDBRANCH  47  48
BRANCH  47  50
ATOM     50  C   UNL     1      31.953  28.150  21.553  1.00  0.00     0.165 C 
BRANCH  50  51
ATOM     51  O   UNL     1      31.894  28.990  20.406  1.00  0.00    -0.388 OA
ATOM     52  H   UNL     1      31.438  28.563  19.660  1.00  0.00     0.211 HD
ENDBRANCH  50  51
BRANCH  50  53
ATOM     53  C   UNL     1      31.036  27.003  21.349  1.00  0.00     0.154 C 
BRANCH  53  54
ATOM     54  N   UNL     1      30.029  27.123  20.356  1.00  0.00    -0.319 N 
ATOM     55  C   UNL     1      28.647  27.354  20.556  1.00  0.00     0.407 C 
ATOM     56  H   UNL     1      30.312  27.037  19.327  1.00  0.00     0.167 HD
ATOM     57  O   UNL     1      28.175  27.492  21.688  1.00  0.00    -0.225 OA
BRANCH  55  58
ATOM     58  O   UNL     1      27.790  27.431  19.462  1.00  0.00    -0.443 OA
BRANCH  58  59
ATOM     59  C   UNL     1      26.605  28.164  19.402  1.00  0.00     0.294 C 
BRANCH  59  60
ATOM     60  C   UNL     1      26.393  28.900  18.148  1.00  0.00     0.121 A 
ATOM     61  C   UNL     1      25.550  29.973  17.960  1.00  0.00     0.144 A 
ATOM     62  N   UNL     1      26.982  28.642  16.962  1.00  0.00    -0.131 NA
ATOM     63  N   UNL     1      25.672  30.307  16.674  1.00  0.00    -0.220 N 
ATOM     64  N   UNL     1      26.537  29.497  16.092  1.00  0.00    -0.062 NA
BRANCH  63  65
ATOM     65  C   UNL     1      24.967  31.376  16.042  1.00  0.00     0.067 A 
ATOM     66  C   UNL     1      23.954  32.043  16.694  1.00  0.00     0.030 A 
ATOM     67  C   UNL     1      25.288  31.757  14.759  1.00  0.00     0.040 A 
ATOM     68  C   UNL     1      23.275  33.068  16.083  1.00  0.00     0.030 A 
ATOM     69  C   UNL     1      24.590  32.799  14.154  1.00  0.00     0.022 A 
ATOM     70  C   UNL     1      23.570  33.478  14.797  1.00  0.00     0.065 A 
ATOM     71  C   UNL     1      24.725  33.354  12.902  1.00  0.00     0.143 A 
ATOM     72  N   UNL     1      23.107  34.416  13.952  1.00  0.00    -0.278 N 
ATOM     73  N   UNL     1      23.801  34.327  12.841  1.00  0.00    -0.183 NA
ATOM     74  H   UNL     1      22.328  35.083  14.174  1.00  0.00     0.190 HD
ENDBRANCH  63  65
ENDBRANCH  59  60
ENDBRANCH  58  59
ENDBRANCH  55  58
ENDBRANCH  53  54
ENDBRANCH  50  53
ENDBRANCH  47  50
ENDBRANCH   5  47
BRANCH   4  75
ATOM     75  N   UNL     1      34.106  29.421  24.039  1.00  0.00    -0.348 N 
ATOM     76  C   UNL     1      35.221  28.580  24.030  1.00  0.00     0.217 C 
ATOM     77  H   UNL     1      33.519  29.464  24.888  1.00  0.00     0.163 HD
ATOM     78  C   UNL     1      35.598  27.732  25.209  1.00  0.00     0.114 C 
ATOM     79  O   UNL     1      35.956  28.525  22.989  1.00  0.00    -0.275 OA
ENDBRANCH   4  75
TORSDOF 30
BEGIN_RES LYS A 131
REMARK  4 active torsions:
REMARK  status: ('A' for Active; 'I' for Inactive)
REMARK    1  A    between atoms: CA   and  CB  
REMARK    2  A    between atoms: CB   and  CG  
REMARK    3  A    between atoms: CG   and  CD  
REMARK    4  A    between atoms: CD   and  CE  
ROOT
ATOM      1  CA  LYS A 131      29.867  25.555  16.977  1.00 20.52     0.186 C 
ENDROOT
BRANCH   1   2
ATOM      2  CB  LYS A 131      28.345  25.722  17.026  1.00 20.94     0.034 C 
BRANCH   2   3
ATOM      3  CG  LYS A 131      27.602  24.400  16.913  1.00 22.96     0.005 C 
BRANCH   3   4
ATOM      4  CD  LYS A 131      26.555  24.246  17.982  1.00 24.33     0.041 C 
BRANCH   4   5
ATOM      5  CE  LYS A 131      25.168  24.348  17.354  1.00 26.91     0.338 C 
ATOM      6  NZ  LYS A 131      24.623  25.716  17.522  1.00 27.40     0.618 N 
ENDBRANCH   4   5
ENDBRANCH   3   4
ENDBRANCH   2   3
ENDBRANCH   1   2
END_RES LYS A 131
BEGIN_RES LYS A 135
REMARK  4 active torsions:
REMARK  status: ('A' for Active; 'I' for Inactive)
REMARK    5  A    between atoms: CA   and  CB  
REMARK    6  A    between atoms: CB   and  CG  
REMARK    7  A    between atoms: CG   and  CD  
REMARK    8  A    between atoms: CD   and  CE  
ROOT
ATOM      7  CA  LYS A 135      33.193  34.663   9.290  1.00 25.02     0.186 C 
ENDROOT
BRANCH   7   8
ATOM      8  CB  LYS A 135      32.060  35.360  10.034  1.00 26.63     0.034 C 
BRANCH   8   9
ATOM      9  CG  LYS A 135      30.814  35.537   9.205  1.00 29.45     0.005 C 
BRANCH   9  10
ATOM     10  CD  LYS A 135      30.067  34.219   9.071  1.00 32.00     0.041 C 
BRANCH  10  11
ATOM     11  CE  LYS A 135      28.641  34.459   8.614  1.00 34.25     0.338 C 
ATOM     12  NZ  LYS A 135      27.671  33.723   9.472  1.00 35.99     0.618 N 
ENDBRANCH  10  11
ENDBRANCH   9  10
ENDBRANCH   8   9
ENDBRANCH   7   8
END_RES LYS A 135
