REMARK VINA RESULT:    -4.274      5.500     11.179
REMARK INTER + INTRA:         -22.491
REMARK INTER:                 -10.080
REMARK INTRA:                 -12.412
REMARK UNBOUND:               -10.971
REMARK SMILES C=CCCCCn1cc(COC(=O)NC[C@@H](O)C(O)[C@@H]2O[C@@](OC[C@H]3O[C@@H](O[C@H]4[C@H](O)[C@@H](O)[C@H](OCCN=[N+]=[N-])O[C@@H]4CO)[C@H](O)[C@@H](O)[C@H]3O)(C(=O)O)C[C@H](O)[C@H]2NC(C)=O)nn1
REMARK SMILES IDX 18 1 20 2 22 3 54 4 21 5 55 6 57 7 23 8 24 9 25 10 27 11
REMARK SMILES IDX 26 12 45 13 47 14 49 15 28 16 29 17 42 18 41 19 34 20 30 21
REMARK SMILES IDX 32 22 43 23 44 24 35 26 36 27 37 28 38 29 39 30 40 31 31 32
REMARK SMILES IDX 33 34 46 36 48 38 50 40 51 42 52 43 53 44 56 46 58 48 59 49
REMARK SMILES IDX 60 51 61 52 19 53 16 55 17 56 15 58 14 59 12 60 13 62 11 63
REMARK SMILES IDX 10 64 9 65 8 66 62 67 7 68 63 69 6 70 5 71 4 72 3 73 2 74
REMARK SMILES IDX 1 75
REMARK H PARENT 44 25 31 33 33 35 46 37 48 39 50 41 53 45 56 47 58 50 19 54
REMARK H PARENT 17 57 14 61
REMARK Flexibility Score: inf
ROOT
ATOM      1  C   UNL     1      25.534  37.731  14.277  1.00  0.00     0.176 C 
ENDROOT
BRANCH   1   2
ATOM      2  C   UNL     1      25.788  37.063  12.923  1.00  0.00     0.178 C 
ATOM      3  C   UNL     1      27.439  36.004  11.723  1.00  0.00     0.272 C 
ATOM      4  C   UNL     1      26.993  36.674  10.491  1.00  0.00     0.113 C 
ATOM      5  O   UNL     1      27.123  36.902  12.813  1.00  0.00    -0.332 OA
ATOM      6  C   UNL     1      25.580  37.064  10.450  1.00  0.00     0.145 C 
ATOM      7  C   UNL     1      24.995  37.495  11.785  1.00  0.00     0.142 C 
BRANCH   3   8
ATOM      8  O   UNL     1      28.818  35.952  11.869  1.00  0.00    -0.338 OA
BRANCH   8   9
ATOM      9  C   UNL     1      29.539  36.957  12.323  1.00  0.00     0.199 C 
BRANCH   9  10
ATOM     10  C   UNL     1      30.660  36.753  13.268  1.00  0.00     0.179 C 
ATOM     11  C   UNL     1      31.141  35.601  15.250  1.00  0.00     0.282 C 
ATOM     12  O   UNL     1      30.187  36.218  14.489  1.00  0.00    -0.341 OA
ATOM     13  C   UNL     1      32.532  35.943  14.884  1.00  0.00     0.202 C 
ATOM     14  C   UNL     1      32.862  35.761  13.427  1.00  0.00     0.179 C 
ATOM     15  C   UNL     1      31.578  35.700  12.658  1.00  0.00     0.177 C 
BRANCH  11  16
ATOM     16  O   UNL     1      30.805  34.278  15.354  1.00  0.00    -0.341 OA
BRANCH  16  17
ATOM     17  C   UNL     1      29.564  33.987  15.835  1.00  0.00     0.184 C 
ATOM     18  C   UNL     1      29.673  33.640  17.302  1.00  0.00     0.178 C 
ATOM     19  O   UNL     1      28.816  32.577  17.633  1.00  0.00    -0.341 OA
ATOM     20  C   UNL     1      29.418  31.409  17.176  1.00  0.00     0.281 C 
ATOM     21  C   UNL     1      28.980  32.726  15.156  1.00  0.00     0.180 C 
ATOM     22  C   UNL     1      29.662  31.491  15.699  1.00  0.00     0.202 C 
BRANCH  18  23
ATOM     23  C   UNL     1      29.423  34.829  18.213  1.00  0.00     0.191 C 
BRANCH  23  24
ATOM     24  O   UNL     1      28.358  35.587  17.756  1.00  0.00    -0.394 OA
ATOM     25  H   UNL     1      28.433  36.498  18.126  1.00  0.00     0.210 HD
ENDBRANCH  23  24
ENDBRANCH  18  23
BRANCH  20  26
ATOM     26  O   UNL     1      28.540  30.366  17.473  1.00  0.00    -0.350 OA
BRANCH  26  27
ATOM     27  C   UNL     1      27.630  30.672  18.467  1.00  0.00     0.169 C 
BRANCH  27  28
ATOM     28  C   UNL     1      26.422  29.774  18.268  1.00  0.00     0.119 C 
BRANCH  28  29
ATOM     29  N   UNL     1      25.371  30.440  17.546  1.00  0.00    -0.092 NA
ATOM     30  N   UNL     1      25.398  30.546  16.326  1.00  0.00     0.001 N 
ATOM     31  N   UNL     1      25.454  30.425  15.102  1.00  0.00    -0.003 NA
ENDBRANCH  28  29
ENDBRANCH  27  28
ENDBRANCH  26  27
ENDBRANCH  20  26
BRANCH  21  32
ATOM     32  O   UNL     1      27.645  32.670  15.548  1.00  0.00    -0.387 OA
ATOM     33  H   UNL     1      27.470  32.062  16.295  1.00  0.00     0.211 HD
ENDBRANCH  21  32
BRANCH  22  34
ATOM     34  O   UNL     1      31.012  31.488  15.358  1.00  0.00    -0.385 OA
ATOM     35  H   UNL     1      31.162  32.262  14.750  1.00  0.00     0.211 HD
ENDBRANCH  22  34
ENDBRANCH  16  17
ENDBRANCH  11  16
BRANCH  13  36
ATOM     36  O   UNL     1      32.735  37.294  15.201  1.00  0.00    -0.385 OA
ATOM     37  H   UNL     1      32.548  37.490  16.137  1.00  0.00     0.211 HD
ENDBRANCH  13  36
BRANCH  14  38
ATOM     38  O   UNL     1      33.648  34.630  13.200  1.00  0.00    -0.387 OA
ATOM     39  H   UNL     1      33.098  33.850  13.417  1.00  0.00     0.211 HD
ENDBRANCH  14  38
BRANCH  15  40
ATOM     40  O   UNL     1      30.983  34.434  12.719  1.00  0.00    -0.387 OA
ATOM     41  H   UNL     1      30.900  34.091  13.628  1.00  0.00     0.211 HD
ENDBRANCH  15  40
ENDBRANCH   9  10
ENDBRANCH   8   9
ENDBRANCH   3   8
BRANCH   3  42
ATOM     42  C   UNL     1      26.685  34.793  12.015  1.00  0.00     0.364 C 
ATOM     43  O   UNL     1      26.162  34.120  11.100  1.00  0.00    -0.246 OA
BRANCH  42  44
ATOM     44  O   UNL     1      26.501  34.334  13.285  1.00  0.00    -0.477 OA
ATOM     45  H   UNL     1      27.240  33.906  13.815  1.00  0.00     0.296 HD
ENDBRANCH  42  44
ENDBRANCH   3  42
BRANCH   6  46
ATOM     46  O   UNL     1      25.423  38.106   9.503  1.00  0.00    -0.391 OA
ATOM     47  H   UNL     1      25.160  38.957   9.934  1.00  0.00     0.211 HD
ENDBRANCH   6  46
BRANCH   7  48
ATOM     48  N   UNL     1      23.627  36.953  11.897  1.00  0.00    -0.348 N 
ATOM     49  C   UNL     1      22.491  37.603  11.361  1.00  0.00     0.217 C 
ATOM     50  H   UNL     1      23.431  36.041  12.393  1.00  0.00     0.163 HD
ATOM     51  C   UNL     1      21.114  37.003  11.517  1.00  0.00     0.114 C 
ATOM     52  O   UNL     1      22.646  38.692  10.754  1.00  0.00    -0.275 OA
ENDBRANCH   7  48
ENDBRANCH   1   2
BRANCH   1  53
ATOM     53  O   UNL     1      24.584  36.789  14.940  1.00  0.00    -0.388 OA
ATOM     54  H   UNL     1      24.024  37.458  15.451  1.00  0.00     0.211 HD
ENDBRANCH   1  53
BRANCH   1  55
ATOM     55  C   UNL     1      26.652  37.698  15.220  1.00  0.00     0.165 C 
BRANCH  55  56
ATOM     56  O   UNL     1      27.253  36.432  15.407  1.00  0.00    -0.388 OA
ATOM     57  H   UNL     1      26.501  35.819  15.597  1.00  0.00     0.211 HD
ENDBRANCH  55  56
BRANCH  55  58
ATOM     58  C   UNL     1      26.538  38.381  16.517  1.00  0.00     0.154 C 
BRANCH  58  59
ATOM     59  N   UNL     1      26.095  37.591  17.600  1.00  0.00    -0.319 N 
ATOM     60  C   UNL     1      24.818  37.359  18.124  1.00  0.00     0.407 C 
ATOM     61  H   UNL     1      26.886  37.060  18.130  1.00  0.00     0.167 HD
ATOM     62  O   UNL     1      23.812  37.897  17.631  1.00  0.00    -0.225 OA
BRANCH  60  63
ATOM     63  O   UNL     1      24.621  36.511  19.222  1.00  0.00    -0.443 OA
BRANCH  63  64
ATOM     64  C   UNL     1      25.116  35.174  19.133  1.00  0.00     0.294 C 
BRANCH  64  65
ATOM     65  C   UNL     1      24.896  34.623  17.771  1.00  0.00     0.120 A 
ATOM     66  C   UNL     1      23.679  34.126  17.306  1.00  0.00     0.138 A 
ATOM     67  N   UNL     1      25.760  34.487  16.754  1.00  0.00    -0.132 NA
ATOM     68  N   UNL     1      23.869  33.719  16.046  1.00  0.00    -0.252 N 
ATOM     69  N   UNL     1      25.116  33.937  15.720  1.00  0.00    -0.067 NA
BRANCH  68  70
ATOM     70  C   UNL     1      22.808  33.133  15.215  1.00  0.00     0.146 C 
BRANCH  70  71
ATOM     71  C   UNL     1      23.000  33.585  13.792  1.00  0.00     0.024 C 
BRANCH  71  72
ATOM     72  C   UNL     1      23.361  32.378  12.954  1.00  0.00     0.006 C 
BRANCH  72  73
ATOM     73  C   UNL     1      22.169  31.455  12.842  1.00  0.00     0.027 C 
BRANCH  73  74
ATOM     74  C   UNL     1      22.592  30.047  12.667  1.00  0.00    -0.035 C 
ATOM     75  C   UNL     1      21.744  29.148  12.209  1.00  0.00     0.004 C 
ENDBRANCH  73  74
ENDBRANCH  72  73
ENDBRANCH  71  72
ENDBRANCH  70  71
ENDBRANCH  68  70
ENDBRANCH  64  65
ENDBRANCH  63  64
ENDBRANCH  60  63
ENDBRANCH  58  59
ENDBRANCH  55  58
ENDBRANCH   1  55
TORSDOF 34
BEGIN_RES LYS A 131
REMARK  4 active torsions:
REMARK  status: ('A' for Active; 'I' for Inactive)
REMARK    1  A    between atoms: CA   and  CB  
REMARK    2  A    between atoms: CB   and  CG  
REMARK    3  A    between atoms: CG   and  CD  
REMARK    4  A    between atoms: CD   and  CE  
ROOT
ATOM      1  CA  LYS A 131      29.867  25.555  16.977  1.00 20.52     0.186 C 
ENDROOT
BRANCH   1   2
ATOM      2  CB  LYS A 131      28.345  25.722  17.026  1.00 20.94     0.034 C 
BRANCH   2   3
ATOM      3  CG  LYS A 131      27.856  26.302  18.344  1.00 22.96     0.005 C 
BRANCH   3   4
ATOM      4  CD  LYS A 131      26.511  25.758  18.739  1.00 24.33     0.041 C 
BRANCH   4   5
ATOM      5  CE  LYS A 131      26.193  24.527  17.896  1.00 26.91     0.338 C 
ATOM      6  NZ  LYS A 131      25.911  23.361  18.765  1.00 27.40     0.618 N 
ENDBRANCH   4   5
ENDBRANCH   3   4
ENDBRANCH   2   3
ENDBRANCH   1   2
END_RES LYS A 131
BEGIN_RES LYS A 135
REMARK  4 active torsions:
REMARK  status: ('A' for Active; 'I' for Inactive)
REMARK    5  A    between atoms: CA   and  CB  
REMARK    6  A    between atoms: CB   and  CG  
REMARK    7  A    between atoms: CG   and  CD  
REMARK    8  A    between atoms: CD   and  CE  
ROOT
ATOM      7  CA  LYS A 135      33.193  34.663   9.290  1.00 25.02     0.186 C 
ENDROOT
BRANCH   7   8
ATOM      8  CB  LYS A 135      32.060  35.360  10.034  1.00 26.63     0.034 C 
BRANCH   8   9
ATOM      9  CG  LYS A 135      30.826  35.568   9.194  1.00 29.45     0.005 C 
BRANCH   9  10
ATOM     10  CD  LYS A 135      30.136  34.242   8.917  1.00 32.00     0.041 C 
BRANCH  10  11
ATOM     11  CE  LYS A 135      28.749  34.472   8.348  1.00 34.25     0.338 C 
ATOM     12  NZ  LYS A 135      28.804  35.321   7.127  1.00 35.99     0.618 N 
ENDBRANCH  10  11
ENDBRANCH   9  10
ENDBRANCH   8   9
ENDBRANCH   7   8
END_RES LYS A 135
