REMARK VINA RESULT:    -5.064      3.482     10.100
REMARK INTER + INTRA:         -25.334
REMARK INTER:                 -13.166
REMARK INTRA:                 -12.168
REMARK UNBOUND:                -9.760
REMARK SMILES CC(=O)N[C@@H]1[C@@H](O)C[C@](OC[C@H]2O[C@@H](O[C@H]3[C@H](O)[C@@H](O)[C@H](OCCN=[N+]=[N-])O[C@@H]3CO)[C@H](O)[C@@H](O)[C@H]2O)(C(=O)O)O[C@H]1C(O)[C@H](O)CNC(=O)OCc1cn(CCCCCCCCCCC(=O)O)nn1
REMARK SMILES IDX 51 1 49 2 48 3 50 5 47 6 45 7 43 8 42 9 9 10 8 11 41 12 6 13
REMARK SMILES IDX 5 14 10 15 11 16 12 17 14 18 13 19 32 20 34 21 36 22 15 23
REMARK SMILES IDX 16 24 29 25 28 26 21 27 17 28 19 29 30 30 31 31 22 33 23 34
REMARK SMILES IDX 24 35 25 36 26 37 27 38 18 39 20 41 33 43 35 45 37 47 38 49
REMARK SMILES IDX 39 50 40 51 7 53 4 55 2 56 1 58 3 59 44 60 46 62 52 64 53 65
REMARK SMILES IDX 54 66 70 67 55 68 69 69 56 70 57 71 58 72 59 73 60 74 61 75
REMARK SMILES IDX 62 76 63 77 64 78 65 79 66 80 67 81 68 82
REMARK H PARENT 48 4 31 32 18 40 20 42 33 44 35 46 37 48 40 52 7 54 4 57 44 61
REMARK H PARENT 46 63 68 83
REMARK Flexibility Score: inf
ROOT
ATOM      1  O   UNL     1      23.710  35.455  10.483  1.00  0.00    -0.443 OA
ENDROOT
BRANCH   1   2
ATOM      2  C   UNL     1      24.893  35.914  11.104  1.00  0.00     0.407 C 
ATOM      3  N   UNL     1      24.939  36.136  12.503  1.00  0.00    -0.319 N 
ATOM      4  H   UNL     1      24.067  35.959  13.068  1.00  0.00     0.167 HD
ATOM      5  O   UNL     1      25.929  36.131  10.436  1.00  0.00    -0.225 OA
BRANCH   3   6
ATOM      6  C   UNL     1      26.119  36.591  13.174  1.00  0.00     0.154 C 
BRANCH   6   7
ATOM      7  C   UNL     1      26.629  35.648  14.259  1.00  0.00     0.165 C 
BRANCH   7   8
ATOM      8  C   UNL     1      27.609  34.747  13.592  1.00  0.00     0.176 C 
BRANCH   8   9
ATOM      9  C   UNL     1      28.790  34.313  14.429  1.00  0.00     0.178 C 
ATOM     10  C   UNL     1      29.264  32.970  16.267  1.00  0.00     0.272 C 
ATOM     11  C   UNL     1      30.308  34.002  16.639  1.00  0.00     0.113 C 
ATOM     12  O   UNL     1      28.310  33.608  15.497  1.00  0.00    -0.332 OA
ATOM     13  C   UNL     1      29.941  35.398  16.253  1.00  0.00     0.145 C 
ATOM     14  C   UNL     1      29.716  35.442  14.756  1.00  0.00     0.142 C 
BRANCH  10  15
ATOM     15  O   UNL     1      28.674  32.424  17.419  1.00  0.00    -0.338 OA
BRANCH  15  16
ATOM     16  C   UNL     1      29.483  31.715  18.240  1.00  0.00     0.199 C 
BRANCH  16  17
ATOM     17  C   UNL     1      28.588  31.184  19.380  1.00  0.00     0.179 C 
ATOM     18  C   UNL     1      26.778  30.025  18.391  1.00  0.00     0.282 C 
ATOM     19  O   UNL     1      27.295  31.092  19.045  1.00  0.00    -0.341 OA
ATOM     20  C   UNL     1      27.654  28.830  18.390  1.00  0.00     0.202 C 
ATOM     21  C   UNL     1      28.350  28.728  19.742  1.00  0.00     0.179 C 
ATOM     22  C   UNL     1      29.210  29.949  19.992  1.00  0.00     0.177 C 
BRANCH  18  23
ATOM     23  O   UNL     1      26.429  30.477  17.093  1.00  0.00    -0.341 OA
BRANCH  23  24
ATOM     24  C   UNL     1      25.100  30.876  17.139  1.00  0.00     0.184 C 
ATOM     25  C   UNL     1      24.175  30.113  16.248  1.00  0.00     0.178 C 
ATOM     26  O   UNL     1      22.937  30.685  16.231  1.00  0.00    -0.341 OA
ATOM     27  C   UNL     1      22.618  31.677  17.082  1.00  0.00     0.281 C 
ATOM     28  C   UNL     1      24.989  32.348  16.708  1.00  0.00     0.180 C 
ATOM     29  C   UNL     1      23.618  32.807  17.150  1.00  0.00     0.202 C 
BRANCH  25  30
ATOM     30  C   UNL     1      24.058  28.644  16.609  1.00  0.00     0.191 C 
BRANCH  30  31
ATOM     31  O   UNL     1      23.459  28.417  17.820  1.00  0.00    -0.394 OA
ATOM     32  H   UNL     1      23.935  27.672  18.272  1.00  0.00     0.210 HD
ENDBRANCH  30  31
ENDBRANCH  25  30
BRANCH  27  33
ATOM     33  O   UNL     1      22.449  31.174  18.365  1.00  0.00    -0.350 OA
BRANCH  33  34
ATOM     34  C   UNL     1      21.150  31.360  18.836  1.00  0.00     0.169 C 
BRANCH  34  35
ATOM     35  C   UNL     1      20.541  30.080  19.336  1.00  0.00     0.119 C 
BRANCH  35  36
ATOM     36  N   UNL     1      19.571  29.607  18.346  1.00  0.00    -0.092 NA
ATOM     37  N   UNL     1      19.937  28.893  17.387  1.00  0.00     0.001 N 
ATOM     38  N   UNL     1      20.574  28.227  16.542  1.00  0.00    -0.003 NA
ENDBRANCH  35  36
ENDBRANCH  34  35
ENDBRANCH  33  34
ENDBRANCH  27  33
BRANCH  28  39
ATOM     39  O   UNL     1      25.956  33.143  17.285  1.00  0.00    -0.387 OA
ATOM     40  H   UNL     1      26.012  34.049  16.890  1.00  0.00     0.211 HD
ENDBRANCH  28  39
BRANCH  29  41
ATOM     41  O   UNL     1      23.202  33.790  16.257  1.00  0.00    -0.385 OA
ATOM     42  H   UNL     1      22.930  34.592  16.803  1.00  0.00     0.211 HD
ENDBRANCH  29  41
ENDBRANCH  23  24
ENDBRANCH  18  23
BRANCH  20  43
ATOM     43  O   UNL     1      26.937  27.633  18.267  1.00  0.00    -0.385 OA
ATOM     44  H   UNL     1      26.097  27.873  17.775  1.00  0.00     0.211 HD
ENDBRANCH  20  43
BRANCH  21  45
ATOM     45  O   UNL     1      29.140  27.582  19.803  1.00  0.00    -0.387 OA
ATOM     46  H   UNL     1      29.482  27.430  18.886  1.00  0.00     0.211 HD
ENDBRANCH  21  45
BRANCH  22  47
ATOM     47  O   UNL     1      30.447  29.714  19.442  1.00  0.00    -0.387 OA
ATOM     48  H   UNL     1      31.107  30.301  19.890  1.00  0.00     0.211 HD
ENDBRANCH  22  47
ENDBRANCH  16  17
ENDBRANCH  15  16
ENDBRANCH  10  15
BRANCH  10  49
ATOM     49  C   UNL     1      29.846  31.824  15.564  1.00  0.00     0.364 C 
ATOM     50  O   UNL     1      29.215  30.778  15.341  1.00  0.00    -0.246 OA
BRANCH  49  51
ATOM     51  O   UNL     1      31.154  31.869  15.111  1.00  0.00    -0.477 OA
ATOM     52  H   UNL     1      31.628  31.047  14.729  1.00  0.00     0.296 HD
ENDBRANCH  49  51
ENDBRANCH  10  49
BRANCH  13  53
ATOM     53  O   UNL     1      28.902  35.961  16.961  1.00  0.00    -0.391 OA
ATOM     54  H   UNL     1      28.772  35.565  17.870  1.00  0.00     0.211 HD
ENDBRANCH  13  53
BRANCH  14  55
ATOM     55  N   UNL     1      30.995  35.381  14.130  1.00  0.00    -0.348 N 
ATOM     56  C   UNL     1      31.360  36.123  12.971  1.00  0.00     0.217 C 
ATOM     57  H   UNL     1      31.746  34.759  14.516  1.00  0.00     0.163 HD
ATOM     58  C   UNL     1      32.705  36.006  12.380  1.00  0.00     0.114 C 
ATOM     59  O   UNL     1      30.503  36.876  12.474  1.00  0.00    -0.275 OA
ENDBRANCH  14  55
ENDBRANCH   8   9
BRANCH   8  60
ATOM     60  O   UNL     1      27.940  35.271  12.372  1.00  0.00    -0.388 OA
ATOM     61  H   UNL     1      28.885  35.435  12.229  1.00  0.00     0.211 HD
ENDBRANCH   8  60
ENDBRANCH   7   8
BRANCH   7  62
ATOM     62  O   UNL     1      25.517  35.006  14.792  1.00  0.00    -0.388 OA
ATOM     63  H   UNL     1      25.388  34.104  14.410  1.00  0.00     0.211 HD
ENDBRANCH   7  62
ENDBRANCH   6   7
ENDBRANCH   3   6
ENDBRANCH   1   2
BRANCH   1  64
ATOM     64  C   UNL     1      22.887  36.454   9.864  1.00  0.00     0.294 C 
BRANCH  64  65
ATOM     65  C   UNL     1      21.634  35.789   9.449  1.00  0.00     0.120 A 
ATOM     66  C   UNL     1      20.705  35.239  10.314  1.00  0.00     0.138 A 
ATOM     67  N   UNL     1      21.168  35.604   8.207  1.00  0.00    -0.132 NA
ATOM     68  N   UNL     1      19.716  34.746   9.546  1.00  0.00    -0.252 N 
ATOM     69  N   UNL     1      20.023  34.982   8.255  1.00  0.00    -0.067 NA
BRANCH  68  70
ATOM     70  C   UNL     1      18.516  34.080   9.945  1.00  0.00     0.146 C 
BRANCH  70  71
ATOM     71  C   UNL     1      18.604  33.266  11.188  1.00  0.00     0.024 C 
BRANCH  71  72
ATOM     72  C   UNL     1      18.138  31.857  11.088  1.00  0.00     0.002 C 
BRANCH  72  73
ATOM     73  C   UNL     1      18.900  30.862  11.893  1.00  0.00     0.000 C 
BRANCH  73  74
ATOM     74  C   UNL     1      18.790  29.446  11.442  1.00  0.00     0.000 C 
BRANCH  74  75
ATOM     75  C   UNL     1      19.996  28.665  11.885  1.00  0.00     0.000 C 
BRANCH  75  76
ATOM     76  C   UNL     1      20.983  29.493  12.680  1.00  0.00     0.000 C 
BRANCH  76  77
ATOM     77  C   UNL     1      22.408  29.222  12.326  1.00  0.00     0.001 C 
BRANCH  77  78
ATOM     78  C   UNL     1      23.371  30.293  12.733  1.00  0.00     0.012 C 
BRANCH  78  79
ATOM     79  C   UNL     1      22.588  31.573  12.973  1.00  0.00     0.122 C 
BRANCH  79  80
ATOM     80  C   UNL     1      23.533  32.694  13.110  1.00  0.00     0.303 C 
ATOM     81  O   UNL     1      24.764  32.489  13.142  1.00  0.00    -0.252 OA
BRANCH  80  82
ATOM     82  O   UNL     1      23.090  34.005  13.209  1.00  0.00    -0.481 OA
ATOM     83  H   UNL     1      23.678  34.746  13.546  1.00  0.00     0.296 HD
ENDBRANCH  80  82
ENDBRANCH  79  80
ENDBRANCH  78  79
ENDBRANCH  77  78
ENDBRANCH  76  77
ENDBRANCH  75  76
ENDBRANCH  74  75
ENDBRANCH  73  74
ENDBRANCH  72  73
ENDBRANCH  71  72
ENDBRANCH  70  71
ENDBRANCH  68  70
ENDBRANCH  64  65
ENDBRANCH   1  64
TORSDOF 41
BEGIN_RES LYS A 131
REMARK  4 active torsions:
REMARK  status: ('A' for Active; 'I' for Inactive)
REMARK    1  A    between atoms: CA   and  CB  
REMARK    2  A    between atoms: CB   and  CG  
REMARK    3  A    between atoms: CG   and  CD  
REMARK    4  A    between atoms: CD   and  CE  
ROOT
ATOM      1  CA  LYS A 131      29.867  25.555  16.977  1.00 20.52     0.186 C 
ENDROOT
BRANCH   1   2
ATOM      2  CB  LYS A 131      28.345  25.722  17.026  1.00 20.94     0.034 C 
BRANCH   2   3
ATOM      3  CG  LYS A 131      27.599  24.436  16.705  1.00 22.96     0.005 C 
BRANCH   3   4
ATOM      4  CD  LYS A 131      26.212  24.426  17.286  1.00 24.33     0.041 C 
BRANCH   4   5
ATOM      5  CE  LYS A 131      26.213  23.642  18.594  1.00 26.91     0.338 C 
ATOM      6  NZ  LYS A 131      25.228  24.212  19.542  1.00 27.40     0.618 N 
ENDBRANCH   4   5
ENDBRANCH   3   4
ENDBRANCH   2   3
ENDBRANCH   1   2
END_RES LYS A 131
BEGIN_RES LYS A 135
REMARK  4 active torsions:
REMARK  status: ('A' for Active; 'I' for Inactive)
REMARK    5  A    between atoms: CA   and  CB  
REMARK    6  A    between atoms: CB   and  CG  
REMARK    7  A    between atoms: CG   and  CD  
REMARK    8  A    between atoms: CD   and  CE  
ROOT
ATOM      7  CA  LYS A 135      33.193  34.663   9.290  1.00 25.02     0.186 C 
ENDROOT
BRANCH   7   8
ATOM      8  CB  LYS A 135      32.060  35.360  10.034  1.00 26.63     0.034 C 
BRANCH   8   9
ATOM      9  CG  LYS A 135      30.733  35.277   9.325  1.00 29.45     0.005 C 
BRANCH   9  10
ATOM     10  CD  LYS A 135      30.232  36.665   8.958  1.00 32.00     0.041 C 
BRANCH  10  11
ATOM     11  CE  LYS A 135      29.116  36.576   7.935  1.00 34.25     0.338 C 
ATOM     12  NZ  LYS A 135      29.013  35.201   7.372  1.00 35.99     0.618 N 
ENDBRANCH  10  11
ENDBRANCH   9  10
ENDBRANCH   8   9
ENDBRANCH   7   8
END_RES LYS A 135
