REMARK VINA RESULT:    -3.972      5.932     11.873
REMARK INTER + INTRA:         -21.841
REMARK INTER:                  -7.880
REMARK INTRA:                 -13.961
REMARK UNBOUND:               -11.833
REMARK SMILES CC(=O)N[C@@H]1[C@@H](O)C[C@](OC[C@H]2O[C@@H](O[C@H]3[C@H](O)[C@@H](O)[C@H](OCCN=[N+]=[N-])O[C@@H]3CO)[C@H](O)[C@@H](O)[C@H]2O)(C(=O)O)O[C@H]1C(O)[C@H](O)CNC(=O)OCc1cn(-c2ccccc2C(N)=O)nn1
REMARK SMILES IDX 9 1 8 2 6 3 5 4 42 5 41 6 10 7 11 8 12 9 14 10 13 11 32 12
REMARK SMILES IDX 34 13 36 14 15 15 16 16 29 17 28 18 21 19 17 20 19 21 30 22
REMARK SMILES IDX 31 23 22 25 23 26 24 27 25 28 26 29 27 30 18 31 20 33 33 35
REMARK SMILES IDX 35 37 37 39 38 41 39 42 40 43 7 45 43 47 44 48 45 50 46 51
REMARK SMILES IDX 47 53 48 54 49 55 50 57 51 58 52 59 53 60 54 61 66 62 55 63
REMARK SMILES IDX 65 64 56 65 61 66 57 67 60 68 58 69 59 70 62 71 64 72 63 73
REMARK SMILES IDX 4 76 2 77 1 79 3 80
REMARK H PARENT 31 24 18 32 20 34 33 36 35 38 37 40 40 44 7 46 44 49 46 52
REMARK H PARENT 48 56 63 74 63 75 4 78
REMARK Flexibility Score: inf
ROOT
ATOM      1  C   UNL     1      28.034  31.610  17.344  1.00  0.00     0.272 C 
ATOM      2  C   UNL     1      28.301  31.510  15.815  1.00  0.00     0.113 C 
ATOM      3  C   UNL     1      29.796  31.538  15.673  1.00  0.00     0.145 C 
ATOM      4  C   UNL     1      30.299  32.895  15.972  1.00  0.00     0.142 C 
ATOM      5  C   UNL     1      29.372  33.474  17.056  1.00  0.00     0.178 C 
ATOM      6  O   UNL     1      28.952  32.476  17.915  1.00  0.00    -0.332 OA
ENDROOT
BRANCH   1   7
ATOM      7  O   UNL     1      28.243  30.321  17.796  1.00  0.00    -0.338 OA
BRANCH   7   8
ATOM      8  C   UNL     1      27.190  29.473  17.622  1.00  0.00     0.199 C 
BRANCH   8   9
ATOM      9  C   UNL     1      26.928  28.604  18.840  1.00  0.00     0.179 C 
ATOM     10  C   UNL     1      28.145  27.514  20.501  1.00  0.00     0.282 C 
ATOM     11  O   UNL     1      28.174  28.384  19.422  1.00  0.00    -0.341 OA
ATOM     12  C   UNL     1      26.796  27.092  20.951  1.00  0.00     0.202 C 
ATOM     13  C   UNL     1      25.728  28.143  20.887  1.00  0.00     0.179 C 
ATOM     14  C   UNL     1      26.051  29.243  19.866  1.00  0.00     0.177 C 
BRANCH  10  15
ATOM     15  O   UNL     1      28.824  28.131  21.536  1.00  0.00    -0.341 OA
BRANCH  15  16
ATOM     16  C   UNL     1      30.140  28.431  21.229  1.00  0.00     0.184 C 
ATOM     17  C   UNL     1      31.016  27.895  22.339  1.00  0.00     0.178 C 
ATOM     18  O   UNL     1      31.334  28.833  23.260  1.00  0.00    -0.341 OA
ATOM     19  C   UNL     1      32.100  29.839  22.795  1.00  0.00     0.281 C 
ATOM     20  C   UNL     1      30.237  29.953  21.197  1.00  0.00     0.180 C 
ATOM     21  C   UNL     1      31.607  30.423  21.532  1.00  0.00     0.202 C 
BRANCH  17  22
ATOM     22  C   UNL     1      32.256  27.271  21.759  1.00  0.00     0.191 C 
BRANCH  22  23
ATOM     23  O   UNL     1      33.089  26.756  22.758  1.00  0.00    -0.394 OA
ATOM     24  H   UNL     1      33.164  27.481  23.449  1.00  0.00     0.210 HD
ENDBRANCH  22  23
ENDBRANCH  17  22
BRANCH  19  25
ATOM     25  O   UNL     1      33.471  29.544  22.766  1.00  0.00    -0.350 OA
BRANCH  25  26
ATOM     26  C   UNL     1      34.192  30.329  21.901  1.00  0.00     0.169 C 
BRANCH  26  27
ATOM     27  C   UNL     1      35.203  31.131  22.648  1.00  0.00     0.119 C 
BRANCH  27  28
ATOM     28  N   UNL     1      35.578  32.283  21.868  1.00  0.00    -0.092 NA
ATOM     29  N   UNL     1      34.748  33.082  21.416  1.00  0.00     0.001 N 
ATOM     30  N   UNL     1      33.784  33.832  21.248  1.00  0.00    -0.003 NA
ENDBRANCH  27  28
ENDBRANCH  26  27
ENDBRANCH  25  26
ENDBRANCH  19  25
BRANCH  20  31
ATOM     31  O   UNL     1      29.887  30.425  19.936  1.00  0.00    -0.387 OA
ATOM     32  H   UNL     1      29.912  31.433  19.921  1.00  0.00     0.211 HD
ENDBRANCH  20  31
BRANCH  21  33
ATOM     33  O   UNL     1      31.548  31.832  21.675  1.00  0.00    -0.385 OA
ATOM     34  H   UNL     1      32.451  32.148  21.969  1.00  0.00     0.211 HD
ENDBRANCH  21  33
ENDBRANCH  15  16
ENDBRANCH  10  15
BRANCH  12  35
ATOM     35  O   UNL     1      26.374  25.895  20.333  1.00  0.00    -0.385 OA
ATOM     36  H   UNL     1      25.758  25.459  20.961  1.00  0.00     0.211 HD
ENDBRANCH  12  35
BRANCH  13  37
ATOM     37  O   UNL     1      25.582  28.775  22.123  1.00  0.00    -0.387 OA
ATOM     38  H   UNL     1      26.222  29.544  22.222  1.00  0.00     0.211 HD
ENDBRANCH  13  37
BRANCH  14  39
ATOM     39  O   UNL     1      26.795  30.247  20.512  1.00  0.00    -0.387 OA
ATOM     40  H   UNL     1      26.977  30.063  21.447  1.00  0.00     0.211 HD
ENDBRANCH  14  39
ENDBRANCH   8   9
ENDBRANCH   7   8
ENDBRANCH   1   7
BRANCH   1  41
ATOM     41  C   UNL     1      26.673  32.104  17.565  1.00  0.00     0.364 C 
ATOM     42  O   UNL     1      26.315  32.529  18.717  1.00  0.00    -0.246 OA
BRANCH  41  43
ATOM     43  O   UNL     1      25.749  32.117  16.516  1.00  0.00    -0.477 OA
ATOM     44  H   UNL     1      25.402  33.030  16.234  1.00  0.00     0.296 HD
ENDBRANCH  41  43
ENDBRANCH   1  41
BRANCH   3  45
ATOM     45  O   UNL     1      30.300  30.690  16.692  1.00  0.00    -0.391 OA
ATOM     46  H   UNL     1      31.109  30.228  16.350  1.00  0.00     0.211 HD
ENDBRANCH   3  45
BRANCH   5  47
ATOM     47  C   UNL     1      30.021  34.654  17.722  1.00  0.00     0.176 C 
BRANCH  47  48
ATOM     48  O   UNL     1      29.221  34.972  18.837  1.00  0.00    -0.388 OA
ATOM     49  H   UNL     1      28.553  35.665  18.585  1.00  0.00     0.211 HD
ENDBRANCH  47  48
BRANCH  47  50
ATOM     50  C   UNL     1      31.381  34.274  18.315  1.00  0.00     0.165 C 
BRANCH  50  51
ATOM     51  O   UNL     1      31.176  33.762  19.607  1.00  0.00    -0.388 OA
ATOM     52  H   UNL     1      31.274  32.777  19.523  1.00  0.00     0.211 HD
ENDBRANCH  50  51
BRANCH  50  53
ATOM     53  C   UNL     1      32.308  35.438  18.397  1.00  0.00     0.154 C 
BRANCH  53  54
ATOM     54  N   UNL     1      32.239  36.079  19.683  1.00  0.00    -0.319 N 
ATOM     55  C   UNL     1      31.419  37.197  19.970  1.00  0.00     0.407 C 
ATOM     56  H   UNL     1      32.846  35.679  20.456  1.00  0.00     0.167 HD
ATOM     57  O   UNL     1      30.654  37.755  19.181  1.00  0.00    -0.225 OA
BRANCH  55  58
ATOM     58  O   UNL     1      31.452  37.754  21.271  1.00  0.00    -0.443 OA
BRANCH  58  59
ATOM     59  C   UNL     1      31.929  36.964  22.362  1.00  0.00     0.294 C 
BRANCH  59  60
ATOM     60  C   UNL     1      30.868  36.075  22.871  1.00  0.00     0.121 A 
ATOM     61  C   UNL     1      30.954  34.747  23.214  1.00  0.00     0.144 A 
ATOM     62  N   UNL     1      29.587  36.414  23.093  1.00  0.00    -0.131 NA
ATOM     63  N   UNL     1      29.745  34.310  23.631  1.00  0.00    -0.220 N 
ATOM     64  N   UNL     1      28.930  35.364  23.542  1.00  0.00    -0.062 NA
BRANCH  63  65
ATOM     65  C   UNL     1      29.367  33.019  24.073  1.00  0.00     0.079 A 
ATOM     66  C   UNL     1      28.442  32.317  23.341  1.00  0.00     0.065 A 
ATOM     67  C   UNL     1      29.906  32.464  25.216  1.00  0.00     0.029 A 
ATOM     68  C   UNL     1      28.032  31.045  23.729  1.00  0.00     0.016 A 
ATOM     69  C   UNL     1      29.507  31.188  25.621  1.00  0.00     0.002 A 
ATOM     70  C   UNL     1      28.578  30.501  24.873  1.00  0.00     0.001 A 
BRANCH  66  71
ATOM     71  C   UNL     1      27.880  32.907  22.143  1.00  0.00     0.250 C 
ATOM     72  O   UNL     1      26.705  33.350  22.182  1.00  0.00    -0.269 OA
ATOM     73  N   UNL     1      28.573  33.016  20.920  1.00  0.00    -0.366 N 
ATOM     74  H   UNL     1      28.726  33.944  20.498  1.00  0.00     0.159 HD
ATOM     75  H   UNL     1      28.923  32.167  20.452  1.00  0.00     0.159 HD
ENDBRANCH  66  71
ENDBRANCH  63  65
ENDBRANCH  59  60
ENDBRANCH  58  59
ENDBRANCH  55  58
ENDBRANCH  53  54
ENDBRANCH  50  53
ENDBRANCH  47  50
ENDBRANCH   5  47
BRANCH   4  76
ATOM     76  N   UNL     1      30.345  33.822  14.911  1.00  0.00    -0.348 N 
ATOM     77  C   UNL     1      31.550  34.395  14.432  1.00  0.00     0.217 C 
ATOM     78  H   UNL     1      29.449  34.108  14.449  1.00  0.00     0.163 HD
ATOM     79  C   UNL     1      31.638  35.370  13.324  1.00  0.00     0.114 C 
ATOM     80  O   UNL     1      32.598  34.002  15.039  1.00  0.00    -0.275 OA
ENDBRANCH   4  76
TORSDOF 31
BEGIN_RES LYS A 131
REMARK  4 active torsions:
REMARK  status: ('A' for Active; 'I' for Inactive)
REMARK    1  A    between atoms: CA   and  CB  
REMARK    2  A    between atoms: CB   and  CG  
REMARK    3  A    between atoms: CG   and  CD  
REMARK    4  A    between atoms: CD   and  CE  
ROOT
ATOM      1  CA  LYS A 131      29.867  25.555  16.977  1.00 20.52     0.186 C 
ENDROOT
BRANCH   1   2
ATOM      2  CB  LYS A 131      28.345  25.722  17.026  1.00 20.94     0.034 C 
BRANCH   2   3
ATOM      3  CG  LYS A 131      27.601  24.401  16.898  1.00 22.96     0.005 C 
BRANCH   3   4
ATOM      4  CD  LYS A 131      26.134  24.547  17.192  1.00 24.33     0.041 C 
BRANCH   4   5
ATOM      5  CE  LYS A 131      25.536  23.176  17.491  1.00 26.91     0.338 C 
ATOM      6  NZ  LYS A 131      24.071  23.189  17.271  1.00 27.40     0.618 N 
ENDBRANCH   4   5
ENDBRANCH   3   4
ENDBRANCH   2   3
ENDBRANCH   1   2
END_RES LYS A 131
BEGIN_RES LYS A 135
REMARK  4 active torsions:
REMARK  status: ('A' for Active; 'I' for Inactive)
REMARK    5  A    between atoms: CA   and  CB  
REMARK    6  A    between atoms: CB   and  CG  
REMARK    7  A    between atoms: CG   and  CD  
REMARK    8  A    between atoms: CD   and  CE  
ROOT
ATOM      7  CA  LYS A 135      33.193  34.663   9.290  1.00 25.02     0.186 C 
ENDROOT
BRANCH   7   8
ATOM      8  CB  LYS A 135      32.060  35.360  10.034  1.00 26.63     0.034 C 
BRANCH   8   9
ATOM      9  CG  LYS A 135      30.709  34.737   9.795  1.00 29.45     0.005 C 
BRANCH   9  10
ATOM     10  CD  LYS A 135      30.463  34.543   8.307  1.00 32.00     0.041 C 
BRANCH  10  11
ATOM     11  CE  LYS A 135      29.015  34.834   7.964  1.00 34.25     0.338 C 
ATOM     12  NZ  LYS A 135      28.906  35.554   6.664  1.00 35.99     0.618 N 
ENDBRANCH  10  11
ENDBRANCH   9  10
ENDBRANCH   8   9
ENDBRANCH   7   8
END_RES LYS A 135
