REMARK VINA RESULT:    -3.738      3.494      8.934
REMARK INTER + INTRA:         -22.118
REMARK INTER:                  -9.707
REMARK INTRA:                 -12.411
REMARK UNBOUND:               -12.699
REMARK SMILES CC(=O)N[C@@H]1[C@@H](O)C[C@](OC[C@H]2O[C@@H](O[C@H]3[C@H](O)[C@@H](O)[C@H](OCCN=[N+]=[N-])O[C@@H]3CO)[C@H](O)[C@@H](O)[C@H]2O)(C(=O)O)O[C@H]1C(O)[C@H](O)CNC(=O)OCc1cn(Cc2ccc(Br)cc2)nn1
REMARK SMILES IDX 9 1 8 2 6 3 5 4 42 5 41 6 10 7 11 8 12 9 14 10 13 11 32 12
REMARK SMILES IDX 34 13 36 14 15 15 16 16 29 17 28 18 21 19 17 20 19 21 30 22
REMARK SMILES IDX 31 23 22 25 23 26 24 27 25 28 26 29 27 30 18 31 20 33 33 35
REMARK SMILES IDX 35 37 37 39 38 41 39 42 40 43 7 45 43 47 44 48 45 50 46 51
REMARK SMILES IDX 47 53 48 54 49 55 50 57 51 58 52 59 53 60 54 61 65 62 55 63
REMARK SMILES IDX 64 64 56 65 57 66 58 67 63 68 59 69 62 70 60 71 61 72 4 73
REMARK SMILES IDX 2 74 1 76 3 77
REMARK H PARENT 31 24 18 32 20 34 33 36 35 38 37 40 40 44 7 46 44 49 46 52
REMARK H PARENT 48 56 4 75
REMARK Flexibility Score: inf
ROOT
ATOM      1  C   UNL     1      25.542  30.388  16.996  1.00  0.00     0.272 C 
ATOM      2  C   UNL     1      26.219  30.393  15.673  1.00  0.00     0.113 C 
ATOM      3  C   UNL     1      27.612  30.880  15.591  1.00  0.00     0.145 C 
ATOM      4  C   UNL     1      28.037  31.773  16.787  1.00  0.00     0.142 C 
ATOM      5  C   UNL     1      26.735  32.407  17.191  1.00  0.00     0.178 C 
ATOM      6  O   UNL     1      26.073  31.348  17.875  1.00  0.00    -0.332 OA
ENDROOT
BRANCH   1   7
ATOM      7  O   UNL     1      25.226  29.245  17.595  1.00  0.00    -0.338 OA
BRANCH   7   8
ATOM      8  C   UNL     1      25.714  28.067  17.693  1.00  0.00     0.199 C 
BRANCH   8   9
ATOM      9  C   UNL     1      26.064  27.594  19.084  1.00  0.00     0.179 C 
ATOM     10  C   UNL     1      27.722  27.340  20.611  1.00  0.00     0.282 C 
ATOM     11  O   UNL     1      27.414  27.557  19.314  1.00  0.00    -0.341 OA
ATOM     12  C   UNL     1      26.591  26.882  21.513  1.00  0.00     0.202 C 
ATOM     13  C   UNL     1      25.368  27.758  21.363  1.00  0.00     0.179 C 
ATOM     14  C   UNL     1      25.480  28.593  20.095  1.00  0.00     0.177 C 
BRANCH  10  15
ATOM     15  O   UNL     1      28.392  28.312  21.276  1.00  0.00    -0.341 OA
BRANCH  15  16
ATOM     16  C   UNL     1      29.657  28.670  21.018  1.00  0.00     0.184 C 
ATOM     17  C   UNL     1      30.679  28.341  22.059  1.00  0.00     0.178 C 
ATOM     18  O   UNL     1      31.261  29.436  22.635  1.00  0.00    -0.341 OA
ATOM     19  C   UNL     1      31.958  30.249  21.753  1.00  0.00     0.281 C 
ATOM     20  C   UNL     1      29.712  30.156  20.734  1.00  0.00     0.180 C 
ATOM     21  C   UNL     1      31.154  30.531  20.499  1.00  0.00     0.202 C 
BRANCH  17  22
ATOM     22  C   UNL     1      31.703  27.398  21.471  1.00  0.00     0.191 C 
BRANCH  22  23
ATOM     23  O   UNL     1      31.373  27.042  20.148  1.00  0.00    -0.394 OA
ATOM     24  H   UNL     1      30.419  26.874  20.054  1.00  0.00     0.210 HD
ENDBRANCH  22  23
ENDBRANCH  17  22
BRANCH  19  25
ATOM     25  O   UNL     1      33.227  29.791  21.441  1.00  0.00    -0.350 OA
BRANCH  25  26
ATOM     26  C   UNL     1      34.201  30.073  22.361  1.00  0.00     0.169 C 
BRANCH  26  27
ATOM     27  C   UNL     1      34.559  31.528  22.447  1.00  0.00     0.119 C 
BRANCH  27  28
ATOM     28  N   UNL     1      35.709  31.810  21.597  1.00  0.00    -0.092 NA
ATOM     29  N   UNL     1      36.829  31.436  21.934  1.00  0.00     0.001 N 
ATOM     30  N   UNL     1      38.034  31.311  22.254  1.00  0.00    -0.003 NA
ENDBRANCH  27  28
ENDBRANCH  26  27
ENDBRANCH  25  26
ENDBRANCH  19  25
BRANCH  20  31
ATOM     31  O   UNL     1      29.032  30.355  19.516  1.00  0.00    -0.387 OA
ATOM     32  H   UNL     1      29.632  30.126  18.753  1.00  0.00     0.211 HD
ENDBRANCH  20  31
BRANCH  21  33
ATOM     33  O   UNL     1      31.293  31.849  20.079  1.00  0.00    -0.385 OA
ATOM     34  H   UNL     1      31.983  32.268  20.654  1.00  0.00     0.211 HD
ENDBRANCH  21  33
ENDBRANCH  15  16
ENDBRANCH  10  15
BRANCH  12  35
ATOM     35  O   UNL     1      26.230  25.559  21.322  1.00  0.00    -0.385 OA
ATOM     36  H   UNL     1      26.984  24.926  21.294  1.00  0.00     0.211 HD
ENDBRANCH  12  35
BRANCH  13  37
ATOM     37  O   UNL     1      25.137  28.568  22.468  1.00  0.00    -0.387 OA
ATOM     38  H   UNL     1      24.503  28.084  23.053  1.00  0.00     0.211 HD
ENDBRANCH  13  37
BRANCH  14  39
ATOM     39  O   UNL     1      26.435  29.607  20.233  1.00  0.00    -0.387 OA
ATOM     40  H   UNL     1      26.925  29.487  21.070  1.00  0.00     0.211 HD
ENDBRANCH  14  39
ENDBRANCH   8   9
ENDBRANCH   7   8
ENDBRANCH   1   7
BRANCH   1  41
ATOM     41  C   UNL     1      24.150  30.981  16.721  1.00  0.00     0.364 C 
ATOM     42  O   UNL     1      23.285  30.844  17.584  1.00  0.00    -0.246 OA
BRANCH  41  43
ATOM     43  O   UNL     1      23.846  31.649  15.565  1.00  0.00    -0.477 OA
ATOM     44  H   UNL     1      23.988  31.181  14.656  1.00  0.00     0.296 HD
ENDBRANCH  41  43
ENDBRANCH   1  41
BRANCH   3  45
ATOM     45  O   UNL     1      28.583  29.931  15.314  1.00  0.00    -0.391 OA
ATOM     46  H   UNL     1      29.458  30.302  15.558  1.00  0.00     0.211 HD
ENDBRANCH   3  45
BRANCH   5  47
ATOM     47  C   UNL     1      26.789  33.601  18.067  1.00  0.00     0.176 C 
BRANCH  47  48
ATOM     48  O   UNL     1      26.331  34.728  17.470  1.00  0.00    -0.388 OA
ATOM     49  H   UNL     1      27.020  35.384  17.313  1.00  0.00     0.211 HD
ENDBRANCH  47  48
BRANCH  47  50
ATOM     50  C   UNL     1      26.436  33.478  19.490  1.00  0.00     0.165 C 
BRANCH  50  51
ATOM     51  O   UNL     1      27.167  32.472  20.143  1.00  0.00    -0.388 OA
ATOM     52  H   UNL     1      27.104  31.595  19.738  1.00  0.00     0.211 HD
ENDBRANCH  50  51
BRANCH  50  53
ATOM     53  C   UNL     1      25.020  33.468  19.904  1.00  0.00     0.154 C 
BRANCH  53  54
ATOM     54  N   UNL     1      24.478  32.162  20.236  1.00  0.00    -0.319 N 
ATOM     55  C   UNL     1      23.790  31.927  21.454  1.00  0.00     0.407 C 
ATOM     56  H   UNL     1      24.564  31.333  19.597  1.00  0.00     0.167 HD
ATOM     57  O   UNL     1      23.624  32.879  22.282  1.00  0.00    -0.225 OA
BRANCH  55  58
ATOM     58  O   UNL     1      23.271  30.688  21.817  1.00  0.00    -0.443 OA
BRANCH  58  59
ATOM     59  C   UNL     1      21.854  30.444  21.725  1.00  0.00     0.294 C 
BRANCH  59  60
ATOM     60  C   UNL     1      21.536  29.327  20.820  1.00  0.00     0.120 A 
ATOM     61  C   UNL     1      20.838  29.437  19.634  1.00  0.00     0.138 A 
ATOM     62  N   UNL     1      21.844  28.038  20.969  1.00  0.00    -0.132 NA
ATOM     63  N   UNL     1      20.742  28.214  19.098  1.00  0.00    -0.248 N 
ATOM     64  N   UNL     1      21.357  27.393  19.925  1.00  0.00    -0.067 NA
BRANCH  63  65
ATOM     65  C   UNL     1      20.120  27.821  17.850  1.00  0.00     0.181 C 
BRANCH  65  66
ATOM     66  C   UNL     1      20.940  28.117  16.654  1.00  0.00    -0.026 A 
ATOM     67  C   UNL     1      20.474  29.089  15.764  1.00  0.00     0.007 A 
ATOM     68  C   UNL     1      22.131  27.513  16.368  1.00  0.00     0.007 A 
ATOM     69  C   UNL     1      21.211  29.413  14.638  1.00  0.00     0.016 A 
ATOM     70  C   UNL     1      22.884  27.831  15.237  1.00  0.00     0.016 A 
ATOM     71  C   UNL     1      22.416  28.785  14.376  1.00  0.00     0.017 A 
ATOM     72  Br  UNL     1      23.414  29.265  12.802  1.00  0.00    -0.051 Br
ENDBRANCH  65  66
ENDBRANCH  63  65
ENDBRANCH  59  60
ENDBRANCH  58  59
ENDBRANCH  55  58
ENDBRANCH  53  54
ENDBRANCH  50  53
ENDBRANCH  47  50
ENDBRANCH   5  47
BRANCH   4  73
ATOM     73  N   UNL     1      29.083  32.641  16.383  1.00  0.00    -0.348 N 
ATOM     74  C   UNL     1      30.437  32.288  16.604  1.00  0.00     0.217 C 
ATOM     75  H   UNL     1      28.870  33.534  15.908  1.00  0.00     0.163 HD
ATOM     76  C   UNL     1      31.595  33.102  16.224  1.00  0.00     0.114 C 
ATOM     77  O   UNL     1      30.679  31.168  17.180  1.00  0.00    -0.275 OA
ENDBRANCH   4  73
TORSDOF 31
BEGIN_RES LYS A 131
REMARK  4 active torsions:
REMARK  status: ('A' for Active; 'I' for Inactive)
REMARK    1  A    between atoms: CA   and  CB  
REMARK    2  A    between atoms: CB   and  CG  
REMARK    3  A    between atoms: CG   and  CD  
REMARK    4  A    between atoms: CD   and  CE  
ROOT
ATOM      1  CA  LYS A 131      29.867  25.555  16.977  1.00 20.52     0.186 C 
ENDROOT
BRANCH   1   2
ATOM      2  CB  LYS A 131      28.345  25.722  17.026  1.00 20.94     0.034 C 
BRANCH   2   3
ATOM      3  CG  LYS A 131      27.600  24.407  16.852  1.00 22.96     0.005 C 
BRANCH   3   4
ATOM      4  CD  LYS A 131      26.560  24.200  17.917  1.00 24.33     0.041 C 
BRANCH   4   5
ATOM      5  CE  LYS A 131      25.170  24.344  17.307  1.00 26.91     0.338 C 
ATOM      6  NZ  LYS A 131      24.504  23.023  17.215  1.00 27.40     0.618 N 
ENDBRANCH   4   5
ENDBRANCH   3   4
ENDBRANCH   2   3
ENDBRANCH   1   2
END_RES LYS A 131
BEGIN_RES LYS A 135
REMARK  4 active torsions:
REMARK  status: ('A' for Active; 'I' for Inactive)
REMARK    5  A    between atoms: CA   and  CB  
REMARK    6  A    between atoms: CB   and  CG  
REMARK    7  A    between atoms: CG   and  CD  
REMARK    8  A    between atoms: CD   and  CE  
ROOT
ATOM      7  CA  LYS A 135      33.193  34.663   9.290  1.00 25.02     0.186 C 
ENDROOT
BRANCH   7   8
ATOM      8  CB  LYS A 135      32.060  35.360  10.034  1.00 26.63     0.034 C 
BRANCH   8   9
ATOM      9  CG  LYS A 135      30.787  35.461   9.234  1.00 29.45     0.005 C 
BRANCH   9  10
ATOM     10  CD  LYS A 135      30.125  34.098   9.104  1.00 32.00     0.041 C 
BRANCH  10  11
ATOM     11  CE  LYS A 135      28.648  34.190   9.437  1.00 34.25     0.338 C 
ATOM     12  NZ  LYS A 135      28.440  34.441  10.890  1.00 35.99     0.618 N 
ENDBRANCH  10  11
ENDBRANCH   9  10
ENDBRANCH   8   9
ENDBRANCH   7   8
END_RES LYS A 135
