REMARK VINA RESULT:    -7.253      2.627      6.653
REMARK INTER + INTRA:         -20.755
REMARK INTER:                 -11.793
REMARK INTRA:                  -8.962
REMARK UNBOUND:                -1.206
REMARK SMILES CC(=O)N[C@@H]1[C@@H](O)C[C@](OC[C@H]2O[C@@H](O[C@H]3[C@H](O)[C@@H](O)[C@H](OCCN=[N+]=[N-])O[C@@H]3CO)[C@H](O)[C@@H](O)[C@H]2O)(C(=O)O)O[C@H]1C(O)[C@H](O)CNC(=O)OCc1cn(C2CCc3ccccc3NC2=O)nn1
REMARK SMILES IDX 43 1 42 2 9 3 8 4 41 5 6 6 5 7 10 8 11 9 12 10 14 11 13 12
REMARK SMILES IDX 32 13 34 14 36 15 15 16 16 17 29 18 28 19 21 20 17 21 19 22
REMARK SMILES IDX 30 23 31 24 22 26 23 27 24 28 25 29 26 30 27 31 18 32 20 34
REMARK SMILES IDX 33 36 35 38 37 40 38 42 39 43 40 44 7 46 4 48 2 49 1 51 3 52
REMARK SMILES IDX 44 53 45 55 46 56 47 58 48 59 49 60 50 62 51 63 52 64 53 65
REMARK SMILES IDX 54 66 69 67 55 68 68 69 56 70 57 71 66 73 65 74 67 75 64 77
REMARK SMILES IDX 59 78 63 79 60 80 62 81 61 82 58 83
REMARK H PARENT 31 25 18 33 20 35 33 37 35 39 37 41 40 45 7 47 4 50 44 54
REMARK H PARENT 46 57 48 61 65 76
REMARK Flexibility Score: 90.00
ROOT
ATOM      1  C   UNL     1      27.758  37.319   5.686  1.00  0.00     0.176 C 
ENDROOT
BRANCH   1   2
ATOM      2  C   UNL     1      29.004  36.962   6.522  1.00  0.00     0.178 C 
ATOM      3  C   UNL     1      28.923  35.471   8.382  1.00  0.00     0.272 C 
ATOM      4  C   UNL     1      29.218  36.580   9.308  1.00  0.00     0.113 C 
ATOM      5  O   UNL     1      28.992  35.737   7.013  1.00  0.00    -0.332 OA
ATOM      6  C   UNL     1      28.722  37.897   8.813  1.00  0.00     0.145 C 
ATOM      7  C   UNL     1      29.321  38.118   7.431  1.00  0.00     0.142 C 
BRANCH   3   8
ATOM      8  O   UNL     1      27.738  34.849   8.560  1.00  0.00    -0.338 OA
BRANCH   8   9
ATOM      9  C   UNL     1      27.258  34.430   9.719  1.00  0.00     0.199 C 
BRANCH   9  10
ATOM     10  C   UNL     1      26.990  35.262  10.896  1.00  0.00     0.179 C 
ATOM     11  C   UNL     1      25.703  37.092  11.487  1.00  0.00     0.282 C 
ATOM     12  O   UNL     1      25.860  36.076  10.546  1.00  0.00    -0.341 OA
ATOM     13  C   UNL     1      26.386  36.893  12.782  1.00  0.00     0.202 C 
ATOM     14  C   UNL     1      26.564  35.492  13.257  1.00  0.00     0.179 C 
ATOM     15  C   UNL     1      26.451  34.514  12.114  1.00  0.00     0.177 C 
BRANCH  11  16
ATOM     16  O   UNL     1      24.327  37.382  11.596  1.00  0.00    -0.341 OA
BRANCH  16  17
ATOM     17  C   UNL     1      23.651  37.171  10.424  1.00  0.00     0.184 C 
ATOM     18  C   UNL     1      23.015  38.391   9.812  1.00  0.00     0.178 C 
ATOM     19  O   UNL     1      22.517  37.982   8.573  1.00  0.00    -0.341 OA
ATOM     20  C   UNL     1      21.338  37.263   8.707  1.00  0.00     0.281 C 
ATOM     21  C   UNL     1      22.540  36.148  10.606  1.00  0.00     0.180 C 
ATOM     22  C   UNL     1      21.234  36.553  10.024  1.00  0.00     0.202 C 
BRANCH  18  23
ATOM     23  C   UNL     1      24.031  39.480   9.531  1.00  0.00     0.191 C 
BRANCH  23  24
ATOM     24  O   UNL     1      24.848  39.159   8.450  1.00  0.00    -0.394 OA
ATOM     25  H   UNL     1      24.350  38.810   7.680  1.00  0.00     0.210 HD
ENDBRANCH  23  24
ENDBRANCH  18  23
BRANCH  20  26
ATOM     26  O   UNL     1      21.224  36.403   7.631  1.00  0.00    -0.350 OA
BRANCH  26  27
ATOM     27  C   UNL     1      20.027  35.708   7.652  1.00  0.00     0.169 C 
BRANCH  27  28
ATOM     28  C   UNL     1      18.801  36.558   7.559  1.00  0.00     0.119 C 
BRANCH  28  29
ATOM     29  N   UNL     1      17.719  35.912   8.284  1.00  0.00    -0.092 NA
ATOM     30  N   UNL     1      17.701  35.859   9.527  1.00  0.00     0.001 N 
ATOM     31  N   UNL     1      17.575  36.301  10.678  1.00  0.00    -0.003 NA
ENDBRANCH  28  29
ENDBRANCH  27  28
ENDBRANCH  26  27
ENDBRANCH  20  26
BRANCH  21  32
ATOM     32  O   UNL     1      22.946  34.872  10.185  1.00  0.00    -0.387 OA
ATOM     33  H   UNL     1      22.708  34.767   9.228  1.00  0.00     0.211 HD
ENDBRANCH  21  32
BRANCH  22  34
ATOM     34  O   UNL     1      20.464  37.337  10.915  1.00  0.00    -0.385 OA
ATOM     35  H   UNL     1      19.910  36.791  11.503  1.00  0.00     0.211 HD
ENDBRANCH  22  34
ENDBRANCH  16  17
ENDBRANCH  11  16
BRANCH  13  36
ATOM     36  O   UNL     1      27.574  37.630  12.811  1.00  0.00    -0.385 OA
ATOM     37  H   UNL     1      27.393  38.564  12.530  1.00  0.00     0.211 HD
ENDBRANCH  13  36
BRANCH  14  38
ATOM     38  O   UNL     1      25.730  35.164  14.324  1.00  0.00    -0.387 OA
ATOM     39  H   UNL     1      26.012  34.261  14.626  1.00  0.00     0.211 HD
ENDBRANCH  14  38
BRANCH  15  40
ATOM     40  O   UNL     1      25.088  34.197  11.890  1.00  0.00    -0.387 OA
ATOM     41  H   UNL     1      24.958  33.304  12.277  1.00  0.00     0.211 HD
ENDBRANCH  15  40
ENDBRANCH   9  10
ENDBRANCH   8   9
ENDBRANCH   3   8
BRANCH   3  42
ATOM     42  C   UNL     1      30.074  34.498   8.520  1.00  0.00     0.364 C 
ATOM     43  O   UNL     1      30.144  33.715   9.439  1.00  0.00    -0.246 OA
BRANCH  42  44
ATOM     44  O   UNL     1      31.094  34.497   7.564  1.00  0.00    -0.477 OA
ATOM     45  H   UNL     1      30.920  34.676   6.589  1.00  0.00     0.296 HD
ENDBRANCH  42  44
ENDBRANCH   3  42
BRANCH   6  46
ATOM     46  O   UNL     1      27.323  37.808   8.718  1.00  0.00    -0.391 OA
ATOM     47  H   UNL     1      26.979  36.934   8.966  1.00  0.00     0.211 HD
ENDBRANCH   6  46
BRANCH   7  48
ATOM     48  N   UNL     1      30.707  38.403   7.589  1.00  0.00    -0.348 N 
ATOM     49  C   UNL     1      31.210  39.714   7.356  1.00  0.00     0.217 C 
ATOM     50  H   UNL     1      31.388  37.661   7.875  1.00  0.00     0.163 HD
ATOM     51  C   UNL     1      32.649  40.062   7.505  1.00  0.00     0.114 C 
ATOM     52  O   UNL     1      30.403  40.588   7.017  1.00  0.00    -0.275 OA
ENDBRANCH   7  48
ENDBRANCH   1   2
BRANCH   1  53
ATOM     53  O   UNL     1      26.622  36.775   6.292  1.00  0.00    -0.388 OA
ATOM     54  H   UNL     1      26.526  37.026   7.238  1.00  0.00     0.211 HD
ENDBRANCH   1  53
BRANCH   1  55
ATOM     55  C   UNL     1      27.551  38.783   5.541  1.00  0.00     0.165 C 
BRANCH  55  56
ATOM     56  O   UNL     1      26.346  39.260   6.044  1.00  0.00    -0.388 OA
ATOM     57  H   UNL     1      26.279  38.965   6.991  1.00  0.00     0.211 HD
ENDBRANCH  55  56
BRANCH  55  58
ATOM     58  C   UNL     1      27.718  39.343   4.167  1.00  0.00     0.154 C 
BRANCH  58  59
ATOM     59  N   UNL     1      27.164  40.646   3.959  1.00  0.00    -0.319 N 
ATOM     60  C   UNL     1      27.925  41.836   3.897  1.00  0.00     0.407 C 
ATOM     61  H   UNL     1      26.133  40.727   3.846  1.00  0.00     0.167 HD
ATOM     62  O   UNL     1      29.174  41.813   4.025  1.00  0.00    -0.225 OA
BRANCH  60  63
ATOM     63  O   UNL     1      27.281  43.033   3.692  1.00  0.00    -0.443 OA
BRANCH  63  64
ATOM     64  C   UNL     1      27.005  43.945   4.697  1.00  0.00     0.294 C 
BRANCH  64  65
ATOM     65  C   UNL     1      26.589  43.259   5.922  1.00  0.00     0.120 A 
ATOM     66  C   UNL     1      27.124  43.426   7.176  1.00  0.00     0.139 A 
ATOM     67  N   UNL     1      25.614  42.330   6.076  1.00  0.00    -0.132 NA
ATOM     68  N   UNL     1      26.479  42.615   8.051  1.00  0.00    -0.240 N 
ATOM     69  N   UNL     1      25.573  41.968   7.348  1.00  0.00    -0.066 NA
BRANCH  68  70
ATOM     70  C   UNL     1      26.741  42.489   9.495  1.00  0.00     0.198 C 
BRANCH  70  71
ATOM     71  C   UNL     1      27.303  41.133   9.701  1.00  0.00     0.042 CG0
ATOM     72  G   UNL     1      27.975  40.871  11.004  1.00  0.00     0.000 G0
ENDBRANCH  70  71
BRANCH  70  73
ATOM     73  C   UNL     1      27.610  43.617   9.842  1.00  0.00     0.249 C 
ATOM     74  N   UNL     1      29.015  43.664  10.041  1.00  0.00    -0.324 N 
ATOM     75  O   UNL     1      27.013  44.718   9.985  1.00  0.00    -0.272 OA
ATOM     76  H   UNL     1      29.509  44.574   9.915  1.00  0.00     0.170 HD
BRANCH  74  77
ATOM     77  C   UNL     1      29.814  42.519  10.408  1.00  0.00     0.044 A 
ATOM     78  C   UNL     1      29.400  41.264  10.839  1.00  0.00    -0.024 A 
ATOM     79  C   UNL     1      31.161  42.782  10.292  1.00  0.00     0.026 A 
ATOM     80  C   UNL     1      30.303  40.275  11.151  1.00  0.00     0.006 A 
ATOM     81  C   UNL     1      32.090  41.806  10.599  1.00  0.00     0.002 A 
ATOM     82  C   UNL     1      31.642  40.552  11.029  1.00  0.00     0.000 A 
BRANCH  78  83
ATOM     83  C   UNL     1      27.968  40.882  10.996  1.00  0.00     0.040 CG0
ATOM     84  G   UNL     1      27.306  41.133   9.687  1.00  0.00     0.000 G0
ENDBRANCH  78  83
ENDBRANCH  74  77
ENDBRANCH  70  73
ENDBRANCH  68  70
ENDBRANCH  64  65
ENDBRANCH  63  64
ENDBRANCH  60  63
ENDBRANCH  58  59
ENDBRANCH  55  58
ENDBRANCH   1  55
TORSDOF 30
BEGIN_RES LYS A 131
REMARK  4 active torsions:
REMARK  status: ('A' for Active; 'I' for Inactive)
REMARK    1  A    between atoms: CA   and  CB  
REMARK    2  A    between atoms: CB   and  CG  
REMARK    3  A    between atoms: CG   and  CD  
REMARK    4  A    between atoms: CD   and  CE  
ROOT
ATOM      1  CA  LYS A 131      29.867  25.555  16.977  1.00 20.52     0.186 C 
ENDROOT
BRANCH   1   2
ATOM      2  CB  LYS A 131      28.345  25.722  17.026  1.00 20.94     0.034 C 
BRANCH   2   3
ATOM      3  CG  LYS A 131      27.602  24.398  16.935  1.00 22.96     0.005 C 
BRANCH   3   4
ATOM      4  CD  LYS A 131      26.647  24.204  18.080  1.00 24.33     0.041 C 
BRANCH   4   5
ATOM      5  CE  LYS A 131      26.013  25.542  18.446  1.00 26.91     0.338 C 
ATOM      6  NZ  LYS A 131      24.754  25.743  17.689  1.00 27.40     0.618 N 
ENDBRANCH   4   5
ENDBRANCH   3   4
ENDBRANCH   2   3
ENDBRANCH   1   2
END_RES LYS A 131
BEGIN_RES LYS A 135
REMARK  4 active torsions:
REMARK  status: ('A' for Active; 'I' for Inactive)
REMARK    5  A    between atoms: CA   and  CB  
REMARK    6  A    between atoms: CB   and  CG  
REMARK    7  A    between atoms: CG   and  CD  
REMARK    8  A    between atoms: CD   and  CE  
ROOT
ATOM      7  CA  LYS A 135      33.193  34.663   9.290  1.00 25.02     0.186 C 
ENDROOT
BRANCH   7   8
ATOM      8  CB  LYS A 135      32.060  35.360  10.034  1.00 26.63     0.034 C 
BRANCH   8   9
ATOM      9  CG  LYS A 135      32.376  35.650  11.479  1.00 29.45     0.005 C 
BRANCH   9  10
ATOM     10  CD  LYS A 135      31.675  36.919  11.937  1.00 32.00     0.041 C 
BRANCH  10  11
ATOM     11  CE  LYS A 135      31.884  37.135  13.424  1.00 34.25     0.338 C 
ATOM     12  NZ  LYS A 135      32.276  35.868  14.101  1.00 35.99     0.618 N 
ENDBRANCH  10  11
ENDBRANCH   9  10
ENDBRANCH   8   9
ENDBRANCH   7   8
END_RES LYS A 135
