REMARK VINA RESULT:    -5.634      3.924      9.667
REMARK INTER + INTRA:         -21.772
REMARK INTER:                 -12.463
REMARK INTRA:                  -9.310
REMARK UNBOUND:                -7.575
REMARK SMILES CC(=O)N[C@@H]1[C@@H](O)C[C@](OC[C@H]2O[C@@H](O[C@H]3[C@H](O)[C@@H](O)[C@H](OCCN=[N+]=[N-])O[C@@H]3CO)[C@H](O)[C@@H](O)[C@H]2O)(C(=O)O)O[C@H]1C(O)[C@H](O)CNC(=O)OCc1cn(Cc2ccccc2Br)nn1
REMARK SMILES IDX 9 1 8 2 6 3 5 4 42 5 41 6 10 7 11 8 12 9 14 10 13 11 32 12
REMARK SMILES IDX 34 13 36 14 15 15 16 16 29 17 28 18 21 19 17 20 19 21 30 22
REMARK SMILES IDX 31 23 22 25 23 26 24 27 25 28 26 29 27 30 18 31 20 33 33 35
REMARK SMILES IDX 35 37 37 39 38 41 39 42 40 43 7 45 43 47 44 48 45 50 46 51
REMARK SMILES IDX 47 53 48 54 49 55 50 57 51 58 52 59 53 60 54 61 65 62 55 63
REMARK SMILES IDX 64 64 56 65 57 66 58 67 62 68 59 69 61 70 63 71 60 72 4 73
REMARK SMILES IDX 2 74 1 76 3 77
REMARK H PARENT 31 24 18 32 20 34 33 36 35 38 37 40 40 44 7 46 44 49 46 52
REMARK H PARENT 48 56 4 75
REMARK Flexibility Score: inf
ROOT
ATOM      1  C   UNL     1      22.769  38.791   9.382  1.00  0.00     0.272 C 
ATOM      2  C   UNL     1      22.165  39.030  10.709  1.00  0.00     0.113 C 
ATOM      3  C   UNL     1      21.216  37.949  11.081  1.00  0.00     0.145 C 
ATOM      4  C   UNL     1      21.929  36.627  11.044  1.00  0.00     0.142 C 
ATOM      5  C   UNL     1      22.956  36.519   9.984  1.00  0.00     0.178 C 
ATOM      6  O   UNL     1      23.640  37.627   9.627  1.00  0.00    -0.332 OA
ENDROOT
BRANCH   1   7
ATOM      7  O   UNL     1      23.624  39.736   8.947  1.00  0.00    -0.338 OA
BRANCH   7   8
ATOM      8  C   UNL     1      24.839  40.005   9.301  1.00  0.00     0.199 C 
BRANCH   8   9
ATOM      9  C   UNL     1      26.116  39.615   8.702  1.00  0.00     0.179 C 
ATOM     10  C   UNL     1      28.240  38.769   8.894  1.00  0.00     0.282 C 
ATOM     11  O   UNL     1      26.930  38.741   9.431  1.00  0.00    -0.341 OA
ATOM     12  C   UNL     1      28.199  37.929   7.647  1.00  0.00     0.202 C 
ATOM     13  C   UNL     1      27.079  38.331   6.752  1.00  0.00     0.179 C 
ATOM     14  C   UNL     1      26.207  39.460   7.227  1.00  0.00     0.177 C 
BRANCH  10  15
ATOM     15  O   UNL     1      29.065  38.273   9.858  1.00  0.00    -0.341 OA
BRANCH  15  16
ATOM     16  C   UNL     1      29.732  39.155  10.651  1.00  0.00     0.184 C 
ATOM     17  C   UNL     1      29.475  40.599  10.396  1.00  0.00     0.178 C 
ATOM     18  O   UNL     1      30.701  41.252  10.299  1.00  0.00    -0.341 OA
ATOM     19  C   UNL     1      31.330  40.723   9.144  1.00  0.00     0.281 C 
ATOM     20  C   UNL     1      31.228  38.886  10.718  1.00  0.00     0.180 C 
ATOM     21  C   UNL     1      31.926  39.379   9.466  1.00  0.00     0.202 C 
BRANCH  17  22
ATOM     22  C   UNL     1      28.724  41.265  11.547  1.00  0.00     0.191 C 
BRANCH  22  23
ATOM     23  O   UNL     1      27.586  40.530  11.879  1.00  0.00    -0.394 OA
ATOM     24  H   UNL     1      27.295  40.684  12.807  1.00  0.00     0.210 HD
ENDBRANCH  22  23
ENDBRANCH  17  22
BRANCH  19  25
ATOM     25  O   UNL     1      32.277  41.669   8.763  1.00  0.00    -0.350 OA
BRANCH  25  26
ATOM     26  C   UNL     1      32.022  42.172   7.487  1.00  0.00     0.169 C 
BRANCH  26  27
ATOM     27  C   UNL     1      33.315  42.098   6.694  1.00  0.00     0.119 C 
BRANCH  27  28
ATOM     28  N   UNL     1      33.391  40.793   6.086  1.00  0.00    -0.092 NA
ATOM     29  N   UNL     1      32.401  40.251   5.586  1.00  0.00     0.001 N 
ATOM     30  N   UNL     1      31.305  39.656   5.523  1.00  0.00    -0.003 NA
ENDBRANCH  27  28
ENDBRANCH  26  27
ENDBRANCH  25  26
ENDBRANCH  19  25
BRANCH  20  31
ATOM     31  O   UNL     1      31.809  39.576  11.784  1.00  0.00    -0.387 OA
ATOM     32  H   UNL     1      32.221  38.885  12.373  1.00  0.00     0.211 HD
ENDBRANCH  20  31
BRANCH  21  33
ATOM     33  O   UNL     1      31.883  38.480   8.432  1.00  0.00    -0.385 OA
ATOM     34  H   UNL     1      30.944  38.266   8.219  1.00  0.00     0.211 HD
ENDBRANCH  21  33
ENDBRANCH  15  16
ENDBRANCH  10  15
BRANCH  12  35
ATOM     35  O   UNL     1      29.377  38.076   6.897  1.00  0.00    -0.385 OA
ATOM     36  H   UNL     1      29.166  37.780   5.982  1.00  0.00     0.211 HD
ENDBRANCH  12  35
BRANCH  13  37
ATOM     37  O   UNL     1      26.259  37.218   6.523  1.00  0.00    -0.387 OA
ATOM     38  H   UNL     1      25.934  37.178   5.601  1.00  0.00     0.211 HD
ENDBRANCH  13  37
BRANCH  14  39
ATOM     39  O   UNL     1      24.972  39.290   6.620  1.00  0.00    -0.387 OA
ATOM     40  H   UNL     1      24.222  39.736   7.041  1.00  0.00     0.211 HD
ENDBRANCH  14  39
ENDBRANCH   8   9
ENDBRANCH   7   8
ENDBRANCH   1   7
BRANCH   1  41
ATOM     41  C   UNL     1      21.903  38.248   8.316  1.00  0.00     0.364 C 
ATOM     42  O   UNL     1      22.187  37.316   7.530  1.00  0.00    -0.246 OA
BRANCH  41  43
ATOM     43  O   UNL     1      20.648  38.805   8.134  1.00  0.00    -0.477 OA
ATOM     44  H   UNL     1      20.129  38.691   7.262  1.00  0.00     0.296 HD
ENDBRANCH  41  43
ENDBRANCH   1  41
BRANCH   3  45
ATOM     45  O   UNL     1      20.858  38.217  12.443  1.00  0.00    -0.391 OA
ATOM     46  H   UNL     1      21.634  38.120  13.028  1.00  0.00     0.211 HD
ENDBRANCH   3  45
BRANCH   5  47
ATOM     47  C   UNL     1      24.001  35.477  10.393  1.00  0.00     0.176 C 
BRANCH  47  48
ATOM     48  O   UNL     1      23.946  35.360  11.774  1.00  0.00    -0.388 OA
ATOM     49  H   UNL     1      23.406  34.611  12.082  1.00  0.00     0.211 HD
ENDBRANCH  47  48
BRANCH  47  50
ATOM     50  C   UNL     1      25.381  35.852   9.980  1.00  0.00     0.165 C 
BRANCH  50  51
ATOM     51  O   UNL     1      25.725  35.302   8.733  1.00  0.00    -0.388 OA
ATOM     52  H   UNL     1      26.670  35.004   8.740  1.00  0.00     0.211 HD
ENDBRANCH  50  51
BRANCH  50  53
ATOM     53  C   UNL     1      26.393  35.307  10.955  1.00  0.00     0.154 C 
BRANCH  53  54
ATOM     54  N   UNL     1      27.190  36.352  11.491  1.00  0.00    -0.319 N 
ATOM     55  C   UNL     1      26.936  36.993  12.722  1.00  0.00     0.407 C 
ATOM     56  H   UNL     1      28.031  36.667  10.924  1.00  0.00     0.167 HD
ATOM     57  O   UNL     1      25.959  36.668  13.442  1.00  0.00    -0.225 OA
BRANCH  55  58
ATOM     58  O   UNL     1      27.763  38.022  13.192  1.00  0.00    -0.443 OA
BRANCH  58  59
ATOM     59  C   UNL     1      28.633  37.833  14.276  1.00  0.00     0.294 C 
BRANCH  59  60
ATOM     60  C   UNL     1      29.674  36.805  14.050  1.00  0.00     0.120 A 
ATOM     61  C   UNL     1      30.383  36.171  15.082  1.00  0.00     0.138 A 
ATOM     62  N   UNL     1      30.147  36.281  12.916  1.00  0.00    -0.132 NA
ATOM     63  N   UNL     1      31.233  35.312  14.530  1.00  0.00    -0.248 N 
ATOM     64  N   UNL     1      31.074  35.394  13.205  1.00  0.00    -0.067 NA
BRANCH  63  65
ATOM     65  C   UNL     1      32.182  34.404  15.174  1.00  0.00     0.182 C 
BRANCH  65  66
ATOM     66  C   UNL     1      31.541  33.416  16.066  1.00  0.00    -0.012 A 
ATOM     67  C   UNL     1      31.036  32.248  15.469  1.00  0.00     0.007 A 
ATOM     68  C   UNL     1      31.386  33.577  17.416  1.00  0.00     0.023 A 
ATOM     69  C   UNL     1      30.411  31.324  16.250  1.00  0.00     0.000 A 
ATOM     70  C   UNL     1      30.746  32.628  18.197  1.00  0.00     0.016 A 
ATOM     71  Br  UNL     1      32.099  35.104  18.293  1.00  0.00    -0.050 Br
ATOM     72  C   UNL     1      30.259  31.496  17.599  1.00  0.00     0.001 A 
ENDBRANCH  65  66
ENDBRANCH  63  65
ENDBRANCH  59  60
ENDBRANCH  58  59
ENDBRANCH  55  58
ENDBRANCH  53  54
ENDBRANCH  50  53
ENDBRANCH  47  50
ENDBRANCH   5  47
BRANCH   4  73
ATOM     73  N   UNL     1      20.956  35.574  10.906  1.00  0.00    -0.348 N 
ATOM     74  C   UNL     1      20.662  34.636  11.941  1.00  0.00     0.217 C 
ATOM     75  H   UNL     1      20.409  35.441  10.029  1.00  0.00     0.163 HD
ATOM     76  C   UNL     1      19.638  33.565  11.728  1.00  0.00     0.114 C 
ATOM     77  O   UNL     1      21.275  34.735  13.012  1.00  0.00    -0.275 OA
ENDBRANCH   4  73
TORSDOF 31
BEGIN_RES LYS A 131
REMARK  4 active torsions:
REMARK  status: ('A' for Active; 'I' for Inactive)
REMARK    1  A    between atoms: CA   and  CB  
REMARK    2  A    between atoms: CB   and  CG  
REMARK    3  A    between atoms: CG   and  CD  
REMARK    4  A    between atoms: CD   and  CE  
ROOT
ATOM      1  CA  LYS A 131      29.867  25.555  16.977  1.00 20.52     0.186 C 
ENDROOT
BRANCH   1   2
ATOM      2  CB  LYS A 131      28.345  25.722  17.026  1.00 20.94     0.034 C 
BRANCH   2   3
ATOM      3  CG  LYS A 131      27.860  26.339  18.329  1.00 22.96     0.005 C 
BRANCH   3   4
ATOM      4  CD  LYS A 131      26.767  27.347  18.106  1.00 24.33     0.041 C 
BRANCH   4   5
ATOM      5  CE  LYS A 131      27.378  28.739  17.979  1.00 26.91     0.338 C 
ATOM      6  NZ  LYS A 131      27.385  29.175  16.562  1.00 27.40     0.618 N 
ENDBRANCH   4   5
ENDBRANCH   3   4
ENDBRANCH   2   3
ENDBRANCH   1   2
END_RES LYS A 131
BEGIN_RES LYS A 135
REMARK  4 active torsions:
REMARK  status: ('A' for Active; 'I' for Inactive)
REMARK    5  A    between atoms: CA   and  CB  
REMARK    6  A    between atoms: CB   and  CG  
REMARK    7  A    between atoms: CG   and  CD  
REMARK    8  A    between atoms: CD   and  CE  
ROOT
ATOM      7  CA  LYS A 135      33.193  34.663   9.290  1.00 25.02     0.186 C 
ENDROOT
BRANCH   7   8
ATOM      8  CB  LYS A 135      32.060  35.360  10.034  1.00 26.63     0.034 C 
BRANCH   8   9
ATOM      9  CG  LYS A 135      30.772  35.418   9.253  1.00 29.45     0.005 C 
BRANCH   9  10
ATOM     10  CD  LYS A 135      29.765  34.422   9.805  1.00 32.00     0.041 C 
BRANCH  10  11
ATOM     11  CE  LYS A 135      28.764  34.028   8.736  1.00 34.25     0.338 C 
ATOM     12  NZ  LYS A 135      29.012  34.772   7.470  1.00 35.99     0.618 N 
ENDBRANCH  10  11
ENDBRANCH   9  10
ENDBRANCH   8   9
ENDBRANCH   7   8
END_RES LYS A 135
