REMARK VINA RESULT:    -4.797      0.000      0.000
REMARK INTER + INTRA:         -23.459
REMARK INTER:                 -12.731
REMARK INTRA:                 -10.728
REMARK UNBOUND:               -10.809
REMARK SMILES COc1ccc(Cn2cc(COC(=O)NC[C@@H](O)C(O)[C@@H]3O[C@@](OC[C@H]4O[C@@H](O[C@H]5[C@H](O)[C@@H](O)[C@H](OCCN=[N+]=[N-])O[C@@H]5CO)[C@H](O)[C@@H](O)[C@H]4O)(C(=O)O)C[C@H](O)[C@H]3NC(C)=O)nn2)cc1OC
REMARK SMILES IDX 23 1 55 2 56 3 58 4 21 5 22 6 24 7 25 8 26 9 28 10 27 11
REMARK SMILES IDX 46 12 48 13 50 14 29 15 30 16 43 17 42 18 35 19 31 20 33 21
REMARK SMILES IDX 44 22 45 23 36 25 37 26 38 27 39 28 40 29 41 30 32 31 34 33
REMARK SMILES IDX 47 35 49 37 51 39 52 41 53 42 54 43 57 45 19 47 20 48 17 50
REMARK SMILES IDX 18 51 16 53 15 54 13 55 14 57 12 58 11 59 10 60 9 61 63 62
REMARK SMILES IDX 8 63 64 64 7 65 6 66 65 67 5 68 66 69 4 70 3 71 67 72 68 73
REMARK SMILES IDX 2 74 1 75 59 76 60 77 61 79 62 80
REMARK H PARENT 45 24 32 32 34 34 47 36 49 38 51 40 54 44 57 46 20 49 18 52
REMARK H PARENT 15 56 59 78
REMARK Flexibility Score: inf
ROOT
ATOM      1  C   UNL     1      29.118  36.122  14.273  1.00  0.00     0.272 C 
ATOM      2  C   UNL     1      28.117  36.093  15.414  1.00  0.00     0.113 C 
ATOM      3  C   UNL     1      28.547  36.576  16.751  1.00  0.00     0.145 C 
ATOM      4  C   UNL     1      30.069  36.521  16.850  1.00  0.00     0.142 C 
ATOM      5  C   UNL     1      30.475  35.382  16.003  1.00  0.00     0.178 C 
ATOM      6  O   UNL     1      30.418  35.755  14.673  1.00  0.00    -0.332 OA
ENDROOT
BRANCH   1   7
ATOM      7  O   UNL     1      29.153  37.454  13.880  1.00  0.00    -0.338 OA
BRANCH   7   8
ATOM      8  C   UNL     1      30.308  37.917  13.327  1.00  0.00     0.199 C 
BRANCH   8   9
ATOM      9  C   UNL     1      30.257  37.846  11.826  1.00  0.00     0.179 C 
ATOM     10  C   UNL     1      29.125  38.417   9.940  1.00  0.00     0.282 C 
ATOM     11  O   UNL     1      29.399  38.830  11.301  1.00  0.00    -0.341 OA
ATOM     12  C   UNL     1      30.306  38.640   9.114  1.00  0.00     0.202 C 
ATOM     13  C   UNL     1      31.585  38.161   9.778  1.00  0.00     0.179 C 
ATOM     14  C   UNL     1      31.623  38.252  11.253  1.00  0.00     0.177 C 
BRANCH  10  15
ATOM     15  O   UNL     1      27.993  39.106   9.555  1.00  0.00    -0.341 OA
BRANCH  15  16
ATOM     16  C   UNL     1      26.869  38.285   9.660  1.00  0.00     0.184 C 
ATOM     17  C   UNL     1      25.993  38.328   8.471  1.00  0.00     0.178 C 
ATOM     18  O   UNL     1      25.080  37.281   8.571  1.00  0.00    -0.341 OA
ATOM     19  C   UNL     1      24.646  37.065   9.830  1.00  0.00     0.281 C 
ATOM     20  C   UNL     1      26.090  38.755  10.894  1.00  0.00     0.180 C 
ATOM     21  C   UNL     1      24.642  38.270  10.744  1.00  0.00     0.202 C 
BRANCH  17  22
ATOM     22  C   UNL     1      26.756  38.274   7.167  1.00  0.00     0.191 C 
BRANCH  22  23
ATOM     23  O   UNL     1      26.341  37.114   6.515  1.00  0.00    -0.394 OA
ATOM     24  H   UNL     1      26.825  36.329   6.911  1.00  0.00     0.210 HD
ENDBRANCH  22  23
ENDBRANCH  17  22
BRANCH  19  25
ATOM     25  O   UNL     1      25.537  36.118  10.452  1.00  0.00    -0.350 OA
BRANCH  25  26
ATOM     26  C   UNL     1      24.846  34.890  10.503  1.00  0.00     0.169 C 
BRANCH  26  27
ATOM     27  C   UNL     1      23.560  34.973  11.305  1.00  0.00     0.119 C 
BRANCH  27  28
ATOM     28  N   UNL     1      23.852  34.691  12.683  1.00  0.00    -0.092 NA
ATOM     29  N   UNL     1      24.319  35.543  13.445  1.00  0.00     0.001 N 
ATOM     30  N   UNL     1      24.935  36.528  13.899  1.00  0.00    -0.003 NA
ENDBRANCH  27  28
ENDBRANCH  26  27
ENDBRANCH  25  26
ENDBRANCH  19  25
BRANCH  20  31
ATOM     31  O   UNL     1      26.627  38.103  11.992  1.00  0.00    -0.387 OA
ATOM     32  H   UNL     1      25.867  37.737  12.537  1.00  0.00     0.211 HD
ENDBRANCH  20  31
BRANCH  21  33
ATOM     33  O   UNL     1      23.907  39.282  10.175  1.00  0.00    -0.385 OA
ATOM     34  H   UNL     1      24.425  39.791   9.494  1.00  0.00     0.211 HD
ENDBRANCH  21  33
ENDBRANCH  15  16
ENDBRANCH  10  15
BRANCH  12  35
ATOM     35  O   UNL     1      30.226  37.963   7.908  1.00  0.00    -0.385 OA
ATOM     36  H   UNL     1      30.393  38.566   7.127  1.00  0.00     0.211 HD
ENDBRANCH  12  35
BRANCH  13  37
ATOM     37  O   UNL     1      32.660  38.882   9.193  1.00  0.00    -0.387 OA
ATOM     38  H   UNL     1      32.875  39.623   9.819  1.00  0.00     0.211 HD
ENDBRANCH  13  37
BRANCH  14  39
ATOM     39  O   UNL     1      31.826  39.581  11.686  1.00  0.00    -0.387 OA
ATOM     40  H   UNL     1      32.820  39.792  11.742  1.00  0.00     0.211 HD
ENDBRANCH  14  39
ENDBRANCH   8   9
ENDBRANCH   7   8
ENDBRANCH   1   7
BRANCH   1  41
ATOM     41  C   UNL     1      28.663  35.163  13.234  1.00  0.00     0.364 C 
ATOM     42  O   UNL     1      29.291  34.131  12.985  1.00  0.00    -0.246 OA
BRANCH  41  43
ATOM     43  O   UNL     1      27.492  35.354  12.453  1.00  0.00    -0.477 OA
ATOM     44  H   UNL     1      27.075  36.313  12.504  1.00  0.00     0.296 HD
ENDBRANCH  41  43
ENDBRANCH   1  41
BRANCH   3  45
ATOM     45  O   UNL     1      28.145  37.869  16.981  1.00  0.00    -0.391 OA
ATOM     46  H   UNL     1      27.642  38.221  16.190  1.00  0.00     0.211 HD
ENDBRANCH   3  45
BRANCH   5  47
ATOM     47  C   UNL     1      31.678  34.689  16.452  1.00  0.00     0.176 C 
BRANCH  47  48
ATOM     48  O   UNL     1      31.560  33.930  17.611  1.00  0.00    -0.388 OA
ATOM     49  H   UNL     1      31.651  34.415  18.439  1.00  0.00     0.211 HD
ENDBRANCH  47  48
BRANCH  47  50
ATOM     50  C   UNL     1      31.940  33.461  15.423  1.00  0.00     0.165 C 
BRANCH  50  51
ATOM     51  O   UNL     1      32.089  33.994  14.202  1.00  0.00    -0.388 OA
ATOM     52  H   UNL     1      32.082  34.996  14.202  1.00  0.00     0.211 HD
ENDBRANCH  50  51
BRANCH  50  53
ATOM     53  C   UNL     1      31.042  32.368  15.712  1.00  0.00     0.154 C 
BRANCH  53  54
ATOM     54  N   UNL     1      29.766  32.179  15.108  1.00  0.00    -0.319 N 
ATOM     55  C   UNL     1      28.640  32.357  15.948  1.00  0.00     0.407 C 
ATOM     56  H   UNL     1      29.581  31.915  14.143  1.00  0.00     0.167 HD
ATOM     57  O   UNL     1      28.790  32.659  17.178  1.00  0.00    -0.225 OA
BRANCH  55  58
ATOM     58  O   UNL     1      27.312  32.230  15.553  1.00  0.00    -0.443 OA
BRANCH  58  59
ATOM     59  C   UNL     1      26.364  31.817  16.596  1.00  0.00     0.294 C 
BRANCH  59  60
ATOM     60  C   UNL     1      25.403  30.965  15.838  1.00  0.00     0.120 A 
ATOM     61  C   UNL     1      25.283  30.941  14.428  1.00  0.00     0.138 A 
ATOM     62  N   UNL     1      24.570  30.050  16.319  1.00  0.00    -0.132 NA
ATOM     63  N   UNL     1      24.364  29.983  14.161  1.00  0.00    -0.248 N 
ATOM     64  N   UNL     1      23.953  29.470  15.267  1.00  0.00    -0.067 NA
BRANCH  63  65
ATOM     65  C   UNL     1      23.970  29.570  12.787  1.00  0.00     0.181 C 
BRANCH  65  66
ATOM     66  C   UNL     1      22.538  30.095  12.675  1.00  0.00    -0.023 A 
ATOM     67  C   UNL     1      22.240  31.437  12.765  1.00  0.00     0.056 A 
ATOM     68  C   UNL     1      21.572  29.196  12.357  1.00  0.00     0.010 A 
ATOM     69  C   UNL     1      20.884  31.779  12.497  1.00  0.00     0.161 A 
ATOM     70  C   UNL     1      20.215  29.561  12.093  1.00  0.00     0.051 A 
ATOM     71  C   UNL     1      19.932  30.898  12.178  1.00  0.00     0.160 A 
BRANCH  69  72
ATOM     72  O   UNL     1      20.514  33.123  12.578  1.00  0.00    -0.493 OA
ATOM     73  C   UNL     1      20.549  33.843  13.815  1.00  0.00     0.278 C 
ENDBRANCH  69  72
BRANCH  71  74
ATOM     74  O   UNL     1      18.615  31.363  11.904  1.00  0.00    -0.493 OA
ATOM     75  C   UNL     1      17.772  30.552  11.058  1.00  0.00     0.278 C 
ENDBRANCH  71  74
ENDBRANCH  65  66
ENDBRANCH  63  65
ENDBRANCH  59  60
ENDBRANCH  58  59
ENDBRANCH  55  58
ENDBRANCH  53  54
ENDBRANCH  50  53
ENDBRANCH  47  50
ENDBRANCH   5  47
BRANCH   4  76
ATOM     76  N   UNL     1      30.431  36.412  18.238  1.00  0.00    -0.348 N 
ATOM     77  C   UNL     1      30.816  37.558  18.942  1.00  0.00     0.217 C 
ATOM     78  H   UNL     1      30.405  35.503  18.779  1.00  0.00     0.163 HD
ATOM     79  C   UNL     1      31.245  37.610  20.373  1.00  0.00     0.114 C 
ATOM     80  O   UNL     1      30.843  38.734  18.395  1.00  0.00    -0.275 OA
ENDBRANCH   4  76
TORSDOF 33
BEGIN_RES LYS A 131
REMARK  4 active torsions:
REMARK  status: ('A' for Active; 'I' for Inactive)
REMARK    1  A    between atoms: CA   and  CB  
REMARK    2  A    between atoms: CB   and  CG  
REMARK    3  A    between atoms: CG   and  CD  
REMARK    4  A    between atoms: CD   and  CE  
ROOT
ATOM      1  CA  LYS A 131      29.867  25.555  16.977  1.00 20.52     0.186 C 
ENDROOT
BRANCH   1   2
ATOM      2  CB  LYS A 131      28.345  25.722  17.026  1.00 20.94     0.034 C 
BRANCH   2   3
ATOM      3  CG  LYS A 131      27.600  24.407  16.854  1.00 22.96     0.005 C 
BRANCH   3   4
ATOM      4  CD  LYS A 131      26.762  24.069  18.056  1.00 24.33     0.041 C 
BRANCH   4   5
ATOM      5  CE  LYS A 131      25.998  25.309  18.508  1.00 26.91     0.338 C 
ATOM      6  NZ  LYS A 131      24.777  25.494  17.689  1.00 27.40     0.618 N 
ENDBRANCH   4   5
ENDBRANCH   3   4
ENDBRANCH   2   3
ENDBRANCH   1   2
END_RES LYS A 131
BEGIN_RES LYS A 135
REMARK  4 active torsions:
REMARK  status: ('A' for Active; 'I' for Inactive)
REMARK    5  A    between atoms: CA   and  CB  
REMARK    6  A    between atoms: CB   and  CG  
REMARK    7  A    between atoms: CG   and  CD  
REMARK    8  A    between atoms: CD   and  CE  
ROOT
ATOM      7  CA  LYS A 135      33.193  34.663   9.290  1.00 25.02     0.186 C 
ENDROOT
BRANCH   7   8
ATOM      8  CB  LYS A 135      32.060  35.360  10.034  1.00 26.63     0.034 C 
BRANCH   8   9
ATOM      9  CG  LYS A 135      30.734  34.656   9.908  1.00 29.45     0.005 C 
BRANCH   9  10
ATOM     10  CD  LYS A 135      30.331  34.527   8.447  1.00 32.00     0.041 C 
BRANCH  10  11
ATOM     11  CE  LYS A 135      28.821  34.551   8.306  1.00 34.25     0.338 C 
ATOM     12  NZ  LYS A 135      28.167  33.807   9.418  1.00 35.99     0.618 N 
ENDBRANCH  10  11
ENDBRANCH   9  10
ENDBRANCH   8   9
ENDBRANCH   7   8
END_RES LYS A 135
