REMARK VINA RESULT:    -4.565      5.852     11.263
REMARK INTER + INTRA:         -21.900
REMARK INTER:                 -12.437
REMARK INTRA:                  -9.463
REMARK UNBOUND:               -10.664
REMARK SMILES CC(=O)N[C@@H]1[C@@H](O)C[C@](OC[C@H]2O[C@@H](O[C@H]3[C@H](O)[C@@H](O)[C@H](OCCN=[N+]=[N-])O[C@@H]3CO)[C@H](O)[C@@H](O)[C@H]2O)(C(=O)O)O[C@H]1C(O)[C@H](O)CNC(=O)OCc1cn(-c2ccc(Br)cc2)nn1
REMARK SMILES IDX 9 1 8 2 6 3 5 4 42 5 41 6 10 7 11 8 12 9 14 10 13 11 32 12
REMARK SMILES IDX 34 13 36 14 15 15 16 16 29 17 28 18 21 19 17 20 19 21 30 22
REMARK SMILES IDX 31 23 22 25 23 26 24 27 25 28 26 29 27 30 18 31 20 33 33 35
REMARK SMILES IDX 35 37 37 39 38 41 39 42 40 43 7 45 43 47 44 48 45 50 46 51
REMARK SMILES IDX 47 53 48 54 49 55 50 57 51 58 52 59 53 60 54 61 64 62 55 63
REMARK SMILES IDX 63 64 56 65 57 66 62 67 58 68 61 69 59 70 60 71 4 72 2 73
REMARK SMILES IDX 1 75 3 76
REMARK H PARENT 31 24 18 32 20 34 33 36 35 38 37 40 40 44 7 46 44 49 46 52
REMARK H PARENT 48 56 4 74
REMARK Flexibility Score: inf
ROOT
ATOM      1  C   UNL     1      25.015  38.106   8.248  1.00  0.00     0.272 C 
ATOM      2  C   UNL     1      24.105  39.350   8.058  1.00  0.00     0.113 C 
ATOM      3  C   UNL     1      24.977  40.508   7.742  1.00  0.00     0.145 C 
ATOM      4  C   UNL     1      25.773  40.136   6.475  1.00  0.00     0.142 C 
ATOM      5  C   UNL     1      26.701  39.030   6.920  1.00  0.00     0.178 C 
ATOM      6  O   UNL     1      25.890  37.956   7.211  1.00  0.00    -0.332 OA
ENDROOT
BRANCH   1   7
ATOM      7  O   UNL     1      24.094  37.054   8.207  1.00  0.00    -0.338 OA
BRANCH   7   8
ATOM      8  C   UNL     1      22.915  37.321   7.579  1.00  0.00     0.199 C 
BRANCH   8   9
ATOM      9  C   UNL     1      21.835  36.485   8.296  1.00  0.00     0.179 C 
ATOM     10  C   UNL     1      21.671  35.208  10.232  1.00  0.00     0.282 C 
ATOM     11  O   UNL     1      22.395  35.549   9.116  1.00  0.00    -0.341 OA
ATOM     12  C   UNL     1      20.221  35.453  10.122  1.00  0.00     0.202 C 
ATOM     13  C   UNL     1      19.816  36.804   9.624  1.00  0.00     0.179 C 
ATOM     14  C   UNL     1      21.006  37.507   9.057  1.00  0.00     0.177 C 
BRANCH  10  15
ATOM     15  O   UNL     1      22.323  35.791  11.319  1.00  0.00    -0.341 OA
BRANCH  15  16
ATOM     16  C   UNL     1      23.019  34.860  12.068  1.00  0.00     0.184 C 
ATOM     17  C   UNL     1      22.637  34.903  13.512  1.00  0.00     0.178 C 
ATOM     18  O   UNL     1      23.226  33.870  14.183  1.00  0.00    -0.341 OA
ATOM     19  C   UNL     1      24.290  33.240  13.615  1.00  0.00     0.281 C 
ATOM     20  C   UNL     1      24.524  35.176  12.049  1.00  0.00     0.180 C 
ATOM     21  C   UNL     1      25.255  34.129  12.863  1.00  0.00     0.202 C 
BRANCH  17  22
ATOM     22  C   UNL     1      21.133  34.750  13.641  1.00  0.00     0.191 C 
BRANCH  22  23
ATOM     23  O   UNL     1      20.512  35.976  13.609  1.00  0.00    -0.394 OA
ATOM     24  H   UNL     1      21.144  36.699  13.769  1.00  0.00     0.210 HD
ENDBRANCH  22  23
ENDBRANCH  17  22
BRANCH  19  25
ATOM     25  O   UNL     1      23.934  32.117  12.875  1.00  0.00    -0.350 OA
BRANCH  25  26
ATOM     26  C   UNL     1      24.072  30.923  13.555  1.00  0.00     0.169 C 
BRANCH  26  27
ATOM     27  C   UNL     1      23.740  29.710  12.752  1.00  0.00     0.119 C 
BRANCH  27  28
ATOM     28  N   UNL     1      22.567  29.057  13.307  1.00  0.00    -0.092 NA
ATOM     29  N   UNL     1      21.562  29.002  12.594  1.00  0.00     0.001 N 
ATOM     30  N   UNL     1      20.544  28.791  11.902  1.00  0.00    -0.003 NA
ENDBRANCH  27  28
ENDBRANCH  26  27
ENDBRANCH  25  26
ENDBRANCH  19  25
BRANCH  20  31
ATOM     31  O   UNL     1      24.976  35.285  10.746  1.00  0.00    -0.387 OA
ATOM     32  H   UNL     1      24.724  36.158  10.344  1.00  0.00     0.211 HD
ENDBRANCH  20  31
BRANCH  21  33
ATOM     33  O   UNL     1      26.199  34.649  13.720  1.00  0.00    -0.385 OA
ATOM     34  H   UNL     1      25.992  34.342  14.634  1.00  0.00     0.211 HD
ENDBRANCH  21  33
ENDBRANCH  15  16
ENDBRANCH  10  15
BRANCH  12  35
ATOM     35  O   UNL     1      19.698  34.430   9.284  1.00  0.00    -0.385 OA
ATOM     36  H   UNL     1      19.764  34.722   8.329  1.00  0.00     0.211 HD
ENDBRANCH  12  35
BRANCH  13  37
ATOM     37  O   UNL     1      19.291  37.586  10.680  1.00  0.00    -0.387 OA
ATOM     38  H   UNL     1      19.439  38.526  10.407  1.00  0.00     0.211 HD
ENDBRANCH  13  37
BRANCH  14  39
ATOM     39  O   UNL     1      21.756  38.156  10.034  1.00  0.00    -0.387 OA
ATOM     40  H   UNL     1      22.262  37.505  10.582  1.00  0.00     0.211 HD
ENDBRANCH  14  39
ENDBRANCH   8   9
ENDBRANCH   7   8
ENDBRANCH   1   7
BRANCH   1  41
ATOM     41  C   UNL     1      25.572  38.202   9.595  1.00  0.00     0.364 C 
ATOM     42  O   UNL     1      24.885  38.451  10.615  1.00  0.00    -0.246 OA
BRANCH  41  43
ATOM     43  O   UNL     1      26.924  38.013   9.808  1.00  0.00    -0.477 OA
ATOM     44  H   UNL     1      27.524  38.683  10.286  1.00  0.00     0.296 HD
ENDBRANCH  41  43
ENDBRANCH   1  41
BRANCH   3  45
ATOM     45  O   UNL     1      24.244  41.634   7.392  1.00  0.00    -0.391 OA
ATOM     46  H   UNL     1      24.722  42.438   7.683  1.00  0.00     0.211 HD
ENDBRANCH   3  45
BRANCH   5  47
ATOM     47  C   UNL     1      27.687  38.583   5.896  1.00  0.00     0.176 C 
BRANCH  47  48
ATOM     48  O   UNL     1      27.145  37.380   5.358  1.00  0.00    -0.388 OA
ATOM     49  H   UNL     1      27.890  36.850   4.976  1.00  0.00     0.211 HD
ENDBRANCH  47  48
BRANCH  47  50
ATOM     50  C   UNL     1      29.030  38.142   6.460  1.00  0.00     0.165 C 
BRANCH  50  51
ATOM     51  O   UNL     1      29.949  38.521   5.442  1.00  0.00    -0.388 OA
ATOM     52  H   UNL     1      29.924  39.524   5.338  1.00  0.00     0.211 HD
ENDBRANCH  50  51
BRANCH  50  53
ATOM     53  C   UNL     1      29.124  36.661   6.582  1.00  0.00     0.154 C 
BRANCH  53  54
ATOM     54  N   UNL     1      28.686  36.199   7.860  1.00  0.00    -0.319 N 
ATOM     55  C   UNL     1      27.613  35.279   8.077  1.00  0.00     0.407 C 
ATOM     56  H   UNL     1      29.168  36.542   8.752  1.00  0.00     0.167 HD
ATOM     57  O   UNL     1      26.991  34.835   7.084  1.00  0.00    -0.225 OA
BRANCH  55  58
ATOM     58  O   UNL     1      27.248  34.866   9.337  1.00  0.00    -0.443 OA
BRANCH  58  59
ATOM     59  C   UNL     1      28.153  34.147  10.135  1.00  0.00     0.294 C 
BRANCH  59  60
ATOM     60  C   UNL     1      28.514  34.973  11.309  1.00  0.00     0.121 A 
ATOM     61  C   UNL     1      29.531  34.651  12.217  1.00  0.00     0.144 A 
ATOM     62  N   UNL     1      28.001  36.127  11.761  1.00  0.00    -0.131 NA
ATOM     63  N   UNL     1      29.584  35.609  13.158  1.00  0.00    -0.220 N 
ATOM     64  N   UNL     1      28.648  36.485  12.855  1.00  0.00    -0.062 NA
BRANCH  63  65
ATOM     65  C   UNL     1      30.504  35.594  14.242  1.00  0.00     0.066 A 
ATOM     66  C   UNL     1      30.971  34.475  14.854  1.00  0.00     0.029 A 
ATOM     67  C   UNL     1      30.950  36.836  14.683  1.00  0.00     0.029 A 
ATOM     68  C   UNL     1      31.872  34.599  15.891  1.00  0.00     0.018 A 
ATOM     69  C   UNL     1      31.850  36.944  15.719  1.00  0.00     0.018 A 
ATOM     70  C   UNL     1      32.328  35.812  16.345  1.00  0.00     0.018 A 
ATOM     71  Br  UNL     1      33.578  35.939  17.781  1.00  0.00    -0.051 Br
ENDBRANCH  63  65
ENDBRANCH  59  60
ENDBRANCH  58  59
ENDBRANCH  55  58
ENDBRANCH  53  54
ENDBRANCH  50  53
ENDBRANCH  47  50
ENDBRANCH   5  47
BRANCH   4  72
ATOM     72  N   UNL     1      26.420  41.336   6.038  1.00  0.00    -0.348 N 
ATOM     73  C   UNL     1      26.396  41.762   4.683  1.00  0.00     0.217 C 
ATOM     74  H   UNL     1      26.926  41.920   6.727  1.00  0.00     0.163 HD
ATOM     75  C   UNL     1      27.058  42.998   4.201  1.00  0.00     0.114 C 
ATOM     76  O   UNL     1      25.780  41.061   3.816  1.00  0.00    -0.275 OA
ENDBRANCH   4  72
TORSDOF 30
BEGIN_RES LYS A 131
REMARK  4 active torsions:
REMARK  status: ('A' for Active; 'I' for Inactive)
REMARK    1  A    between atoms: CA   and  CB  
REMARK    2  A    between atoms: CB   and  CG  
REMARK    3  A    between atoms: CG   and  CD  
REMARK    4  A    between atoms: CD   and  CE  
ROOT
ATOM      1  CA  LYS A 131      29.867  25.555  16.977  1.00 20.52     0.186 C 
ENDROOT
BRANCH   1   2
ATOM      2  CB  LYS A 131      28.345  25.722  17.026  1.00 20.94     0.034 C 
BRANCH   2   3
ATOM      3  CG  LYS A 131      27.601  24.401  16.903  1.00 22.96     0.005 C 
BRANCH   3   4
ATOM      4  CD  LYS A 131      26.269  24.434  17.599  1.00 24.33     0.041 C 
BRANCH   4   5
ATOM      5  CE  LYS A 131      25.628  23.052  17.536  1.00 26.91     0.338 C 
ATOM      6  NZ  LYS A 131      24.632  22.892  18.623  1.00 27.40     0.618 N 
ENDBRANCH   4   5
ENDBRANCH   3   4
ENDBRANCH   2   3
ENDBRANCH   1   2
END_RES LYS A 131
BEGIN_RES LYS A 135
REMARK  4 active torsions:
REMARK  status: ('A' for Active; 'I' for Inactive)
REMARK    5  A    between atoms: CA   and  CB  
REMARK    6  A    between atoms: CB   and  CG  
REMARK    7  A    between atoms: CG   and  CD  
REMARK    8  A    between atoms: CD   and  CE  
ROOT
ATOM      7  CA  LYS A 135      33.193  34.663   9.290  1.00 25.02     0.186 C 
ENDROOT
BRANCH   7   8
ATOM      8  CB  LYS A 135      32.060  35.360  10.034  1.00 26.63     0.034 C 
BRANCH   8   9
ATOM      9  CG  LYS A 135      32.519  36.133  11.243  1.00 29.45     0.005 C 
BRANCH   9  10
ATOM     10  CD  LYS A 135      32.005  37.564  11.193  1.00 32.00     0.041 C 
BRANCH  10  11
ATOM     11  CE  LYS A 135      30.918  37.702  10.144  1.00 34.25     0.338 C 
ATOM     12  NZ  LYS A 135      31.245  38.781   9.171  1.00 35.99     0.618 N 
ENDBRANCH  10  11
ENDBRANCH   9  10
ENDBRANCH   8   9
ENDBRANCH   7   8
END_RES LYS A 135
