REMARK VINA RESULT:    -4.536      7.512     14.997
REMARK INTER + INTRA:         -22.878
REMARK INTER:                 -11.547
REMARK INTRA:                 -11.331
REMARK UNBOUND:               -11.447
REMARK SMILES CC(=O)N[C@@H]1[C@@H](O)C[C@](OC[C@H]2O[C@@H](O[C@H]3[C@H](O)[C@@H](O)[C@H](OCCN=[N+]=[N-])O[C@@H]3CO)[C@H](O)[C@@H](O)[C@H]2O)(C(=O)O)O[C@H]1C(O)[C@H](O)CNC(=O)OCc1cn(-c2ccccc2C(C)C)nn1
REMARK SMILES IDX 9 1 8 2 6 3 5 4 42 5 41 6 10 7 11 8 12 9 14 10 13 11 32 12
REMARK SMILES IDX 34 13 36 14 15 15 16 16 29 17 28 18 21 19 17 20 19 21 30 22
REMARK SMILES IDX 31 23 22 25 23 26 24 27 25 28 26 29 27 30 18 31 20 33 33 35
REMARK SMILES IDX 35 37 37 39 38 41 39 42 40 43 7 45 43 47 44 48 45 50 46 51
REMARK SMILES IDX 47 53 48 54 49 55 50 57 51 58 52 59 53 60 54 61 66 62 55 63
REMARK SMILES IDX 65 64 56 65 61 66 57 67 60 68 58 69 59 70 62 71 63 72 64 73
REMARK SMILES IDX 4 74 2 75 1 77 3 78
REMARK H PARENT 31 24 18 32 20 34 33 36 35 38 37 40 40 44 7 46 44 49 46 52
REMARK H PARENT 48 56 4 76
REMARK Flexibility Score: inf
ROOT
ATOM      1  C   UNL     1      31.264  28.509  22.397  1.00  0.00     0.272 C 
ATOM      2  C   UNL     1      31.474  27.263  23.227  1.00  0.00     0.113 C 
ATOM      3  C   UNL     1      32.417  27.625  24.365  1.00  0.00     0.145 C 
ATOM      4  C   UNL     1      33.794  27.892  23.732  1.00  0.00     0.142 C 
ATOM      5  C   UNL     1      33.591  28.845  22.615  1.00  0.00     0.178 C 
ATOM      6  O   UNL     1      32.327  29.410  22.706  1.00  0.00    -0.332 OA
ENDROOT
BRANCH   1   7
ATOM      7  O   UNL     1      30.162  29.190  22.761  1.00  0.00    -0.338 OA
BRANCH   7   8
ATOM      8  C   UNL     1      29.183  28.891  23.544  1.00  0.00     0.199 C 
BRANCH   8   9
ATOM      9  C   UNL     1      27.796  28.569  23.090  1.00  0.00     0.179 C 
ATOM     10  C   UNL     1      26.288  28.823  21.409  1.00  0.00     0.282 C 
ATOM     11  O   UNL     1      27.387  29.304  22.005  1.00  0.00    -0.341 OA
ATOM     12  C   UNL     1      25.460  27.827  22.209  1.00  0.00     0.202 C 
ATOM     13  C   UNL     1      26.296  26.675  22.698  1.00  0.00     0.179 C 
ATOM     14  C   UNL     1      27.740  27.081  22.673  1.00  0.00     0.177 C 
BRANCH  10  15
ATOM     15  O   UNL     1      26.402  28.341  20.140  1.00  0.00    -0.341 OA
BRANCH  15  16
ATOM     16  C   UNL     1      26.593  29.215  19.100  1.00  0.00     0.184 C 
ATOM     17  C   UNL     1      25.532  29.144  18.053  1.00  0.00     0.178 C 
ATOM     18  O   UNL     1      25.999  28.853  16.819  1.00  0.00    -0.341 OA
ATOM     19  C   UNL     1      26.985  29.608  16.263  1.00  0.00     0.281 C 
ATOM     20  C   UNL     1      27.944  29.214  18.509  1.00  0.00     0.180 C 
ATOM     21  C   UNL     1      27.938  30.163  17.322  1.00  0.00     0.202 C 
BRANCH  17  22
ATOM     22  C   UNL     1      24.688  30.424  17.951  1.00  0.00     0.191 C 
BRANCH  22  23
ATOM     23  O   UNL     1      24.971  31.199  19.099  1.00  0.00    -0.394 OA
ATOM     24  H   UNL     1      24.928  32.160  18.795  1.00  0.00     0.210 HD
ENDBRANCH  22  23
ENDBRANCH  17  22
BRANCH  19  25
ATOM     25  O   UNL     1      26.456  30.671  15.581  1.00  0.00    -0.350 OA
BRANCH  25  26
ATOM     26  C   UNL     1      26.895  31.919  15.891  1.00  0.00     0.169 C 
BRANCH  26  27
ATOM     27  C   UNL     1      26.046  33.077  15.518  1.00  0.00     0.119 C 
BRANCH  27  28
ATOM     28  N   UNL     1      26.203  34.170  16.417  1.00  0.00    -0.092 NA
ATOM     29  N   UNL     1      26.027  34.166  17.618  1.00  0.00     0.001 N 
ATOM     30  N   UNL     1      25.957  33.958  18.824  1.00  0.00    -0.003 NA
ENDBRANCH  27  28
ENDBRANCH  26  27
ENDBRANCH  25  26
ENDBRANCH  19  25
BRANCH  20  31
ATOM     31  O   UNL     1      28.949  29.668  19.361  1.00  0.00    -0.387 OA
ATOM     32  H   UNL     1      29.772  29.772  18.834  1.00  0.00     0.211 HD
ENDBRANCH  20  31
BRANCH  21  33
ATOM     33  O   UNL     1      29.210  30.246  16.751  1.00  0.00    -0.385 OA
ATOM     34  H   UNL     1      29.101  30.687  15.871  1.00  0.00     0.211 HD
ENDBRANCH  21  33
ENDBRANCH  15  16
ENDBRANCH  10  15
BRANCH  12  35
ATOM     35  O   UNL     1      24.883  28.507  23.268  1.00  0.00    -0.385 OA
ATOM     36  H   UNL     1      24.588  27.850  23.975  1.00  0.00     0.211 HD
ENDBRANCH  12  35
BRANCH  13  37
ATOM     37  O   UNL     1      26.064  25.560  21.881  1.00  0.00    -0.387 OA
ATOM     38  H   UNL     1      25.081  25.466  21.809  1.00  0.00     0.211 HD
ENDBRANCH  13  37
BRANCH  14  39
ATOM     39  O   UNL     1      28.227  27.002  21.385  1.00  0.00    -0.387 OA
ATOM     40  H   UNL     1      28.380  27.925  21.061  1.00  0.00     0.211 HD
ENDBRANCH  14  39
ENDBRANCH   8   9
ENDBRANCH   7   8
ENDBRANCH   1   7
BRANCH   1  41
ATOM     41  C   UNL     1      31.323  28.222  20.959  1.00  0.00     0.364 C 
ATOM     42  O   UNL     1      31.540  29.225  20.188  1.00  0.00    -0.246 OA
BRANCH  41  43
ATOM     43  O   UNL     1      31.173  27.023  20.315  1.00  0.00    -0.477 OA
ATOM     44  H   UNL     1      30.733  26.868  19.427  1.00  0.00     0.296 HD
ENDBRANCH  41  43
ENDBRANCH   1  41
BRANCH   3  45
ATOM     45  O   UNL     1      32.035  28.851  24.921  1.00  0.00    -0.391 OA
ATOM     46  H   UNL     1      31.950  28.714  25.897  1.00  0.00     0.211 HD
ENDBRANCH   3  45
BRANCH   5  47
ATOM     47  C   UNL     1      34.534  30.005  22.519  1.00  0.00     0.176 C 
BRANCH  47  48
ATOM     48  O   UNL     1      35.629  29.611  23.366  1.00  0.00    -0.388 OA
ATOM     49  H   UNL     1      36.094  30.494  23.512  1.00  0.00     0.211 HD
ENDBRANCH  47  48
BRANCH  47  50
ATOM     50  C   UNL     1      34.059  31.311  23.073  1.00  0.00     0.165 C 
BRANCH  50  51
ATOM     51  O   UNL     1      33.348  31.201  24.237  1.00  0.00    -0.388 OA
ATOM     52  H   UNL     1      32.533  31.755  24.128  1.00  0.00     0.211 HD
ENDBRANCH  50  51
BRANCH  50  53
ATOM     53  C   UNL     1      33.570  32.259  22.044  1.00  0.00     0.154 C 
BRANCH  53  54
ATOM     54  N   UNL     1      32.345  31.873  21.372  1.00  0.00    -0.319 N 
ATOM     55  C   UNL     1      31.092  32.421  21.739  1.00  0.00     0.407 C 
ATOM     56  H   UNL     1      32.331  31.180  20.593  1.00  0.00     0.167 HD
ATOM     57  O   UNL     1      30.942  33.261  22.655  1.00  0.00    -0.225 OA
BRANCH  55  58
ATOM     58  O   UNL     1      29.883  32.065  21.093  1.00  0.00    -0.443 OA
BRANCH  58  59
ATOM     59  C   UNL     1      29.181  33.018  20.354  1.00  0.00     0.294 C 
BRANCH  59  60
ATOM     60  C   UNL     1      29.763  33.077  18.984  1.00  0.00     0.121 A 
ATOM     61  C   UNL     1      29.574  33.991  17.971  1.00  0.00     0.144 A 
ATOM     62  N   UNL     1      30.648  32.176  18.452  1.00  0.00    -0.131 NA
ATOM     63  N   UNL     1      30.300  33.669  16.887  1.00  0.00    -0.220 N 
ATOM     64  N   UNL     1      30.947  32.544  17.224  1.00  0.00    -0.062 NA
BRANCH  63  65
ATOM     65  C   UNL     1      30.407  34.337  15.634  1.00  0.00     0.070 A 
ATOM     66  C   UNL     1      31.408  35.264  15.447  1.00  0.00    -0.020 A 
ATOM     67  C   UNL     1      29.546  34.116  14.583  1.00  0.00     0.029 A 
ATOM     68  C   UNL     1      31.537  35.942  14.251  1.00  0.00     0.006 A 
ATOM     69  C   UNL     1      29.662  34.786  13.379  1.00  0.00     0.002 A 
ATOM     70  C   UNL     1      30.671  35.713  13.209  1.00  0.00     0.000 A 
BRANCH  66  71
ATOM     71  C   UNL     1      32.360  35.523  16.546  1.00  0.00     0.015 C 
ATOM     72  C   UNL     1      31.989  36.852  17.187  1.00  0.00     0.012 C 
ATOM     73  C   UNL     1      33.778  35.663  15.969  1.00  0.00     0.012 C 
ENDBRANCH  66  71
ENDBRANCH  63  65
ENDBRANCH  59  60
ENDBRANCH  58  59
ENDBRANCH  55  58
ENDBRANCH  53  54
ENDBRANCH  50  53
ENDBRANCH  47  50
ENDBRANCH   5  47
BRANCH   4  74
ATOM     74  N   UNL     1      34.312  26.615  23.300  1.00  0.00    -0.348 N 
ATOM     75  C   UNL     1      35.579  26.105  23.625  1.00  0.00     0.217 C 
ATOM     76  H   UNL     1      33.689  26.014  22.683  1.00  0.00     0.163 HD
ATOM     77  C   UNL     1      35.973  24.757  23.092  1.00  0.00     0.114 C 
ATOM     78  O   UNL     1      36.362  26.748  24.336  1.00  0.00    -0.275 OA
ENDBRANCH   4  74
TORSDOF 31
BEGIN_RES LYS A 131
REMARK  4 active torsions:
REMARK  status: ('A' for Active; 'I' for Inactive)
REMARK    1  A    between atoms: CA   and  CB  
REMARK    2  A    between atoms: CB   and  CG  
REMARK    3  A    between atoms: CG   and  CD  
REMARK    4  A    between atoms: CD   and  CE  
ROOT
ATOM      1  CA  LYS A 131      29.867  25.555  16.977  1.00 20.52     0.186 C 
ENDROOT
BRANCH   1   2
ATOM      2  CB  LYS A 131      28.345  25.722  17.026  1.00 20.94     0.034 C 
BRANCH   2   3
ATOM      3  CG  LYS A 131      27.605  24.393  17.034  1.00 22.96     0.005 C 
BRANCH   3   4
ATOM      4  CD  LYS A 131      26.124  24.571  17.226  1.00 24.33     0.041 C 
BRANCH   4   5
ATOM      5  CE  LYS A 131      25.866  25.322  18.528  1.00 26.91     0.338 C 
ATOM      6  NZ  LYS A 131      24.459  25.782  18.592  1.00 27.40     0.618 N 
ENDBRANCH   4   5
ENDBRANCH   3   4
ENDBRANCH   2   3
ENDBRANCH   1   2
END_RES LYS A 131
BEGIN_RES LYS A 135
REMARK  4 active torsions:
REMARK  status: ('A' for Active; 'I' for Inactive)
REMARK    5  A    between atoms: CA   and  CB  
REMARK    6  A    between atoms: CB   and  CG  
REMARK    7  A    between atoms: CG   and  CD  
REMARK    8  A    between atoms: CD   and  CE  
ROOT
ATOM      7  CA  LYS A 135      33.193  34.663   9.290  1.00 25.02     0.186 C 
ENDROOT
BRANCH   7   8
ATOM      8  CB  LYS A 135      32.060  35.360  10.034  1.00 26.63     0.034 C 
BRANCH   8   9
ATOM      9  CG  LYS A 135      30.703  34.764   9.760  1.00 29.45     0.005 C 
BRANCH   9  10
ATOM     10  CD  LYS A 135      30.516  34.518   8.271  1.00 32.00     0.041 C 
BRANCH  10  11
ATOM     11  CE  LYS A 135      29.118  34.916   7.837  1.00 34.25     0.338 C 
ATOM     12  NZ  LYS A 135      28.724  36.223   8.432  1.00 35.99     0.618 N 
ENDBRANCH  10  11
ENDBRANCH   9  10
ENDBRANCH   8   9
ENDBRANCH   7   8
END_RES LYS A 135
