REMARK VINA RESULT:    -3.323      2.463      5.615
REMARK INTER + INTRA:         -23.074
REMARK INTER:                 -10.504
REMARK INTRA:                 -12.570
REMARK UNBOUND:               -13.729
REMARK SMILES CCOC(CCn1cc(COC(=O)NC[C@@H](O)C(O)[C@@H]2O[C@@](OC[C@H]3O[C@@H](O[C@H]4[C@H](O)[C@@H](O)[C@H](OCCN=[N+]=[N-])O[C@@H]4CO)[C@H](O)[C@@H](O)[C@H]3O)(C(=O)O)C[C@H](O)[C@H]2NC(C)=O)nn1)OCC
REMARK SMILES IDX 18 1 20 2 22 3 54 4 21 5 55 6 57 7 23 8 24 9 25 10 27 11
REMARK SMILES IDX 26 12 45 13 47 14 49 15 28 16 29 17 42 18 41 19 34 20 30 21
REMARK SMILES IDX 32 22 43 23 44 24 35 26 36 27 37 28 38 29 39 30 40 31 31 32
REMARK SMILES IDX 33 34 46 36 48 38 50 40 51 42 52 43 53 44 56 46 58 48 59 49
REMARK SMILES IDX 60 51 61 52 19 53 16 55 17 56 15 58 14 59 12 60 13 62 11 63
REMARK SMILES IDX 10 64 9 65 8 66 62 67 7 68 63 69 6 70 5 71 4 72 3 73 2 74
REMARK SMILES IDX 1 75 64 76 65 77 66 78
REMARK H PARENT 44 25 31 33 33 35 46 37 48 39 50 41 53 45 56 47 58 50 19 54
REMARK H PARENT 17 57 14 61
REMARK Flexibility Score: inf
ROOT
ATOM      1  C   UNL     1      28.810  39.082  12.192  1.00  0.00     0.176 C 
ENDROOT
BRANCH   1   2
ATOM      2  C   UNL     1      28.240  37.893  12.908  1.00  0.00     0.178 C 
ATOM      3  C   UNL     1      28.089  35.585  12.885  1.00  0.00     0.272 C 
ATOM      4  C   UNL     1      27.403  35.887  14.170  1.00  0.00     0.113 C 
ATOM      5  O   UNL     1      28.533  36.738  12.199  1.00  0.00    -0.332 OA
ATOM      6  C   UNL     1      26.402  36.988  14.137  1.00  0.00     0.145 C 
ATOM      7  C   UNL     1      26.710  37.936  12.971  1.00  0.00     0.142 C 
BRANCH   3   8
ATOM      8  O   UNL     1      27.476  34.793  12.001  1.00  0.00    -0.338 OA
BRANCH   8   9
ATOM      9  C   UNL     1      27.211  35.194  10.745  1.00  0.00     0.199 C 
BRANCH   9  10
ATOM     10  C   UNL     1      25.724  35.193  10.470  1.00  0.00     0.179 C 
ATOM     11  C   UNL     1      23.657  34.937  11.311  1.00  0.00     0.282 C 
ATOM     12  O   UNL     1      24.951  35.455  11.586  1.00  0.00    -0.341 OA
ATOM     13  C   UNL     1      23.021  35.807  10.292  1.00  0.00     0.202 C 
ATOM     14  C   UNL     1      23.891  35.868   9.059  1.00  0.00     0.179 C 
ATOM     15  C   UNL     1      25.343  36.148   9.345  1.00  0.00     0.177 C 
BRANCH  11  16
ATOM     16  O   UNL     1      22.956  34.818  12.515  1.00  0.00    -0.341 OA
BRANCH  16  17
ATOM     17  C   UNL     1      22.809  33.500  12.814  1.00  0.00     0.184 C 
ATOM     18  C   UNL     1      21.529  33.036  13.393  1.00  0.00     0.178 C 
ATOM     19  O   UNL     1      21.468  31.643  13.246  1.00  0.00    -0.341 OA
ATOM     20  C   UNL     1      22.429  31.024  14.059  1.00  0.00     0.281 C 
ATOM     21  C   UNL     1      23.884  33.055  13.857  1.00  0.00     0.180 C 
ATOM     22  C   UNL     1      23.830  31.522  13.775  1.00  0.00     0.202 C 
BRANCH  18  23
ATOM     23  C   UNL     1      20.353  33.633  12.680  1.00  0.00     0.191 C 
BRANCH  23  24
ATOM     24  O   UNL     1      20.415  33.438  11.300  1.00  0.00    -0.394 OA
ATOM     25  H   UNL     1      20.481  34.270  10.801  1.00  0.00     0.210 HD
ENDBRANCH  23  24
ENDBRANCH  18  23
BRANCH  20  26
ATOM     26  O   UNL     1      22.389  29.674  13.760  1.00  0.00    -0.350 OA
BRANCH  26  27
ATOM     27  C   UNL     1      21.633  28.889  14.576  1.00  0.00     0.169 C 
BRANCH  27  28
ATOM     28  C   UNL     1      22.477  27.804  15.191  1.00  0.00     0.119 C 
BRANCH  28  29
ATOM     29  N   UNL     1      23.575  28.415  15.936  1.00  0.00    -0.092 NA
ATOM     30  N   UNL     1      23.239  28.943  17.017  1.00  0.00     0.001 N 
ATOM     31  N   UNL     1      23.086  29.819  17.870  1.00  0.00    -0.003 NA
ENDBRANCH  28  29
ENDBRANCH  27  28
ENDBRANCH  26  27
ENDBRANCH  20  26
BRANCH  21  32
ATOM     32  O   UNL     1      25.128  33.515  13.516  1.00  0.00    -0.387 OA
ATOM     33  H   UNL     1      25.736  32.799  13.209  1.00  0.00     0.211 HD
ENDBRANCH  21  32
BRANCH  22  34
ATOM     34  O   UNL     1      24.702  30.948  14.661  1.00  0.00    -0.385 OA
ATOM     35  H   UNL     1      24.181  30.758  15.502  1.00  0.00     0.211 HD
ENDBRANCH  22  34
ENDBRANCH  16  17
ENDBRANCH  11  16
BRANCH  13  36
ATOM     36  O   UNL     1      21.792  35.282   9.864  1.00  0.00    -0.385 OA
ATOM     37  H   UNL     1      21.064  35.506  10.486  1.00  0.00     0.211 HD
ENDBRANCH  13  36
BRANCH  14  38
ATOM     38  O   UNL     1      23.366  36.721   8.094  1.00  0.00    -0.387 OA
ATOM     39  H   UNL     1      24.030  36.907   7.377  1.00  0.00     0.211 HD
ENDBRANCH  14  38
BRANCH  15  40
ATOM     40  O   UNL     1      25.564  37.454   9.755  1.00  0.00    -0.387 OA
ATOM     41  H   UNL     1      24.904  38.066   9.359  1.00  0.00     0.211 HD
ENDBRANCH  15  40
ENDBRANCH   9  10
ENDBRANCH   8   9
ENDBRANCH   3   8
BRANCH   3  42
ATOM     42  C   UNL     1      29.371  34.898  13.246  1.00  0.00     0.364 C 
ATOM     43  O   UNL     1      30.476  35.340  12.880  1.00  0.00    -0.246 OA
BRANCH  42  44
ATOM     44  O   UNL     1      29.379  33.735  14.009  1.00  0.00    -0.477 OA
ATOM     45  H   UNL     1      30.274  33.313  14.233  1.00  0.00     0.296 HD
ENDBRANCH  42  44
ENDBRANCH   3  42
BRANCH   6  46
ATOM     46  O   UNL     1      25.091  36.580  14.105  1.00  0.00    -0.391 OA
ATOM     47  H   UNL     1      24.496  37.072  14.723  1.00  0.00     0.211 HD
ENDBRANCH   6  46
BRANCH   7  48
ATOM     48  N   UNL     1      26.186  39.246  13.180  1.00  0.00    -0.348 N 
ATOM     49  C   UNL     1      24.912  39.558  12.628  1.00  0.00     0.217 C 
ATOM     50  H   UNL     1      26.684  39.982  13.716  1.00  0.00     0.163 HD
ATOM     51  C   UNL     1      24.339  40.914  12.828  1.00  0.00     0.114 C 
ATOM     52  O   UNL     1      24.249  38.694  11.962  1.00  0.00    -0.275 OA
ENDBRANCH   7  48
ENDBRANCH   1   2
BRANCH   1  53
ATOM     53  O   UNL     1      28.395  40.217  12.913  1.00  0.00    -0.388 OA
ATOM     54  H   UNL     1      28.847  41.038  12.559  1.00  0.00     0.211 HD
ENDBRANCH   1  53
BRANCH   1  55
ATOM     55  C   UNL     1      30.320  39.017  12.312  1.00  0.00     0.165 C 
BRANCH  55  56
ATOM     56  O   UNL     1      30.825  37.956  11.619  1.00  0.00    -0.388 OA
ATOM     57  H   UNL     1      30.694  38.001  10.639  1.00  0.00     0.211 HD
ENDBRANCH  55  56
BRANCH  55  58
ATOM     58  C   UNL     1      30.728  38.952  13.757  1.00  0.00     0.154 C 
BRANCH  58  59
ATOM     59  N   UNL     1      31.613  37.880  14.106  1.00  0.00    -0.319 N 
ATOM     60  C   UNL     1      31.669  37.252  15.360  1.00  0.00     0.407 C 
ATOM     61  H   UNL     1      32.268  37.556  13.330  1.00  0.00     0.167 HD
ATOM     62  O   UNL     1      30.935  37.566  16.312  1.00  0.00    -0.225 OA
BRANCH  60  63
ATOM     63  O   UNL     1      32.591  36.207  15.596  1.00  0.00    -0.443 OA
BRANCH  63  64
ATOM     64  C   UNL     1      32.474  35.439  16.802  1.00  0.00     0.294 C 
BRANCH  64  65
ATOM     65  C   UNL     1      31.903  34.111  16.460  1.00  0.00     0.120 A 
ATOM     66  C   UNL     1      31.121  33.307  17.255  1.00  0.00     0.138 A 
ATOM     67  N   UNL     1      32.064  33.462  15.305  1.00  0.00    -0.132 NA
ATOM     68  N   UNL     1      30.843  32.198  16.538  1.00  0.00    -0.252 N 
ATOM     69  N   UNL     1      31.429  32.325  15.362  1.00  0.00    -0.067 NA
BRANCH  68  70
ATOM     70  C   UNL     1      30.045  31.108  17.019  1.00  0.00     0.151 C 
BRANCH  70  71
ATOM     71  C   UNL     1      28.607  31.450  17.281  1.00  0.00     0.086 C 
BRANCH  71  72
ATOM     72  C   UNL     1      27.788  31.157  16.024  1.00  0.00     0.251 C 
BRANCH  72  73
ATOM     73  O   UNL     1      27.233  32.359  15.627  1.00  0.00    -0.353 OA
BRANCH  73  74
ATOM     74  C   UNL     1      27.094  33.252  16.681  1.00  0.00     0.160 C 
ATOM     75  C   UNL     1      25.636  33.483  17.025  1.00  0.00     0.035 C 
ENDBRANCH  73  74
ENDBRANCH  72  73
BRANCH  72  76
ATOM     76  O   UNL     1      26.915  30.126  16.205  1.00  0.00    -0.353 OA
BRANCH  76  77
ATOM     77  C   UNL     1      26.811  29.603  17.465  1.00  0.00     0.160 C 
ATOM     78  C   UNL     1      27.008  28.107  17.401  1.00  0.00     0.035 C 
ENDBRANCH  76  77
ENDBRANCH  72  76
ENDBRANCH  71  72
ENDBRANCH  70  71
ENDBRANCH  68  70
ENDBRANCH  64  65
ENDBRANCH  63  64
ENDBRANCH  60  63
ENDBRANCH  58  59
ENDBRANCH  55  58
ENDBRANCH   1  55
TORSDOF 36
BEGIN_RES LYS A 131
REMARK  4 active torsions:
REMARK  status: ('A' for Active; 'I' for Inactive)
REMARK    1  A    between atoms: CA   and  CB  
REMARK    2  A    between atoms: CB   and  CG  
REMARK    3  A    between atoms: CG   and  CD  
REMARK    4  A    between atoms: CD   and  CE  
ROOT
ATOM      1  CA  LYS A 131      29.867  25.555  16.977  1.00 20.52     0.186 C 
ENDROOT
BRANCH   1   2
ATOM      2  CB  LYS A 131      28.345  25.722  17.026  1.00 20.94     0.034 C 
BRANCH   2   3
ATOM      3  CG  LYS A 131      27.599  24.477  16.571  1.00 22.96     0.005 C 
BRANCH   3   4
ATOM      4  CD  LYS A 131      27.004  23.720  17.725  1.00 24.33     0.041 C 
BRANCH   4   5
ATOM      5  CE  LYS A 131      25.606  24.255  18.019  1.00 26.91     0.338 C 
ATOM      6  NZ  LYS A 131      25.611  25.062  19.263  1.00 27.40     0.618 N 
ENDBRANCH   4   5
ENDBRANCH   3   4
ENDBRANCH   2   3
ENDBRANCH   1   2
END_RES LYS A 131
BEGIN_RES LYS A 135
REMARK  4 active torsions:
REMARK  status: ('A' for Active; 'I' for Inactive)
REMARK    5  A    between atoms: CA   and  CB  
REMARK    6  A    between atoms: CB   and  CG  
REMARK    7  A    between atoms: CG   and  CD  
REMARK    8  A    between atoms: CD   and  CE  
ROOT
ATOM      7  CA  LYS A 135      33.193  34.663   9.290  1.00 25.02     0.186 C 
ENDROOT
BRANCH   7   8
ATOM      8  CB  LYS A 135      32.060  35.360  10.034  1.00 26.63     0.034 C 
BRANCH   8   9
ATOM      9  CG  LYS A 135      30.691  34.860   9.651  1.00 29.45     0.005 C 
BRANCH   9  10
ATOM     10  CD  LYS A 135      30.088  35.730   8.559  1.00 32.00     0.041 C 
BRANCH  10  11
ATOM     11  CE  LYS A 135      29.302  34.883   7.577  1.00 34.25     0.338 C 
ATOM     12  NZ  LYS A 135      28.744  35.717   6.476  1.00 35.99     0.618 N 
ENDBRANCH  10  11
ENDBRANCH   9  10
ENDBRANCH   8   9
ENDBRANCH   7   8
END_RES LYS A 135
