REMARK VINA RESULT:    -5.035      1.825      2.617
REMARK INTER + INTRA:         -21.821
REMARK INTER:                 -11.708
REMARK INTRA:                 -10.113
REMARK UNBOUND:                -9.428
REMARK SMILES CC(=O)N[C@@H]1[C@@H](O)C[C@](OC[C@H]2O[C@@H](O[C@H]3[C@H](O)[C@@H](O)[C@H](OCCN=[N+]=[N-])O[C@@H]3CO)[C@H](O)[C@@H](O)[C@H]2O)(C(=O)O)O[C@H]1C(O)[C@H](O)CNC(=O)OCc1cn(-c2ccc(C)cc2)nn1
REMARK SMILES IDX 9 1 8 2 6 3 5 4 42 5 41 6 10 7 11 8 12 9 14 10 13 11 32 12
REMARK SMILES IDX 34 13 36 14 15 15 16 16 29 17 28 18 21 19 17 20 19 21 30 22
REMARK SMILES IDX 31 23 22 25 23 26 24 27 25 28 26 29 27 30 18 31 20 33 33 35
REMARK SMILES IDX 35 37 37 39 38 41 39 42 40 43 7 45 43 47 44 48 45 50 46 51
REMARK SMILES IDX 47 53 48 54 49 55 50 57 51 58 52 59 53 60 54 61 64 62 55 63
REMARK SMILES IDX 63 64 56 65 57 66 62 67 58 68 61 69 59 70 60 71 4 72 2 73
REMARK SMILES IDX 1 75 3 76
REMARK H PARENT 31 24 18 32 20 34 33 36 35 38 37 40 40 44 7 46 44 49 46 52
REMARK H PARENT 48 56 4 74
REMARK Flexibility Score: inf
ROOT
ATOM      1  C   UNL     1      26.389  38.764   7.603  1.00  0.00     0.272 C 
ATOM      2  C   UNL     1      26.856  37.689   6.627  1.00  0.00     0.113 C 
ATOM      3  C   UNL     1      28.072  38.102   5.889  1.00  0.00     0.145 C 
ATOM      4  C   UNL     1      29.009  38.983   6.637  1.00  0.00     0.142 C 
ATOM      5  C   UNL     1      28.680  39.216   8.107  1.00  0.00     0.178 C 
ATOM      6  O   UNL     1      27.345  39.315   8.312  1.00  0.00    -0.332 OA
ENDROOT
BRANCH   1   7
ATOM      7  O   UNL     1      25.542  38.050   8.507  1.00  0.00    -0.338 OA
BRANCH   7   8
ATOM      8  C   UNL     1      25.637  36.689   8.209  1.00  0.00     0.199 C 
BRANCH   8   9
ATOM      9  C   UNL     1      25.203  35.829   9.334  1.00  0.00     0.179 C 
ATOM     10  C   UNL     1      25.504  35.375  11.561  1.00  0.00     0.282 C 
ATOM     11  O   UNL     1      25.713  36.302  10.545  1.00  0.00    -0.341 OA
ATOM     12  C   UNL     1      24.063  35.296  11.897  1.00  0.00     0.202 C 
ATOM     13  C   UNL     1      23.234  35.952  10.828  1.00  0.00     0.179 C 
ATOM     14  C   UNL     1      23.713  35.646   9.424  1.00  0.00     0.177 C 
BRANCH  10  15
ATOM     15  O   UNL     1      26.224  35.761  12.689  1.00  0.00    -0.341 OA
BRANCH  15  16
ATOM     16  C   UNL     1      26.787  34.660  13.336  1.00  0.00     0.184 C 
ATOM     17  C   UNL     1      26.412  34.534  14.786  1.00  0.00     0.178 C 
ATOM     18  O   UNL     1      27.548  34.650  15.594  1.00  0.00    -0.341 OA
ATOM     19  C   UNL     1      28.072  35.923  15.460  1.00  0.00     0.281 C 
ATOM     20  C   UNL     1      28.284  34.862  13.261  1.00  0.00     0.180 C 
ATOM     21  C   UNL     1      28.564  36.154  14.045  1.00  0.00     0.202 C 
BRANCH  17  22
ATOM     22  C   UNL     1      25.883  33.120  15.076  1.00  0.00     0.191 C 
BRANCH  22  23
ATOM     23  O   UNL     1      26.925  32.276  15.451  1.00  0.00    -0.394 OA
ATOM     24  H   UNL     1      27.390  32.001  14.605  1.00  0.00     0.210 HD
ENDBRANCH  22  23
ENDBRANCH  17  22
BRANCH  19  25
ATOM     25  O   UNL     1      29.092  36.179  16.364  1.00  0.00    -0.350 OA
BRANCH  25  26
ATOM     26  C   UNL     1      28.804  37.186  17.251  1.00  0.00     0.169 C 
BRANCH  26  27
ATOM     27  C   UNL     1      29.083  38.577  16.755  1.00  0.00     0.119 C 
BRANCH  27  28
ATOM     28  N   UNL     1      30.317  38.647  16.010  1.00  0.00    -0.092 NA
ATOM     29  N   UNL     1      30.637  39.681  15.452  1.00  0.00     0.001 N 
ATOM     30  N   UNL     1      31.019  40.745  14.960  1.00  0.00    -0.003 NA
ENDBRANCH  27  28
ENDBRANCH  26  27
ENDBRANCH  25  26
ENDBRANCH  19  25
BRANCH  20  31
ATOM     31  O   UNL     1      29.001  33.811  13.815  1.00  0.00    -0.387 OA
ATOM     32  H   UNL     1      28.401  33.026  13.825  1.00  0.00     0.211 HD
ENDBRANCH  20  31
BRANCH  21  33
ATOM     33  O   UNL     1      27.708  37.114  13.467  1.00  0.00    -0.385 OA
ATOM     34  H   UNL     1      28.199  37.792  12.949  1.00  0.00     0.211 HD
ENDBRANCH  21  33
ENDBRANCH  15  16
ENDBRANCH  10  15
BRANCH  12  35
ATOM     35  O   UNL     1      23.640  33.971  12.109  1.00  0.00    -0.385 OA
ATOM     36  H   UNL     1      22.920  33.826  11.413  1.00  0.00     0.211 HD
ENDBRANCH  12  35
BRANCH  13  37
ATOM     37  O   UNL     1      23.113  37.292  11.103  1.00  0.00    -0.387 OA
ATOM     38  H   UNL     1      23.832  37.654  11.712  1.00  0.00     0.211 HD
ENDBRANCH  13  37
BRANCH  14  39
ATOM     39  O   UNL     1      23.117  36.530   8.545  1.00  0.00    -0.387 OA
ATOM     40  H   UNL     1      23.231  36.310   7.598  1.00  0.00     0.211 HD
ENDBRANCH  14  39
ENDBRANCH   8   9
ENDBRANCH   7   8
ENDBRANCH   1   7
BRANCH   1  41
ATOM     41  C   UNL     1      25.584  39.697   6.791  1.00  0.00     0.364 C 
ATOM     42  O   UNL     1      26.046  40.736   6.267  1.00  0.00    -0.246 OA
BRANCH  41  43
ATOM     43  O   UNL     1      24.224  39.387   6.601  1.00  0.00    -0.477 OA
ATOM     44  H   UNL     1      23.889  38.469   6.897  1.00  0.00     0.296 HD
ENDBRANCH  41  43
ENDBRANCH   1  41
BRANCH   3  45
ATOM     45  O   UNL     1      28.717  36.979   5.321  1.00  0.00    -0.391 OA
ATOM     46  H   UNL     1      28.095  36.205   5.510  1.00  0.00     0.211 HD
ENDBRANCH   3  45
BRANCH   5  47
ATOM     47  C   UNL     1      29.342  38.130   8.931  1.00  0.00     0.176 C 
BRANCH  47  48
ATOM     48  O   UNL     1      30.662  37.882   8.585  1.00  0.00    -0.388 OA
ATOM     49  H   UNL     1      31.092  38.774   8.503  1.00  0.00     0.211 HD
ENDBRANCH  47  48
BRANCH  47  50
ATOM     50  C   UNL     1      29.101  38.049  10.363  1.00  0.00     0.165 C 
BRANCH  50  51
ATOM     51  O   UNL     1      27.750  38.059  10.769  1.00  0.00    -0.388 OA
ATOM     52  H   UNL     1      27.581  38.832  11.369  1.00  0.00     0.211 HD
ENDBRANCH  50  51
BRANCH  50  53
ATOM     53  C   UNL     1      29.858  38.882  11.338  1.00  0.00     0.154 C 
BRANCH  53  54
ATOM     54  N   UNL     1      30.633  38.134  12.293  1.00  0.00    -0.319 N 
ATOM     55  C   UNL     1      31.894  37.570  11.940  1.00  0.00     0.407 C 
ATOM     56  H   UNL     1      30.276  37.992  13.266  1.00  0.00     0.167 HD
ATOM     57  O   UNL     1      32.334  37.748  10.778  1.00  0.00    -0.225 OA
BRANCH  55  58
ATOM     58  O   UNL     1      32.602  36.838  12.869  1.00  0.00    -0.443 OA
BRANCH  58  59
ATOM     59  C   UNL     1      32.396  35.488  13.108  1.00  0.00     0.294 C 
BRANCH  59  60
ATOM     60  C   UNL     1      32.257  35.208  14.538  1.00  0.00     0.121 A 
ATOM     61  C   UNL     1      31.669  34.062  15.108  1.00  0.00     0.144 A 
ATOM     62  N   UNL     1      32.634  35.941  15.576  1.00  0.00    -0.131 NA
ATOM     63  N   UNL     1      31.730  34.177  16.434  1.00  0.00    -0.220 N 
ATOM     64  N   UNL     1      32.318  35.325  16.697  1.00  0.00    -0.062 NA
BRANCH  63  65
ATOM     65  C   UNL     1      31.219  33.193  17.351  1.00  0.00     0.066 A 
ATOM     66  C   UNL     1      31.270  33.423  18.707  1.00  0.00     0.029 A 
ATOM     67  C   UNL     1      30.655  32.011  16.917  1.00  0.00     0.029 A 
ATOM     68  C   UNL     1      30.763  32.480  19.606  1.00  0.00     0.005 A 
ATOM     69  C   UNL     1      30.146  31.067  17.815  1.00  0.00     0.005 A 
ATOM     70  C   UNL     1      30.200  31.302  19.169  1.00  0.00    -0.051 A 
ATOM     71  C   UNL     1      29.645  30.296  20.132  1.00  0.00     0.044 C 
ENDBRANCH  63  65
ENDBRANCH  59  60
ENDBRANCH  58  59
ENDBRANCH  55  58
ENDBRANCH  53  54
ENDBRANCH  50  53
ENDBRANCH  47  50
ENDBRANCH   5  47
BRANCH   4  72
ATOM     72  N   UNL     1      29.303  40.217   5.934  1.00  0.00    -0.348 N 
ATOM     73  C   UNL     1      30.597  40.557   5.435  1.00  0.00     0.217 C 
ATOM     74  H   UNL     1      28.560  40.925   5.768  1.00  0.00     0.163 HD
ATOM     75  C   UNL     1      30.847  41.849   4.725  1.00  0.00     0.114 C 
ATOM     76  O   UNL     1      31.492  39.700   5.636  1.00  0.00    -0.275 OA
ENDBRANCH   4  72
TORSDOF 30
BEGIN_RES LYS A 131
REMARK  4 active torsions:
REMARK  status: ('A' for Active; 'I' for Inactive)
REMARK    1  A    between atoms: CA   and  CB  
REMARK    2  A    between atoms: CB   and  CG  
REMARK    3  A    between atoms: CG   and  CD  
REMARK    4  A    between atoms: CD   and  CE  
ROOT
ATOM      1  CA  LYS A 131      29.867  25.555  16.977  1.00 20.52     0.186 C 
ENDROOT
BRANCH   1   2
ATOM      2  CB  LYS A 131      28.345  25.722  17.026  1.00 20.94     0.034 C 
BRANCH   2   3
ATOM      3  CG  LYS A 131      27.602  24.400  16.913  1.00 22.96     0.005 C 
BRANCH   3   4
ATOM      4  CD  LYS A 131      26.495  24.284  17.924  1.00 24.33     0.041 C 
BRANCH   4   5
ATOM      5  CE  LYS A 131      26.451  25.547  18.777  1.00 26.91     0.338 C 
ATOM      6  NZ  LYS A 131      25.518  25.372  19.916  1.00 27.40     0.618 N 
ENDBRANCH   4   5
ENDBRANCH   3   4
ENDBRANCH   2   3
ENDBRANCH   1   2
END_RES LYS A 131
BEGIN_RES LYS A 135
REMARK  4 active torsions:
REMARK  status: ('A' for Active; 'I' for Inactive)
REMARK    5  A    between atoms: CA   and  CB  
REMARK    6  A    between atoms: CB   and  CG  
REMARK    7  A    between atoms: CG   and  CD  
REMARK    8  A    between atoms: CD   and  CE  
ROOT
ATOM      7  CA  LYS A 135      33.193  34.663   9.290  1.00 25.02     0.186 C 
ENDROOT
BRANCH   7   8
ATOM      8  CB  LYS A 135      32.060  35.360  10.034  1.00 26.63     0.034 C 
BRANCH   8   9
ATOM      9  CG  LYS A 135      30.742  34.636   9.940  1.00 29.45     0.005 C 
BRANCH   9  10
ATOM     10  CD  LYS A 135      30.327  34.464   8.487  1.00 32.00     0.041 C 
BRANCH  10  11
ATOM     11  CE  LYS A 135      28.816  34.493   8.358  1.00 34.25     0.338 C 
ATOM     12  NZ  LYS A 135      28.166  33.812   9.512  1.00 35.99     0.618 N 
ENDBRANCH  10  11
ENDBRANCH   9  10
ENDBRANCH   8   9
ENDBRANCH   7   8
END_RES LYS A 135
