REMARK VINA RESULT:    -3.935      3.135      6.105
REMARK INTER + INTRA:         -22.390
REMARK INTER:                 -14.949
REMARK INTRA:                  -7.441
REMARK UNBOUND:               -12.359
REMARK SMILES CC(=O)N[C@@H]1[C@@H](O)C[C@](OC[C@H]2O[C@@H](O[C@H]3[C@H](O)[C@@H](O)[C@H](OCCN=[N+]=[N-])O[C@@H]3CO)[C@H](O)[C@@H](O)[C@H]2O)(C(=O)O)O[C@H]1C(O)[C@H](O)CNC(=O)OCc1cn(CC(=O)O)nn1
REMARK SMILES IDX 9 1 8 2 6 3 5 4 42 5 41 6 10 7 11 8 12 9 14 10 13 11 32 12
REMARK SMILES IDX 34 13 36 14 15 15 16 16 29 17 28 18 21 19 17 20 19 21 30 22
REMARK SMILES IDX 31 23 22 25 23 26 24 27 25 28 26 29 27 30 18 31 20 33 33 35
REMARK SMILES IDX 35 37 37 39 38 41 39 42 40 43 7 45 43 47 44 48 45 50 46 51
REMARK SMILES IDX 47 53 48 54 49 55 50 57 51 58 52 59 53 60 54 61 61 62 55 63
REMARK SMILES IDX 60 64 56 65 57 66 58 67 59 68 4 70 2 71 1 73 3 74
REMARK H PARENT 31 24 18 32 20 34 33 36 35 38 37 40 40 44 7 46 44 49 46 52
REMARK H PARENT 48 56 59 69 4 72
REMARK Flexibility Score: inf
ROOT
ATOM      1  C   UNL     1      31.373  34.070  14.755  1.00  0.00     0.272 C 
ATOM      2  C   UNL     1      31.617  32.637  15.132  1.00  0.00     0.113 C 
ATOM      3  C   UNL     1      30.769  32.078  16.196  1.00  0.00     0.145 C 
ATOM      4  C   UNL     1      30.030  33.089  17.065  1.00  0.00     0.142 C 
ATOM      5  C   UNL     1      30.797  34.371  16.964  1.00  0.00     0.178 C 
ATOM      6  O   UNL     1      30.577  34.759  15.615  1.00  0.00    -0.332 OA
ENDROOT
BRANCH   1   7
ATOM      7  O   UNL     1      30.829  34.181  13.457  1.00  0.00    -0.338 OA
BRANCH   7   8
ATOM      8  C   UNL     1      29.469  34.153  13.403  1.00  0.00     0.199 C 
BRANCH   8   9
ATOM      9  C   UNL     1      28.983  35.085  12.281  1.00  0.00     0.179 C 
ATOM     10  C   UNL     1      27.141  34.968  10.897  1.00  0.00     0.282 C 
ATOM     11  O   UNL     1      28.410  34.402  11.239  1.00  0.00    -0.341 OA
ATOM     12  C   UNL     1      26.284  34.707  12.081  1.00  0.00     0.202 C 
ATOM     13  C   UNL     1      26.705  35.737  13.142  1.00  0.00     0.179 C 
ATOM     14  C   UNL     1      28.115  36.183  12.862  1.00  0.00     0.177 C 
BRANCH  10  15
ATOM     15  O   UNL     1      26.757  34.428   9.706  1.00  0.00    -0.341 OA
BRANCH  15  16
ATOM     16  C   UNL     1      26.689  35.351   8.661  1.00  0.00     0.184 C 
ATOM     17  C   UNL     1      28.000  36.076   8.587  1.00  0.00     0.178 C 
ATOM     18  O   UNL     1      27.838  37.347   8.106  1.00  0.00    -0.341 OA
ATOM     19  C   UNL     1      26.897  37.528   7.124  1.00  0.00     0.281 C 
ATOM     20  C   UNL     1      25.593  36.369   8.898  1.00  0.00     0.180 C 
ATOM     21  C   UNL     1      25.498  37.211   7.623  1.00  0.00     0.202 C 
BRANCH  17  22
ATOM     22  C   UNL     1      28.946  35.308   7.683  1.00  0.00     0.191 C 
BRANCH  22  23
ATOM     23  O   UNL     1      29.428  34.241   8.447  1.00  0.00    -0.394 OA
ATOM     24  H   UNL     1      28.815  33.474   8.405  1.00  0.00     0.210 HD
ENDBRANCH  22  23
ENDBRANCH  17  22
BRANCH  19  25
ATOM     25  O   UNL     1      27.225  36.831   5.994  1.00  0.00    -0.350 OA
BRANCH  25  26
ATOM     26  C   UNL     1      27.980  37.533   5.089  1.00  0.00     0.169 C 
BRANCH  26  27
ATOM     27  C   UNL     1      27.624  38.991   4.969  1.00  0.00     0.119 C 
BRANCH  27  28
ATOM     28  N   UNL     1      28.798  39.840   5.183  1.00  0.00    -0.092 NA
ATOM     29  N   UNL     1      29.676  39.363   5.929  1.00  0.00     0.001 N 
ATOM     30  N   UNL     1      30.518  39.374   6.847  1.00  0.00    -0.003 NA
ENDBRANCH  27  28
ENDBRANCH  26  27
ENDBRANCH  25  26
ENDBRANCH  19  25
BRANCH  20  31
ATOM     31  O   UNL     1      24.358  35.809   9.107  1.00  0.00    -0.387 OA
ATOM     32  H   UNL     1      24.251  35.322   9.939  1.00  0.00     0.211 HD
ENDBRANCH  20  31
BRANCH  21  33
ATOM     33  O   UNL     1      24.809  38.387   7.850  1.00  0.00    -0.385 OA
ATOM     34  H   UNL     1      25.234  38.930   8.563  1.00  0.00     0.211 HD
ENDBRANCH  21  33
ENDBRANCH  15  16
ENDBRANCH  10  15
BRANCH  12  35
ATOM     35  O   UNL     1      24.934  34.679  11.884  1.00  0.00    -0.385 OA
ATOM     36  H   UNL     1      24.713  34.152  11.099  1.00  0.00     0.211 HD
ENDBRANCH  12  35
BRANCH  13  37
ATOM     37  O   UNL     1      26.621  35.104  14.373  1.00  0.00    -0.387 OA
ATOM     38  H   UNL     1      25.684  34.873  14.625  1.00  0.00     0.211 HD
ENDBRANCH  13  37
BRANCH  14  39
ATOM     39  O   UNL     1      28.661  36.554  14.090  1.00  0.00    -0.387 OA
ATOM     40  H   UNL     1      28.128  37.246  14.546  1.00  0.00     0.211 HD
ENDBRANCH  14  39
ENDBRANCH   8   9
ENDBRANCH   7   8
ENDBRANCH   1   7
BRANCH   1  41
ATOM     41  C   UNL     1      32.685  34.753  14.676  1.00  0.00     0.364 C 
ATOM     42  O   UNL     1      32.842  35.917  15.091  1.00  0.00    -0.246 OA
BRANCH  41  43
ATOM     43  O   UNL     1      33.799  34.130  14.139  1.00  0.00    -0.477 OA
ATOM     44  H   UNL     1      34.653  33.950  14.682  1.00  0.00     0.296 HD
ENDBRANCH  41  43
ENDBRANCH   1  41
BRANCH   3  45
ATOM     45  O   UNL     1      29.927  31.042  15.779  1.00  0.00    -0.391 OA
ATOM     46  H   UNL     1      28.994  31.302  15.693  1.00  0.00     0.211 HD
ENDBRANCH   3  45
BRANCH   5  47
ATOM     47  C   UNL     1      30.386  35.491  17.857  1.00  0.00     0.176 C 
BRANCH  47  48
ATOM     48  O   UNL     1      29.491  36.274  17.054  1.00  0.00    -0.388 OA
ATOM     49  H   UNL     1      29.353  35.816  16.176  1.00  0.00     0.211 HD
ENDBRANCH  47  48
BRANCH  47  50
ATOM     50  C   UNL     1      31.521  36.391  18.292  1.00  0.00     0.165 C 
BRANCH  50  51
ATOM     51  O   UNL     1      31.839  37.270  17.224  1.00  0.00    -0.388 OA
ATOM     52  H   UNL     1      31.515  38.161  17.479  1.00  0.00     0.211 HD
ENDBRANCH  50  51
BRANCH  50  53
ATOM     53  C   UNL     1      32.737  35.655  18.698  1.00  0.00     0.154 C 
BRANCH  53  54
ATOM     54  N   UNL     1      33.893  36.030  17.935  1.00  0.00    -0.319 N 
ATOM     55  C   UNL     1      35.241  36.007  18.356  1.00  0.00     0.407 C 
ATOM     56  H   UNL     1      33.781  36.375  16.914  1.00  0.00     0.167 HD
ATOM     57  O   UNL     1      35.558  35.651  19.493  1.00  0.00    -0.225 OA
BRANCH  55  58
ATOM     58  O   UNL     1      36.290  36.389  17.512  1.00  0.00    -0.443 OA
BRANCH  58  59
ATOM     59  C   UNL     1      37.630  36.038  17.810  1.00  0.00     0.294 C 
BRANCH  59  60
ATOM     60  C   UNL     1      38.313  35.495  16.595  1.00  0.00     0.120 A 
ATOM     61  C   UNL     1      37.739  35.273  15.351  1.00  0.00     0.139 A 
ATOM     62  N   UNL     1      39.596  35.121  16.469  1.00  0.00    -0.132 NA
ATOM     63  N   UNL     1      38.687  34.779  14.534  1.00  0.00    -0.241 N 
ATOM     64  N   UNL     1      39.806  34.696  15.236  1.00  0.00    -0.066 NA
BRANCH  63  65
ATOM     65  C   UNL     1      38.545  34.397  13.126  1.00  0.00     0.268 C 
BRANCH  65  66
ATOM     66  C   UNL     1      37.497  33.365  13.037  1.00  0.00     0.325 C 
ATOM     67  O   UNL     1      36.407  33.623  12.506  1.00  0.00    -0.250 OA
BRANCH  66  68
ATOM     68  O   UNL     1      37.732  32.105  13.549  1.00  0.00    -0.480 OA
ATOM     69  H   UNL     1      38.581  31.602  13.394  1.00  0.00     0.296 HD
ENDBRANCH  66  68
ENDBRANCH  65  66
ENDBRANCH  63  65
ENDBRANCH  59  60
ENDBRANCH  58  59
ENDBRANCH  55  58
ENDBRANCH  53  54
ENDBRANCH  50  53
ENDBRANCH  47  50
ENDBRANCH   5  47
BRANCH   4  70
ATOM     70  N   UNL     1      29.777  32.567  18.364  1.00  0.00    -0.348 N 
ATOM     71  C   UNL     1      28.568  31.858  18.687  1.00  0.00     0.217 C 
ATOM     72  H   UNL     1      30.473  32.669  19.128  1.00  0.00     0.163 HD
ATOM     73  C   UNL     1      28.389  31.348  20.066  1.00  0.00     0.114 C 
ATOM     74  O   UNL     1      27.679  31.671  17.824  1.00  0.00    -0.275 OA
ENDBRANCH   4  70
TORSDOF 32
BEGIN_RES LYS A 131
REMARK  4 active torsions:
REMARK  status: ('A' for Active; 'I' for Inactive)
REMARK    1  A    between atoms: CA   and  CB  
REMARK    2  A    between atoms: CB   and  CG  
REMARK    3  A    between atoms: CG   and  CD  
REMARK    4  A    between atoms: CD   and  CE  
ROOT
ATOM      1  CA  LYS A 131      29.867  25.555  16.977  1.00 20.52     0.186 C 
ENDROOT
BRANCH   1   2
ATOM      2  CB  LYS A 131      28.345  25.722  17.026  1.00 20.94     0.034 C 
BRANCH   2   3
ATOM      3  CG  LYS A 131      27.601  24.403  16.887  1.00 22.96     0.005 C 
BRANCH   3   4
ATOM      4  CD  LYS A 131      26.459  24.291  17.859  1.00 24.33     0.041 C 
BRANCH   4   5
ATOM      5  CE  LYS A 131      25.664  23.023  17.567  1.00 26.91     0.338 C 
ATOM      6  NZ  LYS A 131      24.286  23.361  17.140  1.00 27.40     0.618 N 
ENDBRANCH   4   5
ENDBRANCH   3   4
ENDBRANCH   2   3
ENDBRANCH   1   2
END_RES LYS A 131
BEGIN_RES LYS A 135
REMARK  4 active torsions:
REMARK  status: ('A' for Active; 'I' for Inactive)
REMARK    5  A    between atoms: CA   and  CB  
REMARK    6  A    between atoms: CB   and  CG  
REMARK    7  A    between atoms: CG   and  CD  
REMARK    8  A    between atoms: CD   and  CE  
ROOT
ATOM      7  CA  LYS A 135      33.193  34.663   9.290  1.00 25.02     0.186 C 
ENDROOT
BRANCH   7   8
ATOM      8  CB  LYS A 135      32.060  35.360  10.034  1.00 26.63     0.034 C 
BRANCH   8   9
ATOM      9  CG  LYS A 135      32.508  36.068  11.287  1.00 29.45     0.005 C 
BRANCH   9  10
ATOM     10  CD  LYS A 135      31.803  37.408  11.427  1.00 32.00     0.041 C 
BRANCH  10  11
ATOM     11  CE  LYS A 135      30.918  37.673  10.224  1.00 34.25     0.338 C 
ATOM     12  NZ  LYS A 135      29.897  38.713  10.528  1.00 35.99     0.618 N 
ENDBRANCH  10  11
ENDBRANCH   9  10
ENDBRANCH   8   9
ENDBRANCH   7   8
END_RES LYS A 135
