REMARK VINA RESULT:    -4.143      3.914     10.677
REMARK INTER + INTRA:         -22.273
REMARK INTER:                 -10.666
REMARK INTRA:                 -11.607
REMARK UNBOUND:               -11.833
REMARK SMILES CC(=O)N[C@@H]1[C@@H](O)C[C@](OC[C@H]2O[C@@H](O[C@H]3[C@H](O)[C@@H](O)[C@H](OCCN=[N+]=[N-])O[C@@H]3CO)[C@H](O)[C@@H](O)[C@H]2O)(C(=O)O)O[C@H]1C(O)[C@H](O)CNC(=O)OCc1cn(-c2ccccc2C(N)=O)nn1
REMARK SMILES IDX 9 1 8 2 6 3 5 4 42 5 41 6 10 7 11 8 12 9 14 10 13 11 32 12
REMARK SMILES IDX 34 13 36 14 15 15 16 16 29 17 28 18 21 19 17 20 19 21 30 22
REMARK SMILES IDX 31 23 22 25 23 26 24 27 25 28 26 29 27 30 18 31 20 33 33 35
REMARK SMILES IDX 35 37 37 39 38 41 39 42 40 43 7 45 43 47 44 48 45 50 46 51
REMARK SMILES IDX 47 53 48 54 49 55 50 57 51 58 52 59 53 60 54 61 66 62 55 63
REMARK SMILES IDX 65 64 56 65 61 66 57 67 60 68 58 69 59 70 62 71 64 72 63 73
REMARK SMILES IDX 4 76 2 77 1 79 3 80
REMARK H PARENT 31 24 18 32 20 34 33 36 35 38 37 40 40 44 7 46 44 49 46 52
REMARK H PARENT 48 56 63 74 63 75 4 78
REMARK Flexibility Score: inf
ROOT
ATOM      1  C   UNL     1      27.631  30.629  16.761  1.00  0.00     0.272 C 
ATOM      2  C   UNL     1      28.483  30.572  15.461  1.00  0.00     0.113 C 
ATOM      3  C   UNL     1      29.850  31.049  15.864  1.00  0.00     0.145 C 
ATOM      4  C   UNL     1      29.812  32.501  16.127  1.00  0.00     0.142 C 
ATOM      5  C   UNL     1      28.420  32.802  16.711  1.00  0.00     0.178 C 
ATOM      6  O   UNL     1      27.987  31.749  17.494  1.00  0.00    -0.332 OA
ENDROOT
BRANCH   1   7
ATOM      7  O   UNL     1      27.989  29.478  17.436  1.00  0.00    -0.338 OA
BRANCH   7   8
ATOM      8  C   UNL     1      26.995  28.554  17.565  1.00  0.00     0.199 C 
BRANCH   8   9
ATOM      9  C   UNL     1      26.784  28.114  19.003  1.00  0.00     0.179 C 
ATOM     10  C   UNL     1      28.072  27.532  20.857  1.00  0.00     0.282 C 
ATOM     11  O   UNL     1      28.058  28.026  19.561  1.00  0.00    -0.341 OA
ATOM     12  C   UNL     1      26.742  27.330  21.482  1.00  0.00     0.202 C 
ATOM     13  C   UNL     1      25.702  28.359  21.151  1.00  0.00     0.179 C 
ATOM     14  C   UNL     1      25.991  29.077  19.825  1.00  0.00     0.177 C 
BRANCH  10  15
ATOM     15  O   UNL     1      28.830  28.405  21.615  1.00  0.00    -0.341 OA
BRANCH  15  16
ATOM     16  C   UNL     1      30.073  28.672  21.066  1.00  0.00     0.184 C 
ATOM     17  C   UNL     1      31.128  28.171  22.028  1.00  0.00     0.178 C 
ATOM     18  O   UNL     1      31.611  29.143  22.835  1.00  0.00    -0.341 OA
ATOM     19  C   UNL     1      32.289  30.117  22.197  1.00  0.00     0.281 C 
ATOM     20  C   UNL     1      30.174  30.189  20.950  1.00  0.00     0.180 C 
ATOM     21  C   UNL     1      31.585  30.653  21.015  1.00  0.00     0.202 C 
BRANCH  17  22
ATOM     22  C   UNL     1      32.242  27.505  21.267  1.00  0.00     0.191 C 
BRANCH  22  23
ATOM     23  O   UNL     1      31.871  27.230  19.947  1.00  0.00    -0.394 OA
ATOM     24  H   UNL     1      31.584  26.267  19.941  1.00  0.00     0.210 HD
ENDBRANCH  22  23
ENDBRANCH  17  22
BRANCH  19  25
ATOM     25  O   UNL     1      33.632  29.801  21.939  1.00  0.00    -0.350 OA
BRANCH  25  26
ATOM     26  C   UNL     1      34.528  30.538  22.672  1.00  0.00     0.169 C 
BRANCH  26  27
ATOM     27  C   UNL     1      35.236  31.515  21.794  1.00  0.00     0.119 C 
BRANCH  27  28
ATOM     28  N   UNL     1      34.517  32.764  21.785  1.00  0.00    -0.092 NA
ATOM     29  N   UNL     1      34.994  33.805  21.315  1.00  0.00     0.001 N 
ATOM     30  N   UNL     1      35.579  34.643  20.625  1.00  0.00    -0.003 NA
ENDBRANCH  27  28
ENDBRANCH  26  27
ENDBRANCH  25  26
ENDBRANCH  19  25
BRANCH  20  31
ATOM     31  O   UNL     1      29.609  30.612  19.750  1.00  0.00    -0.387 OA
ATOM     32  H   UNL     1      29.062  31.446  19.896  1.00  0.00     0.211 HD
ENDBRANCH  20  31
BRANCH  21  33
ATOM     33  O   UNL     1      31.562  32.067  21.103  1.00  0.00    -0.385 OA
ATOM     34  H   UNL     1      32.412  32.362  21.541  1.00  0.00     0.211 HD
ENDBRANCH  21  33
ENDBRANCH  15  16
ENDBRANCH  10  15
BRANCH  12  35
ATOM     35  O   UNL     1      26.249  26.022  21.286  1.00  0.00    -0.385 OA
ATOM     36  H   UNL     1      25.270  26.083  21.330  1.00  0.00     0.211 HD
ENDBRANCH  12  35
BRANCH  13  37
ATOM     37  O   UNL     1      25.650  29.345  22.137  1.00  0.00    -0.387 OA
ATOM     38  H   UNL     1      24.701  29.585  22.369  1.00  0.00     0.211 HD
ENDBRANCH  13  37
BRANCH  14  39
ATOM     39  O   UNL     1      26.801  30.195  20.090  1.00  0.00    -0.387 OA
ATOM     40  H   UNL     1      26.948  30.768  19.321  1.00  0.00     0.211 HD
ENDBRANCH  14  39
ENDBRANCH   8   9
ENDBRANCH   7   8
ENDBRANCH   1   7
BRANCH   1  41
ATOM     41  C   UNL     1      26.211  30.693  16.405  1.00  0.00     0.364 C 
ATOM     42  O   UNL     1      25.345  31.093  17.256  1.00  0.00    -0.246 OA
BRANCH  41  43
ATOM     43  O   UNL     1      25.788  30.316  15.126  1.00  0.00    -0.477 OA
ATOM     44  H   UNL     1      26.521  30.166  14.437  1.00  0.00     0.296 HD
ENDBRANCH  41  43
ENDBRANCH   1  41
BRANCH   3  45
ATOM     45  O   UNL     1      30.130  30.422  17.105  1.00  0.00    -0.391 OA
ATOM     46  H   UNL     1      29.288  30.042  17.467  1.00  0.00     0.211 HD
ENDBRANCH   3  45
BRANCH   5  47
ATOM     47  C   UNL     1      28.417  34.142  17.390  1.00  0.00     0.176 C 
BRANCH  47  48
ATOM     48  O   UNL     1      28.174  35.098  16.384  1.00  0.00    -0.388 OA
ATOM     49  H   UNL     1      27.335  34.870  15.898  1.00  0.00     0.211 HD
ENDBRANCH  47  48
BRANCH  47  50
ATOM     50  C   UNL     1      27.228  34.274  18.346  1.00  0.00     0.165 C 
BRANCH  50  51
ATOM     51  O   UNL     1      26.063  33.879  17.666  1.00  0.00    -0.388 OA
ATOM     52  H   UNL     1      26.084  34.362  16.798  1.00  0.00     0.211 HD
ENDBRANCH  50  51
BRANCH  50  53
ATOM     53  C   UNL     1      27.051  35.669  18.841  1.00  0.00     0.154 C 
BRANCH  53  54
ATOM     54  N   UNL     1      25.808  36.235  18.392  1.00  0.00    -0.319 N 
ATOM     55  C   UNL     1      25.697  37.162  17.327  1.00  0.00     0.407 C 
ATOM     56  H   UNL     1      24.926  35.932  18.898  1.00  0.00     0.167 HD
ATOM     57  O   UNL     1      26.627  37.590  16.641  1.00  0.00    -0.225 OA
BRANCH  55  58
ATOM     58  O   UNL     1      24.419  37.666  16.988  1.00  0.00    -0.443 OA
BRANCH  58  59
ATOM     59  C   UNL     1      23.418  36.772  16.496  1.00  0.00     0.294 C 
BRANCH  59  60
ATOM     60  C   UNL     1      23.927  35.993  15.351  1.00  0.00     0.121 A 
ATOM     61  C   UNL     1      24.358  36.449  14.129  1.00  0.00     0.144 A 
ATOM     62  N   UNL     1      24.059  34.657  15.295  1.00  0.00    -0.131 NA
ATOM     63  N   UNL     1      24.739  35.401  13.365  1.00  0.00    -0.220 N 
ATOM     64  N   UNL     1      24.540  34.315  14.117  1.00  0.00    -0.062 NA
BRANCH  63  65
ATOM     65  C   UNL     1      25.242  35.397  12.041  1.00  0.00     0.079 A 
ATOM     66  C   UNL     1      26.599  35.438  11.852  1.00  0.00     0.065 A 
ATOM     67  C   UNL     1      24.395  35.356  10.951  1.00  0.00     0.029 A 
ATOM     68  C   UNL     1      27.149  35.438  10.574  1.00  0.00     0.016 A 
ATOM     69  C   UNL     1      24.928  35.355   9.660  1.00  0.00     0.002 A 
ATOM     70  C   UNL     1      26.294  35.397   9.492  1.00  0.00     0.001 A 
BRANCH  66  71
ATOM     71  C   UNL     1      27.481  35.483  13.000  1.00  0.00     0.250 C 
ATOM     72  O   UNL     1      27.943  34.404  13.451  1.00  0.00    -0.269 OA
ATOM     73  N   UNL     1      27.861  36.672  13.655  1.00  0.00    -0.366 N 
ATOM     74  H   UNL     1      28.858  36.926  13.721  1.00  0.00     0.159 HD
ATOM     75  H   UNL     1      27.140  37.283  14.067  1.00  0.00     0.159 HD
ENDBRANCH  66  71
ENDBRANCH  63  65
ENDBRANCH  59  60
ENDBRANCH  58  59
ENDBRANCH  55  58
ENDBRANCH  53  54
ENDBRANCH  50  53
ENDBRANCH  47  50
ENDBRANCH   5  47
BRANCH   4  76
ATOM     76  N   UNL     1      30.012  33.368  15.033  1.00  0.00    -0.348 N 
ATOM     77  C   UNL     1      31.220  34.077  14.813  1.00  0.00     0.217 C 
ATOM     78  H   UNL     1      29.234  33.501  14.344  1.00  0.00     0.163 HD
ATOM     79  C   UNL     1      31.466  34.993  13.680  1.00  0.00     0.114 C 
ATOM     80  O   UNL     1      32.121  33.866  15.688  1.00  0.00    -0.275 OA
ENDBRANCH   4  76
TORSDOF 31
BEGIN_RES LYS A 131
REMARK  4 active torsions:
REMARK  status: ('A' for Active; 'I' for Inactive)
REMARK    1  A    between atoms: CA   and  CB  
REMARK    2  A    between atoms: CB   and  CG  
REMARK    3  A    between atoms: CG   and  CD  
REMARK    4  A    between atoms: CD   and  CE  
ROOT
ATOM      1  CA  LYS A 131      29.867  25.555  16.977  1.00 20.52     0.186 C 
ENDROOT
BRANCH   1   2
ATOM      2  CB  LYS A 131      28.345  25.722  17.026  1.00 20.94     0.034 C 
BRANCH   2   3
ATOM      3  CG  LYS A 131      27.604  24.394  17.017  1.00 22.96     0.005 C 
BRANCH   3   4
ATOM      4  CD  LYS A 131      26.113  24.577  16.966  1.00 24.33     0.041 C 
BRANCH   4   5
ATOM      5  CE  LYS A 131      25.557  24.630  18.385  1.00 26.91     0.338 C 
ATOM      6  NZ  LYS A 131      25.861  23.373  19.109  1.00 27.40     0.618 N 
ENDBRANCH   4   5
ENDBRANCH   3   4
ENDBRANCH   2   3
ENDBRANCH   1   2
END_RES LYS A 131
BEGIN_RES LYS A 135
REMARK  4 active torsions:
REMARK  status: ('A' for Active; 'I' for Inactive)
REMARK    5  A    between atoms: CA   and  CB  
REMARK    6  A    between atoms: CB   and  CG  
REMARK    7  A    between atoms: CG   and  CD  
REMARK    8  A    between atoms: CD   and  CE  
ROOT
ATOM      7  CA  LYS A 135      33.193  34.663   9.290  1.00 25.02     0.186 C 
ENDROOT
BRANCH   7   8
ATOM      8  CB  LYS A 135      32.060  35.360  10.034  1.00 26.63     0.034 C 
BRANCH   8   9
ATOM      9  CG  LYS A 135      30.694  34.824   9.690  1.00 29.45     0.005 C 
BRANCH   9  10
ATOM     10  CD  LYS A 135      30.619  34.451   8.218  1.00 32.00     0.041 C 
BRANCH  10  11
ATOM     11  CE  LYS A 135      29.423  35.114   7.561  1.00 34.25     0.338 C 
ATOM     12  NZ  LYS A 135      29.379  36.570   7.871  1.00 35.99     0.618 N 
ENDBRANCH  10  11
ENDBRANCH   9  10
ENDBRANCH   8   9
ENDBRANCH   7   8
END_RES LYS A 135
