REMARK VINA RESULT:    -4.542      3.272      7.418
REMARK INTER + INTRA:         -24.977
REMARK INTER:                 -12.222
REMARK INTRA:                 -12.755
REMARK UNBOUND:               -13.000
REMARK SMILES CC(=O)N[C@@H]1[C@@H](O)C[C@](OC[C@H]2O[C@@H](O[C@H]3[C@H](O)[C@@H](O)[C@H](OCCN=[N+]=[N-])O[C@@H]3CO)[C@H](O)[C@@H](O)[C@H]2O)(C(=O)O)O[C@H]1C(O)[C@H](O)CNC(=O)OCc1cn(C(C)CC(=O)c2ccccc2)nn1
REMARK SMILES IDX 43 1 42 2 9 3 8 4 41 5 6 6 5 7 10 8 11 9 12 10 14 11 13 12
REMARK SMILES IDX 32 13 34 14 36 15 15 16 16 17 29 18 28 19 21 20 17 21 19 22
REMARK SMILES IDX 30 23 31 24 22 26 23 27 24 28 25 29 26 30 27 31 18 32 20 34
REMARK SMILES IDX 33 36 35 38 37 40 38 42 39 43 40 44 7 46 4 48 2 49 1 51 3 52
REMARK SMILES IDX 44 53 45 55 46 56 47 58 48 59 49 60 50 62 51 63 52 64 53 65
REMARK SMILES IDX 54 66 68 67 55 68 67 69 56 70 57 71 58 72 59 73 60 74 61 75
REMARK SMILES IDX 62 76 66 77 63 78 65 79 64 80
REMARK H PARENT 31 25 18 33 20 35 33 37 35 39 37 41 40 45 7 47 4 50 44 54
REMARK H PARENT 46 57 48 61
REMARK Flexibility Score: inf
ROOT
ATOM      1  C   UNL     1      23.826  39.067   7.976  1.00  0.00     0.176 C 
ENDROOT
BRANCH   1   2
ATOM      2  C   UNL     1      24.794  37.976   7.838  1.00  0.00     0.178 C 
ATOM      3  C   UNL     1      25.773  37.099   9.797  1.00  0.00     0.272 C 
ATOM      4  C   UNL     1      27.063  36.774   9.124  1.00  0.00     0.113 C 
ATOM      5  O   UNL     1      24.788  36.994   8.748  1.00  0.00    -0.332 OA
ATOM      6  C   UNL     1      27.117  37.344   7.720  1.00  0.00     0.145 C 
ATOM      7  C   UNL     1      26.219  38.514   7.573  1.00  0.00     0.142 C 
BRANCH   3   8
ATOM      8  O   UNL     1      25.564  38.229  10.405  1.00  0.00    -0.338 OA
BRANCH   8   9
ATOM      9  C   UNL     1      25.991  38.888  11.424  1.00  0.00     0.199 C 
BRANCH   9  10
ATOM     10  C   UNL     1      27.368  39.412  11.673  1.00  0.00     0.179 C 
ATOM     11  C   UNL     1      29.517  38.454  11.937  1.00  0.00     0.282 C 
ATOM     12  O   UNL     1      28.175  38.388  11.975  1.00  0.00    -0.341 OA
ATOM     13  C   UNL     1      30.002  38.987  10.630  1.00  0.00     0.202 C 
ATOM     14  C   UNL     1      29.227  40.123  10.138  1.00  0.00     0.179 C 
ATOM     15  C   UNL     1      27.897  40.426  10.739  1.00  0.00     0.177 C 
BRANCH  11  16
ATOM     16  O   UNL     1      29.955  37.115  12.125  1.00  0.00    -0.341 OA
BRANCH  16  17
ATOM     17  C   UNL     1      29.316  36.577  13.215  1.00  0.00     0.184 C 
ATOM     18  C   UNL     1      30.030  36.910  14.492  1.00  0.00     0.178 C 
ATOM     19  O   UNL     1      31.287  36.327  14.547  1.00  0.00    -0.341 OA
ATOM     20  C   UNL     1      31.357  34.982  14.361  1.00  0.00     0.281 C 
ATOM     21  C   UNL     1      29.275  35.043  13.047  1.00  0.00     0.180 C 
ATOM     22  C   UNL     1      30.630  34.450  13.175  1.00  0.00     0.202 C 
BRANCH  18  23
ATOM     23  C   UNL     1      29.195  36.561  15.707  1.00  0.00     0.191 C 
BRANCH  23  24
ATOM     24  O   UNL     1      27.899  37.056  15.624  1.00  0.00    -0.394 OA
ATOM     25  H   UNL     1      27.337  36.408  15.120  1.00  0.00     0.210 HD
ENDBRANCH  23  24
ENDBRANCH  18  23
BRANCH  20  26
ATOM     26  O   UNL     1      31.096  34.227  15.477  1.00  0.00    -0.350 OA
BRANCH  26  27
ATOM     27  C   UNL     1      32.023  34.319  16.479  1.00  0.00     0.169 C 
BRANCH  27  28
ATOM     28  C   UNL     1      31.477  33.910  17.821  1.00  0.00     0.119 C 
BRANCH  28  29
ATOM     29  N   UNL     1      30.375  32.989  17.607  1.00  0.00    -0.092 NA
ATOM     30  N   UNL     1      30.394  31.888  18.151  1.00  0.00     0.001 N 
ATOM     31  N   UNL     1      30.329  30.879  18.857  1.00  0.00    -0.003 NA
ENDBRANCH  28  29
ENDBRANCH  27  28
ENDBRANCH  26  27
ENDBRANCH  20  26
BRANCH  21  32
ATOM     32  O   UNL     1      28.338  34.480  13.905  1.00  0.00    -0.387 OA
ATOM     33  H   UNL     1      27.844  33.732  13.490  1.00  0.00     0.211 HD
ENDBRANCH  21  32
BRANCH  22  34
ATOM     34  O   UNL     1      31.363  34.545  11.991  1.00  0.00    -0.385 OA
ATOM     35  H   UNL     1      32.070  33.854  12.061  1.00  0.00     0.211 HD
ENDBRANCH  22  34
ENDBRANCH  16  17
ENDBRANCH  11  16
BRANCH  13  36
ATOM     36  O   UNL     1      31.363  39.393  10.754  1.00  0.00    -0.385 OA
ATOM     37  H   UNL     1      31.438  40.198  10.177  1.00  0.00     0.211 HD
ENDBRANCH  13  36
BRANCH  14  38
ATOM     38  O   UNL     1      29.087  39.973   8.728  1.00  0.00    -0.387 OA
ATOM     39  H   UNL     1      29.784  39.383   8.357  1.00  0.00     0.211 HD
ENDBRANCH  14  38
BRANCH  15  40
ATOM     40  O   UNL     1      27.046  40.815   9.724  1.00  0.00    -0.387 OA
ATOM     41  H   UNL     1      26.833  41.747   9.637  1.00  0.00     0.211 HD
ENDBRANCH  15  40
ENDBRANCH   9  10
ENDBRANCH   8   9
ENDBRANCH   3   8
BRANCH   3  42
ATOM     42  C   UNL     1      25.413  35.900  10.674  1.00  0.00     0.364 C 
ATOM     43  O   UNL     1      24.294  35.384  10.574  1.00  0.00    -0.246 OA
BRANCH  42  44
ATOM     44  O   UNL     1      26.322  35.386  11.571  1.00  0.00    -0.477 OA
ATOM     45  H   UNL     1      26.411  35.856  12.464  1.00  0.00     0.296 HD
ENDBRANCH  42  44
ENDBRANCH   3  42
BRANCH   6  46
ATOM     46  O   UNL     1      28.425  37.601   7.327  1.00  0.00    -0.391 OA
ATOM     47  H   UNL     1      29.041  37.191   8.021  1.00  0.00     0.211 HD
ENDBRANCH   6  46
BRANCH   7  48
ATOM     48  N   UNL     1      26.223  38.989   6.192  1.00  0.00    -0.348 N 
ATOM     49  C   UNL     1      26.570  40.319   5.831  1.00  0.00     0.217 C 
ATOM     50  H   UNL     1      25.963  38.330   5.438  1.00  0.00     0.163 HD
ATOM     51  C   UNL     1      26.571  40.792   4.445  1.00  0.00     0.114 C 
ATOM     52  O   UNL     1      26.893  41.140   6.757  1.00  0.00    -0.275 OA
ENDBRANCH   7  48
ENDBRANCH   1   2
BRANCH   1  53
ATOM     53  O   UNL     1      24.347  40.237   8.580  1.00  0.00    -0.388 OA
ATOM     54  H   UNL     1      24.258  40.965   7.891  1.00  0.00     0.211 HD
ENDBRANCH   1  53
BRANCH   1  55
ATOM     55  C   UNL     1      22.532  38.769   8.702  1.00  0.00     0.165 C 
BRANCH  55  56
ATOM     56  O   UNL     1      21.413  38.865   7.940  1.00  0.00    -0.388 OA
ATOM     57  H   UNL     1      21.426  38.174   7.237  1.00  0.00     0.211 HD
ENDBRANCH  55  56
BRANCH  55  58
ATOM     58  C   UNL     1      22.457  39.763   9.871  1.00  0.00     0.154 C 
BRANCH  58  59
ATOM     59  N   UNL     1      22.645  39.077  11.130  1.00  0.00    -0.319 N 
ATOM     60  C   UNL     1      21.869  38.000  11.612  1.00  0.00     0.407 C 
ATOM     61  H   UNL     1      23.436  39.374  11.782  1.00  0.00     0.167 HD
ATOM     62  O   UNL     1      20.949  37.514  10.925  1.00  0.00    -0.225 OA
BRANCH  60  63
ATOM     63  O   UNL     1      22.103  37.440  12.884  1.00  0.00    -0.443 OA
BRANCH  63  64
ATOM     64  C   UNL     1      23.143  38.016  13.703  1.00  0.00     0.294 C 
BRANCH  64  65
ATOM     65  C   UNL     1      24.068  36.852  13.967  1.00  0.00     0.120 A 
ATOM     66  C   UNL     1      23.625  35.515  13.979  1.00  0.00     0.138 A 
ATOM     67  N   UNL     1      25.351  36.801  14.267  1.00  0.00    -0.132 NA
ATOM     68  N   UNL     1      24.661  34.721  14.290  1.00  0.00    -0.249 N 
ATOM     69  N   UNL     1      25.693  35.510  14.459  1.00  0.00    -0.067 NA
BRANCH  68  70
ATOM     70  C   UNL     1      24.557  33.266  14.420  1.00  0.00     0.114 C 
ATOM     71  C   UNL     1      23.611  32.946  15.533  1.00  0.00     0.034 C 
BRANCH  70  72
ATOM     72  C   UNL     1      24.242  32.640  13.101  1.00  0.00     0.108 C 
BRANCH  72  73
ATOM     73  C   UNL     1      24.039  31.184  13.324  1.00  0.00     0.164 C 
ATOM     74  O   UNL     1      24.900  30.490  13.869  1.00  0.00    -0.294 OA
BRANCH  73  75
ATOM     75  C   UNL     1      22.766  30.602  12.869  1.00  0.00     0.018 A 
ATOM     76  C   UNL     1      22.624  29.295  12.579  1.00  0.00     0.012 A 
ATOM     77  C   UNL     1      21.677  31.481  12.750  1.00  0.00     0.012 A 
ATOM     78  C   UNL     1      21.380  28.795  12.157  1.00  0.00     0.001 A 
ATOM     79  C   UNL     1      20.478  30.976  12.339  1.00  0.00     0.001 A 
ATOM     80  C   UNL     1      20.309  29.650  12.041  1.00  0.00     0.000 A 
ENDBRANCH  73  75
ENDBRANCH  72  73
ENDBRANCH  70  72
ENDBRANCH  68  70
ENDBRANCH  64  65
ENDBRANCH  63  64
ENDBRANCH  60  63
ENDBRANCH  58  59
ENDBRANCH  55  58
ENDBRANCH   1  55
TORSDOF 33
BEGIN_RES LYS A 131
REMARK  4 active torsions:
REMARK  status: ('A' for Active; 'I' for Inactive)
REMARK    1  A    between atoms: CA   and  CB  
REMARK    2  A    between atoms: CB   and  CG  
REMARK    3  A    between atoms: CG   and  CD  
REMARK    4  A    between atoms: CD   and  CE  
ROOT
ATOM      1  CA  LYS A 131      29.867  25.555  16.977  1.00 20.52     0.186 C 
ENDROOT
BRANCH   1   2
ATOM      2  CB  LYS A 131      28.345  25.722  17.026  1.00 20.94     0.034 C 
BRANCH   2   3
ATOM      3  CG  LYS A 131      27.601  24.401  16.906  1.00 22.96     0.005 C 
BRANCH   3   4
ATOM      4  CD  LYS A 131      26.159  24.523  17.314  1.00 24.33     0.041 C 
BRANCH   4   5
ATOM      5  CE  LYS A 131      25.973  25.783  18.154  1.00 26.91     0.338 C 
ATOM      6  NZ  LYS A 131      24.763  26.521  17.720  1.00 27.40     0.618 N 
ENDBRANCH   4   5
ENDBRANCH   3   4
ENDBRANCH   2   3
ENDBRANCH   1   2
END_RES LYS A 131
BEGIN_RES LYS A 135
REMARK  4 active torsions:
REMARK  status: ('A' for Active; 'I' for Inactive)
REMARK    5  A    between atoms: CA   and  CB  
REMARK    6  A    between atoms: CB   and  CG  
REMARK    7  A    between atoms: CG   and  CD  
REMARK    8  A    between atoms: CD   and  CE  
ROOT
ATOM      7  CA  LYS A 135      33.193  34.663   9.290  1.00 25.02     0.186 C 
ENDROOT
BRANCH   7   8
ATOM      8  CB  LYS A 135      32.060  35.360  10.034  1.00 26.63     0.034 C 
BRANCH   8   9
ATOM      9  CG  LYS A 135      30.884  35.702   9.156  1.00 29.45     0.005 C 
BRANCH   9  10
ATOM     10  CD  LYS A 135      30.502  34.516   8.284  1.00 32.00     0.041 C 
BRANCH  10  11
ATOM     11  CE  LYS A 135      29.009  34.262   8.354  1.00 34.25     0.338 C 
ATOM     12  NZ  LYS A 135      28.620  33.710   9.681  1.00 35.99     0.618 N 
ENDBRANCH  10  11
ENDBRANCH   9  10
ENDBRANCH   8   9
ENDBRANCH   7   8
END_RES LYS A 135
