REMARK VINA RESULT:    -4.004      2.454      6.744
REMARK INTER + INTRA:         -21.940
REMARK INTER:                  -9.493
REMARK INTRA:                 -12.448
REMARK UNBOUND:               -11.851
REMARK SMILES CC(=O)N[C@@H]1[C@@H](O)C[C@](OC[C@H]2O[C@@H](O[C@H]3[C@H](O)[C@@H](O)[C@H](OCCN=[N+]=[N-])O[C@@H]3CO)[C@H](O)[C@@H](O)[C@H]2O)(C(=O)O)O[C@H]1C(O)[C@H](O)CNC(=O)OCc1cn(Cc2ccccc2)nn1
REMARK SMILES IDX 9 1 8 2 6 3 5 4 42 5 41 6 10 7 11 8 12 9 14 10 13 11 32 12
REMARK SMILES IDX 34 13 36 14 15 15 16 16 29 17 28 18 21 19 17 20 19 21 30 22
REMARK SMILES IDX 31 23 22 25 23 26 24 27 25 28 26 29 27 30 18 31 20 33 33 35
REMARK SMILES IDX 35 37 37 39 38 41 39 42 40 43 7 45 43 47 44 48 45 50 46 51
REMARK SMILES IDX 47 53 48 54 49 55 50 57 51 58 52 59 53 60 54 61 64 62 55 63
REMARK SMILES IDX 63 64 56 65 57 66 58 67 62 68 59 69 61 70 60 71 4 72 2 73
REMARK SMILES IDX 1 75 3 76
REMARK H PARENT 31 24 18 32 20 34 33 36 35 38 37 40 40 44 7 46 44 49 46 52
REMARK H PARENT 48 56 4 74
REMARK Flexibility Score: inf
ROOT
ATOM      1  C   UNL     1      29.346  30.466  20.841  1.00  0.00     0.272 C 
ATOM      2  C   UNL     1      29.923  29.268  21.501  1.00  0.00     0.113 C 
ATOM      3  C   UNL     1      29.052  28.098  21.249  1.00  0.00     0.145 C 
ATOM      4  C   UNL     1      27.753  28.431  20.498  1.00  0.00     0.142 C 
ATOM      5  C   UNL     1      27.151  29.674  21.001  1.00  0.00     0.178 C 
ATOM      6  O   UNL     1      28.070  30.663  21.399  1.00  0.00    -0.332 OA
ENDROOT
BRANCH   1   7
ATOM      7  O   UNL     1      29.297  30.439  19.463  1.00  0.00    -0.338 OA
BRANCH   7   8
ATOM      8  C   UNL     1      30.534  30.766  18.934  1.00  0.00     0.199 C 
BRANCH   8   9
ATOM      9  C   UNL     1      30.425  31.415  17.573  1.00  0.00     0.179 C 
ATOM     10  C   UNL     1      29.022  31.401  15.709  1.00  0.00     0.282 C 
ATOM     11  O   UNL     1      29.696  30.660  16.682  1.00  0.00    -0.341 OA
ATOM     12  C   UNL     1      29.806  32.555  15.207  1.00  0.00     0.202 C 
ATOM     13  C   UNL     1      30.082  33.523  16.314  1.00  0.00     0.179 C 
ATOM     14  C   UNL     1      29.953  32.842  17.657  1.00  0.00     0.177 C 
BRANCH  10  15
ATOM     15  O   UNL     1      27.777  31.808  16.161  1.00  0.00    -0.341 OA
BRANCH  15  16
ATOM     16  C   UNL     1      26.717  31.142  15.560  1.00  0.00     0.184 C 
ATOM     17  C   UNL     1      25.571  32.062  15.357  1.00  0.00     0.178 C 
ATOM     18  O   UNL     1      24.522  31.306  14.791  1.00  0.00    -0.341 OA
ATOM     19  C   UNL     1      23.971  30.582  15.868  1.00  0.00     0.281 C 
ATOM     20  C   UNL     1      26.294  30.076  16.584  1.00  0.00     0.180 C 
ATOM     21  C   UNL     1      24.949  29.497  16.293  1.00  0.00     0.202 C 
BRANCH  17  22
ATOM     22  C   UNL     1      25.913  33.222  14.428  1.00  0.00     0.191 C 
BRANCH  22  23
ATOM     23  O   UNL     1      26.441  34.249  15.242  1.00  0.00    -0.394 OA
ATOM     24  H   UNL     1      25.818  34.407  15.990  1.00  0.00     0.210 HD
ENDBRANCH  22  23
ENDBRANCH  17  22
BRANCH  19  25
ATOM     25  O   UNL     1      22.784  30.019  15.471  1.00  0.00    -0.350 OA
BRANCH  25  26
ATOM     26  C   UNL     1      21.725  30.712  16.023  1.00  0.00     0.169 C 
BRANCH  26  27
ATOM     27  C   UNL     1      20.708  29.862  16.723  1.00  0.00     0.119 C 
BRANCH  27  28
ATOM     28  N   UNL     1      19.420  30.132  16.066  1.00  0.00    -0.092 NA
ATOM     29  N   UNL     1      19.446  30.864  15.078  1.00  0.00     0.001 N 
ATOM     30  N   UNL     1      19.155  31.405  14.002  1.00  0.00    -0.003 NA
ENDBRANCH  27  28
ENDBRANCH  26  27
ENDBRANCH  25  26
ENDBRANCH  19  25
BRANCH  20  31
ATOM     31  O   UNL     1      27.260  29.057  16.454  1.00  0.00    -0.387 OA
ATOM     32  H   UNL     1      27.656  29.034  15.542  1.00  0.00     0.211 HD
ENDBRANCH  20  31
BRANCH  21  33
ATOM     33  O   UNL     1      24.440  28.907  17.449  1.00  0.00    -0.385 OA
ATOM     34  H   UNL     1      24.221  29.573  18.154  1.00  0.00     0.211 HD
ENDBRANCH  21  33
ENDBRANCH  15  16
ENDBRANCH  10  15
BRANCH  12  35
ATOM     35  O   UNL     1      30.989  32.157  14.560  1.00  0.00    -0.385 OA
ATOM     36  H   UNL     1      30.786  32.167  13.591  1.00  0.00     0.211 HD
ENDBRANCH  12  35
BRANCH  13  37
ATOM     37  O   UNL     1      29.188  34.582  16.218  1.00  0.00    -0.387 OA
ATOM     38  H   UNL     1      29.633  35.430  15.948  1.00  0.00     0.211 HD
ENDBRANCH  13  37
BRANCH  14  39
ATOM     39  O   UNL     1      28.738  33.021  18.259  1.00  0.00    -0.387 OA
ATOM     40  H   UNL     1      28.702  32.930  19.232  1.00  0.00     0.211 HD
ENDBRANCH  14  39
ENDBRANCH   8   9
ENDBRANCH   7   8
ENDBRANCH   1   7
BRANCH   1  41
ATOM     41  C   UNL     1      30.062  31.729  21.232  1.00  0.00     0.364 C 
ATOM     42  O   UNL     1      31.176  31.659  21.754  1.00  0.00    -0.246 OA
BRANCH  41  43
ATOM     43  O   UNL     1      29.471  32.952  21.004  1.00  0.00    -0.477 OA
ATOM     44  H   UNL     1      29.977  33.834  21.107  1.00  0.00     0.296 HD
ENDBRANCH  41  43
ENDBRANCH   1  41
BRANCH   3  45
ATOM     45  O   UNL     1      29.664  27.074  20.501  1.00  0.00    -0.391 OA
ATOM     46  H   UNL     1      29.181  26.236  20.530  1.00  0.00     0.211 HD
ENDBRANCH   3  45
BRANCH   5  47
ATOM     47  C   UNL     1      26.140  30.379  20.197  1.00  0.00     0.176 C 
BRANCH  47  48
ATOM     48  O   UNL     1      24.851  29.903  20.310  1.00  0.00    -0.388 OA
ATOM     49  H   UNL     1      24.343  30.254  21.074  1.00  0.00     0.211 HD
ENDBRANCH  47  48
BRANCH  47  50
ATOM     50  C   UNL     1      26.120  31.880  20.235  1.00  0.00     0.165 C 
BRANCH  50  51
ATOM     51  O   UNL     1      25.940  32.406  21.478  1.00  0.00    -0.388 OA
ATOM     52  H   UNL     1      25.754  33.365  21.493  1.00  0.00     0.211 HD
ENDBRANCH  50  51
BRANCH  50  53
ATOM     53  C   UNL     1      25.333  32.477  19.106  1.00  0.00     0.154 C 
BRANCH  53  54
ATOM     54  N   UNL     1      25.965  33.601  18.465  1.00  0.00    -0.319 N 
ATOM     55  C   UNL     1      25.945  34.943  18.964  1.00  0.00     0.407 C 
ATOM     56  H   UNL     1      26.505  33.499  17.553  1.00  0.00     0.167 HD
ATOM     57  O   UNL     1      25.337  35.194  20.029  1.00  0.00    -0.225 OA
BRANCH  55  58
ATOM     58  O   UNL     1      26.579  35.973  18.294  1.00  0.00    -0.443 OA
BRANCH  58  59
ATOM     59  C   UNL     1      27.355  36.895  19.021  1.00  0.00     0.294 C 
BRANCH  59  60
ATOM     60  C   UNL     1      28.800  36.682  18.788  1.00  0.00     0.120 A 
ATOM     61  C   UNL     1      29.582  37.482  17.943  1.00  0.00     0.138 A 
ATOM     62  N   UNL     1      29.645  35.768  19.277  1.00  0.00    -0.132 NA
ATOM     63  N   UNL     1      30.841  37.017  17.965  1.00  0.00    -0.248 N 
ATOM     64  N   UNL     1      30.865  35.993  18.766  1.00  0.00    -0.067 NA
BRANCH  63  65
ATOM     65  C   UNL     1      31.950  37.579  17.226  1.00  0.00     0.181 C 
BRANCH  65  66
ATOM     66  C   UNL     1      32.188  36.770  16.006  1.00  0.00    -0.026 A 
ATOM     67  C   UNL     1      33.067  35.701  15.995  1.00  0.00     0.005 A 
ATOM     68  C   UNL     1      31.506  37.100  14.845  1.00  0.00     0.005 A 
ATOM     69  C   UNL     1      33.256  34.977  14.830  1.00  0.00     0.000 A 
ATOM     70  C   UNL     1      31.702  36.369  13.688  1.00  0.00     0.000 A 
ATOM     71  C   UNL     1      32.575  35.312  13.687  1.00  0.00     0.000 A 
ENDBRANCH  65  66
ENDBRANCH  63  65
ENDBRANCH  59  60
ENDBRANCH  58  59
ENDBRANCH  55  58
ENDBRANCH  53  54
ENDBRANCH  50  53
ENDBRANCH  47  50
ENDBRANCH   5  47
BRANCH   4  72
ATOM     72  N   UNL     1      26.914  27.274  20.869  1.00  0.00    -0.348 N 
ATOM     73  C   UNL     1      26.069  26.607  19.954  1.00  0.00     0.217 C 
ATOM     74  H   UNL     1      26.939  26.927  21.852  1.00  0.00     0.163 HD
ATOM     75  C   UNL     1      25.227  25.442  20.359  1.00  0.00     0.114 C 
ATOM     76  O   UNL     1      26.032  27.014  18.767  1.00  0.00    -0.275 OA
ENDBRANCH   4  72
TORSDOF 31
BEGIN_RES LYS A 131
REMARK  4 active torsions:
REMARK  status: ('A' for Active; 'I' for Inactive)
REMARK    1  A    between atoms: CA   and  CB  
REMARK    2  A    between atoms: CB   and  CG  
REMARK    3  A    between atoms: CG   and  CD  
REMARK    4  A    between atoms: CD   and  CE  
ROOT
ATOM      1  CA  LYS A 131      29.867  25.555  16.977  1.00 20.52     0.186 C 
ENDROOT
BRANCH   1   2
ATOM      2  CB  LYS A 131      28.345  25.722  17.026  1.00 20.94     0.034 C 
BRANCH   2   3
ATOM      3  CG  LYS A 131      27.599  24.463  16.612  1.00 22.96     0.005 C 
BRANCH   3   4
ATOM      4  CD  LYS A 131      27.064  23.706  17.796  1.00 24.33     0.041 C 
BRANCH   4   5
ATOM      5  CE  LYS A 131      25.662  23.195  17.483  1.00 26.91     0.338 C 
ATOM      6  NZ  LYS A 131      24.803  24.300  16.997  1.00 27.40     0.618 N 
ENDBRANCH   4   5
ENDBRANCH   3   4
ENDBRANCH   2   3
ENDBRANCH   1   2
END_RES LYS A 131
BEGIN_RES LYS A 135
REMARK  4 active torsions:
REMARK  status: ('A' for Active; 'I' for Inactive)
REMARK    5  A    between atoms: CA   and  CB  
REMARK    6  A    between atoms: CB   and  CG  
REMARK    7  A    between atoms: CG   and  CD  
REMARK    8  A    between atoms: CD   and  CE  
ROOT
ATOM      7  CA  LYS A 135      33.193  34.663   9.290  1.00 25.02     0.186 C 
ENDROOT
BRANCH   7   8
ATOM      8  CB  LYS A 135      32.060  35.360  10.034  1.00 26.63     0.034 C 
BRANCH   8   9
ATOM      9  CG  LYS A 135      30.725  34.678   9.874  1.00 29.45     0.005 C 
BRANCH   9  10
ATOM     10  CD  LYS A 135      30.416  34.441   8.404  1.00 32.00     0.041 C 
BRANCH  10  11
ATOM     11  CE  LYS A 135      28.947  34.691   8.122  1.00 34.25     0.338 C 
ATOM     12  NZ  LYS A 135      28.085  34.024   9.137  1.00 35.99     0.618 N 
ENDBRANCH  10  11
ENDBRANCH   9  10
ENDBRANCH   8   9
ENDBRANCH   7   8
END_RES LYS A 135
