REMARK VINA RESULT:    -5.107      3.355      7.923
REMARK INTER + INTRA:         -24.653
REMARK INTER:                 -12.800
REMARK INTRA:                 -11.853
REMARK UNBOUND:               -11.187
REMARK SMILES CC(=O)N[C@@H]1[C@@H](O)C[C@](OC[C@H]2O[C@@H](O[C@H]3[C@H](O)[C@@H](O)[C@H](OCCN=[N+]=[N-])O[C@@H]3CO)[C@H](O)[C@@H](O)[C@H]2O)(C(=O)O)O[C@H]1C(O)[C@H](O)CNC(=O)OCc1cn(-c2ccc(S(=O)(=O)Nc3nccs3)cc2)nn1
REMARK SMILES IDX 43 1 42 2 9 3 8 4 41 5 6 6 5 7 10 8 11 9 12 10 14 11 13 12
REMARK SMILES IDX 32 13 34 14 36 15 15 16 16 17 29 18 28 19 21 20 17 21 19 22
REMARK SMILES IDX 30 23 31 24 22 26 23 27 24 28 25 29 26 30 27 31 18 32 20 34
REMARK SMILES IDX 33 36 35 38 37 40 38 42 39 43 40 44 7 46 4 48 2 49 1 51 3 52
REMARK SMILES IDX 44 53 45 55 46 56 47 58 48 59 49 60 50 62 51 63 52 64 53 65
REMARK SMILES IDX 54 66 72 67 55 68 71 69 56 70 57 71 70 72 58 73 69 74 59 75
REMARK SMILES IDX 60 76 61 77 62 78 63 79 64 81 65 82 68 83 66 84 67 85
REMARK H PARENT 31 25 18 33 20 35 33 37 35 39 37 41 40 45 7 47 4 50 44 54
REMARK H PARENT 46 57 48 61 63 80
REMARK Flexibility Score: inf
ROOT
ATOM      1  C   UNL     1      31.795  27.738  21.252  1.00  0.00     0.176 C 
ENDROOT
BRANCH   1   2
ATOM      2  C   UNL     1      31.442  29.111  21.717  1.00  0.00     0.178 C 
ATOM      3  C   UNL     1      29.925  30.746  21.018  1.00  0.00     0.272 C 
ATOM      4  C   UNL     1      30.559  31.388  22.271  1.00  0.00     0.113 C 
ATOM      5  O   UNL     1      30.614  29.619  20.668  1.00  0.00    -0.332 OA
ATOM      6  C   UNL     1      32.040  31.426  22.224  1.00  0.00     0.145 C 
ATOM      7  C   UNL     1      32.598  30.081  21.753  1.00  0.00     0.142 C 
BRANCH   3   8
ATOM      8  O   UNL     1      29.969  31.627  19.967  1.00  0.00    -0.338 OA
BRANCH   8   9
ATOM      9  C   UNL     1      30.105  31.051  18.730  1.00  0.00     0.199 C 
BRANCH   9  10
ATOM     10  C   UNL     1      28.973  31.385  17.786  1.00  0.00     0.179 C 
ATOM     11  C   UNL     1      28.329  32.154  15.792  1.00  0.00     0.282 C 
ATOM     12  O   UNL     1      29.391  31.505  16.465  1.00  0.00    -0.341 OA
ATOM     13  C   UNL     1      27.291  31.093  15.520  1.00  0.00     0.202 C 
ATOM     14  C   UNL     1      27.567  29.860  16.386  1.00  0.00     0.179 C 
ATOM     15  C   UNL     1      27.913  30.295  17.798  1.00  0.00     0.177 C 
BRANCH  11  16
ATOM     16  O   UNL     1      28.721  32.752  14.643  1.00  0.00    -0.341 OA
BRANCH  16  17
ATOM     17  C   UNL     1      29.198  34.045  14.766  1.00  0.00     0.184 C 
ATOM     18  C   UNL     1      29.762  34.683  13.563  1.00  0.00     0.178 C 
ATOM     19  O   UNL     1      30.739  35.627  13.988  1.00  0.00    -0.341 OA
ATOM     20  C   UNL     1      31.919  34.977  14.374  1.00  0.00     0.281 C 
ATOM     21  C   UNL     1      30.164  34.159  15.938  1.00  0.00     0.180 C 
ATOM     22  C   UNL     1      31.619  33.998  15.494  1.00  0.00     0.202 C 
BRANCH  18  23
ATOM     23  C   UNL     1      28.778  35.545  12.771  1.00  0.00     0.191 C 
BRANCH  23  24
ATOM     24  O   UNL     1      27.512  35.050  12.716  1.00  0.00    -0.394 OA
ATOM     25  H   UNL     1      27.286  34.794  11.793  1.00  0.00     0.210 HD
ENDBRANCH  23  24
ENDBRANCH  18  23
BRANCH  20  26
ATOM     26  O   UNL     1      32.814  35.936  14.792  1.00  0.00    -0.350 OA
BRANCH  26  27
ATOM     27  C   UNL     1      33.542  35.620  15.910  1.00  0.00     0.169 C 
BRANCH  27  28
ATOM     28  C   UNL     1      33.659  36.756  16.899  1.00  0.00     0.119 C 
BRANCH  28  29
ATOM     29  N   UNL     1      32.576  36.618  17.838  1.00  0.00    -0.092 NA
ATOM     30  N   UNL     1      32.535  35.636  18.575  1.00  0.00     0.001 N 
ATOM     31  N   UNL     1      32.186  34.548  19.039  1.00  0.00    -0.003 NA
ENDBRANCH  28  29
ENDBRANCH  27  28
ENDBRANCH  26  27
ENDBRANCH  20  26
BRANCH  21  32
ATOM     32  O   UNL     1      30.069  35.413  16.540  1.00  0.00    -0.387 OA
ATOM     33  H   UNL     1      30.698  35.498  17.293  1.00  0.00     0.211 HD
ENDBRANCH  21  32
BRANCH  22  34
ATOM     34  O   UNL     1      31.903  32.681  15.159  1.00  0.00    -0.385 OA
ATOM     35  H   UNL     1      31.229  32.400  14.502  1.00  0.00     0.211 HD
ENDBRANCH  22  34
ENDBRANCH  16  17
ENDBRANCH  11  16
BRANCH  13  36
ATOM     36  O   UNL     1      25.995  31.498  15.930  1.00  0.00    -0.385 OA
ATOM     37  H   UNL     1      25.301  31.031  15.444  1.00  0.00     0.211 HD
ENDBRANCH  13  36
BRANCH  14  38
ATOM     38  O   UNL     1      28.548  29.066  15.810  1.00  0.00    -0.387 OA
ATOM     39  H   UNL     1      29.052  29.549  15.104  1.00  0.00     0.211 HD
ENDBRANCH  14  38
BRANCH  15  40
ATOM     40  O   UNL     1      28.337  29.175  18.495  1.00  0.00    -0.387 OA
ATOM     41  H   UNL     1      28.441  28.374  17.956  1.00  0.00     0.211 HD
ENDBRANCH  15  40
ENDBRANCH   9  10
ENDBRANCH   8   9
ENDBRANCH   3   8
BRANCH   3  42
ATOM     42  C   UNL     1      28.547  30.430  21.402  1.00  0.00     0.364 C 
ATOM     43  O   UNL     1      27.792  31.283  21.971  1.00  0.00    -0.246 OA
BRANCH  42  44
ATOM     44  O   UNL     1      27.970  29.194  21.175  1.00  0.00    -0.477 OA
ATOM     45  H   UNL     1      27.103  29.130  20.627  1.00  0.00     0.296 HD
ENDBRANCH  42  44
ENDBRANCH   3  42
BRANCH   6  46
ATOM     46  O   UNL     1      32.539  32.469  21.445  1.00  0.00    -0.391 OA
ATOM     47  H   UNL     1      33.420  32.214  21.079  1.00  0.00     0.211 HD
ENDBRANCH   6  46
BRANCH   7  48
ATOM     48  N   UNL     1      33.706  29.703  22.556  1.00  0.00    -0.348 N 
ATOM     49  C   UNL     1      34.957  30.366  22.406  1.00  0.00     0.217 C 
ATOM     50  H   UNL     1      33.643  28.949  23.266  1.00  0.00     0.163 HD
ATOM     51  C   UNL     1      36.152  30.037  23.199  1.00  0.00     0.114 C 
ATOM     52  O   UNL     1      35.061  31.301  21.540  1.00  0.00    -0.275 OA
ENDBRANCH   7  48
ENDBRANCH   1   2
BRANCH   1  53
ATOM     53  O   UNL     1      32.113  27.808  19.858  1.00  0.00    -0.388 OA
ATOM     54  H   UNL     1      32.273  28.730  19.586  1.00  0.00     0.211 HD
ENDBRANCH   1  53
BRANCH   1  55
ATOM     55  C   UNL     1      30.762  26.668  21.455  1.00  0.00     0.165 C 
BRANCH  55  56
ATOM     56  O   UNL     1      29.719  27.028  20.534  1.00  0.00    -0.388 OA
ATOM     57  H   UNL     1      29.933  26.641  19.646  1.00  0.00     0.211 HD
ENDBRANCH  55  56
BRANCH  55  58
ATOM     58  C   UNL     1      30.077  26.796  22.810  1.00  0.00     0.154 C 
BRANCH  58  59
ATOM     59  N   UNL     1      28.660  26.717  22.571  1.00  0.00    -0.319 N 
ATOM     60  C   UNL     1      27.717  26.338  23.564  1.00  0.00     0.407 C 
ATOM     61  H   UNL     1      28.255  26.951  21.606  1.00  0.00     0.167 HD
ATOM     62  O   UNL     1      28.082  26.070  24.714  1.00  0.00    -0.225 OA
BRANCH  60  63
ATOM     63  O   UNL     1      26.360  26.254  23.277  1.00  0.00    -0.443 OA
BRANCH  63  64
ATOM     64  C   UNL     1      25.790  25.642  22.153  1.00  0.00     0.294 C 
BRANCH  64  65
ATOM     65  C   UNL     1      25.712  26.489  20.951  1.00  0.00     0.121 A 
ATOM     66  C   UNL     1      24.617  27.262  20.555  1.00  0.00     0.144 A 
ATOM     67  N   UNL     1      26.630  26.708  20.011  1.00  0.00    -0.131 NA
ATOM     68  N   UNL     1      24.906  27.916  19.401  1.00  0.00    -0.220 N 
ATOM     69  N   UNL     1      26.140  27.558  19.095  1.00  0.00    -0.062 NA
BRANCH  68  70
ATOM     70  C   UNL     1      24.014  28.806  18.707  1.00  0.00     0.066 A 
ATOM     71  C   UNL     1      24.176  30.162  18.718  1.00  0.00     0.030 A 
ATOM     72  C   UNL     1      22.949  28.256  18.016  1.00  0.00     0.030 A 
ATOM     73  C   UNL     1      23.275  30.982  18.040  1.00  0.00     0.024 A 
ATOM     74  C   UNL     1      22.036  29.021  17.332  1.00  0.00     0.024 A 
ATOM     75  C   UNL     1      22.230  30.396  17.365  1.00  0.00     0.088 A 
BRANCH  75  76
ATOM     76  S   UNL     1      21.081  31.396  16.511  1.00  0.00     0.263 S 
ATOM     77  O   UNL     1      20.695  32.539  17.430  1.00  0.00    -0.201 OA
ATOM     78  O   UNL     1      19.853  30.559  16.291  1.00  0.00    -0.201 OA
BRANCH  76  79
ATOM     79  N   UNL     1      21.757  31.944  15.048  1.00  0.00    -0.255 N 
ATOM     80  H   UNL     1      21.573  32.920  14.757  1.00  0.00     0.182 HD
BRANCH  79  81
ATOM     81  C   UNL     1      22.530  31.088  14.281  1.00  0.00     0.196 A 
ATOM     82  N   UNL     1      23.756  30.841  14.029  1.00  0.00    -0.228 NA
ATOM     83  S   UNL     1      21.739  29.812  13.188  1.00  0.00    -0.105 S 
ATOM     84  C   UNL     1      24.199  29.942  13.229  1.00  0.00     0.125 A 
ATOM     85  C   UNL     1      23.316  29.142  12.556  1.00  0.00     0.089 A 
ENDBRANCH  79  81
ENDBRANCH  76  79
ENDBRANCH  75  76
ENDBRANCH  68  70
ENDBRANCH  64  65
ENDBRANCH  63  64
ENDBRANCH  60  63
ENDBRANCH  58  59
ENDBRANCH  55  58
ENDBRANCH   1  55
TORSDOF 33
BEGIN_RES LYS A 131
REMARK  4 active torsions:
REMARK  status: ('A' for Active; 'I' for Inactive)
REMARK    1  A    between atoms: CA   and  CB  
REMARK    2  A    between atoms: CB   and  CG  
REMARK    3  A    between atoms: CG   and  CD  
REMARK    4  A    between atoms: CD   and  CE  
ROOT
ATOM      1  CA  LYS A 131      29.867  25.555  16.977  1.00 20.52     0.186 C 
ENDROOT
BRANCH   1   2
ATOM      2  CB  LYS A 131      28.345  25.722  17.026  1.00 20.94     0.034 C 
BRANCH   2   3
ATOM      3  CG  LYS A 131      27.599  24.443  16.679  1.00 22.96     0.005 C 
BRANCH   3   4
ATOM      4  CD  LYS A 131      26.829  23.901  17.852  1.00 24.33     0.041 C 
BRANCH   4   5
ATOM      5  CE  LYS A 131      25.354  24.263  17.703  1.00 26.91     0.338 C 
ATOM      6  NZ  LYS A 131      24.544  23.047  17.452  1.00 27.40     0.618 N 
ENDBRANCH   4   5
ENDBRANCH   3   4
ENDBRANCH   2   3
ENDBRANCH   1   2
END_RES LYS A 131
BEGIN_RES LYS A 135
REMARK  4 active torsions:
REMARK  status: ('A' for Active; 'I' for Inactive)
REMARK    5  A    between atoms: CA   and  CB  
REMARK    6  A    between atoms: CB   and  CG  
REMARK    7  A    between atoms: CG   and  CD  
REMARK    8  A    between atoms: CD   and  CE  
ROOT
ATOM      7  CA  LYS A 135      33.193  34.663   9.290  1.00 25.02     0.186 C 
ENDROOT
BRANCH   7   8
ATOM      8  CB  LYS A 135      32.060  35.360  10.034  1.00 26.63     0.034 C 
BRANCH   8   9
ATOM      9  CG  LYS A 135      30.770  35.411   9.256  1.00 29.45     0.005 C 
BRANCH   9  10
ATOM     10  CD  LYS A 135      30.193  34.015   9.082  1.00 32.00     0.041 C 
BRANCH  10  11
ATOM     11  CE  LYS A 135      28.688  34.034   9.275  1.00 34.25     0.338 C 
ATOM     12  NZ  LYS A 135      28.148  35.415   9.147  1.00 35.99     0.618 N 
ENDBRANCH  10  11
ENDBRANCH   9  10
ENDBRANCH   8   9
ENDBRANCH   7   8
END_RES LYS A 135
