REMARK VINA RESULT:    -5.457      5.245     11.743
REMARK INTER + INTRA:         -24.605
REMARK INTER:                 -11.447
REMARK INTRA:                 -13.158
REMARK UNBOUND:               -10.853
REMARK SMILES CC(=O)N[C@@H]1[C@@H](O)C[C@](OC[C@H]2O[C@@H](O[C@H]3[C@H](O)[C@@H](O)[C@H](OCCN=[N+]=[N-])O[C@@H]3CO)[C@H](O)[C@@H](O)[C@H]2O)(C(=O)O)O[C@H]1C(O)[C@H](O)CNC(=O)OCc1cn(-c2ncn3c2c(=O)n(C(C)C)c2ccccc23)nn1
REMARK SMILES IDX 9 1 8 2 6 3 5 4 42 5 41 6 10 7 11 8 12 9 14 10 13 11 32 12
REMARK SMILES IDX 34 13 36 14 15 15 16 16 29 17 28 18 21 19 17 20 19 21 30 22
REMARK SMILES IDX 31 23 22 25 23 26 24 27 25 28 26 29 27 30 18 31 20 33 33 35
REMARK SMILES IDX 35 37 37 39 38 41 39 42 40 43 7 45 43 47 44 48 45 50 46 51
REMARK SMILES IDX 47 53 48 54 49 55 50 57 51 58 52 59 53 60 54 61 74 62 55 63
REMARK SMILES IDX 73 64 56 65 57 66 60 67 58 68 59 69 61 70 72 71 63 72 62 73
REMARK SMILES IDX 71 74 67 75 70 76 68 77 69 78 64 79 65 80 66 81 4 82 2 83
REMARK SMILES IDX 1 85 3 86
REMARK H PARENT 31 24 18 32 20 34 33 36 35 38 37 40 40 44 7 46 44 49 46 52
REMARK H PARENT 48 56 4 84
REMARK Flexibility Score: inf
ROOT
ATOM      1  C   UNL     1      25.482  32.384  18.191  1.00  0.00     0.272 C 
ATOM      2  C   UNL     1      24.074  31.856  18.251  1.00  0.00     0.113 C 
ATOM      3  C   UNL     1      23.615  31.295  16.972  1.00  0.00     0.145 C 
ATOM      4  C   UNL     1      24.611  30.412  16.277  1.00  0.00     0.142 C 
ATOM      5  C   UNL     1      26.026  30.747  16.583  1.00  0.00     0.178 C 
ATOM      6  O   UNL     1      26.308  31.297  17.762  1.00  0.00    -0.332 OA
ENDROOT
BRANCH   1   7
ATOM      7  O   UNL     1      25.888  32.533  19.488  1.00  0.00    -0.338 OA
BRANCH   7   8
ATOM      8  C   UNL     1      26.652  33.469  19.976  1.00  0.00     0.199 C 
BRANCH   8   9
ATOM      9  C   UNL     1      27.976  33.278  20.633  1.00  0.00     0.179 C 
ATOM     10  C   UNL     1      29.596  31.608  20.728  1.00  0.00     0.282 C 
ATOM     11  O   UNL     1      28.377  31.966  20.217  1.00  0.00    -0.341 OA
ATOM     12  C   UNL     1      30.719  32.495  20.219  1.00  0.00     0.202 C 
ATOM     13  C   UNL     1      30.385  33.960  20.435  1.00  0.00     0.179 C 
ATOM     14  C   UNL     1      28.983  34.205  19.949  1.00  0.00     0.177 C 
BRANCH  10  15
ATOM     15  O   UNL     1      29.853  30.311  20.300  1.00  0.00    -0.341 OA
BRANCH  15  16
ATOM     16  C   UNL     1      29.622  29.404  21.300  1.00  0.00     0.184 C 
ATOM     17  C   UNL     1      30.132  28.062  20.918  1.00  0.00     0.178 C 
ATOM     18  O   UNL     1      29.207  27.178  20.423  1.00  0.00    -0.341 OA
ATOM     19  C   UNL     1      28.103  27.728  19.828  1.00  0.00     0.281 C 
ATOM     20  C   UNL     1      28.173  29.371  21.742  1.00  0.00     0.180 C 
ATOM     21  C   UNL     1      27.342  28.663  20.736  1.00  0.00     0.202 C 
BRANCH  17  22
ATOM     22  C   UNL     1      30.876  27.426  22.073  1.00  0.00     0.191 C 
BRANCH  22  23
ATOM     23  O   UNL     1      30.015  26.414  22.562  1.00  0.00    -0.394 OA
ATOM     24  H   UNL     1      29.481  26.115  21.791  1.00  0.00     0.210 HD
ENDBRANCH  22  23
ENDBRANCH  17  22
BRANCH  19  25
ATOM     25  O   UNL     1      27.217  26.673  19.542  1.00  0.00    -0.350 OA
BRANCH  25  26
ATOM     26  C   UNL     1      26.297  26.433  20.525  1.00  0.00     0.169 C 
BRANCH  26  27
ATOM     27  C   UNL     1      24.904  26.144  20.061  1.00  0.00     0.119 C 
BRANCH  27  28
ATOM     28  N   UNL     1      24.550  27.236  19.140  1.00  0.00    -0.092 NA
ATOM     29  N   UNL     1      23.503  27.844  19.188  1.00  0.00     0.001 N 
ATOM     30  N   UNL     1      22.385  28.322  18.972  1.00  0.00    -0.003 NA
ENDBRANCH  27  28
ENDBRANCH  26  27
ENDBRANCH  25  26
ENDBRANCH  19  25
BRANCH  20  31
ATOM     31  O   UNL     1      28.107  28.808  23.022  1.00  0.00    -0.387 OA
ATOM     32  H   UNL     1      28.854  28.141  23.048  1.00  0.00     0.211 HD
ENDBRANCH  20  31
BRANCH  21  33
ATOM     33  O   UNL     1      26.733  29.642  19.931  1.00  0.00    -0.385 OA
ATOM     34  H   UNL     1      27.210  29.756  19.069  1.00  0.00     0.211 HD
ENDBRANCH  21  33
ENDBRANCH  15  16
ENDBRANCH  10  15
BRANCH  12  35
ATOM     35  O   UNL     1      31.841  32.234  21.001  1.00  0.00    -0.385 OA
ATOM     36  H   UNL     1      32.278  33.060  21.318  1.00  0.00     0.211 HD
ENDBRANCH  12  35
BRANCH  13  37
ATOM     37  O   UNL     1      31.233  34.689  19.580  1.00  0.00    -0.387 OA
ATOM     38  H   UNL     1      31.896  34.078  19.154  1.00  0.00     0.211 HD
ENDBRANCH  13  37
BRANCH  14  39
ATOM     39  O   UNL     1      28.989  33.878  18.568  1.00  0.00    -0.387 OA
ATOM     40  H   UNL     1      28.767  34.675  18.030  1.00  0.00     0.211 HD
ENDBRANCH  14  39
ENDBRANCH   8   9
ENDBRANCH   7   8
ENDBRANCH   1   7
BRANCH   1  41
ATOM     41  C   UNL     1      25.687  33.479  17.254  1.00  0.00     0.364 C 
ATOM     42  O   UNL     1      24.831  34.307  16.944  1.00  0.00    -0.246 OA
BRANCH  41  43
ATOM     43  O   UNL     1      26.935  33.651  16.625  1.00  0.00    -0.477 OA
ATOM     44  H   UNL     1      27.460  32.837  16.331  1.00  0.00     0.296 HD
ENDBRANCH  41  43
ENDBRANCH   1  41
BRANCH   3  45
ATOM     45  O   UNL     1      22.445  30.541  17.253  1.00  0.00    -0.391 OA
ATOM     46  H   UNL     1      22.526  29.627  16.898  1.00  0.00     0.211 HD
ENDBRANCH   3  45
BRANCH   5  47
ATOM     47  C   UNL     1      26.959  29.572  16.350  1.00  0.00     0.176 C 
BRANCH  47  48
ATOM     48  O   UNL     1      26.590  28.518  17.157  1.00  0.00    -0.388 OA
ATOM     49  H   UNL     1      27.323  28.184  17.733  1.00  0.00     0.211 HD
ENDBRANCH  47  48
BRANCH  47  50
ATOM     50  C   UNL     1      28.404  29.885  16.515  1.00  0.00     0.165 C 
BRANCH  50  51
ATOM     51  O   UNL     1      28.828  30.173  17.784  1.00  0.00    -0.388 OA
ATOM     52  H   UNL     1      29.372  30.991  17.857  1.00  0.00     0.211 HD
ENDBRANCH  50  51
BRANCH  50  53
ATOM     53  C   UNL     1      28.914  30.912  15.550  1.00  0.00     0.154 C 
BRANCH  53  54
ATOM     54  N   UNL     1      29.480  32.060  16.269  1.00  0.00    -0.319 N 
ATOM     55  C   UNL     1      30.776  32.543  16.025  1.00  0.00     0.407 C 
ATOM     56  H   UNL     1      28.893  32.554  17.006  1.00  0.00     0.167 HD
ATOM     57  O   UNL     1      31.525  31.996  15.175  1.00  0.00    -0.225 OA
BRANCH  55  58
ATOM     58  O   UNL     1      31.215  33.657  16.756  1.00  0.00    -0.443 OA
BRANCH  58  59
ATOM     59  C   UNL     1      31.800  34.750  16.106  1.00  0.00     0.294 C 
BRANCH  59  60
ATOM     60  C   UNL     1      30.776  35.641  15.441  1.00  0.00     0.121 A 
ATOM     61  C   UNL     1      30.265  35.488  14.172  1.00  0.00     0.146 A 
ATOM     62  N   UNL     1      30.169  36.727  15.946  1.00  0.00    -0.131 NA
ATOM     63  N   UNL     1      29.360  36.481  13.927  1.00  0.00    -0.200 N 
ATOM     64  N   UNL     1      29.334  37.207  15.028  1.00  0.00    -0.060 NA
BRANCH  63  65
ATOM     65  C   UNL     1      28.618  36.652  12.720  1.00  0.00     0.186 A 
ATOM     66  N   UNL     1      29.066  37.296  11.628  1.00  0.00    -0.216 NA
ATOM     67  C   UNL     1      27.349  36.246  12.393  1.00  0.00     0.158 A 
ATOM     68  C   UNL     1      28.117  37.288  10.672  1.00  0.00     0.207 A 
ATOM     69  N   UNL     1      27.029  36.634  11.133  1.00  0.00    -0.291 N 
ATOM     70  C   UNL     1      26.433  35.548  13.138  1.00  0.00     0.279 A 
ATOM     71  C   UNL     1      25.831  36.350  10.592  1.00  0.00     0.071 A 
ATOM     72  N   UNL     1      25.215  35.247  12.620  1.00  0.00    -0.302 N 
ATOM     73  O   UNL     1      26.706  35.172  14.320  1.00  0.00    -0.267 OA
ATOM     74  C   UNL     1      25.504  36.745   9.323  1.00  0.00     0.029 A 
ATOM     75  C   UNL     1      24.928  35.649  11.362  1.00  0.00     0.068 A 
ATOM     76  C   UNL     1      24.251  36.454   8.762  1.00  0.00     0.002 A 
ATOM     77  C   UNL     1      23.696  35.364  10.805  1.00  0.00     0.028 A 
ATOM     78  C   UNL     1      23.341  35.754   9.519  1.00  0.00     0.002 A 
BRANCH  72  79
ATOM     79  C   UNL     1      24.241  34.495  13.411  1.00  0.00     0.085 C 
ATOM     80  C   UNL     1      23.042  35.295  13.801  1.00  0.00     0.031 C 
ATOM     81  C   UNL     1      23.925  33.152  12.803  1.00  0.00     0.031 C 
ENDBRANCH  72  79
ENDBRANCH  63  65
ENDBRANCH  59  60
ENDBRANCH  58  59
ENDBRANCH  55  58
ENDBRANCH  53  54
ENDBRANCH  50  53
ENDBRANCH  47  50
ENDBRANCH   5  47
BRANCH   4  82
ATOM     82  N   UNL     1      24.323  30.427  14.858  1.00  0.00    -0.348 N 
ATOM     83  C   UNL     1      23.561  29.431  14.207  1.00  0.00     0.217 C 
ATOM     84  H   UNL     1      24.691  31.209  14.263  1.00  0.00     0.163 HD
ATOM     85  C   UNL     1      23.272  29.459  12.743  1.00  0.00     0.114 C 
ATOM     86  O   UNL     1      23.111  28.480  14.912  1.00  0.00    -0.275 OA
ENDBRANCH   4  82
TORSDOF 31
BEGIN_RES LYS A 131
REMARK  4 active torsions:
REMARK  status: ('A' for Active; 'I' for Inactive)
REMARK    1  A    between atoms: CA   and  CB  
REMARK    2  A    between atoms: CB   and  CG  
REMARK    3  A    between atoms: CG   and  CD  
REMARK    4  A    between atoms: CD   and  CE  
ROOT
ATOM      1  CA  LYS A 131      29.867  25.555  16.977  1.00 20.52     0.186 C 
ENDROOT
BRANCH   1   2
ATOM      2  CB  LYS A 131      28.345  25.722  17.026  1.00 20.94     0.034 C 
BRANCH   2   3
ATOM      3  CG  LYS A 131      27.599  24.457  16.629  1.00 22.96     0.005 C 
BRANCH   3   4
ATOM      4  CD  LYS A 131      26.998  23.758  17.817  1.00 24.33     0.041 C 
BRANCH   4   5
ATOM      5  CE  LYS A 131      25.605  23.251  17.457  1.00 26.91     0.338 C 
ATOM      6  NZ  LYS A 131      24.770  24.355  16.929  1.00 27.40     0.618 N 
ENDBRANCH   4   5
ENDBRANCH   3   4
ENDBRANCH   2   3
ENDBRANCH   1   2
END_RES LYS A 131
BEGIN_RES LYS A 135
REMARK  4 active torsions:
REMARK  status: ('A' for Active; 'I' for Inactive)
REMARK    5  A    between atoms: CA   and  CB  
REMARK    6  A    between atoms: CB   and  CG  
REMARK    7  A    between atoms: CG   and  CD  
REMARK    8  A    between atoms: CD   and  CE  
ROOT
ATOM      7  CA  LYS A 135      33.193  34.663   9.290  1.00 25.02     0.186 C 
ENDROOT
BRANCH   7   8
ATOM      8  CB  LYS A 135      32.060  35.360  10.034  1.00 26.63     0.034 C 
BRANCH   8   9
ATOM      9  CG  LYS A 135      30.704  34.761   9.765  1.00 29.45     0.005 C 
BRANCH   9  10
ATOM     10  CD  LYS A 135      30.530  34.472   8.282  1.00 32.00     0.041 C 
BRANCH  10  11
ATOM     11  CE  LYS A 135      29.261  35.117   7.759  1.00 34.25     0.338 C 
ATOM     12  NZ  LYS A 135      28.051  34.468   8.336  1.00 35.99     0.618 N 
ENDBRANCH  10  11
ENDBRANCH   9  10
ENDBRANCH   8   9
ENDBRANCH   7   8
END_RES LYS A 135
