REMARK VINA RESULT:    -4.305      5.053     10.413
REMARK INTER + INTRA:         -22.031
REMARK INTER:                 -11.469
REMARK INTRA:                 -10.561
REMARK UNBOUND:               -10.427
REMARK SMILES CCN(CC)CCn1cc(COC(=O)NC[C@@H](O)C(O)[C@@H]2O[C@@](OC[C@H]3O[C@@H](O[C@H]4[C@H](O)[C@@H](O)[C@H](OCCN=[N+]=[N-])O[C@@H]4CO)[C@H](O)[C@@H](O)[C@H]3O)(C(=O)O)C[C@H](O)[C@H]2NC(C)=O)nn1
REMARK SMILES IDX 19 1 21 2 23 3 55 4 22 5 56 6 58 7 24 8 25 9 26 10 28 11
REMARK SMILES IDX 27 12 46 13 48 14 50 15 29 16 30 17 43 18 42 19 35 20 31 21
REMARK SMILES IDX 33 22 44 23 45 24 36 26 37 27 38 28 39 29 40 30 41 31 32 32
REMARK SMILES IDX 34 34 47 36 49 38 51 40 52 42 53 43 54 44 57 46 59 48 60 49
REMARK SMILES IDX 61 51 62 52 20 53 17 55 18 56 16 58 15 59 13 60 14 62 12 63
REMARK SMILES IDX 11 64 10 65 9 66 63 67 8 68 64 69 7 70 6 71 3 72 2 73 1 74
REMARK SMILES IDX 4 75 5 76
REMARK H PARENT 45 25 32 33 34 35 47 37 49 39 51 41 54 45 57 47 59 50 20 54
REMARK H PARENT 18 57 15 61
REMARK Flexibility Score: inf
ROOT
ATOM      1  C   UNL     1      27.662  36.087  14.271  1.00  0.00     0.176 C 
ENDROOT
BRANCH   1   2
ATOM      2  C   UNL     1      26.637  35.410  13.401  1.00  0.00     0.178 C 
ATOM      3  C   UNL     1      25.791  35.303  11.263  1.00  0.00     0.272 C 
ATOM      4  C   UNL     1      25.069  34.129  11.941  1.00  0.00     0.113 C 
ATOM      5  O   UNL     1      26.736  35.849  12.103  1.00  0.00    -0.332 OA
ATOM      6  C   UNL     1      24.409  34.498  13.230  1.00  0.00     0.145 C 
ATOM      7  C   UNL     1      25.210  35.658  13.841  1.00  0.00     0.142 C 
BRANCH   3   8
ATOM      8  O   UNL     1      24.814  36.177  10.851  1.00  0.00    -0.338 OA
BRANCH   8   9
ATOM      9  C   UNL     1      25.163  37.505  10.819  1.00  0.00     0.199 C 
BRANCH   9  10
ATOM     10  C   UNL     1      24.702  38.169   9.509  1.00  0.00     0.179 C 
ATOM     11  C   UNL     1      22.578  38.289   8.506  1.00  0.00     0.282 C 
ATOM     12  O   UNL     1      23.557  37.551   9.154  1.00  0.00    -0.341 OA
ATOM     13  C   UNL     1      23.133  39.435   7.760  1.00  0.00     0.202 C 
ATOM     14  C   UNL     1      23.977  40.359   8.593  1.00  0.00     0.179 C 
ATOM     15  C   UNL     1      24.485  39.621   9.813  1.00  0.00     0.177 C 
BRANCH  11  16
ATOM     16  O   UNL     1      21.624  38.545   9.480  1.00  0.00    -0.341 OA
BRANCH  16  17
ATOM     17  C   UNL     1      20.545  37.733   9.447  1.00  0.00     0.184 C 
ATOM     18  C   UNL     1      20.561  36.687  10.531  1.00  0.00     0.178 C 
ATOM     19  O   UNL     1      19.330  35.972  10.462  1.00  0.00    -0.341 OA
ATOM     20  C   UNL     1      19.436  35.041   9.453  1.00  0.00     0.281 C 
ATOM     21  C   UNL     1      20.389  36.986   8.127  1.00  0.00     0.180 C 
ATOM     22  C   UNL     1      20.216  35.511   8.303  1.00  0.00     0.202 C 
BRANCH  18  23
ATOM     23  C   UNL     1      20.824  37.182  11.907  1.00  0.00     0.191 C 
BRANCH  23  24
ATOM     24  O   UNL     1      22.198  37.315  12.061  1.00  0.00    -0.394 OA
ATOM     25  H   UNL     1      22.460  37.987  12.738  1.00  0.00     0.210 HD
ENDBRANCH  23  24
ENDBRANCH  18  23
BRANCH  20  26
ATOM     26  O   UNL     1      18.204  34.480   9.132  1.00  0.00    -0.350 OA
BRANCH  26  27
ATOM     27  C   UNL     1      18.172  33.794   7.955  1.00  0.00     0.169 C 
BRANCH  27  28
ATOM     28  C   UNL     1      16.763  33.545   7.452  1.00  0.00     0.119 C 
BRANCH  28  29
ATOM     29  N   UNL     1      16.720  32.409   6.552  1.00  0.00    -0.092 NA
ATOM     30  N   UNL     1      16.801  31.239   6.945  1.00  0.00     0.001 N 
ATOM     31  N   UNL     1      17.333  30.175   7.267  1.00  0.00    -0.003 NA
ENDBRANCH  28  29
ENDBRANCH  27  28
ENDBRANCH  26  27
ENDBRANCH  20  26
BRANCH  21  32
ATOM     32  O   UNL     1      19.291  37.501   7.463  1.00  0.00    -0.387 OA
ATOM     33  H   UNL     1      19.512  38.133   6.749  1.00  0.00     0.211 HD
ENDBRANCH  21  32
BRANCH  22  34
ATOM     34  O   UNL     1      21.465  34.843   8.278  1.00  0.00    -0.385 OA
ATOM     35  H   UNL     1      22.151  35.558   8.220  1.00  0.00     0.211 HD
ENDBRANCH  22  34
ENDBRANCH  16  17
ENDBRANCH  11  16
BRANCH  13  36
ATOM     36  O   UNL     1      23.985  38.927   6.735  1.00  0.00    -0.385 OA
ATOM     37  H   UNL     1      23.465  38.521   6.018  1.00  0.00     0.211 HD
ENDBRANCH  13  36
BRANCH  14  38
ATOM     38  O   UNL     1      23.349  41.546   8.935  1.00  0.00    -0.387 OA
ATOM     39  H   UNL     1      23.787  42.021   9.659  1.00  0.00     0.211 HD
ENDBRANCH  14  38
BRANCH  15  40
ATOM     40  O   UNL     1      23.522  39.730  10.807  1.00  0.00    -0.387 OA
ATOM     41  H   UNL     1      22.735  40.245  10.469  1.00  0.00     0.211 HD
ENDBRANCH  15  40
ENDBRANCH   9  10
ENDBRANCH   8   9
ENDBRANCH   3   8
BRANCH   3  42
ATOM     42  C   UNL     1      26.479  34.686  10.101  1.00  0.00     0.364 C 
ATOM     43  O   UNL     1      26.098  34.942   8.908  1.00  0.00    -0.246 OA
BRANCH  42  44
ATOM     44  O   UNL     1      27.546  33.816  10.194  1.00  0.00    -0.477 OA
ATOM     45  H   UNL     1      28.463  34.164  10.454  1.00  0.00     0.296 HD
ENDBRANCH  42  44
ENDBRANCH   3  42
BRANCH   6  46
ATOM     46  O   UNL     1      23.064  34.761  13.147  1.00  0.00    -0.391 OA
ATOM     47  H   UNL     1      22.689  34.675  14.060  1.00  0.00     0.211 HD
ENDBRANCH   6  46
BRANCH   7  48
ATOM     48  N   UNL     1      25.024  35.740  15.250  1.00  0.00    -0.348 N 
ATOM     49  C   UNL     1      23.982  36.603  15.750  1.00  0.00     0.217 C 
ATOM     50  H   UNL     1      25.570  35.229  15.966  1.00  0.00     0.163 HD
ATOM     51  C   UNL     1      23.731  36.740  17.207  1.00  0.00     0.114 C 
ATOM     52  O   UNL     1      23.251  37.270  14.970  1.00  0.00    -0.275 OA
ENDBRANCH   7  48
ENDBRANCH   1   2
BRANCH   1  53
ATOM     53  O   UNL     1      28.246  35.127  15.087  1.00  0.00    -0.388 OA
ATOM     54  H   UNL     1      29.026  35.539  15.575  1.00  0.00     0.211 HD
ENDBRANCH   1  53
BRANCH   1  55
ATOM     55  C   UNL     1      28.712  36.651  13.348  1.00  0.00     0.165 C 
BRANCH  55  56
ATOM     56  O   UNL     1      29.371  35.596  12.705  1.00  0.00    -0.388 OA
ATOM     57  H   UNL     1      29.627  35.901  11.802  1.00  0.00     0.211 HD
ENDBRANCH  55  56
BRANCH  55  58
ATOM     58  C   UNL     1      29.709  37.548  13.982  1.00  0.00     0.154 C 
BRANCH  58  59
ATOM     59  N   UNL     1      30.930  36.911  14.339  1.00  0.00    -0.319 N 
ATOM     60  C   UNL     1      31.156  36.544  15.710  1.00  0.00     0.407 C 
ATOM     61  H   UNL     1      31.657  36.712  13.651  1.00  0.00     0.167 HD
ATOM     62  O   UNL     1      30.303  36.782  16.587  1.00  0.00    -0.225 OA
BRANCH  60  63
ATOM     63  O   UNL     1      32.350  35.919  16.033  1.00  0.00    -0.443 OA
BRANCH  63  64
ATOM     64  C   UNL     1      32.782  34.815  15.221  1.00  0.00     0.294 C 
BRANCH  64  65
ATOM     65  C   UNL     1      31.692  33.831  15.193  1.00  0.00     0.120 A 
ATOM     66  C   UNL     1      31.480  32.879  16.196  1.00  0.00     0.138 A 
ATOM     67  N   UNL     1      30.728  33.619  14.301  1.00  0.00    -0.132 NA
ATOM     68  N   UNL     1      30.405  32.140  15.868  1.00  0.00    -0.251 N 
ATOM     69  N   UNL     1      29.972  32.604  14.726  1.00  0.00    -0.067 NA
BRANCH  68  70
ATOM     70  C   UNL     1      29.827  31.042  16.618  1.00  0.00     0.161 C 
BRANCH  70  71
ATOM     71  C   UNL     1      28.800  30.370  15.733  1.00  0.00     0.108 C 
BRANCH  71  72
ATOM     72  N   UNL     1      27.528  30.188  16.370  1.00  0.00    -0.302 NA
BRANCH  72  73
ATOM     73  C   UNL     1      27.312  28.826  16.777  1.00  0.00     0.081 C 
ATOM     74  C   UNL     1      27.299  28.774  18.300  1.00  0.00     0.021 C 
ENDBRANCH  72  73
BRANCH  72  75
ATOM     75  C   UNL     1      26.440  30.739  15.624  1.00  0.00     0.081 C 
ATOM     76  C   UNL     1      26.392  32.247  15.766  1.00  0.00     0.021 C 
ENDBRANCH  72  75
ENDBRANCH  71  72
ENDBRANCH  70  71
ENDBRANCH  68  70
ENDBRANCH  64  65
ENDBRANCH  63  64
ENDBRANCH  60  63
ENDBRANCH  58  59
ENDBRANCH  55  58
ENDBRANCH   1  55
TORSDOF 34
BEGIN_RES LYS A 131
REMARK  4 active torsions:
REMARK  status: ('A' for Active; 'I' for Inactive)
REMARK    1  A    between atoms: CA   and  CB  
REMARK    2  A    between atoms: CB   and  CG  
REMARK    3  A    between atoms: CG   and  CD  
REMARK    4  A    between atoms: CD   and  CE  
ROOT
ATOM      1  CA  LYS A 131      29.867  25.555  16.977  1.00 20.52     0.186 C 
ENDROOT
BRANCH   1   2
ATOM      2  CB  LYS A 131      28.345  25.722  17.026  1.00 20.94     0.034 C 
BRANCH   2   3
ATOM      3  CG  LYS A 131      27.602  24.400  16.915  1.00 22.96     0.005 C 
BRANCH   3   4
ATOM      4  CD  LYS A 131      26.166  24.519  17.347  1.00 24.33     0.041 C 
BRANCH   4   5
ATOM      5  CE  LYS A 131      25.944  23.691  18.609  1.00 26.91     0.338 C 
ATOM      6  NZ  LYS A 131      24.731  22.851  18.472  1.00 27.40     0.618 N 
ENDBRANCH   4   5
ENDBRANCH   3   4
ENDBRANCH   2   3
ENDBRANCH   1   2
END_RES LYS A 131
BEGIN_RES LYS A 135
REMARK  4 active torsions:
REMARK  status: ('A' for Active; 'I' for Inactive)
REMARK    5  A    between atoms: CA   and  CB  
REMARK    6  A    between atoms: CB   and  CG  
REMARK    7  A    between atoms: CG   and  CD  
REMARK    8  A    between atoms: CD   and  CE  
ROOT
ATOM      7  CA  LYS A 135      33.193  34.663   9.290  1.00 25.02     0.186 C 
ENDROOT
BRANCH   7   8
ATOM      8  CB  LYS A 135      32.060  35.360  10.034  1.00 26.63     0.034 C 
BRANCH   8   9
ATOM      9  CG  LYS A 135      30.699  34.785   9.735  1.00 29.45     0.005 C 
BRANCH   9  10
ATOM     10  CD  LYS A 135      30.431  34.792   8.238  1.00 32.00     0.041 C 
BRANCH  10  11
ATOM     11  CE  LYS A 135      29.410  35.857   7.885  1.00 34.25     0.338 C 
ATOM     12  NZ  LYS A 135      28.692  35.515   6.626  1.00 35.99     0.618 N 
ENDBRANCH  10  11
ENDBRANCH   9  10
ENDBRANCH   8   9
ENDBRANCH   7   8
END_RES LYS A 135
