REMARK VINA RESULT:    -4.578      5.225     10.436
REMARK INTER + INTRA:         -23.077
REMARK INTER:                 -11.067
REMARK INTRA:                 -12.010
REMARK UNBOUND:               -10.737
REMARK SMILES CC(=O)N[C@@H]1[C@@H](O)C[C@](OC[C@H]2O[C@@H](O[C@H]3[C@H](O)[C@@H](O)[C@H](OCCN=[N+]=[N-])O[C@@H]3CO)[C@H](O)[C@@H](O)[C@H]2O)(C(=O)O)O[C@H]1C(O)[C@H](O)CNC(=O)OCc1cn(CCNC(=O)NCc2ccco2)nn1
REMARK SMILES IDX 43 1 42 2 9 3 8 4 41 5 6 6 5 7 10 8 11 9 12 10 14 11 13 12
REMARK SMILES IDX 32 13 34 14 36 15 15 16 16 17 29 18 28 19 21 20 17 21 19 22
REMARK SMILES IDX 30 23 31 24 22 26 23 27 24 28 25 29 26 30 27 31 18 32 20 34
REMARK SMILES IDX 33 36 35 38 37 40 38 42 39 43 40 44 7 46 4 48 2 49 1 51 3 52
REMARK SMILES IDX 44 53 45 55 46 56 47 58 48 59 49 60 50 62 51 63 52 64 53 65
REMARK SMILES IDX 54 66 69 67 55 68 68 69 56 70 57 71 58 72 59 73 60 75 61 76
REMARK SMILES IDX 62 78 63 79 64 80 67 81 65 82 66 83
REMARK H PARENT 31 25 18 33 20 35 33 37 35 39 37 41 40 45 7 47 4 50 44 54
REMARK H PARENT 46 57 48 61 58 74 61 77
REMARK Flexibility Score: inf
ROOT
ATOM      1  C   UNL     1      26.271  34.393  14.593  1.00  0.00     0.176 C 
ENDROOT
BRANCH   1   2
ATOM      2  C   UNL     1      24.908  33.823  14.361  1.00  0.00     0.178 C 
ATOM      3  C   UNL     1      23.819  35.208  12.765  1.00  0.00     0.272 C 
ATOM      4  C   UNL     1      23.591  36.101  14.028  1.00  0.00     0.113 C 
ATOM      5  O   UNL     1      24.416  34.050  13.112  1.00  0.00    -0.332 OA
ATOM      6  C   UNL     1      23.168  35.323  15.209  1.00  0.00     0.145 C 
ATOM      7  C   UNL     1      23.918  34.035  15.448  1.00  0.00     0.142 C 
BRANCH   3   8
ATOM      8  O   UNL     1      24.705  35.946  12.010  1.00  0.00    -0.338 OA
BRANCH   8   9
ATOM      9  C   UNL     1      24.946  35.642  10.738  1.00  0.00     0.199 C 
BRANCH   9  10
ATOM     10  C   UNL     1      24.751  36.488   9.577  1.00  0.00     0.179 C 
ATOM     11  C   UNL     1      23.558  37.040   7.698  1.00  0.00     0.282 C 
ATOM     12  O   UNL     1      23.534  36.381   8.927  1.00  0.00    -0.341 OA
ATOM     13  C   UNL     1      24.596  38.092   7.565  1.00  0.00     0.202 C 
ATOM     14  C   UNL     1      24.972  38.808   8.830  1.00  0.00     0.179 C 
ATOM     15  C   UNL     1      24.804  37.954  10.052  1.00  0.00     0.177 C 
BRANCH  11  16
ATOM     16  O   UNL     1      22.321  37.567   7.362  1.00  0.00    -0.341 OA
BRANCH  16  17
ATOM     17  C   UNL     1      21.325  37.261   8.311  1.00  0.00     0.184 C 
ATOM     18  C   UNL     1      20.287  36.429   7.615  1.00  0.00     0.178 C 
ATOM     19  O   UNL     1      19.004  36.671   8.099  1.00  0.00    -0.341 OA
ATOM     20  C   UNL     1      18.682  37.972   7.734  1.00  0.00     0.281 C 
ATOM     21  C   UNL     1      20.836  38.548   8.886  1.00  0.00     0.180 C 
ATOM     22  C   UNL     1      19.434  38.930   8.596  1.00  0.00     0.202 C 
BRANCH  18  23
ATOM     23  C   UNL     1      20.582  34.959   7.913  1.00  0.00     0.191 C 
BRANCH  23  24
ATOM     24  O   UNL     1      21.034  34.894   9.249  1.00  0.00    -0.394 OA
ATOM     25  H   UNL     1      21.516  35.760   9.389  1.00  0.00     0.210 HD
ENDBRANCH  23  24
ENDBRANCH  18  23
BRANCH  20  26
ATOM     26  O   UNL     1      17.322  38.131   8.014  1.00  0.00    -0.350 OA
BRANCH  26  27
ATOM     27  C   UNL     1      16.774  36.970   8.559  1.00  0.00     0.169 C 
BRANCH  27  28
ATOM     28  C   UNL     1      16.300  37.336   9.968  1.00  0.00     0.119 C 
BRANCH  28  29
ATOM     29  N   UNL     1      17.000  36.452  10.882  1.00  0.00    -0.092 NA
ATOM     30  N   UNL     1      18.115  36.754  11.332  1.00  0.00     0.001 N 
ATOM     31  N   UNL     1      19.060  37.211  11.997  1.00  0.00    -0.003 NA
ENDBRANCH  28  29
ENDBRANCH  27  28
ENDBRANCH  26  27
ENDBRANCH  20  26
BRANCH  21  32
ATOM     32  O   UNL     1      21.041  38.485  10.279  1.00  0.00    -0.387 OA
ATOM     33  H   UNL     1      20.642  37.689  10.675  1.00  0.00     0.211 HD
ENDBRANCH  21  32
BRANCH  22  34
ATOM     34  O   UNL     1      19.448  40.160   7.892  1.00  0.00    -0.385 OA
ATOM     35  H   UNL     1      20.387  40.248   7.543  1.00  0.00     0.211 HD
ENDBRANCH  22  34
ENDBRANCH  16  17
ENDBRANCH  11  16
BRANCH  13  36
ATOM     36  O   UNL     1      25.722  37.660   6.851  1.00  0.00    -0.385 OA
ATOM     37  H   UNL     1      25.709  37.973   5.919  1.00  0.00     0.211 HD
ENDBRANCH  13  36
BRANCH  14  38
ATOM     38  O   UNL     1      24.276  40.016   8.972  1.00  0.00    -0.387 OA
ATOM     39  H   UNL     1      24.737  40.655   8.361  1.00  0.00     0.211 HD
ENDBRANCH  14  38
BRANCH  15  40
ATOM     40  O   UNL     1      23.704  38.272  10.811  1.00  0.00    -0.387 OA
ATOM     41  H   UNL     1      22.967  37.693  10.540  1.00  0.00     0.211 HD
ENDBRANCH  15  40
ENDBRANCH   9  10
ENDBRANCH   8   9
ENDBRANCH   3   8
BRANCH   3  42
ATOM     42  C   UNL     1      22.495  35.152  12.150  1.00  0.00     0.364 C 
ATOM     43  O   UNL     1      21.890  34.079  12.009  1.00  0.00    -0.246 OA
BRANCH  42  44
ATOM     44  O   UNL     1      21.818  36.281  11.678  1.00  0.00    -0.477 OA
ATOM     45  H   UNL     1      20.964  36.580  12.152  1.00  0.00     0.296 HD
ENDBRANCH  42  44
ENDBRANCH   3  42
BRANCH   6  46
ATOM     46  O   UNL     1      23.326  36.149  16.338  1.00  0.00    -0.391 OA
ATOM     47  H   UNL     1      23.844  35.660  17.025  1.00  0.00     0.211 HD
ENDBRANCH   6  46
BRANCH   7  48
ATOM     48  N   UNL     1      22.951  32.940  15.517  1.00  0.00    -0.348 N 
ATOM     49  C   UNL     1      22.856  32.121  16.650  1.00  0.00     0.217 C 
ATOM     50  H   UNL     1      22.329  32.786  14.695  1.00  0.00     0.163 HD
ATOM     51  C   UNL     1      21.887  30.991  16.768  1.00  0.00     0.114 C 
ATOM     52  O   UNL     1      23.646  32.368  17.616  1.00  0.00    -0.275 OA
ENDBRANCH   7  48
ENDBRANCH   1   2
BRANCH   1  53
ATOM     53  O   UNL     1      26.935  34.469  13.317  1.00  0.00    -0.388 OA
ATOM     54  H   UNL     1      27.524  33.700  13.289  1.00  0.00     0.211 HD
ENDBRANCH   1  53
BRANCH   1  55
ATOM     55  C   UNL     1      27.216  33.554  15.402  1.00  0.00     0.165 C 
BRANCH  55  56
ATOM     56  O   UNL     1      28.522  33.501  14.974  1.00  0.00    -0.388 OA
ATOM     57  H   UNL     1      28.629  33.100  14.076  1.00  0.00     0.211 HD
ENDBRANCH  55  56
BRANCH  55  58
ATOM     58  C   UNL     1      26.661  32.142  15.613  1.00  0.00     0.154 C 
BRANCH  58  59
ATOM     59  N   UNL     1      27.636  31.295  16.259  1.00  0.00    -0.319 N 
ATOM     60  C   UNL     1      27.723  31.143  17.662  1.00  0.00     0.407 C 
ATOM     61  H   UNL     1      28.304  30.770  15.663  1.00  0.00     0.167 HD
ATOM     62  O   UNL     1      26.918  31.768  18.401  1.00  0.00    -0.225 OA
BRANCH  60  63
ATOM     63  O   UNL     1      28.674  30.321  18.257  1.00  0.00    -0.443 OA
BRANCH  63  64
ATOM     64  C   UNL     1      29.831  30.919  18.834  1.00  0.00     0.294 C 
BRANCH  64  65
ATOM     65  C   UNL     1      30.468  31.692  17.724  1.00  0.00     0.120 A 
ATOM     66  C   UNL     1      31.024  32.937  17.845  1.00  0.00     0.138 A 
ATOM     67  N   UNL     1      30.606  31.300  16.433  1.00  0.00    -0.132 NA
ATOM     68  N   UNL     1      31.474  33.262  16.643  1.00  0.00    -0.250 N 
ATOM     69  N   UNL     1      31.218  32.268  15.793  1.00  0.00    -0.067 NA
BRANCH  68  70
ATOM     70  C   UNL     1      32.136  34.524  16.314  1.00  0.00     0.167 C 
BRANCH  70  71
ATOM     71  C   UNL     1      32.453  34.484  14.818  1.00  0.00     0.141 C 
BRANCH  71  72
ATOM     72  N   UNL     1      31.217  34.691  14.121  1.00  0.00    -0.336 N 
ATOM     73  C   UNL     1      30.692  35.961  13.810  1.00  0.00     0.315 C 
ATOM     74  H   UNL     1      30.689  33.822  13.837  1.00  0.00     0.165 HD
ATOM     75  O   UNL     1      31.283  37.008  14.152  1.00  0.00    -0.249 OA
ATOM     76  N   UNL     1      29.456  36.036  13.084  1.00  0.00    -0.331 N 
ATOM     77  H   UNL     1      28.994  35.130  12.817  1.00  0.00     0.165 HD
BRANCH  76  78
ATOM     78  C   UNL     1      28.890  37.312  12.746  1.00  0.00     0.193 C 
BRANCH  78  79
ATOM     79  C   UNL     1      29.288  37.707  11.368  1.00  0.00     0.122 A 
ATOM     80  C   UNL     1      28.425  37.730  10.279  1.00  0.00     0.047 A 
ATOM     81  O   UNL     1      30.458  38.079  10.972  1.00  0.00    -0.467 OA
ATOM     82  C   UNL     1      29.172  38.143   9.216  1.00  0.00     0.042 A 
ATOM     83  C   UNL     1      30.441  38.353   9.686  1.00  0.00     0.195 A 
ENDBRANCH  78  79
ENDBRANCH  76  78
ENDBRANCH  71  72
ENDBRANCH  70  71
ENDBRANCH  68  70
ENDBRANCH  64  65
ENDBRANCH  63  64
ENDBRANCH  60  63
ENDBRANCH  58  59
ENDBRANCH  55  58
ENDBRANCH   1  55
TORSDOF 34
BEGIN_RES LYS A 131
REMARK  4 active torsions:
REMARK  status: ('A' for Active; 'I' for Inactive)
REMARK    1  A    between atoms: CA   and  CB  
REMARK    2  A    between atoms: CB   and  CG  
REMARK    3  A    between atoms: CG   and  CD  
REMARK    4  A    between atoms: CD   and  CE  
ROOT
ATOM      1  CA  LYS A 131      29.867  25.555  16.977  1.00 20.52     0.186 C 
ENDROOT
BRANCH   1   2
ATOM      2  CB  LYS A 131      28.345  25.722  17.026  1.00 20.94     0.034 C 
BRANCH   2   3
ATOM      3  CG  LYS A 131      27.602  24.399  16.917  1.00 22.96     0.005 C 
BRANCH   3   4
ATOM      4  CD  LYS A 131      26.454  24.313  17.885  1.00 24.33     0.041 C 
BRANCH   4   5
ATOM      5  CE  LYS A 131      26.414  25.576  18.741  1.00 26.91     0.338 C 
ATOM      6  NZ  LYS A 131      25.558  25.368  19.932  1.00 27.40     0.618 N 
ENDBRANCH   4   5
ENDBRANCH   3   4
ENDBRANCH   2   3
ENDBRANCH   1   2
END_RES LYS A 131
BEGIN_RES LYS A 135
REMARK  4 active torsions:
REMARK  status: ('A' for Active; 'I' for Inactive)
REMARK    5  A    between atoms: CA   and  CB  
REMARK    6  A    between atoms: CB   and  CG  
REMARK    7  A    between atoms: CG   and  CD  
REMARK    8  A    between atoms: CD   and  CE  
ROOT
ATOM      7  CA  LYS A 135      33.193  34.663   9.290  1.00 25.02     0.186 C 
ENDROOT
BRANCH   7   8
ATOM      8  CB  LYS A 135      32.060  35.360  10.034  1.00 26.63     0.034 C 
BRANCH   8   9
ATOM      9  CG  LYS A 135      30.735  34.653   9.912  1.00 29.45     0.005 C 
BRANCH   9  10
ATOM     10  CD  LYS A 135      30.326  34.528   8.452  1.00 32.00     0.041 C 
BRANCH  10  11
ATOM     11  CE  LYS A 135      28.815  34.533   8.320  1.00 34.25     0.338 C 
ATOM     12  NZ  LYS A 135      28.384  35.316   7.128  1.00 35.99     0.618 N 
ENDBRANCH  10  11
ENDBRANCH   9  10
ENDBRANCH   8   9
ENDBRANCH   7   8
END_RES LYS A 135
