REMARK VINA RESULT:    -4.400      4.787      9.754
REMARK INTER + INTRA:         -22.721
REMARK INTER:                 -10.165
REMARK INTRA:                 -12.555
REMARK UNBOUND:               -11.119
REMARK SMILES CC(=O)N[C@@H]1[C@@H](O)C[C@](OC[C@H]2O[C@@H](O[C@H]3[C@H](O)[C@@H](O)[C@H](OCCN=[N+]=[N-])O[C@@H]3CO)[C@H](O)[C@@H](O)[C@H]2O)(C(=O)O)O[C@H]1C(O)[C@H](O)CNC(=O)OCc1cn(CC(O)CO)nn1
REMARK SMILES IDX 43 1 42 2 9 3 8 4 41 5 6 6 5 7 10 8 11 9 12 10 14 11 13 12
REMARK SMILES IDX 32 13 34 14 36 15 15 16 16 17 29 18 28 19 21 20 17 21 19 22
REMARK SMILES IDX 30 23 31 24 22 26 23 27 24 28 25 29 26 30 27 31 18 32 20 34
REMARK SMILES IDX 33 36 35 38 37 40 38 42 39 43 40 44 7 46 4 48 2 49 1 51 3 52
REMARK SMILES IDX 44 53 45 55 46 56 47 58 48 59 49 60 50 62 51 63 52 64 53 65
REMARK SMILES IDX 54 66 62 67 55 68 61 69 56 70 57 71 58 72 59 74 60 75
REMARK H PARENT 31 25 18 33 20 35 33 37 35 39 37 41 40 45 7 47 4 50 44 54
REMARK H PARENT 46 57 48 61 58 73 60 76
REMARK Flexibility Score: inf
ROOT
ATOM      1  C   UNL     1      31.839  29.177  21.224  1.00  0.00     0.176 C 
ENDROOT
BRANCH   1   2
ATOM      2  C   UNL     1      31.469  29.741  22.608  1.00  0.00     0.178 C 
ATOM      3  C   UNL     1      30.294  31.496  23.666  1.00  0.00     0.272 C 
ATOM      4  C   UNL     1      31.487  31.800  24.529  1.00  0.00     0.113 C 
ATOM      5  O   UNL     1      30.727  30.840  22.504  1.00  0.00    -0.332 OA
ATOM      6  C   UNL     1      32.780  31.190  24.139  1.00  0.00     0.145 C 
ATOM      7  C   UNL     1      32.712  29.906  23.399  1.00  0.00     0.142 C 
BRANCH   3   8
ATOM      8  O   UNL     1      29.686  32.605  23.296  1.00  0.00    -0.338 OA
BRANCH   8   9
ATOM      9  C   UNL     1      28.566  33.157  23.092  1.00  0.00     0.199 C 
BRANCH   9  10
ATOM     10  C   UNL     1      27.849  33.194  21.782  1.00  0.00     0.179 C 
ATOM     11  C   UNL     1      28.107  33.933  19.633  1.00  0.00     0.282 C 
ATOM     12  O   UNL     1      28.812  33.464  20.736  1.00  0.00    -0.341 OA
ATOM     13  C   UNL     1      26.687  33.490  19.550  1.00  0.00     0.202 C 
ATOM     14  C   UNL     1      26.391  32.151  20.153  1.00  0.00     0.179 C 
ATOM     15  C   UNL     1      27.314  31.838  21.320  1.00  0.00     0.177 C 
BRANCH  11  16
ATOM     16  O   UNL     1      28.726  33.711  18.420  1.00  0.00    -0.341 OA
BRANCH  16  17
ATOM     17  C   UNL     1      29.856  32.900  18.501  1.00  0.00     0.184 C 
ATOM     18  C   UNL     1      31.087  33.753  18.464  1.00  0.00     0.178 C 
ATOM     19  O   UNL     1      31.881  33.527  17.350  1.00  0.00    -0.341 OA
ATOM     20  C   UNL     1      31.097  33.413  16.189  1.00  0.00     0.281 C 
ATOM     21  C   UNL     1      29.784  31.825  17.497  1.00  0.00     0.180 C 
ATOM     22  C   UNL     1      30.535  32.012  16.225  1.00  0.00     0.202 C 
BRANCH  18  23
ATOM     23  C   UNL     1      31.955  33.556  19.690  1.00  0.00     0.191 C 
BRANCH  23  24
ATOM     24  O   UNL     1      31.388  32.659  20.585  1.00  0.00    -0.394 OA
ATOM     25  H   UNL     1      31.746  31.746  20.343  1.00  0.00     0.210 HD
ENDBRANCH  23  24
ENDBRANCH  18  23
BRANCH  20  26
ATOM     26  O   UNL     1      31.963  33.578  15.120  1.00  0.00    -0.350 OA
BRANCH  26  27
ATOM     27  C   UNL     1      31.793  34.766  14.426  1.00  0.00     0.169 C 
BRANCH  27  28
ATOM     28  C   UNL     1      30.342  35.174  14.302  1.00  0.00     0.119 C 
BRANCH  28  29
ATOM     29  N   UNL     1      29.658  34.467  13.254  1.00  0.00    -0.092 NA
ATOM     30  N   UNL     1      28.515  34.690  12.873  1.00  0.00     0.001 N 
ATOM     31  N   UNL     1      27.332  34.953  12.658  1.00  0.00    -0.003 NA
ENDBRANCH  28  29
ENDBRANCH  27  28
ENDBRANCH  26  27
ENDBRANCH  20  26
BRANCH  21  32
ATOM     32  O   UNL     1      30.165  30.572  18.040  1.00  0.00    -0.387 OA
ATOM     33  H   UNL     1      29.460  29.937  17.691  1.00  0.00     0.211 HD
ENDBRANCH  21  32
BRANCH  22  34
ATOM     34  O   UNL     1      29.790  31.720  15.085  1.00  0.00    -0.385 OA
ATOM     35  H   UNL     1      30.232  31.978  14.259  1.00  0.00     0.211 HD
ENDBRANCH  22  34
ENDBRANCH  16  17
ENDBRANCH  11  16
BRANCH  13  36
ATOM     36  O   UNL     1      25.791  34.496  19.982  1.00  0.00    -0.385 OA
ATOM     37  H   UNL     1      25.742  34.571  20.953  1.00  0.00     0.211 HD
ENDBRANCH  13  36
BRANCH  14  38
ATOM     38  O   UNL     1      26.390  31.111  19.227  1.00  0.00    -0.387 OA
ATOM     39  H   UNL     1      26.479  30.252  19.705  1.00  0.00     0.211 HD
ENDBRANCH  14  38
BRANCH  15  40
ATOM     40  O   UNL     1      28.428  31.148  20.771  1.00  0.00    -0.387 OA
ATOM     41  H   UNL     1      29.111  31.788  20.457  1.00  0.00     0.211 HD
ENDBRANCH  15  40
ENDBRANCH   9  10
ENDBRANCH   8   9
ENDBRANCH   3   8
BRANCH   3  42
ATOM     42  C   UNL     1      29.345  30.569  24.365  1.00  0.00     0.364 C 
ATOM     43  O   UNL     1      29.449  30.507  25.630  1.00  0.00    -0.246 OA
BRANCH  42  44
ATOM     44  O   UNL     1      28.404  29.811  23.719  1.00  0.00    -0.477 OA
ATOM     45  H   UNL     1      28.299  29.831  22.698  1.00  0.00     0.296 HD
ENDBRANCH  42  44
ENDBRANCH   3  42
BRANCH   6  46
ATOM     46  O   UNL     1      33.453  32.132  23.325  1.00  0.00    -0.391 OA
ATOM     47  H   UNL     1      34.095  31.667  22.753  1.00  0.00     0.211 HD
ENDBRANCH   6  46
BRANCH   7  48
ATOM     48  N   UNL     1      32.965  28.805  24.325  1.00  0.00    -0.348 N 
ATOM     49  C   UNL     1      34.103  27.969  24.208  1.00  0.00     0.217 C 
ATOM     50  H   UNL     1      32.314  28.593  25.108  1.00  0.00     0.163 HD
ATOM     51  C   UNL     1      34.364  26.848  25.147  1.00  0.00     0.114 C 
ATOM     52  O   UNL     1      34.904  28.206  23.269  1.00  0.00    -0.275 OA
ENDBRANCH   7  48
ENDBRANCH   1   2
BRANCH   1  53
ATOM     53  O   UNL     1      33.209  29.247  21.057  1.00  0.00    -0.388 OA
ATOM     54  H   UNL     1      33.531  30.172  21.200  1.00  0.00     0.211 HD
ENDBRANCH   1  53
BRANCH   1  55
ATOM     55  C   UNL     1      31.383  27.731  21.115  1.00  0.00     0.165 C 
BRANCH  55  56
ATOM     56  O   UNL     1      31.955  27.265  19.906  1.00  0.00    -0.388 OA
ATOM     57  H   UNL     1      32.637  27.909  19.596  1.00  0.00     0.211 HD
ENDBRANCH  55  56
BRANCH  55  58
ATOM     58  C   UNL     1      29.904  27.568  21.029  1.00  0.00     0.154 C 
BRANCH  58  59
ATOM     59  N   UNL     1      29.324  28.368  19.972  1.00  0.00    -0.319 N 
ATOM     60  C   UNL     1      28.154  27.944  19.301  1.00  0.00     0.407 C 
ATOM     61  H   UNL     1      29.749  29.289  19.668  1.00  0.00     0.167 HD
ATOM     62  O   UNL     1      27.583  26.864  19.579  1.00  0.00    -0.225 OA
BRANCH  60  63
ATOM     63  O   UNL     1      27.584  28.711  18.305  1.00  0.00    -0.443 OA
BRANCH  63  64
ATOM     64  C   UNL     1      26.847  28.278  17.217  1.00  0.00     0.294 C 
BRANCH  64  65
ATOM     65  C   UNL     1      26.109  29.329  16.482  1.00  0.00     0.120 A 
ATOM     66  C   UNL     1      26.650  30.503  16.041  1.00  0.00     0.138 A 
ATOM     67  N   UNL     1      24.785  29.301  16.142  1.00  0.00    -0.132 NA
ATOM     68  N   UNL     1      25.647  31.169  15.440  1.00  0.00    -0.249 N 
ATOM     69  N   UNL     1      24.557  30.445  15.510  1.00  0.00    -0.067 NA
BRANCH  68  70
ATOM     70  C   UNL     1      25.725  32.474  14.820  1.00  0.00     0.180 C 
BRANCH  70  71
ATOM     71  C   UNL     1      26.190  33.455  15.906  1.00  0.00     0.161 C 
BRANCH  71  72
ATOM     72  O   UNL     1      27.499  33.770  15.636  1.00  0.00    -0.389 OA
ATOM     73  H   UNL     1      28.116  33.023  15.835  1.00  0.00     0.211 HD
ENDBRANCH  71  72
BRANCH  71  74
ATOM     74  C   UNL     1      25.304  34.678  15.896  1.00  0.00     0.189 C 
BRANCH  74  75
ATOM     75  O   UNL     1      25.574  35.468  16.991  1.00  0.00    -0.394 OA
ATOM     76  H   UNL     1      26.505  35.307  17.294  1.00  0.00     0.210 HD
ENDBRANCH  74  75
ENDBRANCH  71  74
ENDBRANCH  70  71
ENDBRANCH  68  70
ENDBRANCH  64  65
ENDBRANCH  63  64
ENDBRANCH  60  63
ENDBRANCH  58  59
ENDBRANCH  55  58
ENDBRANCH   1  55
TORSDOF 34
BEGIN_RES LYS A 131
REMARK  4 active torsions:
REMARK  status: ('A' for Active; 'I' for Inactive)
REMARK    1  A    between atoms: CA   and  CB  
REMARK    2  A    between atoms: CB   and  CG  
REMARK    3  A    between atoms: CG   and  CD  
REMARK    4  A    between atoms: CD   and  CE  
ROOT
ATOM      1  CA  LYS A 131      29.867  25.555  16.977  1.00 20.52     0.186 C 
ENDROOT
BRANCH   1   2
ATOM      2  CB  LYS A 131      28.345  25.722  17.026  1.00 20.94     0.034 C 
BRANCH   2   3
ATOM      3  CG  LYS A 131      27.601  24.401  16.899  1.00 22.96     0.005 C 
BRANCH   3   4
ATOM      4  CD  LYS A 131      26.162  24.520  17.316  1.00 24.33     0.041 C 
BRANCH   4   5
ATOM      5  CE  LYS A 131      25.893  23.581  18.489  1.00 26.91     0.338 C 
ATOM      6  NZ  LYS A 131      24.928  22.527  18.098  1.00 27.40     0.618 N 
ENDBRANCH   4   5
ENDBRANCH   3   4
ENDBRANCH   2   3
ENDBRANCH   1   2
END_RES LYS A 131
BEGIN_RES LYS A 135
REMARK  4 active torsions:
REMARK  status: ('A' for Active; 'I' for Inactive)
REMARK    5  A    between atoms: CA   and  CB  
REMARK    6  A    between atoms: CB   and  CG  
REMARK    7  A    between atoms: CG   and  CD  
REMARK    8  A    between atoms: CD   and  CE  
ROOT
ATOM      7  CA  LYS A 135      33.193  34.663   9.290  1.00 25.02     0.186 C 
ENDROOT
BRANCH   7   8
ATOM      8  CB  LYS A 135      32.060  35.360  10.034  1.00 26.63     0.034 C 
BRANCH   8   9
ATOM      9  CG  LYS A 135      30.792  35.476   9.228  1.00 29.45     0.005 C 
BRANCH   9  10
ATOM     10  CD  LYS A 135      29.909  34.255   9.437  1.00 32.00     0.041 C 
BRANCH  10  11
ATOM     11  CE  LYS A 135      28.562  34.451   8.768  1.00 34.25     0.338 C 
ATOM     12  NZ  LYS A 135      27.505  33.651   9.446  1.00 35.99     0.618 N 
ENDBRANCH  10  11
ENDBRANCH   9  10
ENDBRANCH   8   9
ENDBRANCH   7   8
END_RES LYS A 135
