REMARK VINA RESULT:    -5.554      2.213      4.810
REMARK INTER + INTRA:         -24.203
REMARK INTER:                 -11.575
REMARK INTRA:                 -12.628
REMARK UNBOUND:                -9.883
REMARK SMILES CC(=O)N[C@@H]1[C@@H](O)C[C@](OC[C@H]2O[C@@H](O[C@H]3[C@H](O)[C@@H](O)[C@H](OCCN=[N+]=[N-])O[C@@H]3CO)[C@H](O)[C@@H](O)[C@H]2O)(C(=O)O)O[C@H]1C(O)[C@H](O)CNC(=O)OCc1cn(C(c2ccccc2)c2ccccc2)nn1
REMARK SMILES IDX 9 1 8 2 6 3 5 4 42 5 41 6 10 7 11 8 12 9 14 10 13 11 32 12
REMARK SMILES IDX 34 13 36 14 15 15 16 16 29 17 28 18 21 19 17 20 19 21 30 22
REMARK SMILES IDX 31 23 22 25 23 26 24 27 25 28 26 29 27 30 18 31 20 33 33 35
REMARK SMILES IDX 35 37 37 39 38 41 39 42 40 43 7 45 43 47 44 48 45 50 46 51
REMARK SMILES IDX 47 53 48 54 49 55 50 57 51 58 52 59 53 60 54 61 70 62 55 63
REMARK SMILES IDX 69 64 56 65 57 66 58 67 62 68 59 69 61 70 60 71 63 72 64 73
REMARK SMILES IDX 68 74 65 75 67 76 66 77 4 78 2 79 1 81 3 82
REMARK H PARENT 31 24 18 32 20 34 33 36 35 38 37 40 40 44 7 46 44 49 46 52
REMARK H PARENT 48 56 4 80
REMARK Flexibility Score: inf
ROOT
ATOM      1  C   UNL     1      30.043  32.707  17.086  1.00  0.00     0.272 C 
ATOM      2  C   UNL     1      30.999  33.896  16.855  1.00  0.00     0.113 C 
ATOM      3  C   UNL     1      30.377  34.870  15.940  1.00  0.00     0.145 C 
ATOM      4  C   UNL     1      29.069  35.353  16.517  1.00  0.00     0.142 C 
ATOM      5  C   UNL     1      28.484  34.422  17.515  1.00  0.00     0.178 C 
ATOM      6  O   UNL     1      28.793  33.108  17.364  1.00  0.00    -0.332 OA
ENDROOT
BRANCH   1   7
ATOM      7  O   UNL     1      30.549  31.968  18.168  1.00  0.00    -0.338 OA
BRANCH   7   8
ATOM      8  C   UNL     1      30.043  30.695  18.191  1.00  0.00     0.199 C 
BRANCH   8   9
ATOM      9  C   UNL     1      29.114  30.458  19.380  1.00  0.00     0.179 C 
ATOM     10  C   UNL     1      27.554  28.680  19.073  1.00  0.00     0.282 C 
ATOM     11  O   UNL     1      27.963  29.963  19.015  1.00  0.00    -0.341 OA
ATOM     12  C   UNL     1      28.549  27.724  19.528  1.00  0.00     0.202 C 
ATOM     13  C   UNL     1      29.532  28.253  20.514  1.00  0.00     0.179 C 
ATOM     14  C   UNL     1      29.817  29.705  20.487  1.00  0.00     0.177 C 
BRANCH  10  15
ATOM     15  O   UNL     1      27.042  28.441  17.761  1.00  0.00    -0.341 OA
BRANCH  15  16
ATOM     16  C   UNL     1      25.681  28.389  17.749  1.00  0.00     0.184 C 
ATOM     17  C   UNL     1      25.072  29.687  17.351  1.00  0.00     0.178 C 
ATOM     18  O   UNL     1      23.695  29.533  17.140  1.00  0.00    -0.341 OA
ATOM     19  C   UNL     1      23.059  29.355  18.338  1.00  0.00     0.281 C 
ATOM     20  C   UNL     1      25.123  28.064  19.130  1.00  0.00     0.180 C 
ATOM     21  C   UNL     1      23.929  28.881  19.431  1.00  0.00     0.202 C 
BRANCH  17  22
ATOM     22  C   UNL     1      25.727  30.361  16.162  1.00  0.00     0.191 C 
BRANCH  22  23
ATOM     23  O   UNL     1      26.663  31.282  16.620  1.00  0.00    -0.394 OA
ATOM     24  H   UNL     1      27.033  31.857  15.919  1.00  0.00     0.210 HD
ENDBRANCH  22  23
ENDBRANCH  17  22
BRANCH  19  25
ATOM     25  O   UNL     1      21.900  28.574  18.201  1.00  0.00    -0.350 OA
BRANCH  25  26
ATOM     26  C   UNL     1      21.697  27.660  19.193  1.00  0.00     0.169 C 
BRANCH  26  27
ATOM     27  C   UNL     1      21.286  26.338  18.587  1.00  0.00     0.119 C 
BRANCH  27  28
ATOM     28  N   UNL     1      22.368  25.358  18.643  1.00  0.00    -0.092 NA
ATOM     29  N   UNL     1      22.332  24.385  19.386  1.00  0.00     0.001 N 
ATOM     30  N   UNL     1      22.353  23.653  20.382  1.00  0.00    -0.003 NA
ENDBRANCH  27  28
ENDBRANCH  26  27
ENDBRANCH  25  26
ENDBRANCH  19  25
BRANCH  20  31
ATOM     31  O   UNL     1      24.912  26.685  19.169  1.00  0.00    -0.387 OA
ATOM     32  H   UNL     1      24.167  26.446  19.785  1.00  0.00     0.211 HD
ENDBRANCH  20  31
BRANCH  21  33
ATOM     33  O   UNL     1      24.355  29.993  20.216  1.00  0.00    -0.385 OA
ATOM     34  H   UNL     1      23.646  30.108  20.909  1.00  0.00     0.211 HD
ENDBRANCH  21  33
ENDBRANCH  15  16
ENDBRANCH  10  15
BRANCH  12  35
ATOM     35  O   UNL     1      27.986  26.575  20.142  1.00  0.00    -0.385 OA
ATOM     36  H   UNL     1      28.497  26.448  20.977  1.00  0.00     0.211 HD
ENDBRANCH  12  35
BRANCH  13  37
ATOM     37  O   UNL     1      30.765  27.556  20.428  1.00  0.00    -0.387 OA
ATOM     38  H   UNL     1      31.111  27.618  19.500  1.00  0.00     0.211 HD
ENDBRANCH  13  37
BRANCH  14  39
ATOM     39  O   UNL     1      31.190  29.902  20.266  1.00  0.00    -0.387 OA
ATOM     40  H   UNL     1      31.612  30.408  21.000  1.00  0.00     0.211 HD
ENDBRANCH  14  39
ENDBRANCH   8   9
ENDBRANCH   7   8
ENDBRANCH   1   7
BRANCH   1  41
ATOM     41  C   UNL     1      30.130  31.898  15.870  1.00  0.00     0.364 C 
ATOM     42  O   UNL     1      29.130  31.311  15.414  1.00  0.00    -0.246 OA
BRANCH  41  43
ATOM     43  O   UNL     1      31.325  31.737  15.163  1.00  0.00    -0.477 OA
ATOM     44  H   UNL     1      31.913  30.931  15.313  1.00  0.00     0.296 HD
ENDBRANCH  41  43
ENDBRANCH   1  41
BRANCH   3  45
ATOM     45  O   UNL     1      31.269  35.957  15.821  1.00  0.00    -0.391 OA
ATOM     46  H   UNL     1      32.105  35.678  15.371  1.00  0.00     0.211 HD
ENDBRANCH   3  45
BRANCH   5  47
ATOM     47  C   UNL     1      28.609  34.813  18.959  1.00  0.00     0.176 C 
BRANCH  47  48
ATOM     48  O   UNL     1      28.421  33.629  19.702  1.00  0.00    -0.388 OA
ATOM     49  H   UNL     1      29.231  33.319  20.143  1.00  0.00     0.211 HD
ENDBRANCH  47  48
BRANCH  47  50
ATOM     50  C   UNL     1      27.639  35.823  19.454  1.00  0.00     0.165 C 
BRANCH  50  51
ATOM     51  O   UNL     1      28.359  36.755  20.193  1.00  0.00    -0.388 OA
ATOM     52  H   UNL     1      29.147  36.363  20.651  1.00  0.00     0.211 HD
ENDBRANCH  50  51
BRANCH  50  53
ATOM     53  C   UNL     1      26.507  35.304  20.271  1.00  0.00     0.154 C 
BRANCH  53  54
ATOM     54  N   UNL     1      25.482  34.606  19.564  1.00  0.00    -0.319 N 
ATOM     55  C   UNL     1      25.158  33.248  19.641  1.00  0.00     0.407 C 
ATOM     56  H   UNL     1      24.883  35.184  18.891  1.00  0.00     0.167 HD
ATOM     57  O   UNL     1      25.800  32.493  20.380  1.00  0.00    -0.225 OA
BRANCH  55  58
ATOM     58  O   UNL     1      24.110  32.712  18.896  1.00  0.00    -0.443 OA
BRANCH  58  59
ATOM     59  C   UNL     1      23.365  33.555  18.004  1.00  0.00     0.294 C 
BRANCH  59  60
ATOM     60  C   UNL     1      24.054  33.570  16.688  1.00  0.00     0.120 A 
ATOM     61  C   UNL     1      23.513  33.048  15.549  1.00  0.00     0.139 A 
ATOM     62  N   UNL     1      25.255  34.080  16.436  1.00  0.00    -0.132 NA
ATOM     63  N   UNL     1      24.427  33.257  14.586  1.00  0.00    -0.240 N 
ATOM     64  N   UNL     1      25.475  33.882  15.136  1.00  0.00    -0.066 NA
BRANCH  63  65
ATOM     65  C   UNL     1      24.376  32.919  13.179  1.00  0.00     0.169 C 
BRANCH  65  66
ATOM     66  C   UNL     1      23.937  34.111  12.443  1.00  0.00    -0.019 A 
ATOM     67  C   UNL     1      22.750  34.739  12.766  1.00  0.00     0.006 A 
ATOM     68  C   UNL     1      24.655  34.653  11.399  1.00  0.00     0.006 A 
ATOM     69  C   UNL     1      22.309  35.857  12.072  1.00  0.00     0.000 A 
ATOM     70  C   UNL     1      24.223  35.775  10.697  1.00  0.00     0.000 A 
ATOM     71  C   UNL     1      23.033  36.389  11.034  1.00  0.00     0.000 A 
ENDBRANCH  65  66
BRANCH  65  72
ATOM     72  C   UNL     1      23.549  31.714  12.966  1.00  0.00    -0.019 A 
ATOM     73  C   UNL     1      24.199  30.486  13.006  1.00  0.00     0.006 A 
ATOM     74  C   UNL     1      22.209  31.722  12.708  1.00  0.00     0.006 A 
ATOM     75  C   UNL     1      23.507  29.324  12.792  1.00  0.00     0.000 A 
ATOM     76  C   UNL     1      21.503  30.552  12.491  1.00  0.00     0.000 A 
ATOM     77  C   UNL     1      22.152  29.344  12.532  1.00  0.00     0.000 A 
ENDBRANCH  65  72
ENDBRANCH  63  65
ENDBRANCH  59  60
ENDBRANCH  58  59
ENDBRANCH  55  58
ENDBRANCH  53  54
ENDBRANCH  50  53
ENDBRANCH  47  50
ENDBRANCH   5  47
BRANCH   4  78
ATOM     78  N   UNL     1      28.168  35.473  15.354  1.00  0.00    -0.348 N 
ATOM     79  C   UNL     1      27.700  36.730  14.883  1.00  0.00     0.217 C 
ATOM     80  H   UNL     1      27.840  34.624  14.829  1.00  0.00     0.163 HD
ATOM     81  C   UNL     1      26.786  36.820  13.694  1.00  0.00     0.114 C 
ATOM     82  O   UNL     1      28.035  37.797  15.441  1.00  0.00    -0.275 OA
ENDBRANCH   4  78
TORSDOF 32
BEGIN_RES LYS A 131
REMARK  4 active torsions:
REMARK  status: ('A' for Active; 'I' for Inactive)
REMARK    1  A    between atoms: CA   and  CB  
REMARK    2  A    between atoms: CB   and  CG  
REMARK    3  A    between atoms: CG   and  CD  
REMARK    4  A    between atoms: CD   and  CE  
ROOT
ATOM      1  CA  LYS A 131      29.867  25.555  16.977  1.00 20.52     0.186 C 
ENDROOT
BRANCH   1   2
ATOM      2  CB  LYS A 131      28.345  25.722  17.026  1.00 20.94     0.034 C 
BRANCH   2   3
ATOM      3  CG  LYS A 131      27.599  24.421  16.770  1.00 22.96     0.005 C 
BRANCH   3   4
ATOM      4  CD  LYS A 131      26.680  24.063  17.904  1.00 24.33     0.041 C 
BRANCH   4   5
ATOM      5  CE  LYS A 131      25.313  23.675  17.348  1.00 26.91     0.338 C 
ATOM      6  NZ  LYS A 131      25.021  22.251  17.636  1.00 27.40     0.618 N 
ENDBRANCH   4   5
ENDBRANCH   3   4
ENDBRANCH   2   3
ENDBRANCH   1   2
END_RES LYS A 131
BEGIN_RES LYS A 135
REMARK  4 active torsions:
REMARK  status: ('A' for Active; 'I' for Inactive)
REMARK    5  A    between atoms: CA   and  CB  
REMARK    6  A    between atoms: CB   and  CG  
REMARK    7  A    between atoms: CG   and  CD  
REMARK    8  A    between atoms: CD   and  CE  
ROOT
ATOM      7  CA  LYS A 135      33.193  34.663   9.290  1.00 25.02     0.186 C 
ENDROOT
BRANCH   7   8
ATOM      8  CB  LYS A 135      32.060  35.360  10.034  1.00 26.63     0.034 C 
BRANCH   8   9
ATOM      9  CG  LYS A 135      30.805  35.512   9.214  1.00 29.45     0.005 C 
BRANCH   9  10
ATOM     10  CD  LYS A 135      30.139  34.162   8.996  1.00 32.00     0.041 C 
BRANCH  10  11
ATOM     11  CE  LYS A 135      28.685  34.343   8.604  1.00 34.25     0.338 C 
ATOM     12  NZ  LYS A 135      27.776  33.759   9.629  1.00 35.99     0.618 N 
ENDBRANCH  10  11
ENDBRANCH   9  10
ENDBRANCH   8   9
ENDBRANCH   7   8
END_RES LYS A 135
