REMARK VINA RESULT:    -4.615      2.036      5.988
REMARK INTER + INTRA:         -23.769
REMARK INTER:                 -13.893
REMARK INTRA:                  -9.876
REMARK UNBOUND:               -12.409
REMARK SMILES CC(=O)N[C@@H]1[C@@H](O)C[C@](OC[C@H]2O[C@@H](O[C@H]3[C@H](O)[C@@H](O)[C@H](OCCN=[N+]=[N-])O[C@@H]3CO)[C@H](O)[C@@H](O)[C@H]2O)(C(=O)O)O[C@H]1C(O)[C@H](O)CNC(=O)OCc1cn(C2c3ccccc3-c3ccccc32)nn1
REMARK SMILES IDX 9 1 8 2 6 3 5 4 42 5 41 6 10 7 11 8 12 9 14 10 13 11 32 12
REMARK SMILES IDX 34 13 36 14 15 15 16 16 29 17 28 18 21 19 17 20 19 21 30 22
REMARK SMILES IDX 31 23 22 25 23 26 24 27 25 28 26 29 27 30 18 31 20 33 33 35
REMARK SMILES IDX 35 37 37 39 38 41 39 42 40 43 7 45 43 47 44 48 45 50 46 51
REMARK SMILES IDX 47 53 48 54 49 55 50 57 51 58 52 59 53 60 54 61 70 62 55 63
REMARK SMILES IDX 69 64 56 65 57 66 68 67 58 68 62 69 63 70 67 71 59 72 61 73
REMARK SMILES IDX 64 74 66 75 60 76 65 77 4 78 2 79 1 81 3 82
REMARK H PARENT 31 24 18 32 20 34 33 36 35 38 37 40 40 44 7 46 44 49 46 52
REMARK H PARENT 48 56 4 80
REMARK Flexibility Score: inf
ROOT
ATOM      1  C   UNL     1      28.671  39.405   6.100  1.00  0.00     0.272 C 
ATOM      2  C   UNL     1      29.633  40.393   5.576  1.00  0.00     0.113 C 
ATOM      3  C   UNL     1      30.575  40.890   6.605  1.00  0.00     0.145 C 
ATOM      4  C   UNL     1      30.091  40.711   8.018  1.00  0.00     0.142 C 
ATOM      5  C   UNL     1      28.602  40.737   8.025  1.00  0.00     0.178 C 
ATOM      6  O   UNL     1      27.960  39.847   7.225  1.00  0.00    -0.332 OA
ENDROOT
BRANCH   1   7
ATOM      7  O   UNL     1      29.240  38.196   6.403  1.00  0.00    -0.338 OA
BRANCH   7   8
ATOM      8  C   UNL     1      28.468  37.306   7.098  1.00  0.00     0.199 C 
BRANCH   8   9
ATOM      9  C   UNL     1      29.075  37.046   8.459  1.00  0.00     0.179 C 
ATOM     10  C   UNL     1      27.312  35.655   9.133  1.00  0.00     0.282 C 
ATOM     11  O   UNL     1      28.052  36.785   9.341  1.00  0.00    -0.341 OA
ATOM     12  C   UNL     1      28.176  34.490   8.837  1.00  0.00     0.202 C 
ATOM     13  C   UNL     1      29.560  34.842   9.416  1.00  0.00     0.179 C 
ATOM     14  C   UNL     1      30.076  35.923   8.442  1.00  0.00     0.177 C 
BRANCH  10  15
ATOM     15  O   UNL     1      26.241  35.884   8.312  1.00  0.00    -0.341 OA
BRANCH  15  16
ATOM     16  C   UNL     1      25.140  36.467   8.879  1.00  0.00     0.184 C 
ATOM     17  C   UNL     1      24.298  35.459   9.566  1.00  0.00     0.178 C 
ATOM     18  O   UNL     1      22.933  35.674   9.405  1.00  0.00    -0.341 OA
ATOM     19  C   UNL     1      22.585  36.983   9.325  1.00  0.00     0.281 C 
ATOM     20  C   UNL     1      24.419  37.141   7.715  1.00  0.00     0.180 C 
ATOM     21  C   UNL     1      23.011  37.496   7.954  1.00  0.00     0.202 C 
BRANCH  17  22
ATOM     22  C   UNL     1      24.566  35.412  11.055  1.00  0.00     0.191 C 
BRANCH  22  23
ATOM     23  O   UNL     1      25.664  34.562  11.332  1.00  0.00    -0.394 OA
ATOM     24  H   UNL     1      25.668  33.798  10.679  1.00  0.00     0.210 HD
ENDBRANCH  22  23
ENDBRANCH  17  22
BRANCH  19  25
ATOM     25  O   UNL     1      23.149  37.834  10.256  1.00  0.00    -0.350 OA
BRANCH  25  26
ATOM     26  C   UNL     1      22.379  38.916  10.574  1.00  0.00     0.169 C 
BRANCH  26  27
ATOM     27  C   UNL     1      22.598  39.525  11.916  1.00  0.00     0.119 C 
BRANCH  27  28
ATOM     28  N   UNL     1      23.319  38.660  12.827  1.00  0.00    -0.092 NA
ATOM     29  N   UNL     1      23.874  39.213  13.785  1.00  0.00     0.001 N 
ATOM     30  N   UNL     1      24.539  39.701  14.706  1.00  0.00    -0.003 NA
ENDBRANCH  27  28
ENDBRANCH  26  27
ENDBRANCH  25  26
ENDBRANCH  19  25
BRANCH  20  31
ATOM     31  O   UNL     1      25.117  38.330   7.371  1.00  0.00    -0.387 OA
ATOM     32  H   UNL     1      25.144  38.946   8.146  1.00  0.00     0.211 HD
ENDBRANCH  20  31
BRANCH  21  33
ATOM     33  O   UNL     1      22.182  36.867   7.015  1.00  0.00    -0.385 OA
ATOM     34  H   UNL     1      22.549  36.908   6.095  1.00  0.00     0.211 HD
ENDBRANCH  21  33
ENDBRANCH  15  16
ENDBRANCH  10  15
BRANCH  12  35
ATOM     35  O   UNL     1      27.794  33.327   9.504  1.00  0.00    -0.385 OA
ATOM     36  H   UNL     1      27.581  33.559  10.438  1.00  0.00     0.211 HD
ENDBRANCH  12  35
BRANCH  13  37
ATOM     37  O   UNL     1      30.430  33.781   9.333  1.00  0.00    -0.387 OA
ATOM     38  H   UNL     1      31.312  34.119   9.042  1.00  0.00     0.211 HD
ENDBRANCH  13  37
BRANCH  14  39
ATOM     39  O   UNL     1      30.077  35.328   7.195  1.00  0.00    -0.387 OA
ATOM     40  H   UNL     1      30.969  35.326   6.769  1.00  0.00     0.211 HD
ENDBRANCH  14  39
ENDBRANCH   8   9
ENDBRANCH   7   8
ENDBRANCH   1   7
BRANCH   1  41
ATOM     41  C   UNL     1      27.545  39.187   5.089  1.00  0.00     0.364 C 
ATOM     42  O   UNL     1      27.801  38.522   4.081  1.00  0.00    -0.246 OA
BRANCH  41  43
ATOM     43  O   UNL     1      26.290  39.708   5.286  1.00  0.00    -0.477 OA
ATOM     44  H   UNL     1      25.916  39.864   6.229  1.00  0.00     0.296 HD
ENDBRANCH  41  43
ENDBRANCH   1  41
BRANCH   3  45
ATOM     45  O   UNL     1      31.873  40.388   6.507  1.00  0.00    -0.391 OA
ATOM     46  H   UNL     1      32.220  40.391   5.603  1.00  0.00     0.211 HD
ENDBRANCH   3  45
BRANCH   5  47
ATOM     47  C   UNL     1      28.120  40.540   9.460  1.00  0.00     0.176 C 
BRANCH  47  48
ATOM     48  O   UNL     1      29.000  39.730  10.130  1.00  0.00    -0.388 OA
ATOM     49  H   UNL     1      29.533  40.248  10.805  1.00  0.00     0.211 HD
ENDBRANCH  47  48
BRANCH  47  50
ATOM     50  C   UNL     1      26.738  39.961   9.415  1.00  0.00     0.165 C 
BRANCH  50  51
ATOM     51  O   UNL     1      25.890  40.825   8.700  1.00  0.00    -0.388 OA
ATOM     52  H   UNL     1      26.413  41.502   8.216  1.00  0.00     0.211 HD
ENDBRANCH  50  51
BRANCH  50  53
ATOM     53  C   UNL     1      26.203  39.980  10.852  1.00  0.00     0.154 C 
BRANCH  53  54
ATOM     54  N   UNL     1      26.217  38.637  11.346  1.00  0.00    -0.319 N 
ATOM     55  C   UNL     1      27.073  38.267  12.404  1.00  0.00     0.407 C 
ATOM     56  H   UNL     1      25.583  37.920  10.919  1.00  0.00     0.167 HD
ATOM     57  O   UNL     1      27.854  39.098  12.934  1.00  0.00    -0.225 OA
BRANCH  55  58
ATOM     58  O   UNL     1      27.096  36.982  12.908  1.00  0.00    -0.443 OA
BRANCH  58  59
ATOM     59  C   UNL     1      26.331  36.580  14.035  1.00  0.00     0.294 C 
BRANCH  59  60
ATOM     60  C   UNL     1      27.260  36.483  15.189  1.00  0.00     0.120 A 
ATOM     61  C   UNL     1      28.231  35.520  15.429  1.00  0.00     0.139 A 
ATOM     62  N   UNL     1      27.333  37.327  16.229  1.00  0.00    -0.132 NA
ATOM     63  N   UNL     1      28.853  35.803  16.585  1.00  0.00    -0.240 N 
ATOM     64  N   UNL     1      28.284  36.906  17.045  1.00  0.00    -0.066 NA
BRANCH  63  65
ATOM     65  C   UNL     1      29.940  35.044  17.205  1.00  0.00     0.170 C 
ATOM     66  C   UNL     1      31.179  35.345  16.481  1.00  0.00    -0.011 A 
ATOM     67  C   UNL     1      29.746  33.599  16.994  1.00  0.00    -0.011 A 
ATOM     68  C   UNL     1      31.888  36.527  16.305  1.00  0.00     0.007 A 
ATOM     69  C   UNL     1      31.685  34.218  15.891  1.00  0.00    -0.012 A 
ATOM     70  C   UNL     1      30.776  33.123  16.219  1.00  0.00    -0.012 A 
ATOM     71  C   UNL     1      28.774  32.711  17.417  1.00  0.00     0.007 A 
ATOM     72  C   UNL     1      33.049  36.548  15.565  1.00  0.00     0.000 A 
ATOM     73  C   UNL     1      32.855  34.242  15.146  1.00  0.00     0.009 A 
ATOM     74  C   UNL     1      30.846  31.794  15.867  1.00  0.00     0.009 A 
ATOM     75  C   UNL     1      28.825  31.379  17.077  1.00  0.00     0.000 A 
ATOM     76  C   UNL     1      33.562  35.408  14.967  1.00  0.00     0.001 A 
ATOM     77  C   UNL     1      29.866  30.918  16.299  1.00  0.00     0.001 A 
ENDBRANCH  63  65
ENDBRANCH  59  60
ENDBRANCH  58  59
ENDBRANCH  55  58
ENDBRANCH  53  54
ENDBRANCH  50  53
ENDBRANCH  47  50
ENDBRANCH   5  47
BRANCH   4  78
ATOM     78  N   UNL     1      30.525  41.912   8.757  1.00  0.00    -0.348 N 
ATOM     79  C   UNL     1      31.732  41.931   9.502  1.00  0.00     0.217 C 
ATOM     80  H   UNL     1      29.919  42.742   8.716  1.00  0.00     0.163 HD
ATOM     81  C   UNL     1      32.159  43.158  10.246  1.00  0.00     0.114 C 
ATOM     82  O   UNL     1      32.436  40.884   9.517  1.00  0.00    -0.275 OA
ENDBRANCH   4  78
TORSDOF 30
BEGIN_RES LYS A 131
REMARK  4 active torsions:
REMARK  status: ('A' for Active; 'I' for Inactive)
REMARK    1  A    between atoms: CA   and  CB  
REMARK    2  A    between atoms: CB   and  CG  
REMARK    3  A    between atoms: CG   and  CD  
REMARK    4  A    between atoms: CD   and  CE  
ROOT
ATOM      1  CA  LYS A 131      29.867  25.555  16.977  1.00 20.52     0.186 C 
ENDROOT
BRANCH   1   2
ATOM      2  CB  LYS A 131      28.345  25.722  17.026  1.00 20.94     0.034 C 
BRANCH   2   3
ATOM      3  CG  LYS A 131      27.599  24.458  16.629  1.00 22.96     0.005 C 
BRANCH   3   4
ATOM      4  CD  LYS A 131      26.935  23.798  17.806  1.00 24.33     0.041 C 
BRANCH   4   5
ATOM      5  CE  LYS A 131      25.459  23.574  17.498  1.00 26.91     0.338 C 
ATOM      6  NZ  LYS A 131      24.756  24.870  17.351  1.00 27.40     0.618 N 
ENDBRANCH   4   5
ENDBRANCH   3   4
ENDBRANCH   2   3
ENDBRANCH   1   2
END_RES LYS A 131
BEGIN_RES LYS A 135
REMARK  4 active torsions:
REMARK  status: ('A' for Active; 'I' for Inactive)
REMARK    5  A    between atoms: CA   and  CB  
REMARK    6  A    between atoms: CB   and  CG  
REMARK    7  A    between atoms: CG   and  CD  
REMARK    8  A    between atoms: CD   and  CE  
ROOT
ATOM      7  CA  LYS A 135      33.193  34.663   9.290  1.00 25.02     0.186 C 
ENDROOT
BRANCH   7   8
ATOM      8  CB  LYS A 135      32.060  35.360  10.034  1.00 26.63     0.034 C 
BRANCH   8   9
ATOM      9  CG  LYS A 135      32.457  35.869  11.396  1.00 29.45     0.005 C 
BRANCH   9  10
ATOM     10  CD  LYS A 135      31.239  35.989  12.299  1.00 32.00     0.041 C 
BRANCH  10  11
ATOM     11  CE  LYS A 135      31.012  37.435  12.698  1.00 34.25     0.338 C 
ATOM     12  NZ  LYS A 135      31.632  38.366  11.714  1.00 35.99     0.618 N 
ENDBRANCH  10  11
ENDBRANCH   9  10
ENDBRANCH   8   9
ENDBRANCH   7   8
END_RES LYS A 135
