REMARK VINA RESULT:    -5.101      0.000      0.000
REMARK INTER + INTRA:         -24.070
REMARK INTER:                 -13.513
REMARK INTRA:                 -10.557
REMARK UNBOUND:               -11.068
REMARK SMILES CC(=O)N[C@@H]1[C@@H](O)C[C@](OC[C@H]2O[C@@H](O[C@H]3[C@H](O)[C@@H](O)[C@H](OCCN=[N+]=[N-])O[C@@H]3CO)[C@H](O)[C@@H](O)[C@H]2O)(C(=O)O)O[C@H]1C(O)[C@H](O)CNC(=O)OCc1cn(Cc2cc(Br)cc(Br)c2O)nn1
REMARK SMILES IDX 9 1 8 2 6 3 5 4 42 5 41 6 10 7 11 8 12 9 14 10 13 11 32 12
REMARK SMILES IDX 34 13 36 14 15 15 16 16 29 17 28 18 21 19 17 20 19 21 30 22
REMARK SMILES IDX 31 23 22 25 23 26 24 27 25 28 26 29 27 30 18 31 20 33 33 35
REMARK SMILES IDX 35 37 37 39 38 41 39 42 40 43 7 45 43 47 44 48 45 50 46 51
REMARK SMILES IDX 47 53 48 54 49 55 50 57 51 58 52 59 53 60 54 61 67 62 55 63
REMARK SMILES IDX 66 64 56 65 57 66 58 67 64 68 59 69 62 70 60 71 61 72 63 73
REMARK SMILES IDX 65 74 4 76 2 77 1 79 3 80
REMARK H PARENT 31 24 18 32 20 34 33 36 35 38 37 40 40 44 7 46 44 49 46 52
REMARK H PARENT 48 56 65 75 4 78
REMARK Flexibility Score: inf
ROOT
ATOM      1  C   UNL     1      28.802  35.347  12.971  1.00  0.00     0.272 C 
ATOM      2  C   UNL     1      30.107  35.021  12.099  1.00  0.00     0.113 C 
ATOM      3  C   UNL     1      31.322  35.325  12.875  1.00  0.00     0.145 C 
ATOM      4  C   UNL     1      31.307  34.577  14.183  1.00  0.00     0.142 C 
ATOM      5  C   UNL     1      29.959  34.109  14.641  1.00  0.00     0.178 C 
ATOM      6  O   UNL     1      28.850  34.560  14.066  1.00  0.00    -0.332 OA
ENDROOT
BRANCH   1   7
ATOM      7  O   UNL     1      27.846  34.926  12.110  1.00  0.00    -0.338 OA
BRANCH   7   8
ATOM      8  C   UNL     1      26.561  34.785  12.370  1.00  0.00     0.199 C 
BRANCH   8   9
ATOM      9  C   UNL     1      25.844  35.694  13.306  1.00  0.00     0.179 C 
ATOM     10  C   UNL     1      23.760  35.657  12.265  1.00  0.00     0.282 C 
ATOM     11  O   UNL     1      24.819  36.365  12.734  1.00  0.00    -0.341 OA
ATOM     12  C   UNL     1      23.334  34.569  13.196  1.00  0.00     0.202 C 
ATOM     13  C   UNL     1      23.903  34.791  14.571  1.00  0.00     0.179 C 
ATOM     14  C   UNL     1      25.393  34.964  14.573  1.00  0.00     0.177 C 
BRANCH  10  15
ATOM     15  O   UNL     1      23.989  35.214  10.953  1.00  0.00    -0.341 OA
BRANCH  15  16
ATOM     16  C   UNL     1      23.723  36.153   9.984  1.00  0.00     0.184 C 
ATOM     17  C   UNL     1      22.648  35.681   9.032  1.00  0.00     0.178 C 
ATOM     18  O   UNL     1      22.513  36.446   7.908  1.00  0.00    -0.341 OA
ATOM     19  C   UNL     1      23.134  37.681   7.928  1.00  0.00     0.281 C 
ATOM     20  C   UNL     1      24.942  36.389   9.085  1.00  0.00     0.180 C 
ATOM     21  C   UNL     1      24.601  37.598   8.249  1.00  0.00     0.202 C 
BRANCH  17  22
ATOM     22  C   UNL     1      21.306  35.503   9.710  1.00  0.00     0.191 C 
BRANCH  22  23
ATOM     23  O   UNL     1      21.124  36.421  10.721  1.00  0.00    -0.394 OA
ATOM     24  H   UNL     1      21.111  35.938  11.581  1.00  0.00     0.210 HD
ENDBRANCH  22  23
ENDBRANCH  17  22
BRANCH  19  25
ATOM     25  O   UNL     1      22.442  38.516   8.790  1.00  0.00    -0.350 OA
BRANCH  25  26
ATOM     26  C   UNL     1      22.917  39.799   8.727  1.00  0.00     0.169 C 
BRANCH  26  27
ATOM     27  C   UNL     1      22.222  40.707   7.772  1.00  0.00     0.119 C 
BRANCH  27  28
ATOM     28  N   UNL     1      23.129  41.359   6.849  1.00  0.00    -0.092 NA
ATOM     29  N   UNL     1      24.226  40.911   6.577  1.00  0.00     0.001 N 
ATOM     30  N   UNL     1      25.223  40.465   6.015  1.00  0.00    -0.003 NA
ENDBRANCH  27  28
ENDBRANCH  26  27
ENDBRANCH  25  26
ENDBRANCH  19  25
BRANCH  20  31
ATOM     31  O   UNL     1      26.116  36.518   9.775  1.00  0.00    -0.387 OA
ATOM     32  H   UNL     1      26.798  36.849   9.108  1.00  0.00     0.211 HD
ENDBRANCH  20  31
BRANCH  21  33
ATOM     33  O   UNL     1      25.334  37.628   7.068  1.00  0.00    -0.385 OA
ATOM     34  H   UNL     1      25.416  38.539   6.736  1.00  0.00     0.211 HD
ENDBRANCH  21  33
ENDBRANCH  15  16
ENDBRANCH  10  15
BRANCH  12  35
ATOM     35  O   UNL     1      21.919  34.586  13.251  1.00  0.00    -0.385 OA
ATOM     36  H   UNL     1      21.638  33.791  12.740  1.00  0.00     0.211 HD
ENDBRANCH  12  35
BRANCH  13  37
ATOM     37  O   UNL     1      23.513  33.794  15.465  1.00  0.00    -0.387 OA
ATOM     38  H   UNL     1      22.552  33.631  15.286  1.00  0.00     0.211 HD
ENDBRANCH  13  37
BRANCH  14  39
ATOM     39  O   UNL     1      26.007  33.726  14.630  1.00  0.00    -0.387 OA
ATOM     40  H   UNL     1      26.460  33.596  15.506  1.00  0.00     0.211 HD
ENDBRANCH  14  39
ENDBRANCH   8   9
ENDBRANCH   7   8
ENDBRANCH   1   7
BRANCH   1  41
ATOM     41  C   UNL     1      28.884  36.776  13.255  1.00  0.00     0.364 C 
ATOM     42  O   UNL     1      28.863  37.644  12.304  1.00  0.00    -0.246 OA
BRANCH  41  43
ATOM     43  O   UNL     1      28.982  37.319  14.509  1.00  0.00    -0.477 OA
ATOM     44  H   UNL     1      28.309  37.095  15.228  1.00  0.00     0.296 HD
ENDBRANCH  41  43
ENDBRANCH   1  41
BRANCH   3  45
ATOM     45  O   UNL     1      32.448  34.986  12.103  1.00  0.00    -0.391 OA
ATOM     46  H   UNL     1      32.522  35.599  11.336  1.00  0.00     0.211 HD
ENDBRANCH   3  45
BRANCH   5  47
ATOM     47  C   UNL     1      30.023  32.601  14.786  1.00  0.00     0.176 C 
BRANCH  47  48
ATOM     48  O   UNL     1      31.285  32.238  15.321  1.00  0.00    -0.388 OA
ATOM     49  H   UNL     1      31.578  31.376  14.965  1.00  0.00     0.211 HD
ENDBRANCH  47  48
BRANCH  47  50
ATOM     50  C   UNL     1      28.913  31.975  15.524  1.00  0.00     0.165 C 
BRANCH  50  51
ATOM     51  O   UNL     1      28.381  32.804  16.487  1.00  0.00    -0.388 OA
ATOM     52  H   UNL     1      28.855  33.669  16.573  1.00  0.00     0.211 HD
ENDBRANCH  50  51
BRANCH  50  53
ATOM     53  C   UNL     1      29.116  30.603  16.066  1.00  0.00     0.154 C 
BRANCH  53  54
ATOM     54  N   UNL     1      27.969  29.764  16.134  1.00  0.00    -0.319 N 
ATOM     55  C   UNL     1      27.216  29.768  17.358  1.00  0.00     0.407 C 
ATOM     56  H   UNL     1      27.652  29.138  15.377  1.00  0.00     0.167 HD
ATOM     57  O   UNL     1      27.605  30.517  18.319  1.00  0.00    -0.225 OA
BRANCH  55  58
ATOM     58  O   UNL     1      26.105  28.984  17.480  1.00  0.00    -0.443 OA
BRANCH  58  59
ATOM     59  C   UNL     1      24.799  29.490  17.373  1.00  0.00     0.294 C 
BRANCH  59  60
ATOM     60  C   UNL     1      24.507  29.888  15.977  1.00  0.00     0.120 A 
ATOM     61  C   UNL     1      23.907  29.160  14.958  1.00  0.00     0.138 A 
ATOM     62  N   UNL     1      24.774  31.079  15.418  1.00  0.00    -0.132 NA
ATOM     63  N   UNL     1      23.828  29.902  13.843  1.00  0.00    -0.248 N 
ATOM     64  N   UNL     1      24.372  31.080  14.163  1.00  0.00    -0.067 NA
BRANCH  63  65
ATOM     65  C   UNL     1      23.282  29.565  12.525  1.00  0.00     0.185 C 
BRANCH  65  66
ATOM     66  C   UNL     1      21.807  29.659  12.618  1.00  0.00     0.018 A 
ATOM     67  C   UNL     1      21.082  28.511  12.873  1.00  0.00     0.025 A 
ATOM     68  C   UNL     1      21.126  30.860  12.458  1.00  0.00     0.134 A 
ATOM     69  C   UNL     1      19.699  28.526  12.974  1.00  0.00     0.019 A 
ATOM     70  C   UNL     1      19.744  30.907  12.554  1.00  0.00     0.061 A 
ATOM     71  Br  UNL     1      18.741  26.919  13.327  1.00  0.00    -0.051 Br
ATOM     72  C   UNL     1      19.049  29.726  12.813  1.00  0.00     0.035 A 
ATOM     73  Br  UNL     1      18.843  32.552  12.334  1.00  0.00    -0.047 Br
BRANCH  68  74
ATOM     74  O   UNL     1      21.908  31.969  12.204  1.00  0.00    -0.506 OA
ATOM     75  H   UNL     1      22.907  31.907  12.315  1.00  0.00     0.293 HD
ENDBRANCH  68  74
ENDBRANCH  65  66
ENDBRANCH  63  65
ENDBRANCH  59  60
ENDBRANCH  58  59
ENDBRANCH  55  58
ENDBRANCH  53  54
ENDBRANCH  50  53
ENDBRANCH  47  50
ENDBRANCH   5  47
BRANCH   4  76
ATOM     76  N   UNL     1      32.049  35.321  15.179  1.00  0.00    -0.348 N 
ATOM     77  C   UNL     1      33.463  35.218  15.203  1.00  0.00     0.217 C 
ATOM     78  H   UNL     1      31.591  35.935  15.892  1.00  0.00     0.163 HD
ATOM     79  C   UNL     1      34.230  35.988  16.232  1.00  0.00     0.114 C 
ATOM     80  O   UNL     1      34.064  34.479  14.353  1.00  0.00    -0.275 OA
ENDBRANCH   4  76
TORSDOF 32
BEGIN_RES LYS A 131
REMARK  4 active torsions:
REMARK  status: ('A' for Active; 'I' for Inactive)
REMARK    1  A    between atoms: CA   and  CB  
REMARK    2  A    between atoms: CB   and  CG  
REMARK    3  A    between atoms: CG   and  CD  
REMARK    4  A    between atoms: CD   and  CE  
ROOT
ATOM      1  CA  LYS A 131      29.867  25.555  16.977  1.00 20.52     0.186 C 
ENDROOT
BRANCH   1   2
ATOM      2  CB  LYS A 131      28.345  25.722  17.026  1.00 20.94     0.034 C 
BRANCH   2   3
ATOM      3  CG  LYS A 131      27.602  24.400  16.909  1.00 22.96     0.005 C 
BRANCH   3   4
ATOM      4  CD  LYS A 131      26.509  24.272  17.934  1.00 24.33     0.041 C 
BRANCH   4   5
ATOM      5  CE  LYS A 131      25.154  24.468  17.260  1.00 26.91     0.338 C 
ATOM      6  NZ  LYS A 131      24.589  25.794  17.607  1.00 27.40     0.618 N 
ENDBRANCH   4   5
ENDBRANCH   3   4
ENDBRANCH   2   3
ENDBRANCH   1   2
END_RES LYS A 131
BEGIN_RES LYS A 135
REMARK  4 active torsions:
REMARK  status: ('A' for Active; 'I' for Inactive)
REMARK    5  A    between atoms: CA   and  CB  
REMARK    6  A    between atoms: CB   and  CG  
REMARK    7  A    between atoms: CG   and  CD  
REMARK    8  A    between atoms: CD   and  CE  
ROOT
ATOM      7  CA  LYS A 135      33.193  34.663   9.290  1.00 25.02     0.186 C 
ENDROOT
BRANCH   7   8
ATOM      8  CB  LYS A 135      32.060  35.360  10.034  1.00 26.63     0.034 C 
BRANCH   8   9
ATOM      9  CG  LYS A 135      30.901  35.739   9.148  1.00 29.45     0.005 C 
BRANCH   9  10
ATOM     10  CD  LYS A 135      30.371  34.521   8.407  1.00 32.00     0.041 C 
BRANCH  10  11
ATOM     11  CE  LYS A 135      28.854  34.517   8.406  1.00 34.25     0.338 C 
ATOM     12  NZ  LYS A 135      28.317  35.294   7.255  1.00 35.99     0.618 N 
ENDBRANCH  10  11
ENDBRANCH   9  10
ENDBRANCH   8   9
ENDBRANCH   7   8
END_RES LYS A 135
