REMARK VINA RESULT:    -5.200      2.807      7.722
REMARK INTER + INTRA:         -23.311
REMARK INTER:                 -10.370
REMARK INTRA:                 -12.941
REMARK UNBOUND:                -9.598
REMARK SMILES CC(=O)N[C@@H]1[C@@H](O)C[C@](OC[C@H]2O[C@@H](O[C@H]3[C@H](O)[C@@H](O)[C@H](OCCN=[N+]=[N-])O[C@@H]3CO)[C@H](O)[C@@H](O)[C@H]2O)(C(=O)O)O[C@H]1C(O)[C@H](O)CNC(=O)OCc1cn(Cc2ccccc2OC(C)=O)nn1
REMARK SMILES IDX 43 1 42 2 9 3 8 4 41 5 6 6 5 7 10 8 11 9 12 10 14 11 13 12
REMARK SMILES IDX 32 13 34 14 36 15 15 16 16 17 29 18 28 19 21 20 17 21 19 22
REMARK SMILES IDX 30 23 31 24 22 26 23 27 24 28 25 29 26 30 27 31 18 32 20 34
REMARK SMILES IDX 33 36 35 38 37 40 38 42 39 43 40 44 7 46 4 48 2 49 1 51 3 52
REMARK SMILES IDX 44 53 45 55 46 56 47 58 48 59 49 60 50 62 51 63 52 64 53 65
REMARK SMILES IDX 54 66 68 67 55 68 67 69 56 70 57 71 62 72 58 73 61 74 59 75
REMARK SMILES IDX 60 76 63 77 64 78 66 79 65 80
REMARK H PARENT 31 25 18 33 20 35 33 37 35 39 37 41 40 45 7 47 4 50 44 54
REMARK H PARENT 46 57 48 61
REMARK Flexibility Score: inf
ROOT
ATOM      1  C   UNL     1      22.433  38.163  11.106  1.00  0.00     0.176 C 
ENDROOT
BRANCH   1   2
ATOM      2  C   UNL     1      23.120  37.775   9.806  1.00  0.00     0.178 C 
ATOM      3  C   UNL     1      25.223  37.773   8.800  1.00  0.00     0.272 C 
ATOM      4  C   UNL     1      24.312  37.579   7.593  1.00  0.00     0.113 C 
ATOM      5  O   UNL     1      24.429  38.194   9.893  1.00  0.00    -0.332 OA
ATOM      6  C   UNL     1      23.344  38.750   7.600  1.00  0.00     0.145 C 
ATOM      7  C   UNL     1      22.381  38.532   8.702  1.00  0.00     0.142 C 
BRANCH   3   8
ATOM      8  O   UNL     1      26.156  38.751   8.620  1.00  0.00    -0.338 OA
BRANCH   8   9
ATOM      9  C   UNL     1      27.178  38.530   7.754  1.00  0.00     0.199 C 
BRANCH   9  10
ATOM     10  C   UNL     1      28.483  38.946   8.455  1.00  0.00     0.179 C 
ATOM     11  C   UNL     1      29.841  38.369  10.218  1.00  0.00     0.282 C 
ATOM     12  O   UNL     1      28.700  37.975   9.439  1.00  0.00    -0.341 OA
ATOM     13  C   UNL     1      31.014  38.103   9.342  1.00  0.00     0.202 C 
ATOM     14  C   UNL     1      30.915  39.104   8.177  1.00  0.00     0.179 C 
ATOM     15  C   UNL     1      29.606  39.007   7.471  1.00  0.00     0.177 C 
BRANCH  11  16
ATOM     16  O   UNL     1      29.723  37.634  11.372  1.00  0.00    -0.341 OA
BRANCH  16  17
ATOM     17  C   UNL     1      29.430  38.457  12.474  1.00  0.00     0.184 C 
ATOM     18  C   UNL     1      28.768  39.735  12.116  1.00  0.00     0.178 C 
ATOM     19  O   UNL     1      29.321  40.841  12.770  1.00  0.00    -0.341 OA
ATOM     20  C   UNL     1      29.521  40.654  14.131  1.00  0.00     0.281 C 
ATOM     21  C   UNL     1      30.824  38.901  13.056  1.00  0.00     0.180 C 
ATOM     22  C   UNL     1      30.504  39.514  14.392  1.00  0.00     0.202 C 
BRANCH  18  23
ATOM     23  C   UNL     1      27.272  39.743  12.173  1.00  0.00     0.191 C 
BRANCH  23  24
ATOM     24  O   UNL     1      26.795  38.491  11.816  1.00  0.00    -0.394 OA
ATOM     25  H   UNL     1      26.149  38.169  12.479  1.00  0.00     0.210 HD
ENDBRANCH  23  24
ENDBRANCH  18  23
BRANCH  20  26
ATOM     26  O   UNL     1      28.369  40.358  14.767  1.00  0.00    -0.350 OA
BRANCH  26  27
ATOM     27  C   UNL     1      28.357  39.616  15.890  1.00  0.00     0.169 C 
BRANCH  27  28
ATOM     28  C   UNL     1      27.967  40.259  17.172  1.00  0.00     0.119 C 
BRANCH  28  29
ATOM     29  N   UNL     1      29.066  40.947  17.760  1.00  0.00    -0.092 NA
ATOM     30  N   UNL     1      30.101  40.399  18.067  1.00  0.00     0.001 N 
ATOM     31  N   UNL     1      31.179  39.797  18.089  1.00  0.00    -0.003 NA
ENDBRANCH  28  29
ENDBRANCH  27  28
ENDBRANCH  26  27
ENDBRANCH  20  26
BRANCH  21  32
ATOM     32  O   UNL     1      31.658  37.812  13.122  1.00  0.00    -0.387 OA
ATOM     33  H   UNL     1      31.276  37.052  12.576  1.00  0.00     0.211 HD
ENDBRANCH  21  32
BRANCH  22  34
ATOM     34  O   UNL     1      31.630  39.914  15.076  1.00  0.00    -0.385 OA
ATOM     35  H   UNL     1      32.337  39.228  14.906  1.00  0.00     0.211 HD
ENDBRANCH  22  34
ENDBRANCH  16  17
ENDBRANCH  11  16
BRANCH  13  36
ATOM     36  O   UNL     1      32.233  38.375   9.942  1.00  0.00    -0.385 OA
ATOM     37  H   UNL     1      32.170  38.868  10.787  1.00  0.00     0.211 HD
ENDBRANCH  13  36
BRANCH  14  38
ATOM     38  O   UNL     1      31.999  38.937   7.312  1.00  0.00    -0.387 OA
ATOM     39  H   UNL     1      32.031  39.761   6.746  1.00  0.00     0.211 HD
ENDBRANCH  14  38
BRANCH  15  40
ATOM     40  O   UNL     1      29.647  37.899   6.628  1.00  0.00    -0.387 OA
ATOM     41  H   UNL     1      28.877  37.833   6.033  1.00  0.00     0.211 HD
ENDBRANCH  15  40
ENDBRANCH   9  10
ENDBRANCH   8   9
ENDBRANCH   3   8
BRANCH   3  42
ATOM     42  C   UNL     1      25.782  36.438   9.105  1.00  0.00     0.364 C 
ATOM     43  O   UNL     1      25.521  35.443   8.434  1.00  0.00    -0.246 OA
BRANCH  42  44
ATOM     44  O   UNL     1      26.639  36.309  10.201  1.00  0.00    -0.477 OA
ATOM     45  H   UNL     1      27.266  35.497  10.300  1.00  0.00     0.296 HD
ENDBRANCH  42  44
ENDBRANCH   3  42
BRANCH   6  46
ATOM     46  O   UNL     1      24.114  39.876   7.909  1.00  0.00    -0.391 OA
ATOM     47  H   UNL     1      24.884  40.006   7.307  1.00  0.00     0.211 HD
ENDBRANCH   6  46
BRANCH   7  48
ATOM     48  N   UNL     1      21.164  37.903   8.398  1.00  0.00    -0.348 N 
ATOM     49  C   UNL     1      19.911  38.573   8.329  1.00  0.00     0.217 C 
ATOM     50  H   UNL     1      21.183  36.860   8.209  1.00  0.00     0.163 HD
ATOM     51  C   UNL     1      18.654  37.878   8.008  1.00  0.00     0.114 C 
ATOM     52  O   UNL     1      19.920  39.791   8.554  1.00  0.00    -0.275 OA
ENDBRANCH   7  48
ENDBRANCH   1   2
BRANCH   1  53
ATOM     53  O   UNL     1      21.686  39.295  10.835  1.00  0.00    -0.388 OA
ATOM     54  H   UNL     1      22.121  40.141  11.074  1.00  0.00     0.211 HD
ENDBRANCH   1  53
BRANCH   1  55
ATOM     55  C   UNL     1      21.680  37.045  11.746  1.00  0.00     0.165 C 
BRANCH  55  56
ATOM     56  O   UNL     1      20.319  37.261  11.514  1.00  0.00    -0.388 OA
ATOM     57  H   UNL     1      20.049  38.168  11.724  1.00  0.00     0.211 HD
ENDBRANCH  55  56
BRANCH  55  58
ATOM     58  C   UNL     1      21.963  36.910  13.223  1.00  0.00     0.154 C 
BRANCH  58  59
ATOM     59  N   UNL     1      23.345  36.962  13.570  1.00  0.00    -0.319 N 
ATOM     60  C   UNL     1      23.966  38.060  14.219  1.00  0.00     0.407 C 
ATOM     61  H   UNL     1      23.965  36.139  13.339  1.00  0.00     0.167 HD
ATOM     62  O   UNL     1      23.252  39.054  14.502  1.00  0.00    -0.225 OA
BRANCH  60  63
ATOM     63  O   UNL     1      25.300  38.097  14.550  1.00  0.00    -0.443 OA
BRANCH  63  64
ATOM     64  C   UNL     1      25.953  37.026  15.230  1.00  0.00     0.294 C 
BRANCH  64  65
ATOM     65  C   UNL     1      26.769  36.221  14.310  1.00  0.00     0.120 A 
ATOM     66  C   UNL     1      28.074  35.863  14.553  1.00  0.00     0.138 A 
ATOM     67  N   UNL     1      26.459  35.689  13.121  1.00  0.00    -0.132 NA
ATOM     68  N   UNL     1      28.521  35.136  13.527  1.00  0.00    -0.248 N 
ATOM     69  N   UNL     1      27.495  35.048  12.659  1.00  0.00    -0.067 NA
BRANCH  68  70
ATOM     70  C   UNL     1      29.822  34.536  13.300  1.00  0.00     0.185 C 
BRANCH  70  71
ATOM     71  C   UNL     1      30.288  33.786  14.471  1.00  0.00     0.016 A 
ATOM     72  C   UNL     1      31.394  34.143  15.162  1.00  0.00     0.135 A 
ATOM     73  C   UNL     1      29.524  32.681  14.858  1.00  0.00     0.009 A 
ATOM     74  C   UNL     1      31.766  33.388  16.276  1.00  0.00     0.047 A 
ATOM     75  C   UNL     1      29.900  31.946  15.953  1.00  0.00     0.001 A 
ATOM     76  C   UNL     1      31.022  32.293  16.670  1.00  0.00     0.004 A 
BRANCH  72  77
ATOM     77  O   UNL     1      32.180  35.223  14.818  1.00  0.00    -0.426 OA
BRANCH  77  78
ATOM     78  C   UNL     1      32.398  36.208  15.788  1.00  0.00     0.308 C 
ATOM     79  O   UNL     1      31.443  36.941  16.125  1.00  0.00    -0.252 OA
ATOM     80  C   UNL     1      33.727  36.364  16.385  1.00  0.00     0.139 C 
ENDBRANCH  77  78
ENDBRANCH  72  77
ENDBRANCH  70  71
ENDBRANCH  68  70
ENDBRANCH  64  65
ENDBRANCH  63  64
ENDBRANCH  60  63
ENDBRANCH  58  59
ENDBRANCH  55  58
ENDBRANCH   1  55
TORSDOF 33
BEGIN_RES LYS A 131
REMARK  4 active torsions:
REMARK  status: ('A' for Active; 'I' for Inactive)
REMARK    1  A    between atoms: CA   and  CB  
REMARK    2  A    between atoms: CB   and  CG  
REMARK    3  A    between atoms: CG   and  CD  
REMARK    4  A    between atoms: CD   and  CE  
ROOT
ATOM      1  CA  LYS A 131      29.867  25.555  16.977  1.00 20.52     0.186 C 
ENDROOT
BRANCH   1   2
ATOM      2  CB  LYS A 131      28.345  25.722  17.026  1.00 20.94     0.034 C 
BRANCH   2   3
ATOM      3  CG  LYS A 131      27.601  24.402  16.896  1.00 22.96     0.005 C 
BRANCH   3   4
ATOM      4  CD  LYS A 131      26.620  24.192  18.016  1.00 24.33     0.041 C 
BRANCH   4   5
ATOM      5  CE  LYS A 131      25.907  25.505  18.321  1.00 26.91     0.338 C 
ATOM      6  NZ  LYS A 131      24.464  25.268  18.563  1.00 27.40     0.618 N 
ENDBRANCH   4   5
ENDBRANCH   3   4
ENDBRANCH   2   3
ENDBRANCH   1   2
END_RES LYS A 131
BEGIN_RES LYS A 135
REMARK  4 active torsions:
REMARK  status: ('A' for Active; 'I' for Inactive)
REMARK    5  A    between atoms: CA   and  CB  
REMARK    6  A    between atoms: CB   and  CG  
REMARK    7  A    between atoms: CG   and  CD  
REMARK    8  A    between atoms: CD   and  CE  
ROOT
ATOM      7  CA  LYS A 135      33.193  34.663   9.290  1.00 25.02     0.186 C 
ENDROOT
BRANCH   7   8
ATOM      8  CB  LYS A 135      32.060  35.360  10.034  1.00 26.63     0.034 C 
BRANCH   8   9
ATOM      9  CG  LYS A 135      30.726  34.677   9.877  1.00 29.45     0.005 C 
BRANCH   9  10
ATOM     10  CD  LYS A 135      30.384  34.498   8.406  1.00 32.00     0.041 C 
BRANCH  10  11
ATOM     11  CE  LYS A 135      28.881  34.512   8.203  1.00 34.25     0.338 C 
ATOM     12  NZ  LYS A 135      28.516  35.226   6.948  1.00 35.99     0.618 N 
ENDBRANCH  10  11
ENDBRANCH   9  10
ENDBRANCH   8   9
ENDBRANCH   7   8
END_RES LYS A 135
