REMARK VINA RESULT:    -4.273      2.720      7.573
REMARK INTER + INTRA:         -22.076
REMARK INTER:                 -10.753
REMARK INTRA:                 -11.324
REMARK UNBOUND:               -10.809
REMARK SMILES COc1ccc(Cn2cc(COC(=O)NC[C@@H](O)C(O)[C@@H]3O[C@@](OC[C@H]4O[C@@H](O[C@H]5[C@H](O)[C@@H](O)[C@H](OCCN=[N+]=[N-])O[C@@H]5CO)[C@H](O)[C@@H](O)[C@H]4O)(C(=O)O)C[C@H](O)[C@H]3NC(C)=O)nn2)cc1OC
REMARK SMILES IDX 23 1 55 2 56 3 58 4 21 5 22 6 24 7 25 8 26 9 28 10 27 11
REMARK SMILES IDX 46 12 48 13 50 14 29 15 30 16 43 17 42 18 35 19 31 20 33 21
REMARK SMILES IDX 44 22 45 23 36 25 37 26 38 27 39 28 40 29 41 30 32 31 34 33
REMARK SMILES IDX 47 35 49 37 51 39 52 41 53 42 54 43 57 45 19 47 20 48 17 50
REMARK SMILES IDX 18 51 16 53 15 54 13 55 14 57 12 58 11 59 10 60 9 61 63 62
REMARK SMILES IDX 8 63 64 64 7 65 6 66 65 67 5 68 66 69 4 70 3 71 67 72 68 73
REMARK SMILES IDX 2 74 1 75 59 76 60 77 61 79 62 80
REMARK H PARENT 45 24 32 32 34 34 47 36 49 38 51 40 54 44 57 46 20 49 18 52
REMARK H PARENT 15 56 59 78
REMARK Flexibility Score: inf
ROOT
ATOM      1  C   UNL     1      31.227  35.195  14.241  1.00  0.00     0.272 C 
ATOM      2  C   UNL     1      32.274  34.183  14.670  1.00  0.00     0.113 C 
ATOM      3  C   UNL     1      31.894  33.144  15.662  1.00  0.00     0.145 C 
ATOM      4  C   UNL     1      30.675  33.611  16.452  1.00  0.00     0.142 C 
ATOM      5  C   UNL     1      30.791  35.082  16.517  1.00  0.00     0.178 C 
ATOM      6  O   UNL     1      30.410  35.626  15.304  1.00  0.00    -0.332 OA
ENDROOT
BRANCH   1   7
ATOM      7  O   UNL     1      30.427  34.503  13.341  1.00  0.00    -0.338 OA
BRANCH   7   8
ATOM      8  C   UNL     1      29.137  34.262  13.703  1.00  0.00     0.199 C 
BRANCH   8   9
ATOM      9  C   UNL     1      28.177  34.793  12.673  1.00  0.00     0.179 C 
ATOM     10  C   UNL     1      26.002  35.066  12.074  1.00  0.00     0.282 C 
ATOM     11  O   UNL     1      26.888  34.947  13.214  1.00  0.00    -0.341 OA
ATOM     12  C   UNL     1      26.177  36.373  11.453  1.00  0.00     0.202 C 
ATOM     13  C   UNL     1      27.639  36.752  11.285  1.00  0.00     0.179 C 
ATOM     14  C   UNL     1      28.565  36.235  12.314  1.00  0.00     0.177 C 
BRANCH  10  15
ATOM     15  O   UNL     1      24.734  34.798  12.548  1.00  0.00    -0.341 OA
BRANCH  15  16
ATOM     16  C   UNL     1      24.796  34.340  13.864  1.00  0.00     0.184 C 
ATOM     17  C   UNL     1      23.913  33.187  14.131  1.00  0.00     0.178 C 
ATOM     18  O   UNL     1      24.264  32.653  15.368  1.00  0.00    -0.341 OA
ATOM     19  C   UNL     1      24.594  33.587  16.283  1.00  0.00     0.281 C 
ATOM     20  C   UNL     1      24.399  35.517  14.763  1.00  0.00     0.180 C 
ATOM     21  C   UNL     1      23.944  34.941  16.111  1.00  0.00     0.202 C 
BRANCH  17  22
ATOM     22  C   UNL     1      23.956  32.139  13.043  1.00  0.00     0.191 C 
BRANCH  22  23
ATOM     23  O   UNL     1      24.702  31.076  13.548  1.00  0.00    -0.394 OA
ATOM     24  H   UNL     1      25.295  30.722  12.820  1.00  0.00     0.210 HD
ENDBRANCH  22  23
ENDBRANCH  17  22
BRANCH  19  25
ATOM     25  O   UNL     1      26.012  33.829  16.180  1.00  0.00    -0.350 OA
BRANCH  25  26
ATOM     26  C   UNL     1      26.649  32.595  16.423  1.00  0.00     0.169 C 
BRANCH  26  27
ATOM     27  C   UNL     1      26.638  32.207  17.890  1.00  0.00     0.119 C 
BRANCH  27  28
ATOM     28  N   UNL     1      25.988  30.934  18.030  1.00  0.00    -0.092 NA
ATOM     29  N   UNL     1      26.467  29.895  17.567  1.00  0.00     0.001 N 
ATOM     30  N   UNL     1      27.091  29.083  16.853  1.00  0.00    -0.003 NA
ENDBRANCH  27  28
ENDBRANCH  26  27
ENDBRANCH  25  26
ENDBRANCH  19  25
BRANCH  20  31
ATOM     31  O   UNL     1      25.545  36.257  15.002  1.00  0.00    -0.387 OA
ATOM     32  H   UNL     1      26.223  36.013  14.302  1.00  0.00     0.211 HD
ENDBRANCH  20  31
BRANCH  21  33
ATOM     33  O   UNL     1      22.577  34.799  16.077  1.00  0.00    -0.385 OA
ATOM     34  H   UNL     1      22.126  35.570  15.635  1.00  0.00     0.211 HD
ENDBRANCH  21  33
ENDBRANCH  15  16
ENDBRANCH  10  15
BRANCH  12  35
ATOM     35  O   UNL     1      25.623  36.419  10.184  1.00  0.00    -0.385 OA
ATOM     36  H   UNL     1      26.315  36.576   9.478  1.00  0.00     0.211 HD
ENDBRANCH  12  35
BRANCH  13  37
ATOM     37  O   UNL     1      27.701  38.169  11.206  1.00  0.00    -0.387 OA
ATOM     38  H   UNL     1      28.664  38.405  11.151  1.00  0.00     0.211 HD
ENDBRANCH  13  37
BRANCH  14  39
ATOM     39  O   UNL     1      28.454  36.959  13.522  1.00  0.00    -0.387 OA
ATOM     40  H   UNL     1      28.285  36.329  14.304  1.00  0.00     0.211 HD
ENDBRANCH  14  39
ENDBRANCH   8   9
ENDBRANCH   7   8
ENDBRANCH   1   7
BRANCH   1  41
ATOM     41  C   UNL     1      31.931  36.379  13.685  1.00  0.00     0.364 C 
ATOM     42  O   UNL     1      32.542  36.327  12.615  1.00  0.00    -0.246 OA
BRANCH  41  43
ATOM     43  O   UNL     1      31.962  37.645  14.330  1.00  0.00    -0.477 OA
ATOM     44  H   UNL     1      31.412  38.398  13.856  1.00  0.00     0.296 HD
ENDBRANCH  41  43
ENDBRANCH   1  41
BRANCH   3  45
ATOM     45  O   UNL     1      31.586  31.949  15.057  1.00  0.00    -0.391 OA
ATOM     46  H   UNL     1      30.612  31.918  14.828  1.00  0.00     0.211 HD
ENDBRANCH   3  45
BRANCH   5  47
ATOM     47  C   UNL     1      30.235  35.683  17.724  1.00  0.00     0.176 C 
BRANCH  47  48
ATOM     48  O   UNL     1      30.883  36.812  18.210  1.00  0.00    -0.388 OA
ATOM     49  H   UNL     1      30.747  37.003  19.145  1.00  0.00     0.211 HD
ENDBRANCH  47  48
BRANCH  47  50
ATOM     50  C   UNL     1      28.842  36.405  17.307  1.00  0.00     0.165 C 
BRANCH  50  51
ATOM     51  O   UNL     1      28.290  35.664  16.335  1.00  0.00    -0.388 OA
ATOM     52  H   UNL     1      28.475  34.684  16.428  1.00  0.00     0.211 HD
ENDBRANCH  50  51
BRANCH  50  53
ATOM     53  C   UNL     1      29.029  37.833  17.213  1.00  0.00     0.154 C 
BRANCH  53  54
ATOM     54  N   UNL     1      29.662  38.503  16.127  1.00  0.00    -0.319 N 
ATOM     55  C   UNL     1      30.477  39.612  16.461  1.00  0.00     0.407 C 
ATOM     56  H   UNL     1      29.578  38.278  15.138  1.00  0.00     0.167 HD
ATOM     57  O   UNL     1      30.610  39.976  17.676  1.00  0.00    -0.225 OA
BRANCH  55  58
ATOM     58  O   UNL     1      31.189  40.391  15.554  1.00  0.00    -0.443 OA
BRANCH  58  59
ATOM     59  C   UNL     1      30.387  41.257  14.679  1.00  0.00     0.294 C 
BRANCH  59  60
ATOM     60  C   UNL     1      30.453  40.542  13.371  1.00  0.00     0.120 A 
ATOM     61  C   UNL     1      31.083  41.044  12.208  1.00  0.00     0.138 A 
ATOM     62  N   UNL     1      30.021  39.319  13.088  1.00  0.00    -0.132 NA
ATOM     63  N   UNL     1      30.983  40.055  11.289  1.00  0.00    -0.248 N 
ATOM     64  N   UNL     1      30.362  39.054  11.809  1.00  0.00    -0.067 NA
BRANCH  63  65
ATOM     65  C   UNL     1      31.572  40.126   9.925  1.00  0.00     0.181 C 
BRANCH  65  66
ATOM     66  C   UNL     1      30.415  39.672   9.034  1.00  0.00    -0.023 A 
ATOM     67  C   UNL     1      29.345  40.490   8.748  1.00  0.00     0.056 A 
ATOM     68  C   UNL     1      30.538  38.464   8.425  1.00  0.00     0.010 A 
ATOM     69  C   UNL     1      28.423  39.977   7.791  1.00  0.00     0.161 A 
ATOM     70  C   UNL     1      29.601  37.967   7.468  1.00  0.00     0.051 A 
ATOM     71  C   UNL     1      28.545  38.792   7.187  1.00  0.00     0.160 A 
BRANCH  69  72
ATOM     72  O   UNL     1      27.312  40.755   7.462  1.00  0.00    -0.493 OA
ATOM     73  C   UNL     1      27.402  41.851   6.544  1.00  0.00     0.278 C 
ENDBRANCH  69  72
BRANCH  71  74
ATOM     74  O   UNL     1      27.573  38.398   6.224  1.00  0.00    -0.493 OA
ATOM     75  C   UNL     1      27.404  36.987   5.971  1.00  0.00     0.278 C 
ENDBRANCH  71  74
ENDBRANCH  65  66
ENDBRANCH  63  65
ENDBRANCH  59  60
ENDBRANCH  58  59
ENDBRANCH  55  58
ENDBRANCH  53  54
ENDBRANCH  50  53
ENDBRANCH  47  50
ENDBRANCH   5  47
BRANCH   4  76
ATOM     76  N   UNL     1      30.673  32.941  17.725  1.00  0.00    -0.348 N 
ATOM     77  C   UNL     1      30.181  31.635  17.815  1.00  0.00     0.217 C 
ATOM     78  H   UNL     1      31.047  33.374  18.614  1.00  0.00     0.163 HD
ATOM     79  C   UNL     1      30.086  30.813  19.060  1.00  0.00     0.114 C 
ATOM     80  O   UNL     1      29.738  30.986  16.782  1.00  0.00    -0.275 OA
ENDBRANCH   4  76
TORSDOF 33
BEGIN_RES LYS A 131
REMARK  4 active torsions:
REMARK  status: ('A' for Active; 'I' for Inactive)
REMARK    1  A    between atoms: CA   and  CB  
REMARK    2  A    between atoms: CB   and  CG  
REMARK    3  A    between atoms: CG   and  CD  
REMARK    4  A    between atoms: CD   and  CE  
ROOT
ATOM      1  CA  LYS A 131      29.867  25.555  16.977  1.00 20.52     0.186 C 
ENDROOT
BRANCH   1   2
ATOM      2  CB  LYS A 131      28.345  25.722  17.026  1.00 20.94     0.034 C 
BRANCH   2   3
ATOM      3  CG  LYS A 131      27.601  24.406  16.862  1.00 22.96     0.005 C 
BRANCH   3   4
ATOM      4  CD  LYS A 131      26.547  24.216  17.917  1.00 24.33     0.041 C 
BRANCH   4   5
ATOM      5  CE  LYS A 131      25.640  23.053  17.528  1.00 26.91     0.338 C 
ATOM      6  NZ  LYS A 131      24.329  23.554  17.053  1.00 27.40     0.618 N 
ENDBRANCH   4   5
ENDBRANCH   3   4
ENDBRANCH   2   3
ENDBRANCH   1   2
END_RES LYS A 131
BEGIN_RES LYS A 135
REMARK  4 active torsions:
REMARK  status: ('A' for Active; 'I' for Inactive)
REMARK    5  A    between atoms: CA   and  CB  
REMARK    6  A    between atoms: CB   and  CG  
REMARK    7  A    between atoms: CG   and  CD  
REMARK    8  A    between atoms: CD   and  CE  
ROOT
ATOM      7  CA  LYS A 135      33.193  34.663   9.290  1.00 25.02     0.186 C 
ENDROOT
BRANCH   7   8
ATOM      8  CB  LYS A 135      32.060  35.360  10.034  1.00 26.63     0.034 C 
BRANCH   8   9
ATOM      9  CG  LYS A 135      30.751  34.617   9.971  1.00 29.45     0.005 C 
BRANCH   9  10
ATOM     10  CD  LYS A 135      30.297  34.451   8.529  1.00 32.00     0.041 C 
BRANCH  10  11
ATOM     11  CE  LYS A 135      28.787  34.554   8.431  1.00 34.25     0.338 C 
ATOM     12  NZ  LYS A 135      28.122  33.666   9.424  1.00 35.99     0.618 N 
ENDBRANCH  10  11
ENDBRANCH   9  10
ENDBRANCH   8   9
ENDBRANCH   7   8
END_RES LYS A 135
