REMARK VINA RESULT:    -3.328      2.604      8.437
REMARK INTER + INTRA:         -22.247
REMARK INTER:                 -10.810
REMARK INTRA:                 -11.437
REMARK UNBOUND:               -13.473
REMARK SMILES CC(=O)N[C@@H]1[C@@H](O)C[C@](OC[C@H]2O[C@@H](O[C@H]3[C@H](O)[C@@H](O)[C@H](OCCN=[N+]=[N-])O[C@@H]3CO)[C@H](O)[C@@H](O)[C@H]2O)(C(=O)O)O[C@H]1C(O)[C@H](O)CNC(=O)OCc1cn(CCOC(C)=O)nn1
REMARK SMILES IDX 43 1 42 2 9 3 8 4 41 5 6 6 5 7 10 8 11 9 12 10 14 11 13 12
REMARK SMILES IDX 32 13 34 14 36 15 15 16 16 17 29 18 28 19 21 20 17 21 19 22
REMARK SMILES IDX 30 23 31 24 22 26 23 27 24 28 25 29 26 30 27 31 18 32 20 34
REMARK SMILES IDX 33 36 35 38 37 40 38 42 39 43 40 44 7 46 4 48 2 49 1 51 3 52
REMARK SMILES IDX 44 53 45 55 46 56 47 58 48 59 49 60 50 62 51 63 52 64 53 65
REMARK SMILES IDX 54 66 63 67 55 68 62 69 56 70 57 71 58 72 59 73 61 74 60 75
REMARK H PARENT 31 25 18 33 20 35 33 37 35 39 37 41 40 45 7 47 4 50 44 54
REMARK H PARENT 46 57 48 61
REMARK Flexibility Score: inf
ROOT
ATOM      1  C   UNL     1      23.518  32.510  17.100  1.00  0.00     0.176 C 
ENDROOT
BRANCH   1   2
ATOM      2  C   UNL     1      23.514  31.005  17.179  1.00  0.00     0.178 C 
ATOM      3  C   UNL     1      25.025  29.268  17.684  1.00  0.00     0.272 C 
ATOM      4  C   UNL     1      23.750  28.480  17.507  1.00  0.00     0.113 C 
ATOM      5  O   UNL     1      24.779  30.668  17.704  1.00  0.00    -0.332 OA
ATOM      6  C   UNL     1      23.006  28.839  16.270  1.00  0.00     0.145 C 
ATOM      7  C   UNL     1      23.425  30.282  15.871  1.00  0.00     0.142 C 
BRANCH   3   8
ATOM      8  O   UNL     1      25.985  29.077  16.812  1.00  0.00    -0.338 OA
BRANCH   8   9
ATOM      9  C   UNL     1      27.272  28.916  16.935  1.00  0.00     0.199 C 
BRANCH   9  10
ATOM     10  C   UNL     1      28.311  29.935  16.730  1.00  0.00     0.179 C 
ATOM     11  C   UNL     1      28.671  31.852  15.502  1.00  0.00     0.282 C 
ATOM     12  O   UNL     1      27.675  31.089  16.129  1.00  0.00    -0.341 OA
ATOM     13  C   UNL     1      29.913  31.989  16.278  1.00  0.00     0.202 C 
ATOM     14  C   UNL     1      29.918  31.474  17.675  1.00  0.00     0.179 C 
ATOM     15  C   UNL     1      28.802  30.563  18.049  1.00  0.00     0.177 C 
BRANCH  11  16
ATOM     16  O   UNL     1      28.068  33.028  15.088  1.00  0.00    -0.341 OA
BRANCH  16  17
ATOM     17  C   UNL     1      28.936  34.085  14.996  1.00  0.00     0.184 C 
ATOM     18  C   UNL     1      28.251  35.352  15.456  1.00  0.00     0.178 C 
ATOM     19  O   UNL     1      29.222  36.358  15.360  1.00  0.00    -0.341 OA
ATOM     20  C   UNL     1      29.374  36.725  14.056  1.00  0.00     0.281 C 
ATOM     21  C   UNL     1      29.462  34.269  13.582  1.00  0.00     0.180 C 
ATOM     22  C   UNL     1      29.161  35.627  13.040  1.00  0.00     0.202 C 
BRANCH  18  23
ATOM     23  C   UNL     1      27.837  35.220  16.910  1.00  0.00     0.191 C 
BRANCH  23  24
ATOM     24  O   UNL     1      28.960  35.095  17.707  1.00  0.00    -0.394 OA
ATOM     25  H   UNL     1      28.731  34.404  18.398  1.00  0.00     0.210 HD
ENDBRANCH  23  24
ENDBRANCH  18  23
BRANCH  20  26
ATOM     26  O   UNL     1      30.650  37.289  13.924  1.00  0.00    -0.350 OA
BRANCH  26  27
ATOM     27  C   UNL     1      31.354  37.236  15.121  1.00  0.00     0.169 C 
BRANCH  27  28
ATOM     28  C   UNL     1      32.672  36.527  14.790  1.00  0.00     0.119 C 
BRANCH  28  29
ATOM     29  N   UNL     1      32.599  35.174  15.316  1.00  0.00    -0.092 NA
ATOM     30  N   UNL     1      32.106  34.919  16.422  1.00  0.00     0.001 N 
ATOM     31  N   UNL     1      31.987  34.708  17.644  1.00  0.00    -0.003 NA
ENDBRANCH  28  29
ENDBRANCH  27  28
ENDBRANCH  26  27
ENDBRANCH  20  26
BRANCH  21  32
ATOM     32  O   UNL     1      30.812  33.965  13.460  1.00  0.00    -0.387 OA
ATOM     33  H   UNL     1      31.310  34.587  12.874  1.00  0.00     0.211 HD
ENDBRANCH  21  32
BRANCH  22  34
ATOM     34  O   UNL     1      27.912  35.660  12.452  1.00  0.00    -0.385 OA
ATOM     35  H   UNL     1      27.427  36.467  12.791  1.00  0.00     0.211 HD
ENDBRANCH  22  34
ENDBRANCH  16  17
ENDBRANCH  11  16
BRANCH  13  36
ATOM     36  O   UNL     1      31.041  31.516  15.556  1.00  0.00    -0.385 OA
ATOM     37  H   UNL     1      31.733  32.204  15.471  1.00  0.00     0.211 HD
ENDBRANCH  13  36
BRANCH  14  38
ATOM     38  O   UNL     1      29.948  32.519  18.611  1.00  0.00    -0.387 OA
ATOM     39  H   UNL     1      30.629  33.187  18.303  1.00  0.00     0.211 HD
ENDBRANCH  14  38
BRANCH  15  40
ATOM     40  O   UNL     1      27.748  31.384  18.538  1.00  0.00    -0.387 OA
ATOM     41  H   UNL     1      26.895  30.906  18.503  1.00  0.00     0.211 HD
ENDBRANCH  15  40
ENDBRANCH   9  10
ENDBRANCH   8   9
ENDBRANCH   3   8
BRANCH   3  42
ATOM     42  C   UNL     1      25.425  29.038  19.100  1.00  0.00     0.364 C 
ATOM     43  O   UNL     1      25.482  27.938  19.680  1.00  0.00    -0.246 OA
BRANCH  42  44
ATOM     44  O   UNL     1      25.785  30.138  19.910  1.00  0.00    -0.477 OA
ATOM     45  H   UNL     1      25.543  30.116  20.889  1.00  0.00     0.296 HD
ENDBRANCH  42  44
ENDBRANCH   3  42
BRANCH   6  46
ATOM     46  O   UNL     1      23.161  27.975  15.211  1.00  0.00    -0.391 OA
ATOM     47  H   UNL     1      22.322  27.808  14.710  1.00  0.00     0.211 HD
ENDBRANCH   6  46
BRANCH   7  48
ATOM     48  N   UNL     1      22.512  30.780  14.898  1.00  0.00    -0.348 N 
ATOM     49  C   UNL     1      22.710  30.584  13.507  1.00  0.00     0.217 C 
ATOM     50  H   UNL     1      21.664  31.281  15.207  1.00  0.00     0.163 HD
ATOM     51  C   UNL     1      21.748  31.111  12.490  1.00  0.00     0.114 C 
ATOM     52  O   UNL     1      23.714  29.950  13.059  1.00  0.00    -0.275 OA
ENDBRANCH   7  48
ENDBRANCH   1   2
BRANCH   1  53
ATOM     53  O   UNL     1      22.387  32.824  16.282  1.00  0.00    -0.388 OA
ATOM     54  H   UNL     1      21.671  33.207  16.831  1.00  0.00     0.211 HD
ENDBRANCH   1  53
BRANCH   1  55
ATOM     55  C   UNL     1      24.695  32.987  16.283  1.00  0.00     0.165 C 
BRANCH  55  56
ATOM     56  O   UNL     1      25.823  33.080  17.113  1.00  0.00    -0.388 OA
ATOM     57  H   UNL     1      26.311  33.895  16.874  1.00  0.00     0.211 HD
ENDBRANCH  55  56
BRANCH  55  58
ATOM     58  C   UNL     1      24.432  34.271  15.560  1.00  0.00     0.154 C 
BRANCH  58  59
ATOM     59  N   UNL     1      24.481  34.199  14.133  1.00  0.00    -0.319 N 
ATOM     60  C   UNL     1      23.341  34.267  13.310  1.00  0.00     0.407 C 
ATOM     61  H   UNL     1      25.405  34.089  13.610  1.00  0.00     0.167 HD
ATOM     62  O   UNL     1      22.186  34.408  13.765  1.00  0.00    -0.225 OA
BRANCH  60  63
ATOM     63  O   UNL     1      23.431  34.177  11.912  1.00  0.00    -0.443 OA
BRANCH  63  64
ATOM     64  C   UNL     1      23.123  35.248  11.067  1.00  0.00     0.294 C 
BRANCH  64  65
ATOM     65  C   UNL     1      24.324  35.747  10.341  1.00  0.00     0.120 A 
ATOM     66  C   UNL     1      24.281  36.305   9.076  1.00  0.00     0.138 A 
ATOM     67  N   UNL     1      25.602  35.779  10.707  1.00  0.00    -0.132 NA
ATOM     68  N   UNL     1      25.530  36.644   8.741  1.00  0.00    -0.249 N 
ATOM     69  N   UNL     1      26.318  36.315   9.749  1.00  0.00    -0.067 NA
BRANCH  68  70
ATOM     70  C   UNL     1      25.978  37.258   7.483  1.00  0.00     0.187 C 
BRANCH  70  71
ATOM     71  C   UNL     1      27.009  38.326   7.773  1.00  0.00     0.256 C 
BRANCH  71  72
ATOM     72  O   UNL     1      27.165  39.126   6.606  1.00  0.00    -0.464 OA
BRANCH  72  73
ATOM     73  C   UNL     1      28.156  38.828   5.675  1.00  0.00     0.302 C 
ATOM     74  O   UNL     1      27.807  38.291   4.597  1.00  0.00    -0.253 OA
ATOM     75  C   UNL     1      29.604  39.128   5.922  1.00  0.00     0.139 C 
ENDBRANCH  72  73
ENDBRANCH  71  72
ENDBRANCH  70  71
ENDBRANCH  68  70
ENDBRANCH  64  65
ENDBRANCH  63  64
ENDBRANCH  60  63
ENDBRANCH  58  59
ENDBRANCH  55  58
ENDBRANCH   1  55
TORSDOF 33
BEGIN_RES LYS A 131
REMARK  4 active torsions:
REMARK  status: ('A' for Active; 'I' for Inactive)
REMARK    1  A    between atoms: CA   and  CB  
REMARK    2  A    between atoms: CB   and  CG  
REMARK    3  A    between atoms: CG   and  CD  
REMARK    4  A    between atoms: CD   and  CE  
ROOT
ATOM      1  CA  LYS A 131      29.867  25.555  16.977  1.00 20.52     0.186 C 
ENDROOT
BRANCH   1   2
ATOM      2  CB  LYS A 131      28.345  25.722  17.026  1.00 20.94     0.034 C 
BRANCH   2   3
ATOM      3  CG  LYS A 131      27.599  24.452  16.648  1.00 22.96     0.005 C 
BRANCH   3   4
ATOM      4  CD  LYS A 131      27.104  23.705  17.855  1.00 24.33     0.041 C 
BRANCH   4   5
ATOM      5  CE  LYS A 131      25.660  24.101  18.143  1.00 26.91     0.338 C 
ATOM      6  NZ  LYS A 131      25.515  24.555  19.546  1.00 27.40     0.618 N 
ENDBRANCH   4   5
ENDBRANCH   3   4
ENDBRANCH   2   3
ENDBRANCH   1   2
END_RES LYS A 131
BEGIN_RES LYS A 135
REMARK  4 active torsions:
REMARK  status: ('A' for Active; 'I' for Inactive)
REMARK    5  A    between atoms: CA   and  CB  
REMARK    6  A    between atoms: CB   and  CG  
REMARK    7  A    between atoms: CG   and  CD  
REMARK    8  A    between atoms: CD   and  CE  
ROOT
ATOM      7  CA  LYS A 135      33.193  34.663   9.290  1.00 25.02     0.186 C 
ENDROOT
BRANCH   7   8
ATOM      8  CB  LYS A 135      32.060  35.360  10.034  1.00 26.63     0.034 C 
BRANCH   8   9
ATOM      9  CG  LYS A 135      30.713  34.720   9.817  1.00 29.45     0.005 C 
BRANCH   9  10
ATOM     10  CD  LYS A 135      30.506  34.391   8.346  1.00 32.00     0.041 C 
BRANCH  10  11
ATOM     11  CE  LYS A 135      29.081  34.695   7.928  1.00 34.25     0.338 C 
ATOM     12  NZ  LYS A 135      29.050  35.525   6.692  1.00 35.99     0.618 N 
ENDBRANCH  10  11
ENDBRANCH   9  10
ENDBRANCH   8   9
ENDBRANCH   7   8
END_RES LYS A 135
