REMARK VINA RESULT:    -4.864      3.216      6.695
REMARK INTER + INTRA:         -23.199
REMARK INTER:                  -9.569
REMARK INTRA:                 -13.630
REMARK UNBOUND:               -10.372
REMARK SMILES CC(=O)N[C@@H]1[C@@H](O)C[C@](OC[C@H]2O[C@@H](O[C@H]3[C@H](O)[C@@H](O)[C@H](OCCN=[N+]=[N-])O[C@@H]3CO)[C@H](O)[C@@H](O)[C@H]2O)(C(=O)O)O[C@H]1C(O)[C@H](O)CNC(=O)OCc1cn(CC(=O)NCc2cccs2)nn1
REMARK SMILES IDX 43 1 42 2 9 3 8 4 41 5 6 6 5 7 10 8 11 9 12 10 14 11 13 12
REMARK SMILES IDX 32 13 34 14 36 15 15 16 16 17 29 18 28 19 21 20 17 21 19 22
REMARK SMILES IDX 30 23 31 24 22 26 23 27 24 28 25 29 26 30 27 31 18 32 20 34
REMARK SMILES IDX 33 36 35 38 37 40 38 42 39 43 40 44 7 46 4 48 2 49 1 51 3 52
REMARK SMILES IDX 44 53 45 55 46 56 47 58 48 59 49 60 50 62 51 63 52 64 53 65
REMARK SMILES IDX 54 66 67 67 55 68 66 69 56 70 57 71 58 72 59 73 60 75 61 76
REMARK SMILES IDX 62 77 65 78 63 79 64 80
REMARK H PARENT 31 25 18 33 20 35 33 37 35 39 37 41 40 45 7 47 4 50 44 54
REMARK H PARENT 46 57 48 61 59 74
REMARK Flexibility Score: inf
ROOT
ATOM      1  C   UNL     1      23.818  38.855   8.683  1.00  0.00     0.176 C 
ENDROOT
BRANCH   1   2
ATOM      2  C   UNL     1      23.358  40.004   7.825  1.00  0.00     0.178 C 
ATOM      3  C   UNL     1      24.906  41.785   7.672  1.00  0.00     0.272 C 
ATOM      4  C   UNL     1      24.297  42.328   8.976  1.00  0.00     0.113 C 
ATOM      5  O   UNL     1      24.447  40.592   7.283  1.00  0.00    -0.332 OA
ATOM      6  C   UNL     1      22.829  42.221   8.889  1.00  0.00     0.145 C 
ATOM      7  C   UNL     1      22.325  40.883   8.416  1.00  0.00     0.142 C 
BRANCH   3   8
ATOM      8  O   UNL     1      26.256  41.743   7.930  1.00  0.00    -0.338 OA
BRANCH   8   9
ATOM      9  C   UNL     1      27.149  41.594   6.949  1.00  0.00     0.199 C 
BRANCH   9  10
ATOM     10  C   UNL     1      27.893  40.297   6.810  1.00  0.00     0.179 C 
ATOM     11  C   UNL     1      28.246  38.440   8.111  1.00  0.00     0.282 C 
ATOM     12  O   UNL     1      27.325  39.446   7.789  1.00  0.00    -0.341 OA
ATOM     13  C   UNL     1      28.878  37.856   6.892  1.00  0.00     0.202 C 
ATOM     14  C   UNL     1      28.215  38.199   5.600  1.00  0.00     0.179 C 
ATOM     15  C   UNL     1      27.637  39.575   5.505  1.00  0.00     0.177 C 
BRANCH  11  16
ATOM     16  O   UNL     1      27.705  37.459   8.895  1.00  0.00    -0.341 OA
BRANCH  16  17
ATOM     17  C   UNL     1      27.450  37.871  10.202  1.00  0.00     0.184 C 
ATOM     18  C   UNL     1      28.581  38.535  10.854  1.00  0.00     0.178 C 
ATOM     19  O   UNL     1      29.220  37.889  11.877  1.00  0.00    -0.341 OA
ATOM     20  C   UNL     1      28.924  36.582  12.095  1.00  0.00     0.281 C 
ATOM     21  C   UNL     1      26.826  36.709  10.923  1.00  0.00     0.180 C 
ATOM     22  C   UNL     1      27.402  36.494  12.300  1.00  0.00     0.202 C 
BRANCH  18  23
ATOM     23  C   UNL     1      28.128  39.879  11.460  1.00  0.00     0.191 C 
BRANCH  23  24
ATOM     24  O   UNL     1      27.518  40.693  10.530  1.00  0.00    -0.394 OA
ATOM     25  H   UNL     1      27.229  41.525  10.994  1.00  0.00     0.210 HD
ENDBRANCH  23  24
ENDBRANCH  18  23
BRANCH  20  26
ATOM     26  O   UNL     1      29.457  36.205  13.339  1.00  0.00    -0.350 OA
BRANCH  26  27
ATOM     27  C   UNL     1      30.470  37.050  13.743  1.00  0.00     0.169 C 
BRANCH  27  28
ATOM     28  C   UNL     1      31.772  36.243  13.710  1.00  0.00     0.119 C 
BRANCH  28  29
ATOM     29  N   UNL     1      32.007  35.663  15.024  1.00  0.00    -0.092 NA
ATOM     30  N   UNL     1      31.805  34.464  15.203  1.00  0.00     0.001 N 
ATOM     31  N   UNL     1      31.811  33.233  15.394  1.00  0.00    -0.003 NA
ENDBRANCH  28  29
ENDBRANCH  27  28
ENDBRANCH  26  27
ENDBRANCH  20  26
BRANCH  21  32
ATOM     32  O   UNL     1      25.431  36.778  10.967  1.00  0.00    -0.387 OA
ATOM     33  H   UNL     1      25.019  36.113  10.334  1.00  0.00     0.211 HD
ENDBRANCH  21  32
BRANCH  22  34
ATOM     34  O   UNL     1      27.035  35.235  12.732  1.00  0.00    -0.385 OA
ATOM     35  H   UNL     1      27.807  34.765  13.139  1.00  0.00     0.211 HD
ENDBRANCH  22  34
ENDBRANCH  16  17
ENDBRANCH  11  16
BRANCH  13  36
ATOM     36  O   UNL     1      30.256  38.165   6.821  1.00  0.00    -0.385 OA
ATOM     37  H   UNL     1      30.636  38.045   5.936  1.00  0.00     0.211 HD
ENDBRANCH  13  36
BRANCH  14  38
ATOM     38  O   UNL     1      27.264  37.210   5.252  1.00  0.00    -0.387 OA
ATOM     39  H   UNL     1      27.124  36.601   6.017  1.00  0.00     0.211 HD
ENDBRANCH  14  38
BRANCH  15  40
ATOM     40  O   UNL     1      26.240  39.410   5.349  1.00  0.00    -0.387 OA
ATOM     41  H   UNL     1      25.971  39.389   4.402  1.00  0.00     0.211 HD
ENDBRANCH  15  40
ENDBRANCH   9  10
ENDBRANCH   8   9
ENDBRANCH   3   8
BRANCH   3  42
ATOM     42  C   UNL     1      24.576  42.829   6.652  1.00  0.00     0.364 C 
ATOM     43  O   UNL     1      24.765  44.057   6.806  1.00  0.00    -0.246 OA
BRANCH  42  44
ATOM     44  O   UNL     1      24.022  42.437   5.440  1.00  0.00    -0.477 OA
ATOM     45  H   UNL     1      23.165  42.861   5.106  1.00  0.00     0.296 HD
ENDBRANCH  42  44
ENDBRANCH   3  42
BRANCH   6  46
ATOM     46  O   UNL     1      22.260  42.561  10.150  1.00  0.00    -0.391 OA
ATOM     47  H   UNL     1      22.909  42.441  10.877  1.00  0.00     0.211 HD
ENDBRANCH   6  46
BRANCH   7  48
ATOM     48  N   UNL     1      21.183  41.043   7.538  1.00  0.00    -0.348 N 
ATOM     49  C   UNL     1      19.902  41.286   8.077  1.00  0.00     0.217 C 
ATOM     50  H   UNL     1      21.271  40.978   6.489  1.00  0.00     0.163 HD
ATOM     51  C   UNL     1      18.737  41.447   7.158  1.00  0.00     0.114 C 
ATOM     52  O   UNL     1      19.667  41.377   9.305  1.00  0.00    -0.275 OA
ENDBRANCH   7  48
ENDBRANCH   1   2
BRANCH   1  53
ATOM     53  O   UNL     1      23.173  38.711   9.878  1.00  0.00    -0.388 OA
ATOM     54  H   UNL     1      22.574  37.939   9.963  1.00  0.00     0.211 HD
ENDBRANCH   1  53
BRANCH   1  55
ATOM     55  C   UNL     1      24.018  37.547   7.949  1.00  0.00     0.165 C 
BRANCH  55  56
ATOM     56  O   UNL     1      25.107  37.543   7.132  1.00  0.00    -0.388 OA
ATOM     57  H   UNL     1      25.883  38.044   7.464  1.00  0.00     0.211 HD
ENDBRANCH  55  56
BRANCH  55  58
ATOM     58  C   UNL     1      22.757  37.179   7.187  1.00  0.00     0.154 C 
BRANCH  58  59
ATOM     59  N   UNL     1      21.821  36.437   7.979  1.00  0.00    -0.319 N 
ATOM     60  C   UNL     1      20.663  36.938   8.624  1.00  0.00     0.407 C 
ATOM     61  H   UNL     1      21.959  35.375   8.138  1.00  0.00     0.167 HD
ATOM     62  O   UNL     1      20.334  38.122   8.552  1.00  0.00    -0.225 OA
BRANCH  60  63
ATOM     63  O   UNL     1      19.828  36.097   9.386  1.00  0.00    -0.443 OA
BRANCH  63  64
ATOM     64  C   UNL     1      20.228  34.914   9.998  1.00  0.00     0.294 C 
BRANCH  64  65
ATOM     65  C   UNL     1      21.277  35.070  11.015  1.00  0.00     0.120 A 
ATOM     66  C   UNL     1      21.232  34.648  12.326  1.00  0.00     0.138 A 
ATOM     67  N   UNL     1      22.494  35.654  10.853  1.00  0.00    -0.132 NA
ATOM     68  N   UNL     1      22.387  34.975  12.918  1.00  0.00    -0.243 N 
ATOM     69  N   UNL     1      23.118  35.574  12.009  1.00  0.00    -0.067 NA
BRANCH  68  70
ATOM     70  C   UNL     1      22.843  34.756  14.273  1.00  0.00     0.245 C 
BRANCH  70  71
ATOM     71  C   UNL     1      23.980  35.658  14.535  1.00  0.00     0.242 C 
ATOM     72  O   UNL     1      25.096  35.193  14.831  1.00  0.00    -0.273 OA
ATOM     73  N   UNL     1      23.817  37.062  14.454  1.00  0.00    -0.350 N 
ATOM     74  H   UNL     1      22.884  37.498  14.206  1.00  0.00     0.163 HD
BRANCH  73  75
ATOM     75  C   UNL     1      24.894  37.970  14.698  1.00  0.00     0.162 C 
BRANCH  75  76
ATOM     76  C   UNL     1      24.602  39.255  14.046  1.00  0.00     0.024 A 
ATOM     77  C   UNL     1      24.799  39.685  12.775  1.00  0.00     0.017 A 
ATOM     78  S   UNL     1      23.862  40.639  14.836  1.00  0.00    -0.147 S 
ATOM     79  C   UNL     1      24.428  40.930  12.436  1.00  0.00     0.012 A 
ATOM     80  C   UNL     1      23.868  41.741  13.351  1.00  0.00     0.065 A 
ENDBRANCH  75  76
ENDBRANCH  73  75
ENDBRANCH  70  71
ENDBRANCH  68  70
ENDBRANCH  64  65
ENDBRANCH  63  64
ENDBRANCH  60  63
ENDBRANCH  58  59
ENDBRANCH  55  58
ENDBRANCH   1  55
TORSDOF 33
BEGIN_RES LYS A 131
REMARK  4 active torsions:
REMARK  status: ('A' for Active; 'I' for Inactive)
REMARK    1  A    between atoms: CA   and  CB  
REMARK    2  A    between atoms: CB   and  CG  
REMARK    3  A    between atoms: CG   and  CD  
REMARK    4  A    between atoms: CD   and  CE  
ROOT
ATOM      1  CA  LYS A 131      29.867  25.555  16.977  1.00 20.52     0.186 C 
ENDROOT
BRANCH   1   2
ATOM      2  CB  LYS A 131      28.345  25.722  17.026  1.00 20.94     0.034 C 
BRANCH   2   3
ATOM      3  CG  LYS A 131      27.599  24.440  16.690  1.00 22.96     0.005 C 
BRANCH   3   4
ATOM      4  CD  LYS A 131      27.011  23.790  17.912  1.00 24.33     0.041 C 
BRANCH   4   5
ATOM      5  CE  LYS A 131      25.623  23.250  17.584  1.00 26.91     0.338 C 
ATOM      6  NZ  LYS A 131      24.790  24.305  16.961  1.00 27.40     0.618 N 
ENDBRANCH   4   5
ENDBRANCH   3   4
ENDBRANCH   2   3
ENDBRANCH   1   2
END_RES LYS A 131
BEGIN_RES LYS A 135
REMARK  4 active torsions:
REMARK  status: ('A' for Active; 'I' for Inactive)
REMARK    5  A    between atoms: CA   and  CB  
REMARK    6  A    between atoms: CB   and  CG  
REMARK    7  A    between atoms: CG   and  CD  
REMARK    8  A    between atoms: CD   and  CE  
ROOT
ATOM      7  CA  LYS A 135      33.193  34.663   9.290  1.00 25.02     0.186 C 
ENDROOT
BRANCH   7   8
ATOM      8  CB  LYS A 135      32.060  35.360  10.034  1.00 26.63     0.034 C 
BRANCH   8   9
ATOM      9  CG  LYS A 135      30.857  35.642   9.172  1.00 29.45     0.005 C 
BRANCH   9  10
ATOM     10  CD  LYS A 135      30.242  34.345   8.668  1.00 32.00     0.041 C 
BRANCH  10  11
ATOM     11  CE  LYS A 135      28.998  34.000   9.464  1.00 34.25     0.338 C 
ATOM     12  NZ  LYS A 135      27.770  34.169   8.639  1.00 35.99     0.618 N 
ENDBRANCH  10  11
ENDBRANCH   9  10
ENDBRANCH   8   9
ENDBRANCH   7   8
END_RES LYS A 135
