REMARK VINA RESULT:    -4.558      3.557      8.122
REMARK INTER + INTRA:         -22.686
REMARK INTER:                 -11.494
REMARK INTRA:                 -11.192
REMARK UNBOUND:               -11.068
REMARK SMILES CC(=O)N[C@@H]1[C@@H](O)C[C@](OC[C@H]2O[C@@H](O[C@H]3[C@H](O)[C@@H](O)[C@H](OCCN=[N+]=[N-])O[C@@H]3CO)[C@H](O)[C@@H](O)[C@H]2O)(C(=O)O)O[C@H]1C(O)[C@H](O)CNC(=O)OCc1cn(Cc2cc(Br)cc(Br)c2O)nn1
REMARK SMILES IDX 9 1 8 2 6 3 5 4 42 5 41 6 10 7 11 8 12 9 14 10 13 11 32 12
REMARK SMILES IDX 34 13 36 14 15 15 16 16 29 17 28 18 21 19 17 20 19 21 30 22
REMARK SMILES IDX 31 23 22 25 23 26 24 27 25 28 26 29 27 30 18 31 20 33 33 35
REMARK SMILES IDX 35 37 37 39 38 41 39 42 40 43 7 45 43 47 44 48 45 50 46 51
REMARK SMILES IDX 47 53 48 54 49 55 50 57 51 58 52 59 53 60 54 61 67 62 55 63
REMARK SMILES IDX 66 64 56 65 57 66 58 67 64 68 59 69 62 70 60 71 61 72 63 73
REMARK SMILES IDX 65 74 4 76 2 77 1 79 3 80
REMARK H PARENT 31 24 18 32 20 34 33 36 35 38 37 40 40 44 7 46 44 49 46 52
REMARK H PARENT 48 56 65 75 4 78
REMARK Flexibility Score: inf
ROOT
ATOM      1  C   UNL     1      25.986  28.574  19.711  1.00  0.00     0.272 C 
ATOM      2  C   UNL     1      26.315  29.737  20.764  1.00  0.00     0.113 C 
ATOM      3  C   UNL     1      27.676  29.560  21.303  1.00  0.00     0.145 C 
ATOM      4  C   UNL     1      28.680  29.503  20.181  1.00  0.00     0.142 C 
ATOM      5  C   UNL     1      28.120  29.156  18.835  1.00  0.00     0.178 C 
ATOM      6  O   UNL     1      26.888  28.676  18.712  1.00  0.00    -0.332 OA
ENDROOT
BRANCH   1   7
ATOM      7  O   UNL     1      24.760  28.980  19.306  1.00  0.00    -0.338 OA
BRANCH   7   8
ATOM      8  C   UNL     1      23.928  28.312  18.532  1.00  0.00     0.199 C 
BRANCH   8   9
ATOM      9  C   UNL     1      22.482  28.659  18.449  1.00  0.00     0.179 C 
ATOM     10  C   UNL     1      22.363  29.011  16.149  1.00  0.00     0.282 C 
ATOM     11  O   UNL     1      22.176  29.471  17.411  1.00  0.00    -0.341 OA
ATOM     12  C   UNL     1      21.904  27.600  15.974  1.00  0.00     0.202 C 
ATOM     13  C   UNL     1      20.993  27.192  17.100  1.00  0.00     0.179 C 
ATOM     14  C   UNL     1      21.597  27.410  18.456  1.00  0.00     0.177 C 
BRANCH  10  15
ATOM     15  O   UNL     1      23.682  29.228  15.720  1.00  0.00    -0.341 OA
BRANCH  15  16
ATOM     16  C   UNL     1      23.877  30.430  15.078  1.00  0.00     0.184 C 
ATOM     17  C   UNL     1      24.426  30.233  13.684  1.00  0.00     0.178 C 
ATOM     18  O   UNL     1      24.878  31.374  13.087  1.00  0.00    -0.341 OA
ATOM     19  C   UNL     1      24.509  32.566  13.684  1.00  0.00     0.281 C 
ATOM     20  C   UNL     1      24.945  31.272  15.785  1.00  0.00     0.180 C 
ATOM     21  C   UNL     1      24.877  32.636  15.141  1.00  0.00     0.202 C 
BRANCH  17  22
ATOM     22  C   UNL     1      23.454  29.514  12.771  1.00  0.00     0.191 C 
BRANCH  22  23
ATOM     23  O   UNL     1      22.159  29.942  12.973  1.00  0.00    -0.394 OA
ATOM     24  H   UNL     1      21.703  29.973  12.100  1.00  0.00     0.210 HD
ENDBRANCH  22  23
ENDBRANCH  17  22
BRANCH  19  25
ATOM     25  O   UNL     1      23.158  32.778  13.461  1.00  0.00    -0.350 OA
BRANCH  25  26
ATOM     26  C   UNL     1      22.717  33.898  14.113  1.00  0.00     0.169 C 
BRANCH  26  27
ATOM     27  C   UNL     1      22.655  35.146  13.300  1.00  0.00     0.119 C 
BRANCH  27  28
ATOM     28  N   UNL     1      23.640  36.130  13.699  1.00  0.00    -0.092 NA
ATOM     29  N   UNL     1      24.121  36.167  14.814  1.00  0.00     0.001 N 
ATOM     30  N   UNL     1      24.872  36.171  15.787  1.00  0.00    -0.003 NA
ENDBRANCH  27  28
ENDBRANCH  26  27
ENDBRANCH  25  26
ENDBRANCH  19  25
BRANCH  20  31
ATOM     31  O   UNL     1      24.807  31.305  17.145  1.00  0.00    -0.387 OA
ATOM     32  H   UNL     1      24.033  31.926  17.332  1.00  0.00     0.211 HD
ENDBRANCH  20  31
BRANCH  21  33
ATOM     33  O   UNL     1      26.073  33.330  15.282  1.00  0.00    -0.385 OA
ATOM     34  H   UNL     1      26.344  33.725  14.435  1.00  0.00     0.211 HD
ENDBRANCH  21  33
ENDBRANCH  15  16
ENDBRANCH  10  15
BRANCH  12  35
ATOM     35  O   UNL     1      21.210  27.528  14.742  1.00  0.00    -0.385 OA
ATOM     36  H   UNL     1      21.918  27.518  14.055  1.00  0.00     0.211 HD
ENDBRANCH  12  35
BRANCH  13  37
ATOM     37  O   UNL     1      20.541  25.881  16.957  1.00  0.00    -0.387 OA
ATOM     38  H   UNL     1      19.888  25.899  16.213  1.00  0.00     0.211 HD
ENDBRANCH  13  37
BRANCH  14  39
ATOM     39  O   UNL     1      22.359  26.312  18.810  1.00  0.00    -0.387 OA
ATOM     40  H   UNL     1      21.777  25.545  19.061  1.00  0.00     0.211 HD
ENDBRANCH  14  39
ENDBRANCH   8   9
ENDBRANCH   7   8
ENDBRANCH   1   7
BRANCH   1  41
ATOM     41  C   UNL     1      26.077  27.335  20.476  1.00  0.00     0.364 C 
ATOM     42  O   UNL     1      25.340  27.141  21.515  1.00  0.00    -0.246 OA
BRANCH  41  43
ATOM     43  O   UNL     1      26.913  26.292  20.178  1.00  0.00    -0.477 OA
ATOM     44  H   UNL     1      27.102  26.032  19.221  1.00  0.00     0.296 HD
ENDBRANCH  41  43
ENDBRANCH   1  41
BRANCH   3  45
ATOM     45  O   UNL     1      27.952  30.619  22.186  1.00  0.00    -0.391 OA
ATOM     46  H   UNL     1      28.922  30.677  22.344  1.00  0.00     0.211 HD
ENDBRANCH   3  45
BRANCH   5  47
ATOM     47  C   UNL     1      28.445  30.300  17.895  1.00  0.00     0.176 C 
BRANCH  47  48
ATOM     48  O   UNL     1      29.809  30.656  18.047  1.00  0.00    -0.388 OA
ATOM     49  H   UNL     1      29.901  31.616  18.207  1.00  0.00     0.211 HD
ENDBRANCH  47  48
BRANCH  47  50
ATOM     50  C   UNL     1      28.085  30.098  16.481  1.00  0.00     0.165 C 
BRANCH  50  51
ATOM     51  O   UNL     1      27.831  28.777  16.181  1.00  0.00    -0.388 OA
ATOM     52  H   UNL     1      27.423  28.272  16.928  1.00  0.00     0.211 HD
ENDBRANCH  50  51
BRANCH  50  53
ATOM     53  C   UNL     1      28.954  30.715  15.440  1.00  0.00     0.154 C 
BRANCH  53  54
ATOM     54  N   UNL     1      28.951  32.135  15.362  1.00  0.00    -0.319 N 
ATOM     55  C   UNL     1      30.215  32.808  15.481  1.00  0.00     0.407 C 
ATOM     56  H   UNL     1      28.105  32.716  15.248  1.00  0.00     0.167 HD
ATOM     57  O   UNL     1      31.272  32.109  15.649  1.00  0.00    -0.225 OA
BRANCH  55  58
ATOM     58  O   UNL     1      30.273  34.171  15.412  1.00  0.00    -0.443 OA
BRANCH  58  59
ATOM     59  C   UNL     1      30.473  34.865  14.208  1.00  0.00     0.294 C 
BRANCH  59  60
ATOM     60  C   UNL     1      29.187  35.367  13.676  1.00  0.00     0.120 A 
ATOM     61  C   UNL     1      28.878  36.608  13.134  1.00  0.00     0.138 A 
ATOM     62  N   UNL     1      28.033  34.683  13.608  1.00  0.00    -0.132 NA
ATOM     63  N   UNL     1      27.589  36.646  12.766  1.00  0.00    -0.248 N 
ATOM     64  N   UNL     1      27.097  35.442  13.073  1.00  0.00    -0.067 NA
BRANCH  63  65
ATOM     65  C   UNL     1      26.815  37.733  12.156  1.00  0.00     0.185 C 
BRANCH  65  66
ATOM     66  C   UNL     1      26.422  37.291  10.798  1.00  0.00     0.018 A 
ATOM     67  C   UNL     1      25.170  36.738  10.614  1.00  0.00     0.025 A 
ATOM     68  C   UNL     1      27.269  37.413   9.702  1.00  0.00     0.134 A 
ATOM     69  C   UNL     1      24.736  36.305   9.371  1.00  0.00     0.019 A 
ATOM     70  C   UNL     1      26.864  36.989   8.446  1.00  0.00     0.061 A 
ATOM     71  Br  UNL     1      23.001  35.548   9.165  1.00  0.00    -0.051 Br
ATOM     72  C   UNL     1      25.591  36.437   8.303  1.00  0.00     0.035 A 
ATOM     73  Br  UNL     1      28.031  37.167   6.973  1.00  0.00    -0.047 Br
BRANCH  68  74
ATOM     74  O   UNL     1      28.506  37.972   9.953  1.00  0.00    -0.506 OA
ATOM     75  H   UNL     1      28.582  38.967  10.088  1.00  0.00     0.293 HD
ENDBRANCH  68  74
ENDBRANCH  65  66
ENDBRANCH  63  65
ENDBRANCH  59  60
ENDBRANCH  58  59
ENDBRANCH  55  58
ENDBRANCH  53  54
ENDBRANCH  50  53
ENDBRANCH  47  50
ENDBRANCH   5  47
BRANCH   4  76
ATOM     76  N   UNL     1      29.813  28.698  20.581  1.00  0.00    -0.348 N 
ATOM     77  C   UNL     1      31.058  29.333  20.822  1.00  0.00     0.217 C 
ATOM     78  H   UNL     1      29.763  27.659  20.699  1.00  0.00     0.163 HD
ATOM     79  C   UNL     1      32.231  28.499  21.235  1.00  0.00     0.114 C 
ATOM     80  O   UNL     1      31.166  30.598  20.687  1.00  0.00    -0.275 OA
ENDBRANCH   4  76
TORSDOF 32
BEGIN_RES LYS A 131
REMARK  4 active torsions:
REMARK  status: ('A' for Active; 'I' for Inactive)
REMARK    1  A    between atoms: CA   and  CB  
REMARK    2  A    between atoms: CB   and  CG  
REMARK    3  A    between atoms: CG   and  CD  
REMARK    4  A    between atoms: CD   and  CE  
ROOT
ATOM      1  CA  LYS A 131      29.867  25.555  16.977  1.00 20.52     0.186 C 
ENDROOT
BRANCH   1   2
ATOM      2  CB  LYS A 131      28.345  25.722  17.026  1.00 20.94     0.034 C 
BRANCH   2   3
ATOM      3  CG  LYS A 131      27.602  24.399  16.921  1.00 22.96     0.005 C 
BRANCH   3   4
ATOM      4  CD  LYS A 131      26.140  24.544  17.242  1.00 24.33     0.041 C 
BRANCH   4   5
ATOM      5  CE  LYS A 131      25.599  23.214  17.758  1.00 26.91     0.338 C 
ATOM      6  NZ  LYS A 131      25.544  23.215  19.239  1.00 27.40     0.618 N 
ENDBRANCH   4   5
ENDBRANCH   3   4
ENDBRANCH   2   3
ENDBRANCH   1   2
END_RES LYS A 131
BEGIN_RES LYS A 135
REMARK  4 active torsions:
REMARK  status: ('A' for Active; 'I' for Inactive)
REMARK    5  A    between atoms: CA   and  CB  
REMARK    6  A    between atoms: CB   and  CG  
REMARK    7  A    between atoms: CG   and  CD  
REMARK    8  A    between atoms: CD   and  CE  
ROOT
ATOM      7  CA  LYS A 135      33.193  34.663   9.290  1.00 25.02     0.186 C 
ENDROOT
BRANCH   7   8
ATOM      8  CB  LYS A 135      32.060  35.360  10.034  1.00 26.63     0.034 C 
BRANCH   8   9
ATOM      9  CG  LYS A 135      30.835  35.590   9.187  1.00 29.45     0.005 C 
BRANCH   9  10
ATOM     10  CD  LYS A 135      30.023  34.310   9.059  1.00 32.00     0.041 C 
BRANCH  10  11
ATOM     11  CE  LYS A 135      28.939  34.259  10.119  1.00 34.25     0.338 C 
ATOM     12  NZ  LYS A 135      27.681  33.680   9.572  1.00 35.99     0.618 N 
ENDBRANCH  10  11
ENDBRANCH   9  10
ENDBRANCH   8   9
ENDBRANCH   7   8
END_RES LYS A 135
