REMARK VINA RESULT:    -5.325      6.997     12.810
REMARK INTER + INTRA:         -22.691
REMARK INTER:                 -12.062
REMARK INTRA:                 -10.629
REMARK UNBOUND:                -8.960
REMARK SMILES CC(=O)N[C@@H]1[C@@H](O)C[C@](OC[C@H]2O[C@@H](O[C@H]3[C@H](O)[C@@H](O)[C@H](OCCN=[N+]=[N-])O[C@@H]3CO)[C@H](O)[C@@H](O)[C@H]2O)(C(=O)O)O[C@H]1C(O)[C@H](O)CNC(=O)OCc1cn(Cc2cccc(C#N)c2)nn1
REMARK SMILES IDX 9 1 8 2 6 3 5 4 42 5 41 6 10 7 11 8 12 9 14 10 13 11 32 12
REMARK SMILES IDX 34 13 36 14 15 15 16 16 29 17 28 18 21 19 17 20 19 21 30 22
REMARK SMILES IDX 31 23 22 25 23 26 24 27 25 28 26 29 27 30 18 31 20 33 33 35
REMARK SMILES IDX 35 37 37 39 38 41 39 42 40 43 7 45 43 47 44 48 45 50 46 51
REMARK SMILES IDX 47 53 48 54 49 55 50 57 51 58 52 59 53 60 54 61 66 62 55 63
REMARK SMILES IDX 65 64 56 65 57 66 58 67 64 68 59 69 61 70 60 71 62 72 63 73
REMARK SMILES IDX 4 74 2 75 1 77 3 78
REMARK H PARENT 31 24 18 32 20 34 33 36 35 38 37 40 40 44 7 46 44 49 46 52
REMARK H PARENT 48 56 4 76
REMARK Flexibility Score: inf
ROOT
ATOM      1  C   UNL     1      28.902  34.807   8.702  1.00  0.00     0.272 C 
ATOM      2  C   UNL     1      28.104  33.756   9.437  1.00  0.00     0.113 C 
ATOM      3  C   UNL     1      27.483  34.146  10.712  1.00  0.00     0.145 C 
ATOM      4  C   UNL     1      28.308  35.203  11.453  1.00  0.00     0.142 C 
ATOM      5  C   UNL     1      28.754  36.294  10.588  1.00  0.00     0.178 C 
ATOM      6  O   UNL     1      28.973  36.036   9.274  1.00  0.00    -0.332 OA
ENDROOT
BRANCH   1   7
ATOM      7  O   UNL     1      28.405  34.941   7.486  1.00  0.00    -0.338 OA
BRANCH   7   8
ATOM      8  C   UNL     1      28.394  35.535   6.391  1.00  0.00     0.199 C 
BRANCH   8   9
ATOM      9  C   UNL     1      27.712  36.828   6.044  1.00  0.00     0.179 C 
ATOM     10  C   UNL     1      26.155  38.270   6.802  1.00  0.00     0.282 C 
ATOM     11  O   UNL     1      27.097  37.334   7.251  1.00  0.00    -0.341 OA
ATOM     12  C   UNL     1      26.809  39.489   6.247  1.00  0.00     0.202 C 
ATOM     13  C   UNL     1      28.006  39.161   5.375  1.00  0.00     0.179 C 
ATOM     14  C   UNL     1      28.749  37.941   5.801  1.00  0.00     0.177 C 
BRANCH  10  15
ATOM     15  O   UNL     1      25.323  38.619   7.863  1.00  0.00    -0.341 OA
BRANCH  15  16
ATOM     16  C   UNL     1      24.056  38.110   7.735  1.00  0.00     0.184 C 
ATOM     17  C   UNL     1      23.003  39.060   8.174  1.00  0.00     0.178 C 
ATOM     18  O   UNL     1      21.730  38.539   8.132  1.00  0.00    -0.341 OA
ATOM     19  C   UNL     1      21.555  37.323   8.754  1.00  0.00     0.281 C 
ATOM     20  C   UNL     1      23.983  36.948   8.779  1.00  0.00     0.180 C 
ATOM     21  C   UNL     1      22.633  36.315   8.514  1.00  0.00     0.202 C 
BRANCH  17  22
ATOM     22  C   UNL     1      22.999  40.292   7.298  1.00  0.00     0.191 C 
BRANCH  22  23
ATOM     23  O   UNL     1      21.701  40.803   7.205  1.00  0.00    -0.394 OA
ATOM     24  H   UNL     1      21.675  41.764   7.067  1.00  0.00     0.210 HD
ENDBRANCH  22  23
ENDBRANCH  17  22
BRANCH  19  25
ATOM     25  O   UNL     1      20.374  36.768   8.217  1.00  0.00    -0.350 OA
BRANCH  25  26
ATOM     26  C   UNL     1      19.313  37.045   9.038  1.00  0.00     0.169 C 
BRANCH  26  27
ATOM     27  C   UNL     1      19.254  36.144  10.239  1.00  0.00     0.119 C 
BRANCH  27  28
ATOM     28  N   UNL     1      19.459  34.752   9.915  1.00  0.00    -0.092 NA
ATOM     29  N   UNL     1      18.650  34.193   9.161  1.00  0.00     0.001 N 
ATOM     30  N   UNL     1      17.860  33.493   8.487  1.00  0.00    -0.003 NA
ENDBRANCH  27  28
ENDBRANCH  26  27
ENDBRANCH  25  26
ENDBRANCH  19  25
BRANCH  20  31
ATOM     31  O   UNL     1      25.046  36.117   8.546  1.00  0.00    -0.387 OA
ATOM     32  H   UNL     1      25.919  36.602   8.590  1.00  0.00     0.211 HD
ENDBRANCH  20  31
BRANCH  21  33
ATOM     33  O   UNL     1      22.478  35.270   9.420  1.00  0.00    -0.385 OA
ATOM     34  H   UNL     1      22.014  34.531   8.928  1.00  0.00     0.211 HD
ENDBRANCH  21  33
ENDBRANCH  15  16
ENDBRANCH  10  15
BRANCH  12  35
ATOM     35  O   UNL     1      25.889  40.113   5.374  1.00  0.00    -0.385 OA
ATOM     36  H   UNL     1      25.464  40.835   5.900  1.00  0.00     0.211 HD
ENDBRANCH  12  35
BRANCH  13  37
ATOM     37  O   UNL     1      28.882  40.249   5.504  1.00  0.00    -0.387 OA
ATOM     38  H   UNL     1      29.550  40.294   4.793  1.00  0.00     0.211 HD
ENDBRANCH  13  37
BRANCH  14  39
ATOM     39  O   UNL     1      29.342  38.234   7.039  1.00  0.00    -0.387 OA
ATOM     40  H   UNL     1      29.857  37.482   7.391  1.00  0.00     0.211 HD
ENDBRANCH  14  39
ENDBRANCH   8   9
ENDBRANCH   7   8
ENDBRANCH   1   7
BRANCH   1  41
ATOM     41  C   UNL     1      30.321  34.303   8.684  1.00  0.00     0.364 C 
ATOM     42  O   UNL     1      31.129  34.662   7.761  1.00  0.00    -0.246 OA
BRANCH  41  43
ATOM     43  O   UNL     1      30.798  33.451   9.643  1.00  0.00    -0.477 OA
ATOM     44  H   UNL     1      30.726  33.764  10.625  1.00  0.00     0.296 HD
ENDBRANCH  41  43
ENDBRANCH   1  41
BRANCH   3  45
ATOM     45  O   UNL     1      26.209  34.647  10.491  1.00  0.00    -0.391 OA
ATOM     46  H   UNL     1      25.712  34.833  11.323  1.00  0.00     0.211 HD
ENDBRANCH   3  45
BRANCH   5  47
ATOM     47  C   UNL     1      27.839  37.501  10.548  1.00  0.00     0.176 C 
BRANCH  47  48
ATOM     48  O   UNL     1      26.963  37.305  11.667  1.00  0.00    -0.388 OA
ATOM     49  H   UNL     1      27.386  36.627  12.241  1.00  0.00     0.211 HD
ENDBRANCH  47  48
BRANCH  47  50
ATOM     50  C   UNL     1      28.418  38.840  10.745  1.00  0.00     0.165 C 
BRANCH  50  51
ATOM     51  O   UNL     1      28.549  38.907  12.200  1.00  0.00    -0.388 OA
ATOM     52  H   UNL     1      28.193  38.040  12.561  1.00  0.00     0.211 HD
ENDBRANCH  50  51
BRANCH  50  53
ATOM     53  C   UNL     1      27.588  40.029  10.428  1.00  0.00     0.154 C 
BRANCH  53  54
ATOM     54  N   UNL     1      26.189  39.817  10.243  1.00  0.00    -0.319 N 
ATOM     55  C   UNL     1      25.302  39.898  11.368  1.00  0.00     0.407 C 
ATOM     56  H   UNL     1      25.763  39.609   9.333  1.00  0.00     0.167 HD
ATOM     57  O   UNL     1      25.814  40.160  12.480  1.00  0.00    -0.225 OA
BRANCH  55  58
ATOM     58  O   UNL     1      23.953  39.710  11.274  1.00  0.00    -0.443 OA
BRANCH  58  59
ATOM     59  C   UNL     1      23.015  40.613  11.895  1.00  0.00     0.294 C 
BRANCH  59  60
ATOM     60  C   UNL     1      22.553  41.603  10.880  1.00  0.00     0.120 A 
ATOM     61  C   UNL     1      23.258  42.681  10.394  1.00  0.00     0.138 A 
ATOM     62  N   UNL     1      21.370  41.630  10.259  1.00  0.00    -0.132 NA
ATOM     63  N   UNL     1      22.491  43.345   9.484  1.00  0.00    -0.248 N 
ATOM     64  N   UNL     1      21.348  42.680   9.425  1.00  0.00    -0.067 NA
BRANCH  63  65
ATOM     65  C   UNL     1      22.864  44.527   8.762  1.00  0.00     0.181 C 
BRANCH  65  66
ATOM     66  C   UNL     1      23.451  44.141   7.458  1.00  0.00    -0.025 A 
ATOM     67  C   UNL     1      22.711  44.000   6.314  1.00  0.00     0.006 A 
ATOM     68  C   UNL     1      24.819  43.904   7.375  1.00  0.00     0.025 A 
ATOM     69  C   UNL     1      23.262  43.637   5.113  1.00  0.00     0.002 A 
ATOM     70  C   UNL     1      25.370  43.540   6.171  1.00  0.00     0.052 A 
ATOM     71  C   UNL     1      24.624  43.393   5.002  1.00  0.00     0.019 A 
BRANCH  70  72
ATOM     72  C   UNL     1      26.788  43.301   6.092  1.00  0.00     0.099 C 
ATOM     73  N   UNL     1      27.939  43.111   6.014  1.00  0.00    -0.192 NA
ENDBRANCH  70  72
ENDBRANCH  65  66
ENDBRANCH  63  65
ENDBRANCH  59  60
ENDBRANCH  58  59
ENDBRANCH  55  58
ENDBRANCH  53  54
ENDBRANCH  50  53
ENDBRANCH  47  50
ENDBRANCH   5  47
BRANCH   4  74
ATOM     74  N   UNL     1      29.347  34.522  12.223  1.00  0.00    -0.348 N 
ATOM     75  C   UNL     1      29.267  34.509  13.631  1.00  0.00     0.217 C 
ATOM     76  H   UNL     1      30.161  34.031  11.805  1.00  0.00     0.163 HD
ATOM     77  C   UNL     1      30.281  33.841  14.495  1.00  0.00     0.114 C 
ATOM     78  O   UNL     1      28.310  35.081  14.179  1.00  0.00    -0.275 OA
ENDBRANCH   4  74
TORSDOF 32
BEGIN_RES LYS A 131
REMARK  4 active torsions:
REMARK  status: ('A' for Active; 'I' for Inactive)
REMARK    1  A    between atoms: CA   and  CB  
REMARK    2  A    between atoms: CB   and  CG  
REMARK    3  A    between atoms: CG   and  CD  
REMARK    4  A    between atoms: CD   and  CE  
ROOT
ATOM      1  CA  LYS A 131      29.867  25.555  16.977  1.00 20.52     0.186 C 
ENDROOT
BRANCH   1   2
ATOM      2  CB  LYS A 131      28.345  25.722  17.026  1.00 20.94     0.034 C 
BRANCH   2   3
ATOM      3  CG  LYS A 131      27.599  24.434  16.712  1.00 22.96     0.005 C 
BRANCH   3   4
ATOM      4  CD  LYS A 131      26.997  23.814  17.942  1.00 24.33     0.041 C 
BRANCH   4   5
ATOM      5  CE  LYS A 131      25.595  23.305  17.622  1.00 26.91     0.338 C 
ATOM      6  NZ  LYS A 131      24.820  24.341  16.900  1.00 27.40     0.618 N 
ENDBRANCH   4   5
ENDBRANCH   3   4
ENDBRANCH   2   3
ENDBRANCH   1   2
END_RES LYS A 131
BEGIN_RES LYS A 135
REMARK  4 active torsions:
REMARK  status: ('A' for Active; 'I' for Inactive)
REMARK    5  A    between atoms: CA   and  CB  
REMARK    6  A    between atoms: CB   and  CG  
REMARK    7  A    between atoms: CG   and  CD  
REMARK    8  A    between atoms: CD   and  CE  
ROOT
ATOM      7  CA  LYS A 135      33.193  34.663   9.290  1.00 25.02     0.186 C 
ENDROOT
BRANCH   7   8
ATOM      8  CB  LYS A 135      32.060  35.360  10.034  1.00 26.63     0.034 C 
BRANCH   8   9
ATOM      9  CG  LYS A 135      32.472  35.919  11.372  1.00 29.45     0.005 C 
BRANCH   9  10
ATOM     10  CD  LYS A 135      31.921  37.324  11.559  1.00 32.00     0.041 C 
BRANCH  10  11
ATOM     11  CE  LYS A 135      31.527  37.553  13.005  1.00 34.25     0.338 C 
ATOM     12  NZ  LYS A 135      32.285  36.653  13.917  1.00 35.99     0.618 N 
ENDBRANCH  10  11
ENDBRANCH   9  10
ENDBRANCH   8   9
ENDBRANCH   7   8
END_RES LYS A 135
