REMARK VINA RESULT:    -4.439      4.523     11.361
REMARK INTER + INTRA:         -22.498
REMARK INTER:                 -13.662
REMARK INTRA:                  -8.836
REMARK UNBOUND:               -11.571
REMARK SMILES CC(=O)N[C@@H]1[C@@H](O)C[C@](OC[C@H]2O[C@@H](O[C@H]3[C@H](O)[C@@H](O)[C@H](OCCN=[N+]=[N-])O[C@@H]3CO)[C@H](O)[C@@H](O)[C@H]2O)(C(=O)O)O[C@H]1C(O)[C@H](O)CNC(=O)OCc1cn(-c2ccc3[nH]ncc3c2)nn1
REMARK SMILES IDX 9 1 8 2 6 3 5 4 42 5 41 6 10 7 11 8 12 9 14 10 13 11 32 12
REMARK SMILES IDX 34 13 36 14 15 15 16 16 29 17 28 18 21 19 17 20 19 21 30 22
REMARK SMILES IDX 31 23 22 25 23 26 24 27 25 28 26 29 27 30 18 31 20 33 33 35
REMARK SMILES IDX 35 37 37 39 38 41 39 42 40 43 7 45 43 47 44 48 45 50 46 51
REMARK SMILES IDX 47 53 48 54 49 55 50 57 51 58 52 59 53 60 54 61 66 62 55 63
REMARK SMILES IDX 65 64 56 65 57 66 64 67 58 68 63 69 59 70 62 71 60 72 61 73
REMARK SMILES IDX 4 75 2 76 1 78 3 79
REMARK H PARENT 31 24 18 32 20 34 33 36 35 38 37 40 40 44 7 46 44 49 46 52
REMARK H PARENT 48 56 60 74 4 77
REMARK Flexibility Score: inf
ROOT
ATOM      1  C   UNL     1      28.341  36.294   9.132  1.00  0.00     0.272 C 
ATOM      2  C   UNL     1      29.394  37.009   8.365  1.00  0.00     0.113 C 
ATOM      3  C   UNL     1      28.986  37.489   6.996  1.00  0.00     0.145 C 
ATOM      4  C   UNL     1      27.777  38.427   7.256  1.00  0.00     0.142 C 
ATOM      5  C   UNL     1      26.804  37.599   8.002  1.00  0.00     0.178 C 
ATOM      6  O   UNL     1      27.176  37.057   9.183  1.00  0.00    -0.332 OA
ENDROOT
BRANCH   1   7
ATOM      7  O   UNL     1      28.804  36.113  10.453  1.00  0.00    -0.338 OA
BRANCH   7   8
ATOM      8  C   UNL     1      27.855  36.179  11.418  1.00  0.00     0.199 C 
BRANCH   8   9
ATOM      9  C   UNL     1      27.669  34.824  12.138  1.00  0.00     0.179 C 
ATOM     10  C   UNL     1      27.292  34.503  14.401  1.00  0.00     0.282 C 
ATOM     11  O   UNL     1      28.205  34.852  13.391  1.00  0.00    -0.341 OA
ATOM     12  C   UNL     1      26.215  35.538  14.371  1.00  0.00     0.202 C 
ATOM     13  C   UNL     1      25.404  35.282  13.093  1.00  0.00     0.179 C 
ATOM     14  C   UNL     1      26.199  34.452  12.122  1.00  0.00     0.177 C 
BRANCH  10  15
ATOM     15  O   UNL     1      27.964  34.376  15.604  1.00  0.00    -0.341 OA
BRANCH  15  16
ATOM     16  C   UNL     1      28.086  33.032  15.930  1.00  0.00     0.184 C 
ATOM     17  C   UNL     1      29.029  32.259  15.058  1.00  0.00     0.178 C 
ATOM     18  O   UNL     1      29.165  30.993  15.486  1.00  0.00    -0.341 OA
ATOM     19  C   UNL     1      28.255  30.419  16.314  1.00  0.00     0.281 C 
ATOM     20  C   UNL     1      26.735  32.327  15.698  1.00  0.00     0.180 C 
ATOM     21  C   UNL     1      26.863  30.950  16.251  1.00  0.00     0.202 C 
BRANCH  17  22
ATOM     22  C   UNL     1      30.398  32.890  14.907  1.00  0.00     0.191 C 
BRANCH  22  23
ATOM     23  O   UNL     1      31.411  31.951  14.954  1.00  0.00    -0.394 OA
ATOM     24  H   UNL     1      31.355  31.539  15.869  1.00  0.00     0.210 HD
ENDBRANCH  22  23
ENDBRANCH  17  22
BRANCH  19  25
ATOM     25  O   UNL     1      28.749  30.498  17.593  1.00  0.00    -0.350 OA
BRANCH  25  26
ATOM     26  C   UNL     1      27.895  30.231  18.606  1.00  0.00     0.169 C 
BRANCH  26  27
ATOM     27  C   UNL     1      28.138  28.926  19.295  1.00  0.00     0.119 C 
BRANCH  27  28
ATOM     28  N   UNL     1      27.427  27.803  18.761  1.00  0.00    -0.092 NA
ATOM     29  N   UNL     1      26.447  27.896  18.050  1.00  0.00     0.001 N 
ATOM     30  N   UNL     1      25.268  27.964  17.635  1.00  0.00    -0.003 NA
ENDBRANCH  27  28
ENDBRANCH  26  27
ENDBRANCH  25  26
ENDBRANCH  19  25
BRANCH  20  31
ATOM     31  O   UNL     1      25.695  33.025  16.248  1.00  0.00    -0.387 OA
ATOM     32  H   UNL     1      25.099  33.453  15.580  1.00  0.00     0.211 HD
ENDBRANCH  20  31
BRANCH  21  33
ATOM     33  O   UNL     1      26.032  30.114  15.483  1.00  0.00    -0.385 OA
ATOM     34  H   UNL     1      25.661  29.372  16.026  1.00  0.00     0.211 HD
ENDBRANCH  21  33
ENDBRANCH  15  16
ENDBRANCH  10  15
BRANCH  12  35
ATOM     35  O   UNL     1      25.398  35.590  15.472  1.00  0.00    -0.385 OA
ATOM     36  H   UNL     1      25.810  36.117  16.222  1.00  0.00     0.211 HD
ENDBRANCH  12  35
BRANCH  13  37
ATOM     37  O   UNL     1      24.892  36.448  12.564  1.00  0.00    -0.387 OA
ATOM     38  H   UNL     1      23.995  36.222  12.173  1.00  0.00     0.211 HD
ENDBRANCH  13  37
BRANCH  14  39
ATOM     39  O   UNL     1      25.708  34.769  10.830  1.00  0.00    -0.387 OA
ATOM     40  H   UNL     1      26.011  34.147  10.152  1.00  0.00     0.211 HD
ENDBRANCH  14  39
ENDBRANCH   8   9
ENDBRANCH   7   8
ENDBRANCH   1   7
BRANCH   1  41
ATOM     41  C   UNL     1      27.933  34.987   8.550  1.00  0.00     0.364 C 
ATOM     42  O   UNL     1      28.869  34.161   8.287  1.00  0.00    -0.246 OA
BRANCH  41  43
ATOM     43  O   UNL     1      26.671  34.569   8.262  1.00  0.00    -0.477 OA
ATOM     44  H   UNL     1      26.382  33.590   8.276  1.00  0.00     0.296 HD
ENDBRANCH  41  43
ENDBRANCH   1  41
BRANCH   3  45
ATOM     45  O   UNL     1      30.035  38.208   6.457  1.00  0.00    -0.391 OA
ATOM     46  H   UNL     1      29.818  39.186   6.380  1.00  0.00     0.211 HD
ENDBRANCH   3  45
BRANCH   5  47
ATOM     47  C   UNL     1      25.441  38.223   8.017  1.00  0.00     0.176 C 
BRANCH  47  48
ATOM     48  O   UNL     1      24.708  37.458   7.037  1.00  0.00    -0.388 OA
ATOM     49  H   UNL     1      23.748  37.500   7.221  1.00  0.00     0.211 HD
ENDBRANCH  47  48
BRANCH  47  50
ATOM     50  C   UNL     1      24.654  38.048   9.292  1.00  0.00     0.165 C 
BRANCH  50  51
ATOM     51  O   UNL     1      24.437  36.646   9.402  1.00  0.00    -0.388 OA
ATOM     52  H   UNL     1      24.689  36.170   8.592  1.00  0.00     0.211 HD
ENDBRANCH  50  51
BRANCH  50  53
ATOM     53  C   UNL     1      23.345  38.738   9.347  1.00  0.00     0.154 C 
BRANCH  53  54
ATOM     54  N   UNL     1      22.194  37.961   9.645  1.00  0.00    -0.319 N 
ATOM     55  C   UNL     1      21.483  37.107   8.769  1.00  0.00     0.407 C 
ATOM     56  H   UNL     1      21.792  38.001  10.636  1.00  0.00     0.167 HD
ATOM     57  O   UNL     1      21.838  36.946   7.597  1.00  0.00    -0.225 OA
BRANCH  55  58
ATOM     58  O   UNL     1      20.358  36.426   9.224  1.00  0.00    -0.443 OA
BRANCH  58  59
ATOM     59  C   UNL     1      20.102  36.062  10.546  1.00  0.00     0.294 C 
BRANCH  59  60
ATOM     60  C   UNL     1      21.093  35.158  11.145  1.00  0.00     0.121 A 
ATOM     61  C   UNL     1      20.857  34.210  12.115  1.00  0.00     0.144 A 
ATOM     62  N   UNL     1      22.410  35.113  10.855  1.00  0.00    -0.131 NA
ATOM     63  N   UNL     1      22.039  33.641  12.360  1.00  0.00    -0.220 N 
ATOM     64  N   UNL     1      22.959  34.197  11.593  1.00  0.00    -0.062 NA
BRANCH  63  65
ATOM     65  C   UNL     1      22.258  32.597  13.309  1.00  0.00     0.067 A 
ATOM     66  C   UNL     1      22.165  32.836  14.662  1.00  0.00     0.030 A 
ATOM     67  C   UNL     1      22.570  31.326  12.884  1.00  0.00     0.040 A 
ATOM     68  C   UNL     1      22.379  31.831  15.573  1.00  0.00     0.030 A 
ATOM     69  C   UNL     1      22.784  30.318  13.822  1.00  0.00     0.022 A 
ATOM     70  C   UNL     1      22.695  30.544  15.184  1.00  0.00     0.065 A 
ATOM     71  C   UNL     1      23.101  28.991  13.647  1.00  0.00     0.143 A 
ATOM     72  N   UNL     1      22.952  29.382  15.809  1.00  0.00    -0.278 N 
ATOM     73  N   UNL     1      23.188  28.478  14.886  1.00  0.00    -0.183 NA
ATOM     74  H   UNL     1      22.954  29.255  16.850  1.00  0.00     0.190 HD
ENDBRANCH  63  65
ENDBRANCH  59  60
ENDBRANCH  58  59
ENDBRANCH  55  58
ENDBRANCH  53  54
ENDBRANCH  50  53
ENDBRANCH  47  50
ENDBRANCH   5  47
BRANCH   4  75
ATOM     75  N   UNL     1      27.268  38.664   5.901  1.00  0.00    -0.348 N 
ATOM     76  C   UNL     1      27.562  39.874   5.269  1.00  0.00     0.217 C 
ATOM     77  H   UNL     1      26.698  37.963   5.400  1.00  0.00     0.163 HD
ATOM     78  C   UNL     1      27.075  40.197   3.886  1.00  0.00     0.114 C 
ATOM     79  O   UNL     1      28.271  40.742   5.875  1.00  0.00    -0.275 OA
ENDBRANCH   4  75
TORSDOF 30
BEGIN_RES LYS A 131
REMARK  4 active torsions:
REMARK  status: ('A' for Active; 'I' for Inactive)
REMARK    1  A    between atoms: CA   and  CB  
REMARK    2  A    between atoms: CB   and  CG  
REMARK    3  A    between atoms: CG   and  CD  
REMARK    4  A    between atoms: CD   and  CE  
ROOT
ATOM      1  CA  LYS A 131      29.867  25.555  16.977  1.00 20.52     0.186 C 
ENDROOT
BRANCH   1   2
ATOM      2  CB  LYS A 131      28.345  25.722  17.026  1.00 20.94     0.034 C 
BRANCH   2   3
ATOM      3  CG  LYS A 131      27.601  24.401  16.898  1.00 22.96     0.005 C 
BRANCH   3   4
ATOM      4  CD  LYS A 131      26.536  24.247  17.948  1.00 24.33     0.041 C 
BRANCH   4   5
ATOM      5  CE  LYS A 131      25.161  24.369  17.299  1.00 26.91     0.338 C 
ATOM      6  NZ  LYS A 131      24.096  24.325  18.329  1.00 27.40     0.618 N 
ENDBRANCH   4   5
ENDBRANCH   3   4
ENDBRANCH   2   3
ENDBRANCH   1   2
END_RES LYS A 131
BEGIN_RES LYS A 135
REMARK  4 active torsions:
REMARK  status: ('A' for Active; 'I' for Inactive)
REMARK    5  A    between atoms: CA   and  CB  
REMARK    6  A    between atoms: CB   and  CG  
REMARK    7  A    between atoms: CG   and  CD  
REMARK    8  A    between atoms: CD   and  CE  
ROOT
ATOM      7  CA  LYS A 135      33.193  34.663   9.290  1.00 25.02     0.186 C 
ENDROOT
BRANCH   7   8
ATOM      8  CB  LYS A 135      32.060  35.360  10.034  1.00 26.63     0.034 C 
BRANCH   8   9
ATOM      9  CG  LYS A 135      32.252  35.394  11.528  1.00 29.45     0.005 C 
BRANCH   9  10
ATOM     10  CD  LYS A 135      32.184  36.823  12.045  1.00 32.00     0.041 C 
BRANCH  10  11
ATOM     11  CE  LYS A 135      31.870  37.784  10.915  1.00 34.25     0.338 C 
ATOM     12  NZ  LYS A 135      31.451  39.113  11.441  1.00 35.99     0.618 N 
ENDBRANCH  10  11
ENDBRANCH   9  10
ENDBRANCH   8   9
ENDBRANCH   7   8
END_RES LYS A 135
