REMARK VINA RESULT:    -3.814      2.591      4.177
REMARK INTER + INTRA:         -21.414
REMARK INTER:                 -10.463
REMARK INTRA:                 -10.951
REMARK UNBOUND:               -11.690
REMARK SMILES CC(=O)N[C@@H]1[C@@H](O)C[C@](OC[C@H]2O[C@@H](O[C@H]3[C@H](O)[C@@H](O)[C@H](OCCN=[N+]=[N-])O[C@@H]3CO)[C@H](O)[C@@H](O)[C@H]2O)(C(=O)O)O[C@H]1C(O)[C@H](O)CNC(=O)OCc1cn(CCO)nn1
REMARK SMILES IDX 9 1 8 2 6 3 5 4 42 5 41 6 10 7 11 8 12 9 14 10 13 11 32 12
REMARK SMILES IDX 34 13 36 14 15 15 16 16 29 17 28 18 21 19 17 20 19 21 30 22
REMARK SMILES IDX 31 23 22 25 23 26 24 27 25 28 26 29 27 30 18 31 20 33 33 35
REMARK SMILES IDX 35 37 37 39 38 41 39 42 40 43 7 45 43 47 44 48 45 50 46 51
REMARK SMILES IDX 47 53 48 54 49 55 50 57 51 58 52 59 53 60 54 61 60 62 55 63
REMARK SMILES IDX 59 64 56 65 57 66 58 67 4 69 2 70 1 72 3 73
REMARK H PARENT 31 24 18 32 20 34 33 36 35 38 37 40 40 44 7 46 44 49 46 52
REMARK H PARENT 48 56 58 68 4 71
REMARK Flexibility Score: inf
ROOT
ATOM      1  C   UNL     1      30.165  31.397  18.283  1.00  0.00     0.272 C 
ATOM      2  C   UNL     1      30.564  31.145  16.866  1.00  0.00     0.113 C 
ATOM      3  C   UNL     1      30.243  32.344  16.017  1.00  0.00     0.145 C 
ATOM      4  C   UNL     1      30.972  33.522  16.664  1.00  0.00     0.142 C 
ATOM      5  C   UNL     1      30.309  33.730  18.021  1.00  0.00     0.178 C 
ATOM      6  O   UNL     1      30.680  32.572  18.744  1.00  0.00    -0.332 OA
ENDROOT
BRANCH   1   7
ATOM      7  O   UNL     1      30.628  30.366  19.133  1.00  0.00    -0.338 OA
BRANCH   7   8
ATOM      8  C   UNL     1      31.135  30.766  20.325  1.00  0.00     0.199 C 
BRANCH   8   9
ATOM      9  C   UNL     1      30.861  29.723  21.420  1.00  0.00     0.179 C 
ATOM     10  C   UNL     1      29.472  27.949  21.975  1.00  0.00     0.282 C 
ATOM     11  O   UNL     1      29.703  29.035  21.131  1.00  0.00    -0.341 OA
ATOM     12  C   UNL     1      30.546  26.900  21.860  1.00  0.00     0.202 C 
ATOM     13  C   UNL     1      31.845  27.419  21.297  1.00  0.00     0.179 C 
ATOM     14  C   UNL     1      32.036  28.853  21.706  1.00  0.00     0.177 C 
BRANCH  10  15
ATOM     15  O   UNL     1      28.296  27.421  21.603  1.00  0.00    -0.341 OA
BRANCH  15  16
ATOM     16  C   UNL     1      27.363  28.156  20.977  1.00  0.00     0.184 C 
ATOM     17  C   UNL     1      26.067  28.462  21.582  1.00  0.00     0.178 C 
ATOM     18  O   UNL     1      25.072  28.492  20.621  1.00  0.00    -0.341 OA
ATOM     19  C   UNL     1      25.350  29.086  19.432  1.00  0.00     0.281 C 
ATOM     20  C   UNL     1      27.063  27.381  19.667  1.00  0.00     0.180 C 
ATOM     21  C   UNL     1      26.544  28.437  18.715  1.00  0.00     0.202 C 
BRANCH  17  22
ATOM     22  C   UNL     1      26.035  29.804  22.309  1.00  0.00     0.191 C 
BRANCH  22  23
ATOM     23  O   UNL     1      27.197  30.544  22.084  1.00  0.00    -0.394 OA
ATOM     24  H   UNL     1      27.747  30.059  21.439  1.00  0.00     0.210 HD
ENDBRANCH  22  23
ENDBRANCH  17  22
BRANCH  19  25
ATOM     25  O   UNL     1      25.439  30.449  19.422  1.00  0.00    -0.350 OA
BRANCH  25  26
ATOM     26  C   UNL     1      24.331  31.144  19.041  1.00  0.00     0.169 C 
BRANCH  26  27
ATOM     27  C   UNL     1      24.661  32.174  18.015  1.00  0.00     0.119 C 
BRANCH  27  28
ATOM     28  N   UNL     1      24.092  31.764  16.720  1.00  0.00    -0.092 NA
ATOM     29  N   UNL     1      24.805  30.983  16.063  1.00  0.00     0.001 N 
ATOM     30  N   UNL     1      25.099  29.859  15.619  1.00  0.00    -0.003 NA
ENDBRANCH  27  28
ENDBRANCH  26  27
ENDBRANCH  25  26
ENDBRANCH  19  25
BRANCH  20  31
ATOM     31  O   UNL     1      28.184  26.740  19.210  1.00  0.00    -0.387 OA
ATOM     32  H   UNL     1      28.364  26.916  18.251  1.00  0.00     0.211 HD
ENDBRANCH  20  31
BRANCH  21  33
ATOM     33  O   UNL     1      26.220  27.894  17.500  1.00  0.00    -0.385 OA
ATOM     34  H   UNL     1      25.425  28.314  17.090  1.00  0.00     0.211 HD
ENDBRANCH  21  33
ENDBRANCH  15  16
ENDBRANCH  10  15
BRANCH  12  35
ATOM     35  O   UNL     1      30.847  26.456  23.158  1.00  0.00    -0.385 OA
ATOM     36  H   UNL     1      31.793  26.550  23.389  1.00  0.00     0.211 HD
ENDBRANCH  12  35
BRANCH  13  37
ATOM     37  O   UNL     1      31.869  27.222  19.941  1.00  0.00    -0.387 OA
ATOM     38  H   UNL     1      32.478  27.877  19.476  1.00  0.00     0.211 HD
ENDBRANCH  13  37
BRANCH  14  39
ATOM     39  O   UNL     1      33.122  29.353  20.953  1.00  0.00    -0.387 OA
ATOM     40  H   UNL     1      33.941  29.400  21.506  1.00  0.00     0.211 HD
ENDBRANCH  14  39
ENDBRANCH   8   9
ENDBRANCH   7   8
ENDBRANCH   1   7
BRANCH   1  41
ATOM     41  C   UNL     1      28.692  31.310  18.385  1.00  0.00     0.364 C 
ATOM     42  O   UNL     1      27.955  31.121  17.399  1.00  0.00    -0.246 OA
BRANCH  41  43
ATOM     43  O   UNL     1      28.060  31.438  19.610  1.00  0.00    -0.477 OA
ATOM     44  H   UNL     1      27.640  30.635  20.109  1.00  0.00     0.296 HD
ENDBRANCH  41  43
ENDBRANCH   1  41
BRANCH   3  45
ATOM     45  O   UNL     1      30.799  32.202  14.727  1.00  0.00    -0.391 OA
ATOM     46  H   UNL     1      30.766  31.241  14.469  1.00  0.00     0.211 HD
ENDBRANCH   3  45
BRANCH   5  47
ATOM     47  C   UNL     1      31.000  34.849  18.732  1.00  0.00     0.176 C 
BRANCH  47  48
ATOM     48  O   UNL     1      30.317  36.057  18.583  1.00  0.00    -0.388 OA
ATOM     49  H   UNL     1      29.806  36.299  19.399  1.00  0.00     0.211 HD
ENDBRANCH  47  48
BRANCH  47  50
ATOM     50  C   UNL     1      31.404  34.658  20.141  1.00  0.00     0.165 C 
BRANCH  50  51
ATOM     51  O   UNL     1      31.104  35.963  20.728  1.00  0.00    -0.388 OA
ATOM     52  H   UNL     1      30.126  36.036  20.824  1.00  0.00     0.211 HD
ENDBRANCH  50  51
BRANCH  50  53
ATOM     53  C   UNL     1      32.905  34.587  20.359  1.00  0.00     0.154 C 
BRANCH  53  54
ATOM     54  N   UNL     1      33.292  33.752  21.450  1.00  0.00    -0.319 N 
ATOM     55  C   UNL     1      33.468  34.290  22.750  1.00  0.00     0.407 C 
ATOM     56  H   UNL     1      33.470  32.716  21.322  1.00  0.00     0.167 HD
ATOM     57  O   UNL     1      33.269  35.546  22.871  1.00  0.00    -0.225 OA
BRANCH  55  58
ATOM     58  O   UNL     1      33.825  33.592  23.873  1.00  0.00    -0.443 OA
BRANCH  58  59
ATOM     59  C   UNL     1      33.181  32.364  24.155  1.00  0.00     0.294 C 
BRANCH  59  60
ATOM     60  C   UNL     1      34.010  31.198  23.841  1.00  0.00     0.120 A 
ATOM     61  C   UNL     1      34.120  30.067  24.613  1.00  0.00     0.138 A 
ATOM     62  N   UNL     1      34.805  30.987  22.780  1.00  0.00    -0.132 NA
ATOM     63  N   UNL     1      34.967  29.205  24.017  1.00  0.00    -0.250 N 
ATOM     64  N   UNL     1      35.371  29.779  22.908  1.00  0.00    -0.067 NA
BRANCH  63  65
ATOM     65  C   UNL     1      35.344  27.882  24.535  1.00  0.00     0.174 C 
BRANCH  65  66
ATOM     66  C   UNL     1      34.579  26.838  23.759  1.00  0.00     0.179 C 
BRANCH  66  67
ATOM     67  O   UNL     1      33.377  26.600  24.447  1.00  0.00    -0.394 OA
ATOM     68  H   UNL     1      32.584  26.749  23.903  1.00  0.00     0.210 HD
ENDBRANCH  66  67
ENDBRANCH  65  66
ENDBRANCH  63  65
ENDBRANCH  59  60
ENDBRANCH  58  59
ENDBRANCH  55  58
ENDBRANCH  53  54
ENDBRANCH  50  53
ENDBRANCH  47  50
ENDBRANCH   5  47
BRANCH   4  69
ATOM     69  N   UNL     1      31.073  34.651  15.827  1.00  0.00    -0.348 N 
ATOM     70  C   UNL     1      32.276  35.293  15.450  1.00  0.00     0.217 C 
ATOM     71  H   UNL     1      30.199  35.068  15.416  1.00  0.00     0.163 HD
ATOM     72  C   UNL     1      32.231  36.475  14.566  1.00  0.00     0.114 C 
ATOM     73  O   UNL     1      33.373  34.878  15.854  1.00  0.00    -0.275 OA
ENDBRANCH   4  69
TORSDOF 32
BEGIN_RES LYS A 131
REMARK  4 active torsions:
REMARK  status: ('A' for Active; 'I' for Inactive)
REMARK    1  A    between atoms: CA   and  CB  
REMARK    2  A    between atoms: CB   and  CG  
REMARK    3  A    between atoms: CG   and  CD  
REMARK    4  A    between atoms: CD   and  CE  
ROOT
ATOM      1  CA  LYS A 131      29.867  25.555  16.977  1.00 20.52     0.186 C 
ENDROOT
BRANCH   1   2
ATOM      2  CB  LYS A 131      28.345  25.722  17.026  1.00 20.94     0.034 C 
BRANCH   2   3
ATOM      3  CG  LYS A 131      27.601  24.403  16.886  1.00 22.96     0.005 C 
BRANCH   3   4
ATOM      4  CD  LYS A 131      26.153  24.525  17.272  1.00 24.33     0.041 C 
BRANCH   4   5
ATOM      5  CE  LYS A 131      25.810  23.459  18.308  1.00 26.91     0.338 C 
ATOM      6  NZ  LYS A 131      25.508  24.085  19.617  1.00 27.40     0.618 N 
ENDBRANCH   4   5
ENDBRANCH   3   4
ENDBRANCH   2   3
ENDBRANCH   1   2
END_RES LYS A 131
BEGIN_RES LYS A 135
REMARK  4 active torsions:
REMARK  status: ('A' for Active; 'I' for Inactive)
REMARK    5  A    between atoms: CA   and  CB  
REMARK    6  A    between atoms: CB   and  CG  
REMARK    7  A    between atoms: CG   and  CD  
REMARK    8  A    between atoms: CD   and  CE  
ROOT
ATOM      7  CA  LYS A 135      33.193  34.663   9.290  1.00 25.02     0.186 C 
ENDROOT
BRANCH   7   8
ATOM      8  CB  LYS A 135      32.060  35.360  10.034  1.00 26.63     0.034 C 
BRANCH   8   9
ATOM      9  CG  LYS A 135      30.877  35.687   9.160  1.00 29.45     0.005 C 
BRANCH   9  10
ATOM     10  CD  LYS A 135      30.365  34.437   8.460  1.00 32.00     0.041 C 
BRANCH  10  11
ATOM     11  CE  LYS A 135      28.850  34.456   8.378  1.00 34.25     0.338 C 
ATOM     12  NZ  LYS A 135      28.241  33.761   9.545  1.00 35.99     0.618 N 
ENDBRANCH  10  11
ENDBRANCH   9  10
ENDBRANCH   8   9
ENDBRANCH   7   8
END_RES LYS A 135
