REMARK VINA RESULT:    -4.235      3.492      4.940
REMARK INTER + INTRA:         -21.666
REMARK INTER:                 -10.022
REMARK INTRA:                 -11.644
REMARK UNBOUND:               -11.242
REMARK SMILES CC(=O)N[C@@H]1[C@@H](O)C[C@](OC[C@H]2O[C@@H](O[C@H]3[C@H](O)[C@@H](O)[C@H](OCCN=[N+]=[N-])O[C@@H]3CO)[C@H](O)[C@@H](O)[C@H]2O)(C(=O)O)O[C@H]1C(O)[C@H](O)CNC(=O)OCc1cn(-c2c(C)cc(C)cc2C)nn1
REMARK SMILES IDX 9 1 8 2 6 3 5 4 42 5 41 6 10 7 11 8 12 9 14 10 13 11 32 12
REMARK SMILES IDX 34 13 36 14 15 15 16 16 29 17 28 18 21 19 17 20 19 21 30 22
REMARK SMILES IDX 31 23 22 25 23 26 24 27 25 28 26 29 27 30 18 31 20 33 33 35
REMARK SMILES IDX 35 37 37 39 38 41 39 42 40 43 7 45 43 47 44 48 45 50 46 51
REMARK SMILES IDX 47 53 48 54 49 55 50 57 51 58 52 59 53 60 54 61 66 62 55 63
REMARK SMILES IDX 65 64 56 65 57 66 63 67 58 68 59 69 62 70 64 71 60 72 61 73
REMARK SMILES IDX 4 74 2 75 1 77 3 78
REMARK H PARENT 31 24 18 32 20 34 33 36 35 38 37 40 40 44 7 46 44 49 46 52
REMARK H PARENT 48 56 4 76
REMARK Flexibility Score: inf
ROOT
ATOM      1  C   UNL     1      28.986  31.190  20.852  1.00  0.00     0.272 C 
ATOM      2  C   UNL     1      29.313  30.401  22.059  1.00  0.00     0.113 C 
ATOM      3  C   UNL     1      28.465  30.656  23.281  1.00  0.00     0.145 C 
ATOM      4  C   UNL     1      28.065  32.097  23.332  1.00  0.00     0.142 C 
ATOM      5  C   UNL     1      29.126  32.844  22.514  1.00  0.00     0.178 C 
ATOM      6  O   UNL     1      28.841  32.552  21.153  1.00  0.00    -0.332 OA
ENDROOT
BRANCH   1   7
ATOM      7  O   UNL     1      27.941  30.773  20.084  1.00  0.00    -0.338 OA
BRANCH   7   8
ATOM      8  C   UNL     1      26.904  31.594  19.834  1.00  0.00     0.199 C 
BRANCH   8   9
ATOM      9  C   UNL     1      26.689  31.619  18.314  1.00  0.00     0.179 C 
ATOM     10  C   UNL     1      27.999  31.810  16.431  1.00  0.00     0.282 C 
ATOM     11  O   UNL     1      27.707  32.314  17.690  1.00  0.00    -0.341 OA
ATOM     12  C   UNL     1      28.646  30.468  16.660  1.00  0.00     0.202 C 
ATOM     13  C   UNL     1      27.559  29.570  17.233  1.00  0.00     0.179 C 
ATOM     14  C   UNL     1      26.359  30.294  17.734  1.00  0.00     0.177 C 
BRANCH  10  15
ATOM     15  O   UNL     1      28.666  32.662  15.636  1.00  0.00    -0.341 OA
BRANCH  15  16
ATOM     16  C   UNL     1      29.796  33.244  16.085  1.00  0.00     0.184 C 
ATOM     17  C   UNL     1      29.548  34.725  16.309  1.00  0.00     0.178 C 
ATOM     18  O   UNL     1      30.063  35.511  15.323  1.00  0.00    -0.341 OA
ATOM     19  C   UNL     1      31.443  35.456  15.198  1.00  0.00     0.281 C 
ATOM     20  C   UNL     1      30.891  33.074  15.027  1.00  0.00     0.180 C 
ATOM     21  C   UNL     1      32.002  34.081  15.262  1.00  0.00     0.202 C 
BRANCH  17  22
ATOM     22  C   UNL     1      29.985  35.145  17.703  1.00  0.00     0.191 C 
BRANCH  22  23
ATOM     23  O   UNL     1      29.340  34.380  18.671  1.00  0.00    -0.394 OA
ATOM     24  H   UNL     1      28.990  34.909  19.424  1.00  0.00     0.210 HD
ENDBRANCH  22  23
ENDBRANCH  17  22
BRANCH  19  25
ATOM     25  O   UNL     1      32.070  36.257  16.163  1.00  0.00    -0.350 OA
BRANCH  25  26
ATOM     26  C   UNL     1      32.071  37.594  15.854  1.00  0.00     0.169 C 
BRANCH  26  27
ATOM     27  C   UNL     1      31.542  38.498  16.924  1.00  0.00     0.119 C 
BRANCH  27  28
ATOM     28  N   UNL     1      32.122  38.211  18.223  1.00  0.00    -0.092 NA
ATOM     29  N   UNL     1      31.398  38.068  19.229  1.00  0.00     0.001 N 
ATOM     30  N   UNL     1      30.515  37.901  20.078  1.00  0.00    -0.003 NA
ENDBRANCH  27  28
ENDBRANCH  26  27
ENDBRANCH  25  26
ENDBRANCH  19  25
BRANCH  20  31
ATOM     31  O   UNL     1      31.449  31.820  15.024  1.00  0.00    -0.387 OA
ATOM     32  H   UNL     1      32.364  31.771  14.645  1.00  0.00     0.211 HD
ENDBRANCH  20  31
BRANCH  21  33
ATOM     33  O   UNL     1      32.922  33.916  14.229  1.00  0.00    -0.385 OA
ATOM     34  H   UNL     1      33.742  33.446  14.551  1.00  0.00     0.211 HD
ENDBRANCH  21  33
ENDBRANCH  15  16
ENDBRANCH  10  15
BRANCH  12  35
ATOM     35  O   UNL     1      29.086  29.877  15.479  1.00  0.00    -0.385 OA
ATOM     36  H   UNL     1      28.352  29.998  14.803  1.00  0.00     0.211 HD
ENDBRANCH  12  35
BRANCH  13  37
ATOM     37  O   UNL     1      28.057  28.762  18.254  1.00  0.00    -0.387 OA
ATOM     38  H   UNL     1      27.524  27.939  18.397  1.00  0.00     0.211 HD
ENDBRANCH  13  37
BRANCH  14  39
ATOM     39  O   UNL     1      25.758  29.478  18.722  1.00  0.00    -0.387 OA
ATOM     40  H   UNL     1      25.064  28.904  18.324  1.00  0.00     0.211 HD
ENDBRANCH  14  39
ENDBRANCH   8   9
ENDBRANCH   7   8
ENDBRANCH   1   7
BRANCH   1  41
ATOM     41  C   UNL     1      30.233  31.180  19.997  1.00  0.00     0.364 C 
ATOM     42  O   UNL     1      30.638  30.104  19.546  1.00  0.00    -0.246 OA
BRANCH  41  43
ATOM     43  O   UNL     1      30.923  32.343  19.713  1.00  0.00    -0.477 OA
ATOM     44  H   UNL     1      31.296  32.585  18.812  1.00  0.00     0.296 HD
ENDBRANCH  41  43
ENDBRANCH   1  41
BRANCH   3  45
ATOM     45  O   UNL     1      27.388  29.773  23.224  1.00  0.00    -0.391 OA
ATOM     46  H   UNL     1      27.053  29.618  24.166  1.00  0.00     0.211 HD
ENDBRANCH   3  45
BRANCH   5  47
ATOM     47  C   UNL     1      29.053  34.317  22.595  1.00  0.00     0.176 C 
BRANCH  47  48
ATOM     48  O   UNL     1      28.367  34.752  21.403  1.00  0.00    -0.388 OA
ATOM     49  H   UNL     1      27.592  35.309  21.674  1.00  0.00     0.211 HD
ENDBRANCH  47  48
BRANCH  47  50
ATOM     50  C   UNL     1      30.353  35.091  22.499  1.00  0.00     0.165 C 
BRANCH  50  51
ATOM     51  O   UNL     1      30.621  35.037  21.077  1.00  0.00    -0.388 OA
ATOM     52  H   UNL     1      29.891  35.479  20.601  1.00  0.00     0.211 HD
ENDBRANCH  50  51
BRANCH  50  53
ATOM     53  C   UNL     1      31.510  34.315  23.079  1.00  0.00     0.154 C 
BRANCH  53  54
ATOM     54  N   UNL     1      32.210  33.453  22.176  1.00  0.00    -0.319 N 
ATOM     55  C   UNL     1      33.623  33.295  22.305  1.00  0.00     0.407 C 
ATOM     56  H   UNL     1      31.694  32.933  21.411  1.00  0.00     0.167 HD
ATOM     57  O   UNL     1      34.182  33.952  23.226  1.00  0.00    -0.225 OA
BRANCH  55  58
ATOM     58  O   UNL     1      34.362  32.464  21.470  1.00  0.00    -0.443 OA
BRANCH  58  59
ATOM     59  C   UNL     1      35.241  31.486  21.972  1.00  0.00     0.294 C 
BRANCH  59  60
ATOM     60  C   UNL     1      34.558  30.256  22.457  1.00  0.00     0.121 A 
ATOM     61  C   UNL     1      33.210  29.977  22.476  1.00  0.00     0.144 A 
ATOM     62  N   UNL     1      35.157  29.151  22.988  1.00  0.00    -0.131 NA
ATOM     63  N   UNL     1      33.023  28.754  22.998  1.00  0.00    -0.220 N 
ATOM     64  N   UNL     1      34.238  28.292  23.294  1.00  0.00    -0.062 NA
BRANCH  63  65
ATOM     65  C   UNL     1      31.787  28.049  23.221  1.00  0.00     0.072 A 
ATOM     66  C   UNL     1      31.207  28.189  24.457  1.00  0.00    -0.025 A 
ATOM     67  C   UNL     1      31.252  27.291  22.238  1.00  0.00    -0.025 A 
ATOM     68  C   UNL     1      31.836  29.042  25.524  1.00  0.00     0.047 C 
ATOM     69  C   UNL     1      30.023  27.518  24.691  1.00  0.00     0.009 A 
ATOM     70  C   UNL     1      30.052  26.630  22.523  1.00  0.00     0.009 A 
ATOM     71  C   UNL     1      31.849  27.118  20.889  1.00  0.00     0.047 C 
ATOM     72  C   UNL     1      29.425  26.732  23.740  1.00  0.00    -0.050 A 
ATOM     73  C   UNL     1      28.151  26.039  24.054  1.00  0.00     0.044 C 
ENDBRANCH  63  65
ENDBRANCH  59  60
ENDBRANCH  58  59
ENDBRANCH  55  58
ENDBRANCH  53  54
ENDBRANCH  50  53
ENDBRANCH  47  50
ENDBRANCH   5  47
BRANCH   4  74
ATOM     74  N   UNL     1      27.838  32.643  24.599  1.00  0.00    -0.348 N 
ATOM     75  C   UNL     1      26.575  33.150  25.022  1.00  0.00     0.217 C 
ATOM     76  H   UNL     1      28.603  32.674  25.297  1.00  0.00     0.163 HD
ATOM     77  C   UNL     1      26.366  33.725  26.385  1.00  0.00     0.114 C 
ATOM     78  O   UNL     1      25.636  33.098  24.210  1.00  0.00    -0.275 OA
ENDBRANCH   4  74
TORSDOF 30
BEGIN_RES LYS A 131
REMARK  4 active torsions:
REMARK  status: ('A' for Active; 'I' for Inactive)
REMARK    1  A    between atoms: CA   and  CB  
REMARK    2  A    between atoms: CB   and  CG  
REMARK    3  A    between atoms: CG   and  CD  
REMARK    4  A    between atoms: CD   and  CE  
ROOT
ATOM      1  CA  LYS A 131      29.867  25.555  16.977  1.00 20.52     0.186 C 
ENDROOT
BRANCH   1   2
ATOM      2  CB  LYS A 131      28.345  25.722  17.026  1.00 20.94     0.034 C 
BRANCH   2   3
ATOM      3  CG  LYS A 131      27.602  24.397  16.941  1.00 22.96     0.005 C 
BRANCH   3   4
ATOM      4  CD  LYS A 131      26.513  24.291  17.972  1.00 24.33     0.041 C 
BRANCH   4   5
ATOM      5  CE  LYS A 131      25.952  25.679  18.264  1.00 26.91     0.338 C 
ATOM      6  NZ  LYS A 131      25.898  25.920  19.725  1.00 27.40     0.618 N 
ENDBRANCH   4   5
ENDBRANCH   3   4
ENDBRANCH   2   3
ENDBRANCH   1   2
END_RES LYS A 131
BEGIN_RES LYS A 135
REMARK  4 active torsions:
REMARK  status: ('A' for Active; 'I' for Inactive)
REMARK    5  A    between atoms: CA   and  CB  
REMARK    6  A    between atoms: CB   and  CG  
REMARK    7  A    between atoms: CG   and  CD  
REMARK    8  A    between atoms: CD   and  CE  
ROOT
ATOM      7  CA  LYS A 135      33.193  34.663   9.290  1.00 25.02     0.186 C 
ENDROOT
BRANCH   7   8
ATOM      8  CB  LYS A 135      32.060  35.360  10.034  1.00 26.63     0.034 C 
BRANCH   8   9
ATOM      9  CG  LYS A 135      30.764  35.392   9.265  1.00 29.45     0.005 C 
BRANCH   9  10
ATOM     10  CD  LYS A 135      29.811  34.322   9.774  1.00 32.00     0.041 C 
BRANCH  10  11
ATOM     11  CE  LYS A 135      28.805  34.920  10.739  1.00 34.25     0.338 C 
ATOM     12  NZ  LYS A 135      29.186  34.643  12.152  1.00 35.99     0.618 N 
ENDBRANCH  10  11
ENDBRANCH   9  10
ENDBRANCH   8   9
ENDBRANCH   7   8
END_RES LYS A 135
