REMARK VINA RESULT:    -4.087      7.495     13.658
REMARK INTER + INTRA:         -22.719
REMARK INTER:                 -11.319
REMARK INTRA:                 -11.400
REMARK UNBOUND:               -11.702
REMARK SMILES CC(=O)N[C@@H]1[C@@H](O)C[C@](OC[C@H]2O[C@@H](O[C@H]3[C@H](O)[C@@H](O)[C@H](OCCN=[N+]=[N-])O[C@@H]3CO)[C@H](O)[C@@H](O)[C@H]2O)(C(=O)O)O[C@H]1C(O)[C@H](O)CNC(=O)OCc1cn([C@@H](CC(=O)O)C(=O)O)nn1
REMARK SMILES IDX 43 1 42 2 9 3 8 4 41 5 6 6 5 7 10 8 11 9 12 10 14 11 13 12
REMARK SMILES IDX 32 13 34 14 36 15 15 16 16 17 29 18 28 19 21 20 17 21 19 22
REMARK SMILES IDX 30 23 31 24 22 26 23 27 24 28 25 29 26 30 27 31 18 32 20 34
REMARK SMILES IDX 33 36 35 38 37 40 38 42 39 43 40 44 7 46 4 48 2 49 1 51 3 52
REMARK SMILES IDX 44 53 45 55 46 56 47 58 48 59 49 60 50 62 51 63 52 64 53 65
REMARK SMILES IDX 54 66 65 67 55 68 64 69 56 70 57 71 58 72 59 73 60 74 61 76
REMARK SMILES IDX 62 77 63 78
REMARK H PARENT 31 25 18 33 20 35 33 37 35 39 37 41 40 45 7 47 4 50 44 54
REMARK H PARENT 46 57 48 61 60 75 63 79
REMARK Flexibility Score: inf
ROOT
ATOM      1  C   UNL     1      31.798  27.817  22.393  1.00  0.00     0.176 C 
ENDROOT
BRANCH   1   2
ATOM      2  C   UNL     1      31.591  29.276  22.762  1.00  0.00     0.178 C 
ATOM      3  C   UNL     1      30.183  31.094  22.275  1.00  0.00     0.272 C 
ATOM      4  C   UNL     1      31.410  31.755  22.917  1.00  0.00     0.113 C 
ATOM      5  O   UNL     1      30.571  29.762  22.005  1.00  0.00    -0.332 OA
ATOM      6  C   UNL     1      32.590  31.347  22.046  1.00  0.00     0.145 C 
ATOM      7  C   UNL     1      32.940  29.943  22.566  1.00  0.00     0.142 C 
BRANCH   3   8
ATOM      8  O   UNL     1      29.821  31.700  21.241  1.00  0.00    -0.338 OA
BRANCH   8   9
ATOM      9  C   UNL     1      29.471  32.309  20.213  1.00  0.00     0.199 C 
BRANCH   9  10
ATOM     10  C   UNL     1      28.268  31.767  19.441  1.00  0.00     0.179 C 
ATOM     11  C   UNL     1      28.629  32.572  17.316  1.00  0.00     0.282 C 
ATOM     12  O   UNL     1      27.829  32.540  18.421  1.00  0.00    -0.341 OA
ATOM     13  C   UNL     1      28.913  31.227  16.769  1.00  0.00     0.202 C 
ATOM     14  C   UNL     1      28.006  30.254  17.539  1.00  0.00     0.179 C 
ATOM     15  C   UNL     1      28.477  30.344  18.978  1.00  0.00     0.177 C 
BRANCH  11  16
ATOM     16  O   UNL     1      29.693  33.459  17.362  1.00  0.00    -0.341 OA
BRANCH  16  17
ATOM     17  C   UNL     1      29.791  34.264  16.251  1.00  0.00     0.184 C 
ATOM     18  C   UNL     1      31.204  34.540  15.879  1.00  0.00     0.178 C 
ATOM     19  O   UNL     1      31.284  35.306  14.723  1.00  0.00    -0.341 OA
ATOM     20  C   UNL     1      30.292  36.286  14.621  1.00  0.00     0.281 C 
ATOM     21  C   UNL     1      29.096  35.573  16.617  1.00  0.00     0.180 C 
ATOM     22  C   UNL     1      29.846  36.717  16.015  1.00  0.00     0.202 C 
BRANCH  18  23
ATOM     23  C   UNL     1      31.856  33.203  15.532  1.00  0.00     0.191 C 
BRANCH  23  24
ATOM     24  O   UNL     1      31.036  32.534  14.600  1.00  0.00    -0.394 OA
ATOM     25  H   UNL     1      30.823  31.657  15.037  1.00  0.00     0.210 HD
ENDBRANCH  23  24
ENDBRANCH  18  23
BRANCH  20  26
ATOM     26  O   UNL     1      29.202  35.710  13.994  1.00  0.00    -0.350 OA
BRANCH  26  27
ATOM     27  C   UNL     1      29.247  35.626  12.637  1.00  0.00     0.169 C 
BRANCH  27  28
ATOM     28  C   UNL     1      27.994  36.173  12.024  1.00  0.00     0.119 C 
BRANCH  28  29
ATOM     29  N   UNL     1      26.858  35.434  12.577  1.00  0.00    -0.092 NA
ATOM     30  N   UNL     1      26.058  36.060  13.302  1.00  0.00     0.001 N 
ATOM     31  N   UNL     1      25.366  36.266  14.316  1.00  0.00    -0.003 NA
ENDBRANCH  28  29
ENDBRANCH  27  28
ENDBRANCH  26  27
ENDBRANCH  20  26
BRANCH  21  32
ATOM     32  O   UNL     1      27.791  35.562  16.140  1.00  0.00    -0.387 OA
ATOM     33  H   UNL     1      27.548  36.462  15.778  1.00  0.00     0.211 HD
ENDBRANCH  21  32
BRANCH  22  34
ATOM     34  O   UNL     1      30.938  37.142  16.772  1.00  0.00    -0.385 OA
ATOM     35  H   UNL     1      30.995  36.476  17.528  1.00  0.00     0.211 HD
ENDBRANCH  22  34
ENDBRANCH  16  17
ENDBRANCH  11  16
BRANCH  13  36
ATOM     36  O   UNL     1      28.558  31.079  15.426  1.00  0.00    -0.385 OA
ATOM     37  H   UNL     1      28.587  31.988  15.009  1.00  0.00     0.211 HD
ENDBRANCH  13  36
BRANCH  14  38
ATOM     38  O   UNL     1      28.069  28.970  17.058  1.00  0.00    -0.387 OA
ATOM     39  H   UNL     1      28.929  28.521  17.293  1.00  0.00     0.211 HD
ENDBRANCH  14  38
BRANCH  15  40
ATOM     40  O   UNL     1      29.796  29.955  19.050  1.00  0.00    -0.387 OA
ATOM     41  H   UNL     1      29.929  29.003  19.198  1.00  0.00     0.211 HD
ENDBRANCH  15  40
ENDBRANCH   9  10
ENDBRANCH   8   9
ENDBRANCH   3   8
BRANCH   3  42
ATOM     42  C   UNL     1      29.168  31.041  23.414  1.00  0.00     0.364 C 
ATOM     43  O   UNL     1      28.397  30.076  23.508  1.00  0.00    -0.246 OA
BRANCH  42  44
ATOM     44  O   UNL     1      29.090  32.056  24.348  1.00  0.00    -0.477 OA
ATOM     45  H   UNL     1      29.914  32.401  24.858  1.00  0.00     0.296 HD
ENDBRANCH  42  44
ENDBRANCH   3  42
BRANCH   6  46
ATOM     46  O   UNL     1      32.147  31.098  20.729  1.00  0.00    -0.391 OA
ATOM     47  H   UNL     1      32.849  30.744  20.157  1.00  0.00     0.211 HD
ENDBRANCH   6  46
BRANCH   7  48
ATOM     48  N   UNL     1      33.666  30.145  23.799  1.00  0.00    -0.348 N 
ATOM     49  C   UNL     1      35.021  29.708  23.912  1.00  0.00     0.217 C 
ATOM     50  H   UNL     1      33.244  30.604  24.638  1.00  0.00     0.163 HD
ATOM     51  C   UNL     1      35.720  29.944  25.221  1.00  0.00     0.114 C 
ATOM     52  O   UNL     1      35.621  29.144  22.960  1.00  0.00    -0.275 OA
ENDBRANCH   7  48
ENDBRANCH   1   2
BRANCH   1  53
ATOM     53  O   UNL     1      33.137  27.453  22.469  1.00  0.00    -0.388 OA
ATOM     54  H   UNL     1      33.471  27.459  23.410  1.00  0.00     0.211 HD
ENDBRANCH   1  53
BRANCH   1  55
ATOM     55  C   UNL     1      31.207  27.388  21.103  1.00  0.00     0.165 C 
BRANCH  55  56
ATOM     56  O   UNL     1      31.549  28.135  19.998  1.00  0.00    -0.388 OA
ATOM     57  H   UNL     1      31.205  27.777  19.137  1.00  0.00     0.211 HD
ENDBRANCH  55  56
BRANCH  55  58
ATOM     58  C   UNL     1      29.747  27.119  21.232  1.00  0.00     0.154 C 
BRANCH  58  59
ATOM     59  N   UNL     1      29.015  26.990  20.011  1.00  0.00    -0.319 N 
ATOM     60  C   UNL     1      27.606  27.120  20.026  1.00  0.00     0.407 C 
ATOM     61  H   UNL     1      29.490  26.808  19.116  1.00  0.00     0.167 HD
ATOM     62  O   UNL     1      27.039  27.366  21.147  1.00  0.00    -0.225 OA
BRANCH  60  63
ATOM     63  O   UNL     1      26.764  27.001  18.933  1.00  0.00    -0.443 OA
BRANCH  63  64
ATOM     64  C   UNL     1      25.347  27.162  19.109  1.00  0.00     0.294 C 
BRANCH  64  65
ATOM     65  C   UNL     1      24.932  28.432  18.467  1.00  0.00     0.120 A 
ATOM     66  C   UNL     1      24.616  28.700  17.154  1.00  0.00     0.139 A 
ATOM     67  N   UNL     1      24.803  29.641  19.108  1.00  0.00    -0.132 NA
ATOM     68  N   UNL     1      24.313  30.025  17.035  1.00  0.00    -0.237 N 
ATOM     69  N   UNL     1      24.441  30.533  18.227  1.00  0.00    -0.066 NA
BRANCH  68  70
ATOM     70  C   UNL     1      23.943  30.714  15.820  1.00  0.00     0.229 C 
BRANCH  70  71
ATOM     71  C   UNL     1      25.216  31.078  15.077  1.00  0.00     0.161 C 
BRANCH  71  72
ATOM     72  C   UNL     1      25.252  32.511  14.731  1.00  0.00     0.306 C 
ATOM     73  O   UNL     1      24.215  33.117  14.360  1.00  0.00    -0.252 OA
BRANCH  72  74
ATOM     74  O   UNL     1      26.432  33.218  14.807  1.00  0.00    -0.481 OA
ATOM     75  H   UNL     1      26.838  33.594  13.942  1.00  0.00     0.296 HD
ENDBRANCH  72  74
ENDBRANCH  71  72
ENDBRANCH  70  71
BRANCH  70  76
ATOM     76  C   UNL     1      23.127  29.814  14.986  1.00  0.00     0.329 C 
ATOM     77  O   UNL     1      21.928  29.622  15.294  1.00  0.00    -0.250 OA
BRANCH  76  78
ATOM     78  O   UNL     1      23.624  29.161  13.866  1.00  0.00    -0.480 OA
ATOM     79  H   UNL     1      24.363  28.475  13.997  1.00  0.00     0.296 HD
ENDBRANCH  76  78
ENDBRANCH  70  76
ENDBRANCH  68  70
ENDBRANCH  64  65
ENDBRANCH  63  64
ENDBRANCH  60  63
ENDBRANCH  58  59
ENDBRANCH  55  58
ENDBRANCH   1  55
TORSDOF 35
BEGIN_RES LYS A 131
REMARK  4 active torsions:
REMARK  status: ('A' for Active; 'I' for Inactive)
REMARK    1  A    between atoms: CA   and  CB  
REMARK    2  A    between atoms: CB   and  CG  
REMARK    3  A    between atoms: CG   and  CD  
REMARK    4  A    between atoms: CD   and  CE  
ROOT
ATOM      1  CA  LYS A 131      29.867  25.555  16.977  1.00 20.52     0.186 C 
ENDROOT
BRANCH   1   2
ATOM      2  CB  LYS A 131      28.345  25.722  17.026  1.00 20.94     0.034 C 
BRANCH   2   3
ATOM      3  CG  LYS A 131      27.599  24.471  16.589  1.00 22.96     0.005 C 
BRANCH   3   4
ATOM      4  CD  LYS A 131      27.326  23.543  17.740  1.00 24.33     0.041 C 
BRANCH   4   5
ATOM      5  CE  LYS A 131      25.880  23.709  18.196  1.00 26.91     0.338 C 
ATOM      6  NZ  LYS A 131      24.989  22.799  17.437  1.00 27.40     0.618 N 
ENDBRANCH   4   5
ENDBRANCH   3   4
ENDBRANCH   2   3
ENDBRANCH   1   2
END_RES LYS A 131
BEGIN_RES LYS A 135
REMARK  4 active torsions:
REMARK  status: ('A' for Active; 'I' for Inactive)
REMARK    5  A    between atoms: CA   and  CB  
REMARK    6  A    between atoms: CB   and  CG  
REMARK    7  A    between atoms: CG   and  CD  
REMARK    8  A    between atoms: CD   and  CE  
ROOT
ATOM      7  CA  LYS A 135      33.193  34.663   9.290  1.00 25.02     0.186 C 
ENDROOT
BRANCH   7   8
ATOM      8  CB  LYS A 135      32.060  35.360  10.034  1.00 26.63     0.034 C 
BRANCH   8   9
ATOM      9  CG  LYS A 135      30.794  35.482   9.226  1.00 29.45     0.005 C 
BRANCH   9  10
ATOM     10  CD  LYS A 135      30.045  34.159   9.198  1.00 32.00     0.041 C 
BRANCH  10  11
ATOM     11  CE  LYS A 135      28.617  34.365   8.732  1.00 34.25     0.338 C 
ATOM     12  NZ  LYS A 135      27.660  33.602   9.581  1.00 35.99     0.618 N 
ENDBRANCH  10  11
ENDBRANCH   9  10
ENDBRANCH   8   9
ENDBRANCH   7   8
END_RES LYS A 135
