REMARK VINA RESULT:    -4.929      3.777      8.607
REMARK INTER + INTRA:         -22.548
REMARK INTER:                 -12.132
REMARK INTRA:                 -10.416
REMARK UNBOUND:               -10.416
REMARK SMILES CC(=O)N[C@@H]1[C@@H](O)C[C@](OC[C@H]2O[C@@H](O[C@H]3[C@H](O)[C@@H](O)[C@H](OCCN=[N+]=[N-])O[C@@H]3CO)[C@H](O)[C@@H](O)[C@H]2O)(C(=O)O)O[C@H]1C(O)[C@H](O)CNC(=O)OCc1cn(-c2ccc3c(c2)OCO3)nn1
REMARK SMILES IDX 9 1 8 2 6 3 5 4 42 5 41 6 10 7 11 8 12 9 14 10 13 11 32 12
REMARK SMILES IDX 34 13 36 14 15 15 16 16 29 17 28 18 21 19 17 20 19 21 30 22
REMARK SMILES IDX 31 23 22 25 23 26 24 27 25 28 26 29 27 30 18 31 20 33 33 35
REMARK SMILES IDX 35 37 37 39 38 41 39 42 40 43 7 45 43 47 44 48 45 50 46 51
REMARK SMILES IDX 47 53 48 54 49 55 50 57 51 58 52 59 53 60 54 61 66 62 55 63
REMARK SMILES IDX 65 64 56 65 57 66 61 67 58 68 60 69 59 70 62 71 64 72 63 73
REMARK SMILES IDX 4 74 2 75 1 77 3 78
REMARK H PARENT 31 24 18 32 20 34 33 36 35 38 37 40 40 44 7 46 44 49 46 52
REMARK H PARENT 48 56 4 76
REMARK Flexibility Score: inf
ROOT
ATOM      1  C   UNL     1      28.163  31.153  17.966  1.00  0.00     0.272 C 
ATOM      2  C   UNL     1      27.261  31.122  16.764  1.00  0.00     0.113 C 
ATOM      3  C   UNL     1      28.053  30.956  15.454  1.00  0.00     0.145 C 
ATOM      4  C   UNL     1      28.831  32.246  15.296  1.00  0.00     0.142 C 
ATOM      5  C   UNL     1      29.599  32.420  16.590  1.00  0.00     0.178 C 
ATOM      6  O   UNL     1      29.477  31.408  17.480  1.00  0.00    -0.332 OA
ENDROOT
BRANCH   1   7
ATOM      7  O   UNL     1      28.252  30.005  18.617  1.00  0.00    -0.338 OA
BRANCH   7   8
ATOM      8  C   UNL     1      27.427  29.027  18.835  1.00  0.00     0.199 C 
BRANCH   8   9
ATOM      9  C   UNL     1      27.428  28.247  20.123  1.00  0.00     0.179 C 
ATOM     10  C   UNL     1      28.958  27.535  21.727  1.00  0.00     0.282 C 
ATOM     11  O   UNL     1      28.727  27.942  20.440  1.00  0.00    -0.341 OA
ATOM     12  C   UNL     1      27.721  27.235  22.506  1.00  0.00     0.202 C 
ATOM     13  C   UNL     1      26.758  28.410  22.512  1.00  0.00     0.179 C 
ATOM     14  C   UNL     1      26.831  29.163  21.223  1.00  0.00     0.177 C 
BRANCH  10  15
ATOM     15  O   UNL     1      29.598  28.604  22.385  1.00  0.00    -0.341 OA
BRANCH  15  16
ATOM     16  C   UNL     1      30.918  28.358  22.659  1.00  0.00     0.184 C 
ATOM     17  C   UNL     1      31.345  29.172  23.853  1.00  0.00     0.178 C 
ATOM     18  O   UNL     1      31.751  30.448  23.542  1.00  0.00    -0.341 OA
ATOM     19  C   UNL     1      31.133  30.952  22.396  1.00  0.00     0.281 C 
ATOM     20  C   UNL     1      31.706  28.707  21.419  1.00  0.00     0.180 C 
ATOM     21  C   UNL     1      31.535  30.187  21.160  1.00  0.00     0.202 C 
BRANCH  17  22
ATOM     22  C   UNL     1      32.486  28.503  24.606  1.00  0.00     0.191 C 
BRANCH  22  23
ATOM     23  O   UNL     1      32.575  27.153  24.293  1.00  0.00    -0.394 OA
ATOM     24  H   UNL     1      33.234  26.667  24.878  1.00  0.00     0.210 HD
ENDBRANCH  22  23
ENDBRANCH  17  22
BRANCH  19  25
ATOM     25  O   UNL     1      31.593  32.255  22.264  1.00  0.00    -0.350 OA
BRANCH  25  26
ATOM     26  C   UNL     1      32.984  32.244  22.292  1.00  0.00     0.169 C 
BRANCH  26  27
ATOM     27  C   UNL     1      33.558  33.448  21.553  1.00  0.00     0.119 C 
BRANCH  27  28
ATOM     28  N   UNL     1      32.442  34.052  20.810  1.00  0.00    -0.092 NA
ATOM     29  N   UNL     1      32.697  34.885  19.914  1.00  0.00     0.001 N 
ATOM     30  N   UNL     1      33.154  35.717  19.110  1.00  0.00    -0.003 NA
ENDBRANCH  27  28
ENDBRANCH  26  27
ENDBRANCH  25  26
ENDBRANCH  19  25
BRANCH  20  31
ATOM     31  O   UNL     1      33.033  28.331  21.487  1.00  0.00    -0.387 OA
ATOM     32  H   UNL     1      33.450  28.156  20.592  1.00  0.00     0.211 HD
ENDBRANCH  20  31
BRANCH  21  33
ATOM     33  O   UNL     1      30.510  30.333  20.223  1.00  0.00    -0.385 OA
ATOM     34  H   UNL     1      30.774  30.042  19.314  1.00  0.00     0.211 HD
ENDBRANCH  21  33
ENDBRANCH  15  16
ENDBRANCH  10  15
BRANCH  12  35
ATOM     35  O   UNL     1      27.034  26.100  22.082  1.00  0.00    -0.385 OA
ATOM     36  H   UNL     1      27.516  25.731  21.277  1.00  0.00     0.211 HD
ENDBRANCH  12  35
BRANCH  13  37
ATOM     37  O   UNL     1      27.096  29.235  23.587  1.00  0.00    -0.387 OA
ATOM     38  H   UNL     1      27.767  29.909  23.373  1.00  0.00     0.211 HD
ENDBRANCH  13  37
BRANCH  14  39
ATOM     39  O   UNL     1      27.652  30.272  21.404  1.00  0.00    -0.387 OA
ATOM     40  H   UNL     1      27.175  31.118  21.431  1.00  0.00     0.211 HD
ENDBRANCH  14  39
ENDBRANCH   8   9
ENDBRANCH   7   8
ENDBRANCH   1   7
BRANCH   1  41
ATOM     41  C   UNL     1      27.838  32.321  18.848  1.00  0.00     0.364 C 
ATOM     42  O   UNL     1      28.575  32.453  19.887  1.00  0.00    -0.246 OA
BRANCH  41  43
ATOM     43  O   UNL     1      26.848  33.229  18.647  1.00  0.00    -0.477 OA
ATOM     44  H   UNL     1      25.870  33.042  18.797  1.00  0.00     0.296 HD
ENDBRANCH  41  43
ENDBRANCH   1  41
BRANCH   3  45
ATOM     45  O   UNL     1      28.912  29.872  15.677  1.00  0.00    -0.391 OA
ATOM     46  H   UNL     1      28.882  29.598  16.620  1.00  0.00     0.211 HD
ENDBRANCH   3  45
BRANCH   5  47
ATOM     47  C   UNL     1      31.081  32.411  16.162  1.00  0.00     0.176 C 
BRANCH  47  48
ATOM     48  O   UNL     1      31.254  32.171  14.830  1.00  0.00    -0.388 OA
ATOM     49  H   UNL     1      32.144  32.419  14.479  1.00  0.00     0.211 HD
ENDBRANCH  47  48
BRANCH  47  50
ATOM     50  C   UNL     1      31.769  33.715  16.547  1.00  0.00     0.165 C 
BRANCH  50  51
ATOM     51  O   UNL     1      30.914  34.633  17.057  1.00  0.00    -0.388 OA
ATOM     52  H   UNL     1      31.277  35.521  17.256  1.00  0.00     0.211 HD
ENDBRANCH  50  51
BRANCH  50  53
ATOM     53  C   UNL     1      32.453  34.207  15.311  1.00  0.00     0.154 C 
BRANCH  53  54
ATOM     54  N   UNL     1      31.983  35.493  14.899  1.00  0.00    -0.319 N 
ATOM     55  C   UNL     1      32.265  36.122  13.658  1.00  0.00     0.407 C 
ATOM     56  H   UNL     1      31.353  36.084  15.549  1.00  0.00     0.167 HD
ATOM     57  O   UNL     1      32.968  35.554  12.798  1.00  0.00    -0.225 OA
BRANCH  55  58
ATOM     58  O   UNL     1      31.769  37.393  13.358  1.00  0.00    -0.443 OA
BRANCH  58  59
ATOM     59  C   UNL     1      30.683  37.980  14.021  1.00  0.00     0.294 C 
BRANCH  59  60
ATOM     60  C   UNL     1      29.579  38.201  13.026  1.00  0.00     0.121 A 
ATOM     61  C   UNL     1      29.572  37.751  11.705  1.00  0.00     0.144 A 
ATOM     62  N   UNL     1      28.414  38.840  13.191  1.00  0.00    -0.131 NA
ATOM     63  N   UNL     1      28.413  38.133  11.126  1.00  0.00    -0.220 N 
ATOM     64  N   UNL     1      27.748  38.788  12.065  1.00  0.00    -0.062 NA
BRANCH  63  65
ATOM     65  C   UNL     1      27.977  37.894   9.811  1.00  0.00     0.070 A 
ATOM     66  C   UNL     1      26.751  37.337   9.574  1.00  0.00     0.032 A 
ATOM     67  C   UNL     1      28.776  38.220   8.742  1.00  0.00     0.079 A 
ATOM     68  C   UNL     1      26.328  37.108   8.257  1.00  0.00     0.053 A 
ATOM     69  C   UNL     1      28.377  38.001   7.441  1.00  0.00     0.167 A 
ATOM     70  C   UNL     1      27.147  37.443   7.208  1.00  0.00     0.165 A 
ATOM     71  O   UNL     1      29.003  38.245   6.239  1.00  0.00    -0.454 OA
ATOM     72  O   UNL     1      26.985  37.329   5.832  1.00  0.00    -0.454 OA
ATOM     73  C   UNL     1      28.238  37.550   5.246  1.00  0.00     0.468 C 
ENDBRANCH  63  65
ENDBRANCH  59  60
ENDBRANCH  58  59
ENDBRANCH  55  58
ENDBRANCH  53  54
ENDBRANCH  50  53
ENDBRANCH  47  50
ENDBRANCH   5  47
BRANCH   4  74
ATOM     74  N   UNL     1      27.924  33.313  15.000  1.00  0.00    -0.348 N 
ATOM     75  C   UNL     1      28.284  34.383  14.100  1.00  0.00     0.217 C 
ATOM     76  H   UNL     1      26.965  33.407  15.395  1.00  0.00     0.163 HD
ATOM     77  C   UNL     1      27.333  35.486  13.800  1.00  0.00     0.114 C 
ATOM     78  O   UNL     1      29.401  34.376  13.573  1.00  0.00    -0.275 OA
ENDBRANCH   4  74
TORSDOF 30
BEGIN_RES LYS A 131
REMARK  4 active torsions:
REMARK  status: ('A' for Active; 'I' for Inactive)
REMARK    1  A    between atoms: CA   and  CB  
REMARK    2  A    between atoms: CB   and  CG  
REMARK    3  A    between atoms: CG   and  CD  
REMARK    4  A    between atoms: CD   and  CE  
ROOT
ATOM      1  CA  LYS A 131      29.867  25.555  16.977  1.00 20.52     0.186 C 
ENDROOT
BRANCH   1   2
ATOM      2  CB  LYS A 131      28.345  25.722  17.026  1.00 20.94     0.034 C 
BRANCH   2   3
ATOM      3  CG  LYS A 131      27.599  24.458  16.627  1.00 22.96     0.005 C 
BRANCH   3   4
ATOM      4  CD  LYS A 131      26.991  23.761  17.812  1.00 24.33     0.041 C 
BRANCH   4   5
ATOM      5  CE  LYS A 131      26.235  24.773  18.666  1.00 26.91     0.338 C 
ATOM      6  NZ  LYS A 131      25.470  24.084  19.732  1.00 27.40     0.618 N 
ENDBRANCH   4   5
ENDBRANCH   3   4
ENDBRANCH   2   3
ENDBRANCH   1   2
END_RES LYS A 131
BEGIN_RES LYS A 135
REMARK  4 active torsions:
REMARK  status: ('A' for Active; 'I' for Inactive)
REMARK    5  A    between atoms: CA   and  CB  
REMARK    6  A    between atoms: CB   and  CG  
REMARK    7  A    between atoms: CG   and  CD  
REMARK    8  A    between atoms: CD   and  CE  
ROOT
ATOM      7  CA  LYS A 135      33.193  34.663   9.290  1.00 25.02     0.186 C 
ENDROOT
BRANCH   7   8
ATOM      8  CB  LYS A 135      32.060  35.360  10.034  1.00 26.63     0.034 C 
BRANCH   8   9
ATOM      9  CG  LYS A 135      30.781  35.443   9.242  1.00 29.45     0.005 C 
BRANCH   9  10
ATOM     10  CD  LYS A 135      29.986  34.152   9.370  1.00 32.00     0.041 C 
BRANCH  10  11
ATOM     11  CE  LYS A 135      28.637  34.288   8.689  1.00 34.25     0.338 C 
ATOM     12  NZ  LYS A 135      27.544  33.765   9.555  1.00 35.99     0.618 N 
ENDBRANCH  10  11
ENDBRANCH   9  10
ENDBRANCH   8   9
ENDBRANCH   7   8
END_RES LYS A 135
