REMARK VINA RESULT:    -4.702      5.217     11.357
REMARK INTER + INTRA:         -25.219
REMARK INTER:                 -11.166
REMARK INTRA:                 -14.053
REMARK UNBOUND:               -12.132
REMARK SMILES CCOCCc1c(-c2ccccc2)nc(N)nc1-n1cc(COC(=O)NC[C@@H](O)C(O)[C@@H]2O[C@@](OC[C@H]3O[C@@H](O[C@H]4[C@H](O)[C@@H](O)[C@H](OCCN=[N+]=[N-])O[C@@H]4CO)[C@H](O)[C@@H](O)[C@H]3O)(C(=O)O)C[C@H](O)[C@H]2NC(C)=O)nn1
REMARK SMILES IDX 30 1 32 2 34 3 66 4 33 5 67 6 69 7 35 8 36 9 37 10 39 11
REMARK SMILES IDX 38 12 57 13 59 14 61 15 40 16 41 17 54 18 53 19 46 20 42 21
REMARK SMILES IDX 44 22 55 23 56 24 47 26 48 27 49 28 50 29 51 30 52 31 43 32
REMARK SMILES IDX 45 34 58 36 60 38 62 40 63 42 64 43 65 44 68 46 70 48 71 49
REMARK SMILES IDX 72 51 73 52 31 53 28 55 29 56 27 58 26 59 24 60 25 62 23 63
REMARK SMILES IDX 22 64 21 65 20 66 74 67 19 68 75 69 18 70 17 71 6 72 15 73
REMARK SMILES IDX 7 74 14 75 5 76 4 77 3 78 2 79 1 80 16 81 8 84 9 85 13 86
REMARK SMILES IDX 10 87 12 88 11 89
REMARK H PARENT 56 25 43 33 45 35 58 37 60 39 62 41 65 45 68 47 70 50 31 54
REMARK H PARENT 29 57 26 61 16 82 16 83
REMARK Flexibility Score: inf
ROOT
ATOM      1  C   UNL     1      23.804  37.808   8.212  1.00  0.00     0.176 C 
ENDROOT
BRANCH   1   2
ATOM      2  C   UNL     1      24.370  38.860   7.306  1.00  0.00     0.178 C 
ATOM      3  C   UNL     1      26.510  39.564   6.673  1.00  0.00     0.272 C 
ATOM      4  C   UNL     1      25.686  40.522   5.809  1.00  0.00     0.113 C 
ATOM      5  O   UNL     1      25.769  38.586   7.229  1.00  0.00    -0.332 OA
ATOM      6  C   UNL     1      24.574  41.171   6.576  1.00  0.00     0.145 C 
ATOM      7  C   UNL     1      24.246  40.275   7.756  1.00  0.00     0.142 C 
BRANCH   3   8
ATOM      8  O   UNL     1      27.224  40.338   7.562  1.00  0.00    -0.338 OA
BRANCH   8   9
ATOM      9  C   UNL     1      28.298  41.011   7.044  1.00  0.00     0.199 C 
BRANCH   9  10
ATOM     10  C   UNL     1      29.476  41.048   8.006  1.00  0.00     0.179 C 
ATOM     11  C   UNL     1      30.134  39.718   9.807  1.00  0.00     0.282 C 
ATOM     12  O   UNL     1      29.132  40.347   9.125  1.00  0.00    -0.341 OA
ATOM     13  C   UNL     1      30.790  38.752   8.813  1.00  0.00     0.202 C 
ATOM     14  C   UNL     1      31.598  39.664   7.891  1.00  0.00     0.179 C 
ATOM     15  C   UNL     1      30.798  40.818   7.396  1.00  0.00     0.177 C 
BRANCH  11  16
ATOM     16  O   UNL     1      29.625  39.071  10.909  1.00  0.00    -0.341 OA
BRANCH  16  17
ATOM     17  C   UNL     1      28.242  39.131  10.966  1.00  0.00     0.184 C 
ATOM     18  C   UNL     1      27.774  39.686  12.268  1.00  0.00     0.178 C 
ATOM     19  O   UNL     1      27.146  38.825  13.112  1.00  0.00    -0.341 OA
ATOM     20  C   UNL     1      26.223  37.964  12.607  1.00  0.00     0.281 C 
ATOM     21  C   UNL     1      27.618  37.817  10.607  1.00  0.00     0.180 C 
ATOM     22  C   UNL     1      26.205  37.775  11.127  1.00  0.00     0.202 C 
BRANCH  18  23
ATOM     23  C   UNL     1      26.996  40.989  12.081  1.00  0.00     0.191 C 
BRANCH  23  24
ATOM     24  O   UNL     1      26.773  41.256  10.742  1.00  0.00    -0.394 OA
ATOM     25  H   UNL     1      27.267  42.086  10.520  1.00  0.00     0.210 HD
ENDBRANCH  23  24
ENDBRANCH  18  23
BRANCH  20  26
ATOM     26  O   UNL     1      24.968  38.397  13.025  1.00  0.00    -0.350 OA
BRANCH  26  27
ATOM     27  C   UNL     1      24.774  38.339  14.383  1.00  0.00     0.169 C 
BRANCH  27  28
ATOM     28  C   UNL     1      24.015  39.515  14.948  1.00  0.00     0.119 C 
BRANCH  28  29
ATOM     29  N   UNL     1      24.924  40.655  15.051  1.00  0.00    -0.092 NA
ATOM     30  N   UNL     1      25.964  40.594  15.719  1.00  0.00     0.001 N 
ATOM     31  N   UNL     1      26.883  40.423  16.518  1.00  0.00    -0.003 NA
ENDBRANCH  28  29
ENDBRANCH  27  28
ENDBRANCH  26  27
ENDBRANCH  20  26
BRANCH  21  32
ATOM     32  O   UNL     1      27.576  37.606   9.226  1.00  0.00    -0.387 OA
ATOM     33  H   UNL     1      28.281  36.970   8.929  1.00  0.00     0.211 HD
ENDBRANCH  21  32
BRANCH  22  34
ATOM     34  O   UNL     1      25.692  36.509  10.850  1.00  0.00    -0.385 OA
ATOM     35  H   UNL     1      25.327  36.444   9.932  1.00  0.00     0.211 HD
ENDBRANCH  22  34
ENDBRANCH  16  17
ENDBRANCH  11  16
BRANCH  13  36
ATOM     36  O   UNL     1      31.624  37.847   9.423  1.00  0.00    -0.385 OA
ATOM     37  H   UNL     1      31.119  37.081   9.810  1.00  0.00     0.211 HD
ENDBRANCH  13  36
BRANCH  14  38
ATOM     38  O   UNL     1      32.296  38.977   6.924  1.00  0.00    -0.387 OA
ATOM     39  H   UNL     1      32.522  39.563   6.139  1.00  0.00     0.211 HD
ENDBRANCH  14  38
BRANCH  15  40
ATOM     40  O   UNL     1      30.633  40.650   6.004  1.00  0.00    -0.387 OA
ATOM     41  H   UNL     1      30.057  41.378   5.657  1.00  0.00     0.211 HD
ENDBRANCH  15  40
ENDBRANCH   9  10
ENDBRANCH   8   9
ENDBRANCH   3   8
BRANCH   3  42
ATOM     42  C   UNL     1      27.457  38.947   5.691  1.00  0.00     0.364 C 
ATOM     43  O   UNL     1      28.389  38.242   6.217  1.00  0.00    -0.246 OA
BRANCH  42  44
ATOM     44  O   UNL     1      27.393  39.077   4.333  1.00  0.00    -0.477 OA
ATOM     45  H   UNL     1      28.186  39.465   3.830  1.00  0.00     0.296 HD
ENDBRANCH  42  44
ENDBRANCH   3  42
BRANCH   6  46
ATOM     46  O   UNL     1      25.043  42.426   6.993  1.00  0.00    -0.391 OA
ATOM     47  H   UNL     1      24.453  43.150   6.704  1.00  0.00     0.211 HD
ENDBRANCH   6  46
BRANCH   7  48
ATOM     48  N   UNL     1      23.014  40.653   8.377  1.00  0.00    -0.348 N 
ATOM     49  C   UNL     1      22.926  41.536   9.485  1.00  0.00     0.217 C 
ATOM     50  H   UNL     1      22.141  40.259   7.965  1.00  0.00     0.163 HD
ATOM     51  C   UNL     1      21.599  41.859  10.045  1.00  0.00     0.114 C 
ATOM     52  O   UNL     1      23.964  42.031   9.973  1.00  0.00    -0.275 OA
ENDBRANCH   7  48
ENDBRANCH   1   2
BRANCH   1  53
ATOM     53  O   UNL     1      24.804  36.776   8.256  1.00  0.00    -0.388 OA
ATOM     54  H   UNL     1      24.353  35.963   7.947  1.00  0.00     0.211 HD
ENDBRANCH   1  53
BRANCH   1  55
ATOM     55  C   UNL     1      22.537  37.152   7.837  1.00  0.00     0.165 C 
BRANCH  55  56
ATOM     56  O   UNL     1      21.561  38.189   7.867  1.00  0.00    -0.388 OA
ATOM     57  H   UNL     1      21.983  39.011   7.546  1.00  0.00     0.211 HD
ENDBRANCH  55  56
BRANCH  55  58
ATOM     58  C   UNL     1      22.059  36.041   8.674  1.00  0.00     0.154 C 
BRANCH  58  59
ATOM     59  N   UNL     1      22.444  36.067  10.032  1.00  0.00    -0.319 N 
ATOM     60  C   UNL     1      21.834  36.819  11.053  1.00  0.00     0.407 C 
ATOM     61  H   UNL     1      23.284  35.475  10.389  1.00  0.00     0.167 HD
ATOM     62  O   UNL     1      20.855  37.567  10.841  1.00  0.00    -0.225 OA
BRANCH  60  63
ATOM     63  O   UNL     1      22.280  36.780  12.378  1.00  0.00    -0.443 OA
BRANCH  63  64
ATOM     64  C   UNL     1      22.219  35.603  13.155  1.00  0.00     0.294 C 
BRANCH  64  65
ATOM     65  C   UNL     1      23.500  34.858  13.122  1.00  0.00     0.121 A 
ATOM     66  C   UNL     1      24.246  34.446  14.195  1.00  0.00     0.146 A 
ATOM     67  N   UNL     1      24.198  34.460  12.034  1.00  0.00    -0.131 NA
ATOM     68  N   UNL     1      25.387  33.805  13.740  1.00  0.00    -0.202 N 
ATOM     69  N   UNL     1      25.294  33.850  12.445  1.00  0.00    -0.060 NA
BRANCH  68  70
ATOM     70  C   UNL     1      26.313  33.317  14.678  1.00  0.00     0.164 A 
ATOM     71  N   UNL     1      26.014  32.178  15.351  1.00  0.00    -0.193 NA
ATOM     72  C   UNL     1      27.574  33.884  14.916  1.00  0.00     0.026 A 
ATOM     73  C   UNL     1      26.849  31.586  16.207  1.00  0.00     0.222 A 
ATOM     74  C   UNL     1      28.444  33.294  15.783  1.00  0.00     0.081 A 
ATOM     75  N   UNL     1      28.044  32.141  16.415  1.00  0.00    -0.213 NA
BRANCH  72  76
ATOM     76  C   UNL     1      27.821  35.179  14.271  1.00  0.00     0.070 C 
BRANCH  76  77
ATOM     77  C   UNL     1      28.671  35.099  13.021  1.00  0.00     0.165 C 
BRANCH  77  78
ATOM     78  O   UNL     1      29.439  36.183  12.723  1.00  0.00    -0.381 OA
BRANCH  78  79
ATOM     79  C   UNL     1      30.654  36.297  13.329  1.00  0.00     0.156 C 
ATOM     80  C   UNL     1      30.742  37.586  14.165  1.00  0.00     0.035 C 
ENDBRANCH  78  79
ENDBRANCH  77  78
ENDBRANCH  76  77
ENDBRANCH  72  76
BRANCH  73  81
ATOM     81  N   UNL     1      26.484  30.385  16.896  1.00  0.00    -0.368 N 
ATOM     82  H   UNL     1      26.064  30.433  17.846  1.00  0.00     0.159 HD
ATOM     83  H   UNL     1      26.618  29.444  16.490  1.00  0.00     0.159 HD
ENDBRANCH  73  81
BRANCH  74  84
ATOM     84  C   UNL     1      29.769  33.801  16.063  1.00  0.00     0.001 A 
ATOM     85  C   UNL     1      30.842  33.236  15.378  1.00  0.00     0.010 A 
ATOM     86  C   UNL     1      29.998  34.831  16.957  1.00  0.00     0.010 A 
ATOM     87  C   UNL     1      32.141  33.687  15.573  1.00  0.00     0.001 A 
ATOM     88  C   UNL     1      31.291  35.262  17.135  1.00  0.00     0.001 A 
ATOM     89  C   UNL     1      32.354  34.712  16.464  1.00  0.00     0.000 A 
ENDBRANCH  74  84
ENDBRANCH  68  70
ENDBRANCH  64  65
ENDBRANCH  63  64
ENDBRANCH  60  63
ENDBRANCH  58  59
ENDBRANCH  55  58
ENDBRANCH   1  55
TORSDOF 36
BEGIN_RES LYS A 131
REMARK  4 active torsions:
REMARK  status: ('A' for Active; 'I' for Inactive)
REMARK    1  A    between atoms: CA   and  CB  
REMARK    2  A    between atoms: CB   and  CG  
REMARK    3  A    between atoms: CG   and  CD  
REMARK    4  A    between atoms: CD   and  CE  
ROOT
ATOM      1  CA  LYS A 131      29.867  25.555  16.977  1.00 20.52     0.186 C 
ENDROOT
BRANCH   1   2
ATOM      2  CB  LYS A 131      28.345  25.722  17.026  1.00 20.94     0.034 C 
BRANCH   2   3
ATOM      3  CG  LYS A 131      27.601  24.400  16.908  1.00 22.96     0.005 C 
BRANCH   3   4
ATOM      4  CD  LYS A 131      26.486  24.286  17.910  1.00 24.33     0.041 C 
BRANCH   4   5
ATOM      5  CE  LYS A 131      25.671  25.576  17.914  1.00 26.91     0.338 C 
ATOM      6  NZ  LYS A 131      24.332  25.345  17.324  1.00 27.40     0.618 N 
ENDBRANCH   4   5
ENDBRANCH   3   4
ENDBRANCH   2   3
ENDBRANCH   1   2
END_RES LYS A 131
BEGIN_RES LYS A 135
REMARK  4 active torsions:
REMARK  status: ('A' for Active; 'I' for Inactive)
REMARK    5  A    between atoms: CA   and  CB  
REMARK    6  A    between atoms: CB   and  CG  
REMARK    7  A    between atoms: CG   and  CD  
REMARK    8  A    between atoms: CD   and  CE  
ROOT
ATOM      7  CA  LYS A 135      33.193  34.663   9.290  1.00 25.02     0.186 C 
ENDROOT
BRANCH   7   8
ATOM      8  CB  LYS A 135      32.060  35.360  10.034  1.00 26.63     0.034 C 
BRANCH   8   9
ATOM      9  CG  LYS A 135      30.750  34.617   9.970  1.00 29.45     0.005 C 
BRANCH   9  10
ATOM     10  CD  LYS A 135      30.062  34.856   8.635  1.00 32.00     0.041 C 
BRANCH  10  11
ATOM     11  CE  LYS A 135      28.624  34.377   8.684  1.00 34.25     0.338 C 
ATOM     12  NZ  LYS A 135      27.846  34.896   7.525  1.00 35.99     0.618 N 
ENDBRANCH  10  11
ENDBRANCH   9  10
ENDBRANCH   8   9
ENDBRANCH   7   8
END_RES LYS A 135
