REMARK VINA RESULT:    -5.004      6.126     12.765
REMARK INTER + INTRA:         -22.629
REMARK INTER:                 -12.974
REMARK INTRA:                  -9.655
REMARK UNBOUND:               -10.018
REMARK SMILES COc1ccc(-n2cc(COC(=O)NC[C@@H](O)C(O)[C@@H]3O[C@@](OC[C@H]4O[C@@H](O[C@H]5[C@H](O)[C@@H](O)[C@H](OCCN=[N+]=[N-])O[C@@H]5CO)[C@H](O)[C@@H](O)[C@H]4O)(C(=O)O)C[C@H](O)[C@H]3NC(C)=O)nn2)cc1
REMARK SMILES IDX 22 1 54 2 55 3 57 4 20 5 21 6 23 7 24 8 25 9 27 10 26 11
REMARK SMILES IDX 45 12 47 13 49 14 28 15 29 16 42 17 41 18 34 19 30 20 32 21
REMARK SMILES IDX 43 22 44 23 35 25 36 26 37 27 38 28 39 29 40 30 31 31 33 33
REMARK SMILES IDX 46 35 48 37 50 39 51 41 52 42 53 43 56 45 18 47 19 48 16 50
REMARK SMILES IDX 17 51 15 53 14 54 12 55 13 57 11 58 10 59 9 60 8 61 62 62
REMARK SMILES IDX 7 63 63 64 6 65 5 66 64 67 4 68 65 69 3 70 2 71 1 72 58 73
REMARK SMILES IDX 59 74 60 76 61 77
REMARK H PARENT 44 24 31 32 33 34 46 36 48 38 50 40 53 44 56 46 19 49 17 52
REMARK H PARENT 14 56 58 75
REMARK Flexibility Score: inf
ROOT
ATOM      1  C   UNL     1      30.854  28.759  21.819  1.00  0.00     0.272 C 
ATOM      2  C   UNL     1      32.297  29.054  21.994  1.00  0.00     0.113 C 
ATOM      3  C   UNL     1      32.704  30.474  21.962  1.00  0.00     0.145 C 
ATOM      4  C   UNL     1      31.621  31.263  21.199  1.00  0.00     0.142 C 
ATOM      5  C   UNL     1      31.134  30.383  20.103  1.00  0.00     0.178 C 
ATOM      6  O   UNL     1      30.329  29.405  20.685  1.00  0.00    -0.332 OA
ENDROOT
BRANCH   1   7
ATOM      7  O   UNL     1      29.967  28.793  22.764  1.00  0.00    -0.338 OA
BRANCH   7   8
ATOM      8  C   UNL     1      28.835  29.307  23.068  1.00  0.00     0.199 C 
BRANCH   8   9
ATOM      9  C   UNL     1      27.510  28.629  22.868  1.00  0.00     0.179 C 
ATOM     10  C   UNL     1      26.001  27.748  21.396  1.00  0.00     0.282 C 
ATOM     11  O   UNL     1      27.305  28.235  21.590  1.00  0.00    -0.341 OA
ATOM     12  C   UNL     1      25.663  26.567  22.249  1.00  0.00     0.202 C 
ATOM     13  C   UNL     1      26.525  26.362  23.438  1.00  0.00     0.179 C 
ATOM     14  C   UNL     1      27.263  27.553  23.897  1.00  0.00     0.177 C 
BRANCH  10  15
ATOM     15  O   UNL     1      25.897  27.389  20.056  1.00  0.00    -0.341 OA
BRANCH  15  16
ATOM     16  C   UNL     1      25.887  28.464  19.210  1.00  0.00     0.184 C 
ATOM     17  C   UNL     1      24.612  28.597  18.461  1.00  0.00     0.178 C 
ATOM     18  O   UNL     1      24.688  29.664  17.525  1.00  0.00    -0.341 OA
ATOM     19  C   UNL     1      25.572  29.207  16.514  1.00  0.00     0.281 C 
ATOM     20  C   UNL     1      27.049  28.295  18.215  1.00  0.00     0.180 C 
ATOM     21  C   UNL     1      26.956  29.357  17.151  1.00  0.00     0.202 C 
BRANCH  17  22
ATOM     22  C   UNL     1      23.440  28.834  19.376  1.00  0.00     0.191 C 
BRANCH  22  23
ATOM     23  O   UNL     1      23.026  27.623  19.903  1.00  0.00    -0.394 OA
ATOM     24  H   UNL     1      22.213  27.699  20.450  1.00  0.00     0.210 HD
ENDBRANCH  22  23
ENDBRANCH  17  22
BRANCH  19  25
ATOM     25  O   UNL     1      25.449  29.933  15.381  1.00  0.00    -0.350 OA
BRANCH  25  26
ATOM     26  C   UNL     1      24.267  29.950  14.710  1.00  0.00     0.169 C 
BRANCH  26  27
ATOM     27  C   UNL     1      24.280  30.440  13.301  1.00  0.00     0.119 C 
BRANCH  27  28
ATOM     28  N   UNL     1      23.019  30.872  12.777  1.00  0.00    -0.092 NA
ATOM     29  N   UNL     1      22.142  30.067  12.482  1.00  0.00     0.001 N 
ATOM     30  N   UNL     1      21.400  29.150  12.118  1.00  0.00    -0.003 NA
ENDBRANCH  27  28
ENDBRANCH  26  27
ENDBRANCH  25  26
ENDBRANCH  19  25
BRANCH  20  31
ATOM     31  O   UNL     1      28.242  28.358  18.911  1.00  0.00    -0.387 OA
ATOM     32  H   UNL     1      28.710  27.477  18.768  1.00  0.00     0.211 HD
ENDBRANCH  20  31
BRANCH  21  33
ATOM     33  O   UNL     1      27.900  29.143  16.172  1.00  0.00    -0.385 OA
ATOM     34  H   UNL     1      28.718  29.673  16.336  1.00  0.00     0.211 HD
ENDBRANCH  21  33
ENDBRANCH  15  16
ENDBRANCH  10  15
BRANCH  12  35
ATOM     35  O   UNL     1      24.339  26.632  22.716  1.00  0.00    -0.385 OA
ATOM     36  H   UNL     1      23.814  27.297  22.217  1.00  0.00     0.211 HD
ENDBRANCH  12  35
BRANCH  13  37
ATOM     37  O   UNL     1      27.336  25.236  23.256  1.00  0.00    -0.387 OA
ATOM     38  H   UNL     1      27.800  24.957  24.072  1.00  0.00     0.211 HD
ENDBRANCH  13  37
BRANCH  14  39
ATOM     39  O   UNL     1      28.451  27.139  24.506  1.00  0.00    -0.387 OA
ATOM     40  H   UNL     1      28.204  26.766  25.390  1.00  0.00     0.211 HD
ENDBRANCH  14  39
ENDBRANCH   8   9
ENDBRANCH   7   8
ENDBRANCH   1   7
BRANCH   1  41
ATOM     41  C   UNL     1      30.874  27.284  21.307  1.00  0.00     0.364 C 
ATOM     42  O   UNL     1      31.896  26.603  21.409  1.00  0.00    -0.246 OA
BRANCH  41  43
ATOM     43  O   UNL     1      29.707  26.820  20.753  1.00  0.00    -0.477 OA
ATOM     44  H   UNL     1      28.997  27.460  20.369  1.00  0.00     0.296 HD
ENDBRANCH  41  43
ENDBRANCH   1  41
BRANCH   3  45
ATOM     45  O   UNL     1      33.026  31.054  23.154  1.00  0.00    -0.391 OA
ATOM     46  H   UNL     1      32.786  30.547  23.962  1.00  0.00     0.211 HD
ENDBRANCH   3  45
BRANCH   5  47
ATOM     47  C   UNL     1      30.206  31.108  19.100  1.00  0.00     0.176 C 
BRANCH  47  48
ATOM     48  O   UNL     1      30.094  30.403  17.942  1.00  0.00    -0.388 OA
ATOM     49  H   UNL     1      30.285  29.451  18.115  1.00  0.00     0.211 HD
ENDBRANCH  47  48
BRANCH  47  50
ATOM     50  C   UNL     1      29.075  31.732  19.741  1.00  0.00     0.165 C 
BRANCH  50  51
ATOM     51  O   UNL     1      28.090  30.851  20.269  1.00  0.00    -0.388 OA
ATOM     52  H   UNL     1      27.242  31.329  20.185  1.00  0.00     0.211 HD
ENDBRANCH  50  51
BRANCH  50  53
ATOM     53  C   UNL     1      28.300  32.847  19.172  1.00  0.00     0.154 C 
BRANCH  53  54
ATOM     54  N   UNL     1      28.865  33.632  18.170  1.00  0.00    -0.319 N 
ATOM     55  C   UNL     1      28.868  33.366  16.793  1.00  0.00     0.407 C 
ATOM     56  H   UNL     1      29.356  34.544  18.466  1.00  0.00     0.167 HD
ATOM     57  O   UNL     1      28.320  32.360  16.315  1.00  0.00    -0.225 OA
BRANCH  55  58
ATOM     58  O   UNL     1      29.514  34.270  15.919  1.00  0.00    -0.443 OA
BRANCH  58  59
ATOM     59  C   UNL     1      29.898  33.784  14.657  1.00  0.00     0.294 C 
BRANCH  59  60
ATOM     60  C   UNL     1      29.356  34.663  13.594  1.00  0.00     0.121 A 
ATOM     61  C   UNL     1      28.369  34.418  12.659  1.00  0.00     0.144 A 
ATOM     62  N   UNL     1      29.767  35.928  13.381  1.00  0.00    -0.131 NA
ATOM     63  N   UNL     1      28.223  35.528  11.927  1.00  0.00    -0.220 N 
ATOM     64  N   UNL     1      29.089  36.437  12.387  1.00  0.00    -0.062 NA
BRANCH  63  65
ATOM     65  C   UNL     1      27.357  35.840  10.846  1.00  0.00     0.067 A 
ATOM     66  C   UNL     1      26.832  34.911   9.989  1.00  0.00     0.032 A 
ATOM     67  C   UNL     1      27.019  37.174  10.623  1.00  0.00     0.032 A 
ATOM     68  C   UNL     1      26.000  35.286   8.944  1.00  0.00     0.048 A 
ATOM     69  C   UNL     1      26.191  37.548   9.583  1.00  0.00     0.048 A 
ATOM     70  C   UNL     1      25.663  36.610   8.721  1.00  0.00     0.119 A 
BRANCH  70  71
ATOM     71  O   UNL     1      24.818  36.977   7.656  1.00  0.00    -0.497 OA
ATOM     72  C   UNL     1      23.653  37.747   7.988  1.00  0.00     0.278 C 
ENDBRANCH  70  71
ENDBRANCH  63  65
ENDBRANCH  59  60
ENDBRANCH  58  59
ENDBRANCH  55  58
ENDBRANCH  53  54
ENDBRANCH  50  53
ENDBRANCH  47  50
ENDBRANCH   5  47
BRANCH   4  73
ATOM     73  N   UNL     1      32.155  32.548  20.845  1.00  0.00    -0.348 N 
ATOM     74  C   UNL     1      31.615  33.744  21.385  1.00  0.00     0.217 C 
ATOM     75  H   UNL     1      32.968  32.602  20.207  1.00  0.00     0.163 HD
ATOM     76  C   UNL     1      32.186  35.061  21.001  1.00  0.00     0.114 C 
ATOM     77  O   UNL     1      30.651  33.750  22.194  1.00  0.00    -0.275 OA
ENDBRANCH   4  73
TORSDOF 31
BEGIN_RES LYS A 131
REMARK  4 active torsions:
REMARK  status: ('A' for Active; 'I' for Inactive)
REMARK    1  A    between atoms: CA   and  CB  
REMARK    2  A    between atoms: CB   and  CG  
REMARK    3  A    between atoms: CG   and  CD  
REMARK    4  A    between atoms: CD   and  CE  
ROOT
ATOM      1  CA  LYS A 131      29.867  25.555  16.977  1.00 20.52     0.186 C 
ENDROOT
BRANCH   1   2
ATOM      2  CB  LYS A 131      28.345  25.722  17.026  1.00 20.94     0.034 C 
BRANCH   2   3
ATOM      3  CG  LYS A 131      27.607  24.394  17.099  1.00 22.96     0.005 C 
BRANCH   3   4
ATOM      4  CD  LYS A 131      26.130  24.578  17.310  1.00 24.33     0.041 C 
BRANCH   4   5
ATOM      5  CE  LYS A 131      25.617  23.515  18.276  1.00 26.91     0.338 C 
ATOM      6  NZ  LYS A 131      25.112  22.337  17.531  1.00 27.40     0.618 N 
ENDBRANCH   4   5
ENDBRANCH   3   4
ENDBRANCH   2   3
ENDBRANCH   1   2
END_RES LYS A 131
BEGIN_RES LYS A 135
REMARK  4 active torsions:
REMARK  status: ('A' for Active; 'I' for Inactive)
REMARK    5  A    between atoms: CA   and  CB  
REMARK    6  A    between atoms: CB   and  CG  
REMARK    7  A    between atoms: CG   and  CD  
REMARK    8  A    between atoms: CD   and  CE  
ROOT
ATOM      7  CA  LYS A 135      33.193  34.663   9.290  1.00 25.02     0.186 C 
ENDROOT
BRANCH   7   8
ATOM      8  CB  LYS A 135      32.060  35.360  10.034  1.00 26.63     0.034 C 
BRANCH   8   9
ATOM      9  CG  LYS A 135      30.745  35.323   9.300  1.00 29.45     0.005 C 
BRANCH   9  10
ATOM     10  CD  LYS A 135      30.342  36.718   8.849  1.00 32.00     0.041 C 
BRANCH  10  11
ATOM     11  CE  LYS A 135      29.336  36.643   7.716  1.00 34.25     0.338 C 
ATOM     12  NZ  LYS A 135      29.193  35.246   7.218  1.00 35.99     0.618 N 
ENDBRANCH  10  11
ENDBRANCH   9  10
ENDBRANCH   8   9
ENDBRANCH   7   8
END_RES LYS A 135
