REMARK VINA RESULT:    -5.162      4.868     11.074
REMARK INTER + INTRA:         -22.427
REMARK INTER:                 -12.360
REMARK INTRA:                 -10.067
REMARK UNBOUND:                -9.116
REMARK SMILES CC(=O)N[C@@H]1[C@@H](O)C[C@](OC[C@H]2O[C@@H](O[C@H]3[C@H](O)[C@@H](O)[C@H](OCCN=[N+]=[N-])O[C@@H]3CO)[C@H](O)[C@@H](O)[C@H]2O)(C(=O)O)O[C@H]1C(O)[C@H](O)CNC(=O)OCc1cn(CCC2OCCO2)nn1
REMARK SMILES IDX 9 1 8 2 6 3 5 4 42 5 41 6 10 7 11 8 12 9 14 10 13 11 32 12
REMARK SMILES IDX 34 13 36 14 15 15 16 16 29 17 28 18 21 19 17 20 19 21 30 22
REMARK SMILES IDX 31 23 22 25 23 26 24 27 25 28 26 29 27 30 18 31 20 33 33 35
REMARK SMILES IDX 35 37 37 39 38 41 39 42 40 43 7 45 43 47 44 48 45 50 46 51
REMARK SMILES IDX 47 53 48 54 49 55 50 57 51 58 52 59 53 60 54 61 64 62 55 63
REMARK SMILES IDX 63 64 56 65 57 66 58 67 59 68 62 69 60 70 61 71 4 72 2 73
REMARK SMILES IDX 1 75 3 76
REMARK H PARENT 31 24 18 32 20 34 33 36 35 38 37 40 40 44 7 46 44 49 46 52
REMARK H PARENT 48 56 4 74
REMARK Flexibility Score: inf
ROOT
ATOM      1  C   UNL     1      28.685  35.572   8.082  1.00  0.00     0.272 C 
ATOM      2  C   UNL     1      28.710  36.464   9.378  1.00  0.00     0.113 C 
ATOM      3  C   UNL     1      29.904  37.320   9.412  1.00  0.00     0.145 C 
ATOM      4  C   UNL     1      29.932  38.208   8.184  1.00  0.00     0.142 C 
ATOM      5  C   UNL     1      29.127  37.648   7.061  1.00  0.00     0.178 C 
ATOM      6  O   UNL     1      29.023  36.305   6.972  1.00  0.00    -0.332 OA
ENDROOT
BRANCH   1   7
ATOM      7  O   UNL     1      27.410  35.187   8.023  1.00  0.00    -0.338 OA
BRANCH   7   8
ATOM      8  C   UNL     1      26.435  35.401   8.877  1.00  0.00     0.199 C 
BRANCH   8   9
ATOM      9  C   UNL     1      25.192  36.139   8.496  1.00  0.00     0.179 C 
ATOM     10  C   UNL     1      22.905  36.213   8.986  1.00  0.00     0.282 C 
ATOM     11  O   UNL     1      24.077  35.486   8.968  1.00  0.00    -0.341 OA
ATOM     12  C   UNL     1      22.921  37.489   8.230  1.00  0.00     0.202 C 
ATOM     13  C   UNL     1      24.139  38.335   8.486  1.00  0.00     0.179 C 
ATOM     14  C   UNL     1      25.165  37.520   9.198  1.00  0.00     0.177 C 
BRANCH  10  15
ATOM     15  O   UNL     1      22.464  36.300  10.307  1.00  0.00    -0.341 OA
BRANCH  15  16
ATOM     16  C   UNL     1      22.061  35.085  10.842  1.00  0.00     0.184 C 
ATOM     17  C   UNL     1      20.641  35.059  11.317  1.00  0.00     0.178 C 
ATOM     18  O   UNL     1      20.358  33.760  11.747  1.00  0.00    -0.341 OA
ATOM     19  C   UNL     1      21.056  33.395  12.889  1.00  0.00     0.281 C 
ATOM     20  C   UNL     1      22.910  34.789  12.112  1.00  0.00     0.180 C 
ATOM     21  C   UNL     1      22.531  33.365  12.499  1.00  0.00     0.202 C 
BRANCH  17  22
ATOM     22  C   UNL     1      19.712  35.310  10.143  1.00  0.00     0.191 C 
BRANCH  22  23
ATOM     23  O   UNL     1      19.565  36.718  10.080  1.00  0.00    -0.394 OA
ATOM     24  H   UNL     1      19.226  37.099  10.917  1.00  0.00     0.210 HD
ENDBRANCH  22  23
ENDBRANCH  17  22
BRANCH  19  25
ATOM     25  O   UNL     1      20.629  32.161  13.293  1.00  0.00    -0.350 OA
BRANCH  25  26
ATOM     26  C   UNL     1      20.059  31.376  12.332  1.00  0.00     0.169 C 
BRANCH  26  27
ATOM     27  C   UNL     1      20.629  29.978  12.231  1.00  0.00     0.119 C 
BRANCH  27  28
ATOM     28  N   UNL     1      21.663  29.786  13.232  1.00  0.00    -0.092 NA
ATOM     29  N   UNL     1      22.861  29.768  12.959  1.00  0.00     0.001 N 
ATOM     30  N   UNL     1      24.071  29.898  12.802  1.00  0.00    -0.003 NA
ENDBRANCH  27  28
ENDBRANCH  26  27
ENDBRANCH  25  26
ENDBRANCH  19  25
BRANCH  20  31
ATOM     31  O   UNL     1      24.239  34.853  11.772  1.00  0.00    -0.387 OA
ATOM     32  H   UNL     1      24.522  35.808  11.769  1.00  0.00     0.211 HD
ENDBRANCH  20  31
BRANCH  21  33
ATOM     33  O   UNL     1      23.341  32.995  13.551  1.00  0.00    -0.385 OA
ATOM     34  H   UNL     1      22.765  32.804  14.334  1.00  0.00     0.211 HD
ENDBRANCH  21  33
ENDBRANCH  15  16
ENDBRANCH  10  15
BRANCH  12  35
ATOM     35  O   UNL     1      22.783  37.212   6.846  1.00  0.00    -0.385 OA
ATOM     36  H   UNL     1      21.867  36.838   6.752  1.00  0.00     0.211 HD
ENDBRANCH  12  35
BRANCH  13  37
ATOM     37  O   UNL     1      23.822  39.516   9.156  1.00  0.00    -0.387 OA
ATOM     38  H   UNL     1      24.639  40.080   9.173  1.00  0.00     0.211 HD
ENDBRANCH  13  37
BRANCH  14  39
ATOM     39  O   UNL     1      24.908  37.329  10.539  1.00  0.00    -0.387 OA
ATOM     40  H   UNL     1      25.392  37.954  11.136  1.00  0.00     0.211 HD
ENDBRANCH  14  39
ENDBRANCH   8   9
ENDBRANCH   7   8
ENDBRANCH   1   7
BRANCH   1  41
ATOM     41  C   UNL     1      29.758  34.609   8.329  1.00  0.00     0.364 C 
ATOM     42  O   UNL     1      29.555  33.637   9.168  1.00  0.00    -0.246 OA
BRANCH  41  43
ATOM     43  O   UNL     1      31.017  34.568   7.775  1.00  0.00    -0.477 OA
ATOM     44  H   UNL     1      31.516  35.428   7.594  1.00  0.00     0.296 HD
ENDBRANCH  41  43
ENDBRANCH   1  41
BRANCH   3  45
ATOM     45  O   UNL     1      29.786  38.125  10.582  1.00  0.00    -0.391 OA
ATOM     46  H   UNL     1      29.669  37.481  11.346  1.00  0.00     0.211 HD
ENDBRANCH   3  45
BRANCH   5  47
ATOM     47  C   UNL     1      27.833  38.394   6.931  1.00  0.00     0.176 C 
BRANCH  47  48
ATOM     48  O   UNL     1      28.003  39.787   6.915  1.00  0.00    -0.388 OA
ATOM     49  H   UNL     1      28.216  40.108   5.991  1.00  0.00     0.211 HD
ENDBRANCH  47  48
BRANCH  47  50
ATOM     50  C   UNL     1      27.200  38.107   5.540  1.00  0.00     0.165 C 
BRANCH  50  51
ATOM     51  O   UNL     1      26.973  36.755   5.438  1.00  0.00    -0.388 OA
ATOM     52  H   UNL     1      26.427  36.385   6.155  1.00  0.00     0.211 HD
ENDBRANCH  50  51
BRANCH  50  53
ATOM     53  C   UNL     1      28.045  38.740   4.511  1.00  0.00     0.154 C 
BRANCH  53  54
ATOM     54  N   UNL     1      27.443  39.912   3.959  1.00  0.00    -0.319 N 
ATOM     55  C   UNL     1      28.018  41.182   3.972  1.00  0.00     0.407 C 
ATOM     56  H   UNL     1      26.499  39.791   3.513  1.00  0.00     0.167 HD
ATOM     57  O   UNL     1      29.126  41.383   4.495  1.00  0.00    -0.225 OA
BRANCH  55  58
ATOM     58  O   UNL     1      27.404  42.310   3.409  1.00  0.00    -0.443 OA
BRANCH  58  59
ATOM     59  C   UNL     1      26.193  42.820   3.938  1.00  0.00     0.294 C 
BRANCH  59  60
ATOM     60  C   UNL     1      25.975  42.430   5.350  1.00  0.00     0.120 A 
ATOM     61  C   UNL     1      26.408  43.163   6.459  1.00  0.00     0.138 A 
ATOM     62  N   UNL     1      25.358  41.358   5.869  1.00  0.00    -0.132 NA
ATOM     63  N   UNL     1      26.038  42.511   7.595  1.00  0.00    -0.252 N 
ATOM     64  N   UNL     1      25.407  41.427   7.207  1.00  0.00    -0.067 NA
BRANCH  63  65
ATOM     65  C   UNL     1      26.334  43.022   8.926  1.00  0.00     0.151 C 
BRANCH  65  66
ATOM     66  C   UNL     1      25.159  42.777   9.863  1.00  0.00     0.086 C 
BRANCH  66  67
ATOM     67  C   UNL     1      25.548  41.890  11.011  1.00  0.00     0.251 C 
ATOM     68  O   UNL     1      26.118  40.717  10.515  1.00  0.00    -0.350 OA
ATOM     69  O   UNL     1      26.504  42.446  11.838  1.00  0.00    -0.350 OA
ATOM     70  C   UNL     1      26.810  40.179  11.593  1.00  0.00     0.192 C 
ATOM     71  C   UNL     1      26.868  41.312  12.603  1.00  0.00     0.192 C 
ENDBRANCH  66  67
ENDBRANCH  65  66
ENDBRANCH  63  65
ENDBRANCH  59  60
ENDBRANCH  58  59
ENDBRANCH  55  58
ENDBRANCH  53  54
ENDBRANCH  50  53
ENDBRANCH  47  50
ENDBRANCH   5  47
BRANCH   4  72
ATOM     72  N   UNL     1      31.309  38.515   7.803  1.00  0.00    -0.348 N 
ATOM     73  C   UNL     1      31.728  39.780   7.378  1.00  0.00     0.217 C 
ATOM     74  H   UNL     1      32.003  37.714   7.864  1.00  0.00     0.163 HD
ATOM     75  C   UNL     1      33.160  40.016   7.003  1.00  0.00     0.114 C 
ATOM     76  O   UNL     1      30.863  40.696   7.324  1.00  0.00    -0.275 OA
ENDBRANCH   4  72
TORSDOF 32
BEGIN_RES LYS A 131
REMARK  4 active torsions:
REMARK  status: ('A' for Active; 'I' for Inactive)
REMARK    1  A    between atoms: CA   and  CB  
REMARK    2  A    between atoms: CB   and  CG  
REMARK    3  A    between atoms: CG   and  CD  
REMARK    4  A    between atoms: CD   and  CE  
ROOT
ATOM      1  CA  LYS A 131      29.867  25.555  16.977  1.00 20.52     0.186 C 
ENDROOT
BRANCH   1   2
ATOM      2  CB  LYS A 131      28.345  25.722  17.026  1.00 20.94     0.034 C 
BRANCH   2   3
ATOM      3  CG  LYS A 131      27.599  24.481  16.560  1.00 22.96     0.005 C 
BRANCH   3   4
ATOM      4  CD  LYS A 131      26.850  23.816  17.681  1.00 24.33     0.041 C 
BRANCH   4   5
ATOM      5  CE  LYS A 131      25.366  23.750  17.333  1.00 26.91     0.338 C 
ATOM      6  NZ  LYS A 131      24.795  22.445  17.741  1.00 27.40     0.618 N 
ENDBRANCH   4   5
ENDBRANCH   3   4
ENDBRANCH   2   3
ENDBRANCH   1   2
END_RES LYS A 131
BEGIN_RES LYS A 135
REMARK  4 active torsions:
REMARK  status: ('A' for Active; 'I' for Inactive)
REMARK    5  A    between atoms: CA   and  CB  
REMARK    6  A    between atoms: CB   and  CG  
REMARK    7  A    between atoms: CG   and  CD  
REMARK    8  A    between atoms: CD   and  CE  
ROOT
ATOM      7  CA  LYS A 135      33.193  34.663   9.290  1.00 25.02     0.186 C 
ENDROOT
BRANCH   7   8
ATOM      8  CB  LYS A 135      32.060  35.360  10.034  1.00 26.63     0.034 C 
BRANCH   8   9
ATOM      9  CG  LYS A 135      32.524  36.166  11.220  1.00 29.45     0.005 C 
BRANCH   9  10
ATOM     10  CD  LYS A 135      31.699  35.831  12.453  1.00 32.00     0.041 C 
BRANCH  10  11
ATOM     11  CE  LYS A 135      30.660  34.775  12.127  1.00 34.25     0.338 C 
ATOM     12  NZ  LYS A 135      29.339  35.122  12.721  1.00 35.99     0.618 N 
ENDBRANCH  10  11
ENDBRANCH   9  10
ENDBRANCH   8   9
ENDBRANCH   7   8
END_RES LYS A 135
