REMARK VINA RESULT:    -4.493      3.286      5.306
REMARK INTER + INTRA:         -21.600
REMARK INTER:                 -11.059
REMARK INTRA:                 -10.541
REMARK UNBOUND:               -10.541
REMARK SMILES CC(=O)N[C@@H]1[C@@H](O)C[C@](OC[C@H]2O[C@@H](O[C@H]3[C@H](O)[C@@H](O)[C@H](OCCN=[N+]=[N-])O[C@@H]3CO)[C@H](O)[C@@H](O)[C@H]2O)(C(=O)O)O[C@H]1C(O)[C@H](O)CNC(=O)OCc1cn(-c2ccccc2)nn1
REMARK SMILES IDX 9 1 8 2 6 3 5 4 42 5 41 6 10 7 11 8 12 9 14 10 13 11 32 12
REMARK SMILES IDX 34 13 36 14 15 15 16 16 29 17 28 18 21 19 17 20 19 21 30 22
REMARK SMILES IDX 31 23 22 25 23 26 24 27 25 28 26 29 27 30 18 31 20 33 33 35
REMARK SMILES IDX 35 37 37 39 38 41 39 42 40 43 7 45 43 47 44 48 45 50 46 51
REMARK SMILES IDX 47 53 48 54 49 55 50 57 51 58 52 59 53 60 54 61 63 62 55 63
REMARK SMILES IDX 62 64 56 65 57 66 61 67 58 68 60 69 59 70 4 71 2 72 1 74
REMARK SMILES IDX 3 75
REMARK H PARENT 31 24 18 32 20 34 33 36 35 38 37 40 40 44 7 46 44 49 46 52
REMARK H PARENT 48 56 4 73
REMARK Flexibility Score: inf
ROOT
ATOM      1  C   UNL     1      30.391  32.419  17.997  1.00  0.00     0.272 C 
ATOM      2  C   UNL     1      30.374  31.031  18.521  1.00  0.00     0.113 C 
ATOM      3  C   UNL     1      29.083  30.590  19.102  1.00  0.00     0.145 C 
ATOM      4  C   UNL     1      27.923  31.069  18.248  1.00  0.00     0.142 C 
ATOM      5  C   UNL     1      28.042  32.575  18.189  1.00  0.00     0.178 C 
ATOM      6  O   UNL     1      29.149  32.828  17.422  1.00  0.00    -0.332 OA
ENDROOT
BRANCH   1   7
ATOM      7  O   UNL     1      31.261  32.647  16.972  1.00  0.00    -0.338 OA
BRANCH   7   8
ATOM      8  C   UNL     1      30.960  32.532  15.692  1.00  0.00     0.199 C 
BRANCH   8   9
ATOM      9  C   UNL     1      31.181  33.610  14.703  1.00  0.00     0.179 C 
ATOM     10  C   UNL     1      29.946  34.888  13.191  1.00  0.00     0.282 C 
ATOM     11  O   UNL     1      29.931  33.744  14.018  1.00  0.00    -0.341 OA
ATOM     12  C   UNL     1      31.280  35.551  13.083  1.00  0.00     0.202 C 
ATOM     13  C   UNL     1      31.796  35.971  14.442  1.00  0.00     0.179 C 
ATOM     14  C   UNL     1      31.372  34.939  15.445  1.00  0.00     0.177 C 
BRANCH  10  15
ATOM     15  O   UNL     1      29.054  35.766  13.688  1.00  0.00    -0.341 OA
BRANCH  15  16
ATOM     16  C   UNL     1      28.385  36.632  12.905  1.00  0.00     0.184 C 
ATOM     17  C   UNL     1      27.170  37.269  13.538  1.00  0.00     0.178 C 
ATOM     18  O   UNL     1      26.340  37.649  12.465  1.00  0.00    -0.341 OA
ATOM     19  C   UNL     1      25.629  36.479  12.121  1.00  0.00     0.281 C 
ATOM     20  C   UNL     1      27.961  36.024  11.568  1.00  0.00     0.180 C 
ATOM     21  C   UNL     1      26.592  35.389  11.697  1.00  0.00     0.202 C 
BRANCH  17  22
ATOM     22  C   UNL     1      27.509  38.534  14.296  1.00  0.00     0.191 C 
BRANCH  22  23
ATOM     23  O   UNL     1      28.806  38.409  14.803  1.00  0.00    -0.394 OA
ATOM     24  H   UNL     1      28.874  38.792  15.733  1.00  0.00     0.210 HD
ENDBRANCH  22  23
ENDBRANCH  17  22
BRANCH  19  25
ATOM     25  O   UNL     1      24.737  36.693  11.115  1.00  0.00    -0.350 OA
BRANCH  25  26
ATOM     26  C   UNL     1      24.627  37.962  10.618  1.00  0.00     0.169 C 
BRANCH  26  27
ATOM     27  C   UNL     1      24.815  38.088   9.139  1.00  0.00     0.119 C 
BRANCH  27  28
ATOM     28  N   UNL     1      26.161  38.363   8.793  1.00  0.00    -0.092 NA
ATOM     29  N   UNL     1      26.468  38.917   7.721  1.00  0.00     0.001 N 
ATOM     30  N   UNL     1      26.604  39.152   6.510  1.00  0.00    -0.003 NA
ENDBRANCH  27  28
ENDBRANCH  26  27
ENDBRANCH  25  26
ENDBRANCH  19  25
BRANCH  20  31
ATOM     31  O   UNL     1      27.882  36.961  10.546  1.00  0.00    -0.387 OA
ATOM     32  H   UNL     1      28.666  36.913   9.947  1.00  0.00     0.211 HD
ENDBRANCH  20  31
BRANCH  21  33
ATOM     33  O   UNL     1      26.576  34.340  12.594  1.00  0.00    -0.385 OA
ATOM     34  H   UNL     1      25.676  34.113  12.920  1.00  0.00     0.211 HD
ENDBRANCH  21  33
ENDBRANCH  15  16
ENDBRANCH  10  15
BRANCH  12  35
ATOM     35  O   UNL     1      32.213  34.863  12.319  1.00  0.00    -0.385 OA
ATOM     36  H   UNL     1      31.820  34.730  11.419  1.00  0.00     0.211 HD
ENDBRANCH  12  35
BRANCH  13  37
ATOM     37  O   UNL     1      31.220  37.181  14.780  1.00  0.00    -0.387 OA
ATOM     38  H   UNL     1      31.134  37.333  15.755  1.00  0.00     0.211 HD
ENDBRANCH  13  37
BRANCH  14  39
ATOM     39  O   UNL     1      30.104  35.251  15.989  1.00  0.00    -0.387 OA
ATOM     40  H   UNL     1      29.411  34.654  15.642  1.00  0.00     0.211 HD
ENDBRANCH  14  39
ENDBRANCH   8   9
ENDBRANCH   7   8
ENDBRANCH   1   7
BRANCH   1  41
ATOM     41  C   UNL     1      30.537  33.377  19.117  1.00  0.00     0.364 C 
ATOM     42  O   UNL     1      30.837  33.011  20.252  1.00  0.00    -0.246 OA
BRANCH  41  43
ATOM     43  O   UNL     1      30.327  34.755  18.900  1.00  0.00    -0.477 OA
ATOM     44  H   UNL     1      30.004  35.052  17.981  1.00  0.00     0.296 HD
ENDBRANCH  41  43
ENDBRANCH   1  41
BRANCH   3  45
ATOM     45  O   UNL     1      29.079  29.204  19.237  1.00  0.00    -0.391 OA
ATOM     46  H   UNL     1      28.156  28.909  19.150  1.00  0.00     0.211 HD
ENDBRANCH   3  45
BRANCH   5  47
ATOM     47  C   UNL     1      26.856  33.191  17.453  1.00  0.00     0.176 C 
BRANCH  47  48
ATOM     48  O   UNL     1      26.809  34.521  17.774  1.00  0.00    -0.388 OA
ATOM     49  H   UNL     1      27.349  34.774  18.554  1.00  0.00     0.211 HD
ENDBRANCH  47  48
BRANCH  47  50
ATOM     50  C   UNL     1      26.807  32.951  16.002  1.00  0.00     0.165 C 
BRANCH  50  51
ATOM     51  O   UNL     1      27.270  34.156  15.384  1.00  0.00    -0.388 OA
ATOM     52  H   UNL     1      26.483  34.719  15.271  1.00  0.00     0.211 HD
ENDBRANCH  50  51
BRANCH  50  53
ATOM     53  C   UNL     1      25.363  32.827  15.488  1.00  0.00     0.154 C 
BRANCH  53  54
ATOM     54  N   UNL     1      25.125  31.557  14.850  1.00  0.00    -0.319 N 
ATOM     55  C   UNL     1      24.599  31.471  13.514  1.00  0.00     0.407 C 
ATOM     56  H   UNL     1      25.319  30.642  15.308  1.00  0.00     0.167 HD
ATOM     57  O   UNL     1      24.343  32.506  12.858  1.00  0.00    -0.225 OA
BRANCH  55  58
ATOM     58  O   UNL     1      24.367  30.244  12.919  1.00  0.00    -0.443 OA
BRANCH  58  59
ATOM     59  C   UNL     1      23.570  29.252  13.556  1.00  0.00     0.294 C 
BRANCH  59  60
ATOM     60  C   UNL     1      22.177  29.789  13.545  1.00  0.00     0.121 A 
ATOM     61  C   UNL     1      21.401  29.872  12.397  1.00  0.00     0.144 A 
ATOM     62  N   UNL     1      21.415  30.271  14.530  1.00  0.00    -0.131 NA
ATOM     63  N   UNL     1      20.192  30.401  12.719  1.00  0.00    -0.220 N 
ATOM     64  N   UNL     1      20.236  30.629  14.012  1.00  0.00    -0.062 NA
BRANCH  63  65
ATOM     65  C   UNL     1      19.113  30.656  11.834  1.00  0.00     0.066 A 
ATOM     66  C   UNL     1      18.657  31.931  11.595  1.00  0.00     0.028 A 
ATOM     67  C   UNL     1      18.497  29.611  11.181  1.00  0.00     0.028 A 
ATOM     68  C   UNL     1      17.613  32.188  10.731  1.00  0.00     0.002 A 
ATOM     69  C   UNL     1      17.447  29.873  10.313  1.00  0.00     0.002 A 
ATOM     70  C   UNL     1      16.978  31.140  10.063  1.00  0.00     0.000 A 
ENDBRANCH  63  65
ENDBRANCH  59  60
ENDBRANCH  58  59
ENDBRANCH  55  58
ENDBRANCH  53  54
ENDBRANCH  50  53
ENDBRANCH  47  50
ENDBRANCH   5  47
BRANCH   4  71
ATOM     71  N   UNL     1      26.680  30.550  18.696  1.00  0.00    -0.348 N 
ATOM     72  C   UNL     1      25.939  29.694  17.840  1.00  0.00     0.217 C 
ATOM     73  H   UNL     1      26.294  30.759  19.635  1.00  0.00     0.163 HD
ATOM     74  C   UNL     1      24.628  29.132  18.286  1.00  0.00     0.114 C 
ATOM     75  O   UNL     1      26.346  29.372  16.682  1.00  0.00    -0.275 OA
ENDBRANCH   4  71
TORSDOF 30
BEGIN_RES LYS A 131
REMARK  4 active torsions:
REMARK  status: ('A' for Active; 'I' for Inactive)
REMARK    1  A    between atoms: CA   and  CB  
REMARK    2  A    between atoms: CB   and  CG  
REMARK    3  A    between atoms: CG   and  CD  
REMARK    4  A    between atoms: CD   and  CE  
ROOT
ATOM      1  CA  LYS A 131      29.867  25.555  16.977  1.00 20.52     0.186 C 
ENDROOT
BRANCH   1   2
ATOM      2  CB  LYS A 131      28.345  25.722  17.026  1.00 20.94     0.034 C 
BRANCH   2   3
ATOM      3  CG  LYS A 131      27.602  24.397  16.945  1.00 22.96     0.005 C 
BRANCH   3   4
ATOM      4  CD  LYS A 131      26.602  24.240  18.057  1.00 24.33     0.041 C 
BRANCH   4   5
ATOM      5  CE  LYS A 131      26.361  25.592  18.720  1.00 26.91     0.338 C 
ATOM      6  NZ  LYS A 131      25.465  25.444  19.891  1.00 27.40     0.618 N 
ENDBRANCH   4   5
ENDBRANCH   3   4
ENDBRANCH   2   3
ENDBRANCH   1   2
END_RES LYS A 131
BEGIN_RES LYS A 135
REMARK  4 active torsions:
REMARK  status: ('A' for Active; 'I' for Inactive)
REMARK    5  A    between atoms: CA   and  CB  
REMARK    6  A    between atoms: CB   and  CG  
REMARK    7  A    between atoms: CG   and  CD  
REMARK    8  A    between atoms: CD   and  CE  
ROOT
ATOM      7  CA  LYS A 135      33.193  34.663   9.290  1.00 25.02     0.186 C 
ENDROOT
BRANCH   7   8
ATOM      8  CB  LYS A 135      32.060  35.360  10.034  1.00 26.63     0.034 C 
BRANCH   8   9
ATOM      9  CG  LYS A 135      30.801  35.503   9.218  1.00 29.45     0.005 C 
BRANCH   9  10
ATOM     10  CD  LYS A 135      30.303  34.142   8.757  1.00 32.00     0.041 C 
BRANCH  10  11
ATOM     11  CE  LYS A 135      28.789  34.130   8.673  1.00 34.25     0.338 C 
ATOM     12  NZ  LYS A 135      28.300  35.103   7.657  1.00 35.99     0.618 N 
ENDBRANCH  10  11
ENDBRANCH   9  10
ENDBRANCH   8   9
ENDBRANCH   7   8
END_RES LYS A 135
