REMARK VINA RESULT:    -4.406      3.740      6.253
REMARK INTER + INTRA:         -21.510
REMARK INTER:                  -8.846
REMARK INTRA:                 -12.663
REMARK UNBOUND:               -10.664
REMARK SMILES CC(=O)N[C@@H]1[C@@H](O)C[C@](OC[C@H]2O[C@@H](O[C@H]3[C@H](O)[C@@H](O)[C@H](OCCN=[N+]=[N-])O[C@@H]3CO)[C@H](O)[C@@H](O)[C@H]2O)(C(=O)O)O[C@H]1C(O)[C@H](O)CNC(=O)OCc1cn(-c2ccc(Br)cc2)nn1
REMARK SMILES IDX 9 1 8 2 6 3 5 4 42 5 41 6 10 7 11 8 12 9 14 10 13 11 32 12
REMARK SMILES IDX 34 13 36 14 15 15 16 16 29 17 28 18 21 19 17 20 19 21 30 22
REMARK SMILES IDX 31 23 22 25 23 26 24 27 25 28 26 29 27 30 18 31 20 33 33 35
REMARK SMILES IDX 35 37 37 39 38 41 39 42 40 43 7 45 43 47 44 48 45 50 46 51
REMARK SMILES IDX 47 53 48 54 49 55 50 57 51 58 52 59 53 60 54 61 64 62 55 63
REMARK SMILES IDX 63 64 56 65 57 66 62 67 58 68 61 69 59 70 60 71 4 72 2 73
REMARK SMILES IDX 1 75 3 76
REMARK H PARENT 31 24 18 32 20 34 33 36 35 38 37 40 40 44 7 46 44 49 46 52
REMARK H PARENT 48 56 4 74
REMARK Flexibility Score: inf
ROOT
ATOM      1  C   UNL     1      31.650  34.932  15.531  1.00  0.00     0.272 C 
ATOM      2  C   UNL     1      32.924  35.717  15.945  1.00  0.00     0.113 C 
ATOM      3  C   UNL     1      32.644  37.164  15.772  1.00  0.00     0.145 C 
ATOM      4  C   UNL     1      31.417  37.488  16.647  1.00  0.00     0.142 C 
ATOM      5  C   UNL     1      30.272  36.763  15.980  1.00  0.00     0.178 C 
ATOM      6  O   UNL     1      30.533  35.421  16.143  1.00  0.00    -0.332 OA
ENDROOT
BRANCH   1   7
ATOM      7  O   UNL     1      31.910  33.654  16.037  1.00  0.00    -0.338 OA
BRANCH   7   8
ATOM      8  C   UNL     1      31.466  32.613  15.281  1.00  0.00     0.199 C 
BRANCH   8   9
ATOM      9  C   UNL     1      30.480  31.818  16.162  1.00  0.00     0.179 C 
ATOM     10  C   UNL     1      29.364  32.125  18.179  1.00  0.00     0.282 C 
ATOM     11  O   UNL     1      30.530  32.232  17.462  1.00  0.00    -0.341 OA
ATOM     12  C   UNL     1      28.418  31.116  17.666  1.00  0.00     0.202 C 
ATOM     13  C   UNL     1      28.131  31.166  16.199  1.00  0.00     0.179 C 
ATOM     14  C   UNL     1      29.121  32.059  15.525  1.00  0.00     0.177 C 
BRANCH  10  15
ATOM     15  O   UNL     1      28.873  33.421  18.331  1.00  0.00    -0.341 OA
BRANCH  15  16
ATOM     16  C   UNL     1      29.085  33.911  19.607  1.00  0.00     0.184 C 
ATOM     17  C   UNL     1      27.845  34.505  20.193  1.00  0.00     0.178 C 
ATOM     18  O   UNL     1      28.056  34.830  21.503  1.00  0.00    -0.341 OA
ATOM     19  C   UNL     1      29.335  34.944  21.953  1.00  0.00     0.281 C 
ATOM     20  C   UNL     1      30.098  35.067  19.575  1.00  0.00     0.180 C 
ATOM     21  C   UNL     1      30.318  35.565  20.987  1.00  0.00     0.202 C 
BRANCH  17  22
ATOM     22  C   UNL     1      26.722  33.486  20.137  1.00  0.00     0.191 C 
BRANCH  22  23
ATOM     23  O   UNL     1      26.074  33.539  18.926  1.00  0.00    -0.394 OA
ATOM     24  H   UNL     1      25.283  32.972  18.921  1.00  0.00     0.210 HD
ENDBRANCH  22  23
ENDBRANCH  17  22
BRANCH  19  25
ATOM     25  O   UNL     1      29.827  33.770  22.512  1.00  0.00    -0.350 OA
BRANCH  25  26
ATOM     26  C   UNL     1      31.179  33.800  22.797  1.00  0.00     0.169 C 
BRANCH  26  27
ATOM     27  C   UNL     1      31.929  32.581  22.376  1.00  0.00     0.119 C 
BRANCH  27  28
ATOM     28  N   UNL     1      32.616  32.835  21.121  1.00  0.00    -0.092 NA
ATOM     29  N   UNL     1      33.559  33.630  21.147  1.00  0.00     0.001 N 
ATOM     30  N   UNL     1      34.599  34.322  21.102  1.00  0.00    -0.003 NA
ENDBRANCH  27  28
ENDBRANCH  26  27
ENDBRANCH  25  26
ENDBRANCH  19  25
BRANCH  20  31
ATOM     31  O   UNL     1      31.260  34.671  18.937  1.00  0.00    -0.387 OA
ATOM     32  H   UNL     1      31.874  34.194  19.557  1.00  0.00     0.211 HD
ENDBRANCH  20  31
BRANCH  21  33
ATOM     33  O   UNL     1      30.305  36.937  21.102  1.00  0.00    -0.385 OA
ATOM     34  H   UNL     1      29.845  37.312  20.314  1.00  0.00     0.211 HD
ENDBRANCH  21  33
ENDBRANCH  15  16
ENDBRANCH  10  15
BRANCH  12  35
ATOM     35  O   UNL     1      28.940  29.845  18.034  1.00  0.00    -0.385 OA
ATOM     36  H   UNL     1      29.610  29.555  17.349  1.00  0.00     0.211 HD
ENDBRANCH  12  35
BRANCH  13  37
ATOM     37  O   UNL     1      26.832  31.675  15.965  1.00  0.00    -0.387 OA
ATOM     38  H   UNL     1      26.510  31.986  16.848  1.00  0.00     0.211 HD
ENDBRANCH  13  37
BRANCH  14  39
ATOM     39  O   UNL     1      28.754  33.401  15.583  1.00  0.00    -0.387 OA
ATOM     40  H   UNL     1      28.681  33.706  16.522  1.00  0.00     0.211 HD
ENDBRANCH  14  39
ENDBRANCH   8   9
ENDBRANCH   7   8
ENDBRANCH   1   7
BRANCH   1  41
ATOM     41  C   UNL     1      31.654  34.877  14.070  1.00  0.00     0.364 C 
ATOM     42  O   UNL     1      32.686  35.022  13.372  1.00  0.00    -0.246 OA
BRANCH  41  43
ATOM     43  O   UNL     1      30.481  34.651  13.376  1.00  0.00    -0.477 OA
ATOM     44  H   UNL     1      29.772  33.977  13.661  1.00  0.00     0.296 HD
ENDBRANCH  41  43
ENDBRANCH   1  41
BRANCH   3  45
ATOM     45  O   UNL     1      33.667  37.957  16.274  1.00  0.00    -0.391 OA
ATOM     46  H   UNL     1      33.928  38.617  15.598  1.00  0.00     0.211 HD
ENDBRANCH   3  45
BRANCH   5  47
ATOM     47  C   UNL     1      28.927  37.032  16.565  1.00  0.00     0.176 C 
BRANCH  47  48
ATOM     48  O   UNL     1      28.388  35.748  16.863  1.00  0.00    -0.388 OA
ATOM     49  H   UNL     1      27.545  35.642  16.354  1.00  0.00     0.211 HD
ENDBRANCH  47  48
BRANCH  47  50
ATOM     50  C   UNL     1      27.918  37.619  15.589  1.00  0.00     0.165 C 
BRANCH  50  51
ATOM     51  O   UNL     1      28.161  39.018  15.674  1.00  0.00    -0.388 OA
ATOM     52  H   UNL     1      28.234  39.393  14.740  1.00  0.00     0.211 HD
ENDBRANCH  50  51
BRANCH  50  53
ATOM     53  C   UNL     1      26.516  37.407  16.043  1.00  0.00     0.154 C 
BRANCH  53  54
ATOM     54  N   UNL     1      25.775  36.592  15.134  1.00  0.00    -0.319 N 
ATOM     55  C   UNL     1      25.529  35.193  15.301  1.00  0.00     0.407 C 
ATOM     56  H   UNL     1      25.354  37.017  14.247  1.00  0.00     0.167 HD
ATOM     57  O   UNL     1      25.994  34.617  16.312  1.00  0.00    -0.225 OA
BRANCH  55  58
ATOM     58  O   UNL     1      24.797  34.466  14.391  1.00  0.00    -0.443 OA
BRANCH  58  59
ATOM     59  C   UNL     1      25.445  33.771  13.357  1.00  0.00     0.294 C 
BRANCH  59  60
ATOM     60  C   UNL     1      26.388  34.689  12.682  1.00  0.00     0.121 A 
ATOM     61  C   UNL     1      26.083  35.428  11.532  1.00  0.00     0.144 A 
ATOM     62  N   UNL     1      27.658  35.011  12.971  1.00  0.00    -0.131 NA
ATOM     63  N   UNL     1      27.164  36.148  11.185  1.00  0.00    -0.220 N 
ATOM     64  N   UNL     1      28.098  35.874  12.075  1.00  0.00    -0.062 NA
BRANCH  63  65
ATOM     65  C   UNL     1      27.203  37.011  10.056  1.00  0.00     0.066 A 
ATOM     66  C   UNL     1      28.158  37.949   9.825  1.00  0.00     0.029 A 
ATOM     67  C   UNL     1      26.178  36.853   9.129  1.00  0.00     0.029 A 
ATOM     68  C   UNL     1      28.086  38.717   8.681  1.00  0.00     0.018 A 
ATOM     69  C   UNL     1      26.119  37.627   7.992  1.00  0.00     0.018 A 
ATOM     70  C   UNL     1      27.085  38.582   7.750  1.00  0.00     0.018 A 
ATOM     71  Br  UNL     1      27.024  39.662   6.179  1.00  0.00    -0.051 Br
ENDBRANCH  63  65
ENDBRANCH  59  60
ENDBRANCH  58  59
ENDBRANCH  55  58
ENDBRANCH  53  54
ENDBRANCH  50  53
ENDBRANCH  47  50
ENDBRANCH   5  47
BRANCH   4  72
ATOM     72  N   UNL     1      31.304  38.915  16.671  1.00  0.00    -0.348 N 
ATOM     73  C   UNL     1      31.030  39.636  17.864  1.00  0.00     0.217 C 
ATOM     74  H   UNL     1      31.425  39.449  15.792  1.00  0.00     0.163 HD
ATOM     75  C   UNL     1      30.905  41.112  17.918  1.00  0.00     0.114 C 
ATOM     76  O   UNL     1      30.877  39.002  18.959  1.00  0.00    -0.275 OA
ENDBRANCH   4  72
TORSDOF 30
BEGIN_RES LYS A 131
REMARK  4 active torsions:
REMARK  status: ('A' for Active; 'I' for Inactive)
REMARK    1  A    between atoms: CA   and  CB  
REMARK    2  A    between atoms: CB   and  CG  
REMARK    3  A    between atoms: CG   and  CD  
REMARK    4  A    between atoms: CD   and  CE  
ROOT
ATOM      1  CA  LYS A 131      29.867  25.555  16.977  1.00 20.52     0.186 C 
ENDROOT
BRANCH   1   2
ATOM      2  CB  LYS A 131      28.345  25.722  17.026  1.00 20.94     0.034 C 
BRANCH   2   3
ATOM      3  CG  LYS A 131      27.601  24.401  16.902  1.00 22.96     0.005 C 
BRANCH   3   4
ATOM      4  CD  LYS A 131      26.160  24.522  17.311  1.00 24.33     0.041 C 
BRANCH   4   5
ATOM      5  CE  LYS A 131      25.731  23.255  18.044  1.00 26.91     0.338 C 
ATOM      6  NZ  LYS A 131      25.548  23.528  19.489  1.00 27.40     0.618 N 
ENDBRANCH   4   5
ENDBRANCH   3   4
ENDBRANCH   2   3
ENDBRANCH   1   2
END_RES LYS A 131
BEGIN_RES LYS A 135
REMARK  4 active torsions:
REMARK  status: ('A' for Active; 'I' for Inactive)
REMARK    5  A    between atoms: CA   and  CB  
REMARK    6  A    between atoms: CB   and  CG  
REMARK    7  A    between atoms: CG   and  CD  
REMARK    8  A    between atoms: CD   and  CE  
ROOT
ATOM      7  CA  LYS A 135      33.193  34.663   9.290  1.00 25.02     0.186 C 
ENDROOT
BRANCH   7   8
ATOM      8  CB  LYS A 135      32.060  35.360  10.034  1.00 26.63     0.034 C 
BRANCH   8   9
ATOM      9  CG  LYS A 135      30.703  34.763   9.762  1.00 29.45     0.005 C 
BRANCH   9  10
ATOM     10  CD  LYS A 135      30.210  35.158   8.379  1.00 32.00     0.041 C 
BRANCH  10  11
ATOM     11  CE  LYS A 135      28.860  34.529   8.094  1.00 34.25     0.338 C 
ATOM     12  NZ  LYS A 135      28.400  33.704   9.245  1.00 35.99     0.618 N 
ENDBRANCH  10  11
ENDBRANCH   9  10
ENDBRANCH   8   9
ENDBRANCH   7   8
END_RES LYS A 135
