REMARK VINA RESULT:    -5.296      2.581      7.725
REMARK INTER + INTRA:         -22.464
REMARK INTER:                 -11.952
REMARK INTRA:                 -10.511
REMARK UNBOUND:                -9.428
REMARK SMILES CC(=O)N[C@@H]1[C@@H](O)C[C@](OC[C@H]2O[C@@H](O[C@H]3[C@H](O)[C@@H](O)[C@H](OCCN=[N+]=[N-])O[C@@H]3CO)[C@H](O)[C@@H](O)[C@H]2O)(C(=O)O)O[C@H]1C(O)[C@H](O)CNC(=O)OCc1cn(-c2ccc(C)cc2)nn1
REMARK SMILES IDX 9 1 8 2 6 3 5 4 42 5 41 6 10 7 11 8 12 9 14 10 13 11 32 12
REMARK SMILES IDX 34 13 36 14 15 15 16 16 29 17 28 18 21 19 17 20 19 21 30 22
REMARK SMILES IDX 31 23 22 25 23 26 24 27 25 28 26 29 27 30 18 31 20 33 33 35
REMARK SMILES IDX 35 37 37 39 38 41 39 42 40 43 7 45 43 47 44 48 45 50 46 51
REMARK SMILES IDX 47 53 48 54 49 55 50 57 51 58 52 59 53 60 54 61 64 62 55 63
REMARK SMILES IDX 63 64 56 65 57 66 62 67 58 68 61 69 59 70 60 71 4 72 2 73
REMARK SMILES IDX 1 75 3 76
REMARK H PARENT 31 24 18 32 20 34 33 36 35 38 37 40 40 44 7 46 44 49 46 52
REMARK H PARENT 48 56 4 74
REMARK Flexibility Score: inf
ROOT
ATOM      1  C   UNL     1      23.906  36.324  10.358  1.00  0.00     0.272 C 
ATOM      2  C   UNL     1      23.210  35.338   9.427  1.00  0.00     0.113 C 
ATOM      3  C   UNL     1      21.737  35.479   9.472  1.00  0.00     0.145 C 
ATOM      4  C   UNL     1      21.231  36.855   9.723  1.00  0.00     0.142 C 
ATOM      5  C   UNL     1      22.280  37.961   9.742  1.00  0.00     0.178 C 
ATOM      6  O   UNL     1      23.434  37.547  10.317  1.00  0.00    -0.332 OA
ENDROOT
BRANCH   1   7
ATOM      7  O   UNL     1      25.246  36.364   9.863  1.00  0.00    -0.338 OA
BRANCH   7   8
ATOM      8  C   UNL     1      25.566  35.098   9.369  1.00  0.00     0.199 C 
BRANCH   8   9
ATOM      9  C   UNL     1      26.577  35.148   8.287  1.00  0.00     0.179 C 
ATOM     10  C   UNL     1      27.588  36.500   6.738  1.00  0.00     0.282 C 
ATOM     11  O   UNL     1      26.823  36.466   7.898  1.00  0.00    -0.341 OA
ATOM     12  C   UNL     1      28.971  36.051   7.019  1.00  0.00     0.202 C 
ATOM     13  C   UNL     1      29.042  35.364   8.355  1.00  0.00     0.179 C 
ATOM     14  C   UNL     1      27.866  34.449   8.623  1.00  0.00     0.177 C 
BRANCH  10  15
ATOM     15  O   UNL     1      27.614  37.803   6.244  1.00  0.00    -0.341 OA
BRANCH  15  16
ATOM     16  C   UNL     1      28.773  38.475   6.636  1.00  0.00     0.184 C 
ATOM     17  C   UNL     1      28.538  39.606   7.598  1.00  0.00     0.178 C 
ATOM     18  O   UNL     1      28.922  40.821   7.020  1.00  0.00    -0.341 OA
ATOM     19  C   UNL     1      28.105  41.087   5.936  1.00  0.00     0.281 C 
ATOM     20  C   UNL     1      29.356  39.058   5.368  1.00  0.00     0.180 C 
ATOM     21  C   UNL     1      28.303  40.049   4.849  1.00  0.00     0.202 C 
BRANCH  17  22
ATOM     22  C   UNL     1      29.458  39.460   8.821  1.00  0.00     0.191 C 
BRANCH  22  23
ATOM     23  O   UNL     1      28.710  39.191   9.965  1.00  0.00    -0.394 OA
ATOM     24  H   UNL     1      28.929  39.913  10.627  1.00  0.00     0.210 HD
ENDBRANCH  22  23
ENDBRANCH  17  22
BRANCH  19  25
ATOM     25  O   UNL     1      28.299  42.359   5.419  1.00  0.00    -0.350 OA
BRANCH  25  26
ATOM     26  C   UNL     1      27.520  43.321   6.012  1.00  0.00     0.169 C 
BRANCH  26  27
ATOM     27  C   UNL     1      26.279  42.814   6.690  1.00  0.00     0.119 C 
BRANCH  27  28
ATOM     28  N   UNL     1      26.173  43.289   8.048  1.00  0.00    -0.092 NA
ATOM     29  N   UNL     1      26.810  42.751   8.937  1.00  0.00     0.001 N 
ATOM     30  N   UNL     1      27.515  42.277   9.829  1.00  0.00    -0.003 NA
ENDBRANCH  27  28
ENDBRANCH  26  27
ENDBRANCH  25  26
ENDBRANCH  19  25
BRANCH  20  31
ATOM     31  O   UNL     1      30.559  39.716   5.579  1.00  0.00    -0.387 OA
ATOM     32  H   UNL     1      31.213  39.335   4.944  1.00  0.00     0.211 HD
ENDBRANCH  20  31
BRANCH  21  33
ATOM     33  O   UNL     1      27.112  39.300   4.779  1.00  0.00    -0.385 OA
ATOM     34  H   UNL     1      26.510  39.477   5.537  1.00  0.00     0.211 HD
ENDBRANCH  21  33
ENDBRANCH  15  16
ENDBRANCH  10  15
BRANCH  12  35
ATOM     35  O   UNL     1      29.474  35.213   6.006  1.00  0.00    -0.385 OA
ATOM     36  H   UNL     1      28.776  35.264   5.274  1.00  0.00     0.211 HD
ENDBRANCH  12  35
BRANCH  13  37
ATOM     37  O   UNL     1      29.263  36.299   9.336  1.00  0.00    -0.387 OA
ATOM     38  H   UNL     1      28.427  36.596   9.818  1.00  0.00     0.211 HD
ENDBRANCH  13  37
BRANCH  14  39
ATOM     39  O   UNL     1      27.844  34.129   9.967  1.00  0.00    -0.387 OA
ATOM     40  H   UNL     1      27.966  33.178  10.167  1.00  0.00     0.211 HD
ENDBRANCH  14  39
ENDBRANCH   8   9
ENDBRANCH   7   8
ENDBRANCH   1   7
BRANCH   1  41
ATOM     41  C   UNL     1      23.882  35.681  11.688  1.00  0.00     0.364 C 
ATOM     42  O   UNL     1      24.175  34.479  11.882  1.00  0.00    -0.246 OA
BRANCH  41  43
ATOM     43  O   UNL     1      23.512  36.477  12.788  1.00  0.00    -0.477 OA
ATOM     44  H   UNL     1      24.110  36.470  13.616  1.00  0.00     0.296 HD
ENDBRANCH  41  43
ENDBRANCH   1  41
BRANCH   3  45
ATOM     45  O   UNL     1      21.143  34.879   8.338  1.00  0.00    -0.391 OA
ATOM     46  H   UNL     1      20.981  35.644   7.698  1.00  0.00     0.211 HD
ENDBRANCH   3  45
BRANCH   5  47
ATOM     47  C   UNL     1      22.458  38.487   8.332  1.00  0.00     0.176 C 
BRANCH  47  48
ATOM     48  O   UNL     1      21.376  39.214   7.858  1.00  0.00    -0.388 OA
ATOM     49  H   UNL     1      20.636  39.046   8.500  1.00  0.00     0.211 HD
ENDBRANCH  47  48
BRANCH  47  50
ATOM     50  C   UNL     1      23.740  39.027   7.909  1.00  0.00     0.165 C 
BRANCH  50  51
ATOM     51  O   UNL     1      24.702  38.087   7.484  1.00  0.00    -0.388 OA
ATOM     52  H   UNL     1      24.574  37.882   6.520  1.00  0.00     0.211 HD
ENDBRANCH  50  51
BRANCH  50  53
ATOM     53  C   UNL     1      24.458  40.064   8.700  1.00  0.00     0.154 C 
BRANCH  53  54
ATOM     54  N   UNL     1      25.498  39.554   9.553  1.00  0.00    -0.319 N 
ATOM     55  C   UNL     1      25.494  39.810  10.956  1.00  0.00     0.407 C 
ATOM     56  H   UNL     1      26.278  38.985   9.151  1.00  0.00     0.167 HD
ATOM     57  O   UNL     1      24.552  40.479  11.447  1.00  0.00    -0.225 OA
BRANCH  55  58
ATOM     58  O   UNL     1      26.516  39.328  11.744  1.00  0.00    -0.443 OA
BRANCH  58  59
ATOM     59  C   UNL     1      26.324  38.477  12.822  1.00  0.00     0.294 C 
BRANCH  59  60
ATOM     60  C   UNL     1      27.210  37.313  12.755  1.00  0.00     0.121 A 
ATOM     61  C   UNL     1      27.483  36.414  13.804  1.00  0.00     0.144 A 
ATOM     62  N   UNL     1      27.927  36.864  11.735  1.00  0.00    -0.131 NA
ATOM     63  N   UNL     1      28.335  35.494  13.354  1.00  0.00    -0.220 N 
ATOM     64  N   UNL     1      28.593  35.785  12.097  1.00  0.00    -0.062 NA
BRANCH  63  65
ATOM     65  C   UNL     1      28.846  34.412  14.153  1.00  0.00     0.066 A 
ATOM     66  C   UNL     1      28.017  33.758  15.038  1.00  0.00     0.029 A 
ATOM     67  C   UNL     1      30.153  33.984  14.057  1.00  0.00     0.029 A 
ATOM     68  C   UNL     1      28.498  32.695  15.808  1.00  0.00     0.005 A 
ATOM     69  C   UNL     1      30.637  32.920  14.827  1.00  0.00     0.005 A 
ATOM     70  C   UNL     1      29.804  32.271  15.708  1.00  0.00    -0.051 A 
ATOM     71  C   UNL     1      30.318  31.124  16.525  1.00  0.00     0.044 C 
ENDBRANCH  63  65
ENDBRANCH  59  60
ENDBRANCH  58  59
ENDBRANCH  55  58
ENDBRANCH  53  54
ENDBRANCH  50  53
ENDBRANCH  47  50
ENDBRANCH   5  47
BRANCH   4  72
ATOM     72  N   UNL     1      20.332  36.925  10.859  1.00  0.00    -0.348 N 
ATOM     73  C   UNL     1      19.011  37.462  10.793  1.00  0.00     0.217 C 
ATOM     74  H   UNL     1      20.629  36.583  11.794  1.00  0.00     0.163 HD
ATOM     75  C   UNL     1      18.128  37.520  11.999  1.00  0.00     0.114 C 
ATOM     76  O   UNL     1      18.654  37.874   9.661  1.00  0.00    -0.275 OA
ENDBRANCH   4  72
TORSDOF 30
BEGIN_RES LYS A 131
REMARK  4 active torsions:
REMARK  status: ('A' for Active; 'I' for Inactive)
REMARK    1  A    between atoms: CA   and  CB  
REMARK    2  A    between atoms: CB   and  CG  
REMARK    3  A    between atoms: CG   and  CD  
REMARK    4  A    between atoms: CD   and  CE  
ROOT
ATOM      1  CA  LYS A 131      29.867  25.555  16.977  1.00 20.52     0.186 C 
ENDROOT
BRANCH   1   2
ATOM      2  CB  LYS A 131      28.345  25.722  17.026  1.00 20.94     0.034 C 
BRANCH   2   3
ATOM      3  CG  LYS A 131      27.600  24.415  16.806  1.00 22.96     0.005 C 
BRANCH   3   4
ATOM      4  CD  LYS A 131      26.296  24.373  17.553  1.00 24.33     0.041 C 
BRANCH   4   5
ATOM      5  CE  LYS A 131      26.073  25.704  18.263  1.00 26.91     0.338 C 
ATOM      6  NZ  LYS A 131      24.858  26.374  17.742  1.00 27.40     0.618 N 
ENDBRANCH   4   5
ENDBRANCH   3   4
ENDBRANCH   2   3
ENDBRANCH   1   2
END_RES LYS A 131
BEGIN_RES LYS A 135
REMARK  4 active torsions:
REMARK  status: ('A' for Active; 'I' for Inactive)
REMARK    5  A    between atoms: CA   and  CB  
REMARK    6  A    between atoms: CB   and  CG  
REMARK    7  A    between atoms: CG   and  CD  
REMARK    8  A    between atoms: CD   and  CE  
ROOT
ATOM      7  CA  LYS A 135      33.193  34.663   9.290  1.00 25.02     0.186 C 
ENDROOT
BRANCH   7   8
ATOM      8  CB  LYS A 135      32.060  35.360  10.034  1.00 26.63     0.034 C 
BRANCH   8   9
ATOM      9  CG  LYS A 135      32.508  36.068  11.287  1.00 29.45     0.005 C 
BRANCH   9  10
ATOM     10  CD  LYS A 135      32.079  37.527  11.261  1.00 32.00     0.041 C 
BRANCH  10  11
ATOM     11  CE  LYS A 135      31.335  37.886  12.533  1.00 34.25     0.338 C 
ATOM     12  NZ  LYS A 135      31.866  37.126  13.698  1.00 35.99     0.618 N 
ENDBRANCH  10  11
ENDBRANCH   9  10
ENDBRANCH   8   9
ENDBRANCH   7   8
END_RES LYS A 135
