REMARK VINA RESULT:    -3.582      2.694      5.373
REMARK INTER + INTRA:         -22.546
REMARK INTER:                 -11.260
REMARK INTRA:                 -11.286
REMARK UNBOUND:               -13.100
REMARK SMILES CC(=O)N[C@@H]1[C@@H](O)C[C@](OC[C@H]2O[C@@H](O[C@H]3[C@H](O)[C@@H](O)[C@H](OCCN=[N+]=[N-])O[C@@H]3CO)[C@H](O)[C@@H](O)[C@H]2O)(C(=O)O)O[C@H]1C(O)[C@H](O)CNC(=O)OCc1cn(CCNS(C)(=O)=O)nn1
REMARK SMILES IDX 43 1 42 2 9 3 8 4 41 5 6 6 5 7 10 8 11 9 12 10 14 11 13 12
REMARK SMILES IDX 32 13 34 14 36 15 15 16 16 17 29 18 28 19 21 20 17 21 19 22
REMARK SMILES IDX 30 23 31 24 22 26 23 27 24 28 25 29 26 30 27 31 18 32 20 34
REMARK SMILES IDX 33 36 35 38 37 40 38 42 39 43 40 44 7 46 4 48 2 49 1 51 3 52
REMARK SMILES IDX 44 53 45 55 46 56 47 58 48 59 49 60 50 62 51 63 52 64 53 65
REMARK SMILES IDX 54 66 64 67 55 68 63 69 56 70 57 71 58 72 59 74 61 75 62 76
REMARK SMILES IDX 60 77
REMARK H PARENT 31 25 18 33 20 35 33 37 35 39 37 41 40 45 7 47 4 50 44 54
REMARK H PARENT 46 57 48 61 58 73
REMARK Flexibility Score: inf
ROOT
ATOM      1  C   UNL     1      31.782  29.428  20.924  1.00  0.00     0.176 C 
ENDROOT
BRANCH   1   2
ATOM      2  C   UNL     1      30.496  30.133  20.453  1.00  0.00     0.178 C 
ATOM      3  C   UNL     1      29.788  31.327  18.567  1.00  0.00     0.272 C 
ATOM      4  C   UNL     1      29.555  32.591  19.295  1.00  0.00     0.113 C 
ATOM      5  O   UNL     1      30.748  30.535  19.185  1.00  0.00    -0.332 OA
ATOM      6  C   UNL     1      29.913  32.574  20.755  1.00  0.00     0.145 C 
ATOM      7  C   UNL     1      30.157  31.240  21.372  1.00  0.00     0.142 C 
BRANCH   3   8
ATOM      8  O   UNL     1      30.248  31.450  17.252  1.00  0.00    -0.338 OA
BRANCH   8   9
ATOM      9  C   UNL     1      30.791  32.697  16.991  1.00  0.00     0.199 C 
BRANCH   9  10
ATOM     10  C   UNL     1      30.287  33.218  15.690  1.00  0.00     0.179 C 
ATOM     11  C   UNL     1      28.630  34.417  14.625  1.00  0.00     0.282 C 
ATOM     12  O   UNL     1      29.242  34.110  15.852  1.00  0.00    -0.341 OA
ATOM     13  C   UNL     1      29.571  35.106  13.698  1.00  0.00     0.202 C 
ATOM     14  C   UNL     1      30.705  34.144  13.414  1.00  0.00     0.179 C 
ATOM     15  C   UNL     1      31.304  33.664  14.693  1.00  0.00     0.177 C 
BRANCH  11  16
ATOM     16  O   UNL     1      27.536  35.178  14.908  1.00  0.00    -0.341 OA
BRANCH  16  17
ATOM     17  C   UNL     1      26.392  34.513  15.188  1.00  0.00     0.184 C 
ATOM     18  C   UNL     1      26.226  33.100  14.792  1.00  0.00     0.178 C 
ATOM     19  O   UNL     1      24.862  32.838  14.655  1.00  0.00    -0.341 OA
ATOM     20  C   UNL     1      24.343  33.366  13.508  1.00  0.00     0.281 C 
ATOM     21  C   UNL     1      25.149  35.304  14.694  1.00  0.00     0.180 C 
ATOM     22  C   UNL     1      24.905  34.758  13.303  1.00  0.00     0.202 C 
BRANCH  18  23
ATOM     23  C   UNL     1      26.678  32.173  15.915  1.00  0.00     0.191 C 
BRANCH  23  24
ATOM     24  O   UNL     1      26.631  30.832  15.470  1.00  0.00    -0.394 OA
ATOM     25  H   UNL     1      27.466  30.567  15.026  1.00  0.00     0.210 HD
ENDBRANCH  23  24
ENDBRANCH  18  23
BRANCH  20  26
ATOM     26  O   UNL     1      22.941  33.386  13.537  1.00  0.00    -0.350 OA
BRANCH  26  27
ATOM     27  C   UNL     1      22.371  32.319  14.183  1.00  0.00     0.169 C 
BRANCH  27  28
ATOM     28  C   UNL     1      21.378  31.682  13.262  1.00  0.00     0.119 C 
BRANCH  28  29
ATOM     29  N   UNL     1      21.949  30.555  12.534  1.00  0.00    -0.092 NA
ATOM     30  N   UNL     1      21.135  29.666  12.228  1.00  0.00     0.001 N 
ATOM     31  N   UNL     1      20.606  28.626  11.854  1.00  0.00    -0.003 NA
ENDBRANCH  28  29
ENDBRANCH  27  28
ENDBRANCH  26  27
ENDBRANCH  20  26
BRANCH  21  32
ATOM     32  O   UNL     1      24.040  34.975  15.479  1.00  0.00    -0.387 OA
ATOM     33  H   UNL     1      24.109  34.021  15.748  1.00  0.00     0.211 HD
ENDBRANCH  21  32
BRANCH  22  34
ATOM     34  O   UNL     1      26.017  34.769  12.492  1.00  0.00    -0.385 OA
ATOM     35  H   UNL     1      25.818  34.919  11.532  1.00  0.00     0.211 HD
ENDBRANCH  22  34
ENDBRANCH  16  17
ENDBRANCH  11  16
BRANCH  13  36
ATOM     36  O   UNL     1      28.970  35.340  12.452  1.00  0.00    -0.385 OA
ATOM     37  H   UNL     1      28.245  34.692  12.261  1.00  0.00     0.211 HD
ENDBRANCH  13  36
BRANCH  14  38
ATOM     38  O   UNL     1      31.605  34.649  12.509  1.00  0.00    -0.387 OA
ATOM     39  H   UNL     1      31.175  35.295  11.864  1.00  0.00     0.211 HD
ENDBRANCH  14  38
BRANCH  15  40
ATOM     40  O   UNL     1      32.045  34.700  15.253  1.00  0.00    -0.387 OA
ATOM     41  H   UNL     1      32.402  34.480  16.152  1.00  0.00     0.211 HD
ENDBRANCH  15  40
ENDBRANCH   9  10
ENDBRANCH   8   9
ENDBRANCH   3   8
BRANCH   3  42
ATOM     42  C   UNL     1      28.537  30.543  18.443  1.00  0.00     0.364 C 
ATOM     43  O   UNL     1      27.496  30.821  19.127  1.00  0.00    -0.246 OA
BRANCH  42  44
ATOM     44  O   UNL     1      28.378  29.463  17.598  1.00  0.00    -0.477 OA
ATOM     45  H   UNL     1      28.955  29.306  16.775  1.00  0.00     0.296 HD
ENDBRANCH  42  44
ENDBRANCH   3  42
BRANCH   6  46
ATOM     46  O   UNL     1      30.987  33.413  21.018  1.00  0.00    -0.391 OA
ATOM     47  H   UNL     1      31.556  33.150  21.767  1.00  0.00     0.211 HD
ENDBRANCH   6  46
BRANCH   7  48
ATOM     48  N   UNL     1      28.962  30.884  22.155  1.00  0.00    -0.348 N 
ATOM     49  C   UNL     1      28.949  30.389  23.463  1.00  0.00     0.217 C 
ATOM     50  H   UNL     1      27.992  31.042  21.707  1.00  0.00     0.163 HD
ATOM     51  C   UNL     1      27.658  30.046  24.157  1.00  0.00     0.114 C 
ATOM     52  O   UNL     1      30.012  30.206  24.116  1.00  0.00    -0.275 OA
ENDBRANCH   7  48
ENDBRANCH   1   2
BRANCH   1  53
ATOM     53  O   UNL     1      32.086  29.879  22.220  1.00  0.00    -0.388 OA
ATOM     54  H   UNL     1      31.254  30.195  22.616  1.00  0.00     0.211 HD
ENDBRANCH   1  53
BRANCH   1  55
ATOM     55  C   UNL     1      31.573  27.959  20.976  1.00  0.00     0.165 C 
BRANCH  55  56
ATOM     56  O   UNL     1      32.038  27.244  19.900  1.00  0.00    -0.388 OA
ATOM     57  H   UNL     1      33.013  27.355  19.742  1.00  0.00     0.211 HD
ENDBRANCH  55  56
BRANCH  55  58
ATOM     58  C   UNL     1      30.201  27.513  21.377  1.00  0.00     0.154 C 
BRANCH  58  59
ATOM     59  N   UNL     1      29.452  26.989  20.266  1.00  0.00    -0.319 N 
ATOM     60  C   UNL     1      28.059  27.363  20.162  1.00  0.00     0.407 C 
ATOM     61  H   UNL     1      29.842  26.365  19.542  1.00  0.00     0.167 HD
ATOM     62  O   UNL     1      27.617  28.142  21.044  1.00  0.00    -0.225 OA
BRANCH  60  63
ATOM     63  O   UNL     1      27.274  26.882  19.146  1.00  0.00    -0.443 OA
BRANCH  63  64
ATOM     64  C   UNL     1      25.874  26.837  19.288  1.00  0.00     0.294 C 
BRANCH  64  65
ATOM     65  C   UNL     1      25.234  27.963  18.583  1.00  0.00     0.120 A 
ATOM     66  C   UNL     1      24.214  28.777  19.049  1.00  0.00     0.138 A 
ATOM     67  N   UNL     1      25.539  28.434  17.382  1.00  0.00    -0.132 NA
ATOM     68  N   UNL     1      23.932  29.706  18.135  1.00  0.00    -0.251 N 
ATOM     69  N   UNL     1      24.754  29.485  17.108  1.00  0.00    -0.067 NA
BRANCH  68  70
ATOM     70  C   UNL     1      22.919  30.743  18.237  1.00  0.00     0.162 C 
BRANCH  70  71
ATOM     71  C   UNL     1      23.544  32.103  17.928  1.00  0.00     0.122 C 
BRANCH  71  72
ATOM     72  N   UNL     1      24.744  32.297  18.690  1.00  0.00    -0.214 NA
ATOM     73  H   UNL     1      25.576  32.207  18.047  1.00  0.00     0.141 HD
BRANCH  72  74
ATOM     74  S   UNL     1      24.838  33.857  19.410  1.00  0.00     0.208 S 
ATOM     75  O   UNL     1      24.848  34.927  18.330  1.00  0.00    -0.213 OA
ATOM     76  O   UNL     1      23.574  34.021  20.233  1.00  0.00    -0.213 OA
ATOM     77  C   UNL     1      26.261  33.996  20.445  1.00  0.00     0.176 C 
ENDBRANCH  72  74
ENDBRANCH  71  72
ENDBRANCH  70  71
ENDBRANCH  68  70
ENDBRANCH  64  65
ENDBRANCH  63  64
ENDBRANCH  60  63
ENDBRANCH  58  59
ENDBRANCH  55  58
ENDBRANCH   1  55
TORSDOF 33
BEGIN_RES LYS A 131
REMARK  4 active torsions:
REMARK  status: ('A' for Active; 'I' for Inactive)
REMARK    1  A    between atoms: CA   and  CB  
REMARK    2  A    between atoms: CB   and  CG  
REMARK    3  A    between atoms: CG   and  CD  
REMARK    4  A    between atoms: CD   and  CE  
ROOT
ATOM      1  CA  LYS A 131      29.867  25.555  16.977  1.00 20.52     0.186 C 
ENDROOT
BRANCH   1   2
ATOM      2  CB  LYS A 131      28.345  25.722  17.026  1.00 20.94     0.034 C 
BRANCH   2   3
ATOM      3  CG  LYS A 131      27.599  24.475  16.576  1.00 22.96     0.005 C 
BRANCH   3   4
ATOM      4  CD  LYS A 131      27.129  23.646  17.739  1.00 24.33     0.041 C 
BRANCH   4   5
ATOM      5  CE  LYS A 131      25.666  23.266  17.534  1.00 26.91     0.338 C 
ATOM      6  NZ  LYS A 131      24.923  24.382  16.901  1.00 27.40     0.618 N 
ENDBRANCH   4   5
ENDBRANCH   3   4
ENDBRANCH   2   3
ENDBRANCH   1   2
END_RES LYS A 131
BEGIN_RES LYS A 135
REMARK  4 active torsions:
REMARK  status: ('A' for Active; 'I' for Inactive)
REMARK    5  A    between atoms: CA   and  CB  
REMARK    6  A    between atoms: CB   and  CG  
REMARK    7  A    between atoms: CG   and  CD  
REMARK    8  A    between atoms: CD   and  CE  
ROOT
ATOM      7  CA  LYS A 135      33.193  34.663   9.290  1.00 25.02     0.186 C 
ENDROOT
BRANCH   7   8
ATOM      8  CB  LYS A 135      32.060  35.360  10.034  1.00 26.63     0.034 C 
BRANCH   8   9
ATOM      9  CG  LYS A 135      30.812  35.531   9.207  1.00 29.45     0.005 C 
BRANCH   9  10
ATOM     10  CD  LYS A 135      30.069  34.210   9.078  1.00 32.00     0.041 C 
BRANCH  10  11
ATOM     11  CE  LYS A 135      28.703  34.426   8.455  1.00 34.25     0.338 C 
ATOM     12  NZ  LYS A 135      27.979  35.543   9.124  1.00 35.99     0.618 N 
ENDBRANCH  10  11
ENDBRANCH   9  10
ENDBRANCH   8   9
ENDBRANCH   7   8
END_RES LYS A 135
