REMARK VINA RESULT:    -4.415      2.424      7.794
REMARK INTER + INTRA:         -24.421
REMARK INTER:                 -12.288
REMARK INTRA:                 -12.132
REMARK UNBOUND:               -12.132
REMARK SMILES CCOCCc1c(-c2ccccc2)nc(N)nc1-n1cc(COC(=O)NC[C@@H](O)C(O)[C@@H]2O[C@@](OC[C@H]3O[C@@H](O[C@H]4[C@H](O)[C@@H](O)[C@H](OCCN=[N+]=[N-])O[C@@H]4CO)[C@H](O)[C@@H](O)[C@H]3O)(C(=O)O)C[C@H](O)[C@H]2NC(C)=O)nn1
REMARK SMILES IDX 30 1 32 2 34 3 66 4 33 5 67 6 69 7 35 8 36 9 37 10 39 11
REMARK SMILES IDX 38 12 57 13 59 14 61 15 40 16 41 17 54 18 53 19 46 20 42 21
REMARK SMILES IDX 44 22 55 23 56 24 47 26 48 27 49 28 50 29 51 30 52 31 43 32
REMARK SMILES IDX 45 34 58 36 60 38 62 40 63 42 64 43 65 44 68 46 70 48 71 49
REMARK SMILES IDX 72 51 73 52 31 53 28 55 29 56 27 58 26 59 24 60 25 62 23 63
REMARK SMILES IDX 22 64 21 65 20 66 74 67 19 68 75 69 18 70 17 71 6 72 15 73
REMARK SMILES IDX 7 74 14 75 5 76 4 77 3 78 2 79 1 80 16 81 8 84 9 85 13 86
REMARK SMILES IDX 10 87 12 88 11 89
REMARK H PARENT 56 25 43 33 45 35 58 37 60 39 62 41 65 45 68 47 70 50 31 54
REMARK H PARENT 29 57 26 61 16 82 16 83
REMARK Flexibility Score: inf
ROOT
ATOM      1  C   UNL     1      29.194  33.581  18.508  1.00  0.00     0.176 C 
ENDROOT
BRANCH   1   2
ATOM      2  C   UNL     1      28.555  32.608  17.563  1.00  0.00     0.178 C 
ATOM      3  C   UNL     1      27.192  30.716  17.760  1.00  0.00     0.272 C 
ATOM      4  C   UNL     1      27.274  30.784  16.233  1.00  0.00     0.113 C 
ATOM      5  O   UNL     1      27.675  31.820  18.364  1.00  0.00    -0.332 OA
ATOM      6  C   UNL     1      28.675  30.997  15.744  1.00  0.00     0.145 C 
ATOM      7  C   UNL     1      29.460  31.649  16.868  1.00  0.00     0.142 C 
BRANCH   3   8
ATOM      8  O   UNL     1      27.784  29.532  18.141  1.00  0.00    -0.338 OA
BRANCH   8   9
ATOM      9  C   UNL     1      27.187  28.387  17.684  1.00  0.00     0.199 C 
BRANCH   9  10
ATOM     10  C   UNL     1      26.905  27.395  18.802  1.00  0.00     0.179 C 
ATOM     11  C   UNL     1      26.860  27.553  21.129  1.00  0.00     0.282 C 
ATOM     12  O   UNL     1      27.464  27.878  19.949  1.00  0.00    -0.341 OA
ATOM     13  C   UNL     1      25.421  28.076  21.034  1.00  0.00     0.202 C 
ATOM     14  C   UNL     1      24.735  27.098  20.081  1.00  0.00     0.179 C 
ATOM     15  C   UNL     1      25.530  26.865  18.844  1.00  0.00     0.177 C 
BRANCH  11  16
ATOM     16  O   UNL     1      27.550  28.104  22.184  1.00  0.00    -0.341 OA
BRANCH  16  17
ATOM     17  C   UNL     1      28.839  28.473  21.837  1.00  0.00     0.184 C 
ATOM     18  C   UNL     1      29.853  27.670  22.578  1.00  0.00     0.178 C 
ATOM     19  O   UNL     1      30.589  28.324  23.515  1.00  0.00    -0.341 OA
ATOM     20  C   UNL     1      31.086  29.555  23.221  1.00  0.00     0.281 C 
ATOM     21  C   UNL     1      29.038  29.954  21.949  1.00  0.00     0.180 C 
ATOM     22  C   UNL     1      30.511  30.256  22.036  1.00  0.00     0.202 C 
BRANCH  18  23
ATOM     23  C   UNL     1      30.722  26.842  21.630  1.00  0.00     0.191 C 
BRANCH  23  24
ATOM     24  O   UNL     1      30.380  27.064  20.308  1.00  0.00    -0.394 OA
ATOM     25  H   UNL     1      31.218  27.050  19.780  1.00  0.00     0.210 HD
ENDBRANCH  23  24
ENDBRANCH  18  23
BRANCH  20  26
ATOM     26  O   UNL     1      32.460  29.427  23.051  1.00  0.00    -0.350 OA
BRANCH  26  27
ATOM     27  C   UNL     1      33.094  28.746  24.061  1.00  0.00     0.169 C 
BRANCH  27  28
ATOM     28  C   UNL     1      34.434  28.169  23.671  1.00  0.00     0.119 C 
BRANCH  28  29
ATOM     29  N   UNL     1      35.220  29.211  23.012  1.00  0.00    -0.092 NA
ATOM     30  N   UNL     1      36.456  29.220  23.068  1.00  0.00     0.001 N 
ATOM     31  N   UNL     1      37.658  29.166  23.321  1.00  0.00    -0.003 NA
ENDBRANCH  28  29
ENDBRANCH  27  28
ENDBRANCH  26  27
ENDBRANCH  20  26
BRANCH  21  32
ATOM     32  O   UNL     1      28.520  30.646  20.851  1.00  0.00    -0.387 OA
ATOM     33  H   UNL     1      27.532  30.746  20.913  1.00  0.00     0.211 HD
ENDBRANCH  21  32
BRANCH  22  34
ATOM     34  O   UNL     1      30.649  31.630  22.225  1.00  0.00    -0.385 OA
ATOM     35  H   UNL     1      31.597  31.907  22.293  1.00  0.00     0.211 HD
ENDBRANCH  22  34
ENDBRANCH  16  17
ENDBRANCH  11  16
BRANCH  13  36
ATOM     36  O   UNL     1      24.775  28.078  22.246  1.00  0.00    -0.385 OA
ATOM     37  H   UNL     1      25.395  27.868  22.997  1.00  0.00     0.211 HD
ENDBRANCH  13  36
BRANCH  14  38
ATOM     38  O   UNL     1      23.404  27.382  19.878  1.00  0.00    -0.387 OA
ATOM     39  H   UNL     1      22.931  26.634  19.403  1.00  0.00     0.211 HD
ENDBRANCH  14  38
BRANCH  15  40
ATOM     40  O   UNL     1      24.800  27.409  17.765  1.00  0.00    -0.387 OA
ATOM     41  H   UNL     1      23.854  27.524  18.040  1.00  0.00     0.211 HD
ENDBRANCH  15  40
ENDBRANCH   9  10
ENDBRANCH   8   9
ENDBRANCH   3   8
BRANCH   3  42
ATOM     42  C   UNL     1      25.720  30.634  18.020  1.00  0.00     0.364 C 
ATOM     43  O   UNL     1      25.357  31.048  19.177  1.00  0.00    -0.246 OA
BRANCH  42  44
ATOM     44  O   UNL     1      24.782  30.170  17.143  1.00  0.00    -0.477 OA
ATOM     45  H   UNL     1      25.040  30.010  16.173  1.00  0.00     0.296 HD
ENDBRANCH  42  44
ENDBRANCH   3  42
BRANCH   6  46
ATOM     46  O   UNL     1      29.191  29.734  15.417  1.00  0.00    -0.391 OA
ATOM     47  H   UNL     1      30.105  29.619  15.743  1.00  0.00     0.211 HD
ENDBRANCH   6  46
BRANCH   7  48
ATOM     48  N   UNL     1      30.715  32.157  16.408  1.00  0.00    -0.348 N 
ATOM     49  C   UNL     1      30.845  33.136  15.388  1.00  0.00     0.217 C 
ATOM     50  H   UNL     1      31.571  31.786  16.874  1.00  0.00     0.163 HD
ATOM     51  C   UNL     1      32.194  33.589  14.993  1.00  0.00     0.114 C 
ATOM     52  O   UNL     1      29.826  33.604  14.838  1.00  0.00    -0.275 OA
ENDBRANCH   7  48
ENDBRANCH   1   2
BRANCH   1  53
ATOM     53  O   UNL     1      29.721  32.774  19.574  1.00  0.00    -0.388 OA
ATOM     54  H   UNL     1      29.212  33.030  20.371  1.00  0.00     0.211 HD
ENDBRANCH   1  53
BRANCH   1  55
ATOM     55  C   UNL     1      28.355  34.617  19.138  1.00  0.00     0.165 C 
BRANCH  55  56
ATOM     56  O   UNL     1      27.160  34.648  18.363  1.00  0.00    -0.388 OA
ATOM     57  H   UNL     1      26.735  33.769  18.428  1.00  0.00     0.211 HD
ENDBRANCH  55  56
BRANCH  55  58
ATOM     58  C   UNL     1      28.890  35.985  19.221  1.00  0.00     0.154 C 
BRANCH  58  59
ATOM     59  N   UNL     1      28.756  36.782  18.063  1.00  0.00    -0.319 N 
ATOM     60  C   UNL     1      29.709  36.920  17.037  1.00  0.00     0.407 C 
ATOM     61  H   UNL     1      27.859  37.370  17.886  1.00  0.00     0.167 HD
ATOM     62  O   UNL     1      30.810  36.327  17.059  1.00  0.00    -0.225 OA
BRANCH  60  63
ATOM     63  O   UNL     1      29.490  37.729  15.917  1.00  0.00    -0.443 OA
BRANCH  63  64
ATOM     64  C   UNL     1      29.130  37.191  14.662  1.00  0.00     0.294 C 
BRANCH  64  65
ATOM     65  C   UNL     1      27.699  36.807  14.622  1.00  0.00     0.121 A 
ATOM     66  C   UNL     1      27.143  35.638  15.072  1.00  0.00     0.146 A 
ATOM     67  N   UNL     1      26.666  37.518  14.116  1.00  0.00    -0.131 NA
ATOM     68  N   UNL     1      25.779  35.658  14.828  1.00  0.00    -0.202 N 
ATOM     69  N   UNL     1      25.564  36.805  14.259  1.00  0.00    -0.060 NA
BRANCH  68  70
ATOM     70  C   UNL     1      25.007  34.540  15.192  1.00  0.00     0.164 A 
ATOM     71  N   UNL     1      24.582  34.436  16.476  1.00  0.00    -0.193 NA
ATOM     72  C   UNL     1      24.572  33.553  14.296  1.00  0.00     0.026 A 
ATOM     73  C   UNL     1      23.785  33.460  16.913  1.00  0.00     0.222 A 
ATOM     74  C   UNL     1      23.754  32.549  14.719  1.00  0.00     0.081 A 
ATOM     75  N   UNL     1      23.380  32.534  16.042  1.00  0.00    -0.213 NA
BRANCH  72  76
ATOM     76  C   UNL     1      25.145  33.621  12.947  1.00  0.00     0.070 C 
BRANCH  76  77
ATOM     77  C   UNL     1      24.328  34.431  11.963  1.00  0.00     0.165 C 
BRANCH  77  78
ATOM     78  O   UNL     1      24.994  35.355  11.217  1.00  0.00    -0.381 OA
BRANCH  78  79
ATOM     79  C   UNL     1      24.688  35.454   9.893  1.00  0.00     0.156 C 
ATOM     80  C   UNL     1      25.118  36.816   9.322  1.00  0.00     0.035 C 
ENDBRANCH  78  79
ENDBRANCH  77  78
ENDBRANCH  76  77
ENDBRANCH  72  76
BRANCH  73  81
ATOM     81  N   UNL     1      23.367  33.392  18.280  1.00  0.00    -0.368 N 
ATOM     82  H   UNL     1      24.005  33.004  19.004  1.00  0.00     0.159 HD
ATOM     83  H   UNL     1      22.440  33.719  18.599  1.00  0.00     0.159 HD
ENDBRANCH  73  81
BRANCH  74  84
ATOM     84  C   UNL     1      23.242  31.509  13.854  1.00  0.00     0.001 A 
ATOM     85  C   UNL     1      24.029  30.376  13.660  1.00  0.00     0.010 A 
ATOM     86  C   UNL     1      22.003  31.590  13.245  1.00  0.00     0.010 A 
ATOM     87  C   UNL     1      23.595  29.323  12.866  1.00  0.00     0.001 A 
ATOM     88  C   UNL     1      21.593  30.537  12.462  1.00  0.00     0.001 A 
ATOM     89  C   UNL     1      22.361  29.417  12.266  1.00  0.00     0.000 A 
ENDBRANCH  74  84
ENDBRANCH  68  70
ENDBRANCH  64  65
ENDBRANCH  63  64
ENDBRANCH  60  63
ENDBRANCH  58  59
ENDBRANCH  55  58
ENDBRANCH   1  55
TORSDOF 36
BEGIN_RES LYS A 131
REMARK  4 active torsions:
REMARK  status: ('A' for Active; 'I' for Inactive)
REMARK    1  A    between atoms: CA   and  CB  
REMARK    2  A    between atoms: CB   and  CG  
REMARK    3  A    between atoms: CG   and  CD  
REMARK    4  A    between atoms: CD   and  CE  
ROOT
ATOM      1  CA  LYS A 131      29.867  25.555  16.977  1.00 20.52     0.186 C 
ENDROOT
BRANCH   1   2
ATOM      2  CB  LYS A 131      28.345  25.722  17.026  1.00 20.94     0.034 C 
BRANCH   2   3
ATOM      3  CG  LYS A 131      27.599  24.486  16.548  1.00 22.96     0.005 C 
BRANCH   3   4
ATOM      4  CD  LYS A 131      27.005  23.706  17.688  1.00 24.33     0.041 C 
BRANCH   4   5
ATOM      5  CE  LYS A 131      25.503  23.553  17.473  1.00 26.91     0.338 C 
ATOM      6  NZ  LYS A 131      25.099  22.136  17.626  1.00 27.40     0.618 N 
ENDBRANCH   4   5
ENDBRANCH   3   4
ENDBRANCH   2   3
ENDBRANCH   1   2
END_RES LYS A 131
BEGIN_RES LYS A 135
REMARK  4 active torsions:
REMARK  status: ('A' for Active; 'I' for Inactive)
REMARK    5  A    between atoms: CA   and  CB  
REMARK    6  A    between atoms: CB   and  CG  
REMARK    7  A    between atoms: CG   and  CD  
REMARK    8  A    between atoms: CD   and  CE  
ROOT
ATOM      7  CA  LYS A 135      33.193  34.663   9.290  1.00 25.02     0.186 C 
ENDROOT
BRANCH   7   8
ATOM      8  CB  LYS A 135      32.060  35.360  10.034  1.00 26.63     0.034 C 
BRANCH   8   9
ATOM      9  CG  LYS A 135      30.784  35.452   9.238  1.00 29.45     0.005 C 
BRANCH   9  10
ATOM     10  CD  LYS A 135      30.219  34.067   8.967  1.00 32.00     0.041 C 
BRANCH  10  11
ATOM     11  CE  LYS A 135      28.735  34.026   9.278  1.00 34.25     0.338 C 
ATOM     12  NZ  LYS A 135      27.946  34.718   8.220  1.00 35.99     0.618 N 
ENDBRANCH  10  11
ENDBRANCH   9  10
ENDBRANCH   8   9
ENDBRANCH   7   8
END_RES LYS A 135
