REMARK VINA RESULT:    -3.955      4.399      9.021
REMARK INTER + INTRA:         -21.632
REMARK INTER:                  -9.086
REMARK INTRA:                 -12.545
REMARK UNBOUND:               -10.971
REMARK SMILES C=CCCCCn1cc(COC(=O)NC[C@@H](O)C(O)[C@@H]2O[C@@](OC[C@H]3O[C@@H](O[C@H]4[C@H](O)[C@@H](O)[C@H](OCCN=[N+]=[N-])O[C@@H]4CO)[C@H](O)[C@@H](O)[C@H]3O)(C(=O)O)C[C@H](O)[C@H]2NC(C)=O)nn1
REMARK SMILES IDX 18 1 20 2 22 3 54 4 21 5 55 6 57 7 23 8 24 9 25 10 27 11
REMARK SMILES IDX 26 12 45 13 47 14 49 15 28 16 29 17 42 18 41 19 34 20 30 21
REMARK SMILES IDX 32 22 43 23 44 24 35 26 36 27 37 28 38 29 39 30 40 31 31 32
REMARK SMILES IDX 33 34 46 36 48 38 50 40 51 42 52 43 53 44 56 46 58 48 59 49
REMARK SMILES IDX 60 51 61 52 19 53 16 55 17 56 15 58 14 59 12 60 13 62 11 63
REMARK SMILES IDX 10 64 9 65 8 66 62 67 7 68 63 69 6 70 5 71 4 72 3 73 2 74
REMARK SMILES IDX 1 75
REMARK H PARENT 44 25 31 33 33 35 46 37 48 39 50 41 53 45 56 47 58 50 19 54
REMARK H PARENT 17 57 14 61
REMARK Flexibility Score: inf
ROOT
ATOM      1  C   UNL     1      26.741  31.644  15.612  1.00  0.00     0.176 C 
ENDROOT
BRANCH   1   2
ATOM      2  C   UNL     1      25.293  31.879  16.053  1.00  0.00     0.178 C 
ATOM      3  C   UNL     1      24.038  33.160  17.492  1.00  0.00     0.272 C 
ATOM      4  C   UNL     1      23.176  32.004  17.791  1.00  0.00     0.113 C 
ATOM      5  O   UNL     1      25.344  32.624  17.177  1.00  0.00    -0.332 OA
ATOM      6  C   UNL     1      23.081  30.988  16.738  1.00  0.00     0.145 C 
ATOM      7  C   UNL     1      24.352  30.780  15.931  1.00  0.00     0.142 C 
BRANCH   3   8
ATOM      8  O   UNL     1      24.370  33.919  18.605  1.00  0.00    -0.338 OA
BRANCH   8   9
ATOM      9  C   UNL     1      24.147  35.215  18.692  1.00  0.00     0.199 C 
BRANCH   9  10
ATOM     10  C   UNL     1      25.242  36.184  18.925  1.00  0.00     0.179 C 
ATOM     11  C   UNL     1      27.425  36.246  19.773  1.00  0.00     0.282 C 
ATOM     12  O   UNL     1      26.197  35.646  19.820  1.00  0.00    -0.341 OA
ATOM     13  C   UNL     1      27.434  37.573  19.123  1.00  0.00     0.202 C 
ATOM     14  C   UNL     1      26.810  37.606  17.753  1.00  0.00     0.179 C 
ATOM     15  C   UNL     1      25.957  36.385  17.595  1.00  0.00     0.177 C 
BRANCH  11  16
ATOM     16  O   UNL     1      28.333  35.312  19.353  1.00  0.00    -0.341 OA
BRANCH  16  17
ATOM     17  C   UNL     1      29.103  34.718  20.308  1.00  0.00     0.184 C 
ATOM     18  C   UNL     1      30.176  33.896  19.635  1.00  0.00     0.178 C 
ATOM     19  O   UNL     1      30.388  32.687  20.318  1.00  0.00    -0.341 OA
ATOM     20  C   UNL     1      29.339  31.838  19.979  1.00  0.00     0.281 C 
ATOM     21  C   UNL     1      28.281  33.714  21.148  1.00  0.00     0.180 C 
ATOM     22  C   UNL     1      28.025  32.462  20.341  1.00  0.00     0.202 C 
BRANCH  18  23
ATOM     23  C   UNL     1      31.485  34.649  19.469  1.00  0.00     0.191 C 
BRANCH  23  24
ATOM     24  O   UNL     1      31.901  34.633  18.149  1.00  0.00    -0.394 OA
ATOM     25  H   UNL     1      32.139  33.708  17.901  1.00  0.00     0.210 HD
ENDBRANCH  23  24
ENDBRANCH  18  23
BRANCH  20  26
ATOM     26  O   UNL     1      29.535  30.656  20.696  1.00  0.00    -0.350 OA
BRANCH  26  27
ATOM     27  C   UNL     1      29.418  29.514  19.925  1.00  0.00     0.169 C 
BRANCH  27  28
ATOM     28  C   UNL     1      28.510  28.555  20.672  1.00  0.00     0.119 C 
BRANCH  28  29
ATOM     29  N   UNL     1      28.237  27.368  19.906  1.00  0.00    -0.092 NA
ATOM     30  N   UNL     1      27.328  27.328  19.086  1.00  0.00     0.001 N 
ATOM     31  N   UNL     1      26.512  27.477  18.176  1.00  0.00    -0.003 NA
ENDBRANCH  28  29
ENDBRANCH  27  28
ENDBRANCH  26  27
ENDBRANCH  20  26
BRANCH  21  32
ATOM     32  O   UNL     1      29.099  33.359  22.219  1.00  0.00    -0.387 OA
ATOM     33  H   UNL     1      29.346  34.105  22.801  1.00  0.00     0.211 HD
ENDBRANCH  21  32
BRANCH  22  34
ATOM     34  O   UNL     1      27.222  32.746  19.239  1.00  0.00    -0.385 OA
ATOM     35  H   UNL     1      26.548  32.017  19.172  1.00  0.00     0.211 HD
ENDBRANCH  22  34
ENDBRANCH  16  17
ENDBRANCH  11  16
BRANCH  13  36
ATOM     36  O   UNL     1      26.711  38.452  19.941  1.00  0.00    -0.385 OA
ATOM     37  H   UNL     1      26.239  37.992  20.659  1.00  0.00     0.211 HD
ENDBRANCH  13  36
BRANCH  14  38
ATOM     38  O   UNL     1      27.766  37.697  16.739  1.00  0.00    -0.387 OA
ATOM     39  H   UNL     1      28.157  38.593  16.794  1.00  0.00     0.211 HD
ENDBRANCH  14  38
BRANCH  15  40
ATOM     40  O   UNL     1      26.710  35.251  17.264  1.00  0.00    -0.387 OA
ATOM     41  H   UNL     1      26.174  34.530  16.886  1.00  0.00     0.211 HD
ENDBRANCH  15  40
ENDBRANCH   9  10
ENDBRANCH   8   9
ENDBRANCH   3   8
BRANCH   3  42
ATOM     42  C   UNL     1      23.633  33.873  16.288  1.00  0.00     0.364 C 
ATOM     43  O   UNL     1      22.426  34.036  16.008  1.00  0.00    -0.246 OA
BRANCH  42  44
ATOM     44  O   UNL     1      24.536  34.387  15.405  1.00  0.00    -0.477 OA
ATOM     45  H   UNL     1      24.808  33.900  14.570  1.00  0.00     0.296 HD
ENDBRANCH  42  44
ENDBRANCH   3  42
BRANCH   6  46
ATOM     46  O   UNL     1      22.683  29.762  17.326  1.00  0.00    -0.391 OA
ATOM     47  H   UNL     1      23.460  29.188  17.540  1.00  0.00     0.211 HD
ENDBRANCH   6  46
BRANCH   7  48
ATOM     48  N   UNL     1      23.984  30.592  14.514  1.00  0.00    -0.348 N 
ATOM     49  C   UNL     1      23.470  29.378  14.003  1.00  0.00     0.217 C 
ATOM     50  H   UNL     1      24.094  31.368  13.806  1.00  0.00     0.163 HD
ATOM     51  C   UNL     1      23.122  29.244  12.539  1.00  0.00     0.114 C 
ATOM     52  O   UNL     1      23.309  28.409  14.787  1.00  0.00    -0.275 OA
ENDBRANCH   7  48
ENDBRANCH   1   2
BRANCH   1  53
ATOM     53  O   UNL     1      27.448  32.852  16.135  1.00  0.00    -0.388 OA
ATOM     54  H   UNL     1      27.202  33.510  15.409  1.00  0.00     0.211 HD
ENDBRANCH   1  53
BRANCH   1  55
ATOM     55  C   UNL     1      27.455  30.583  16.321  1.00  0.00     0.165 C 
BRANCH  55  56
ATOM     56  O   UNL     1      27.051  30.366  17.658  1.00  0.00    -0.388 OA
ATOM     57  H   UNL     1      27.195  31.232  18.112  1.00  0.00     0.211 HD
ENDBRANCH  55  56
BRANCH  55  58
ATOM     58  C   UNL     1      28.921  30.501  16.235  1.00  0.00     0.154 C 
BRANCH  58  59
ATOM     59  N   UNL     1      29.537  31.348  15.288  1.00  0.00    -0.319 N 
ATOM     60  C   UNL     1      30.591  32.262  15.404  1.00  0.00     0.407 C 
ATOM     61  H   UNL     1      29.125  31.283  14.282  1.00  0.00     0.167 HD
ATOM     62  O   UNL     1      31.163  32.453  16.490  1.00  0.00    -0.225 OA
BRANCH  60  63
ATOM     63  O   UNL     1      31.044  32.997  14.300  1.00  0.00    -0.443 OA
BRANCH  63  64
ATOM     64  C   UNL     1      30.865  34.414  14.320  1.00  0.00     0.294 C 
BRANCH  64  65
ATOM     65  C   UNL     1      29.429  34.763  14.166  1.00  0.00     0.120 A 
ATOM     66  C   UNL     1      28.673  34.519  13.021  1.00  0.00     0.138 A 
ATOM     67  N   UNL     1      28.597  35.356  15.035  1.00  0.00    -0.132 NA
ATOM     68  N   UNL     1      27.436  34.970  13.255  1.00  0.00    -0.252 N 
ATOM     69  N   UNL     1      27.395  35.471  14.462  1.00  0.00    -0.067 NA
BRANCH  68  70
ATOM     70  C   UNL     1      26.344  34.888  12.275  1.00  0.00     0.146 C 
BRANCH  70  71
ATOM     71  C   UNL     1      26.929  34.592  10.920  1.00  0.00     0.024 C 
BRANCH  71  72
ATOM     72  C   UNL     1      26.570  35.729   9.988  1.00  0.00     0.006 C 
BRANCH  72  73
ATOM     73  C   UNL     1      25.510  35.276   9.010  1.00  0.00     0.027 C 
BRANCH  73  74
ATOM     74  C   UNL     1      24.253  36.037   9.187  1.00  0.00    -0.035 C 
ATOM     75  C   UNL     1      23.094  35.410   9.235  1.00  0.00     0.004 C 
ENDBRANCH  73  74
ENDBRANCH  72  73
ENDBRANCH  71  72
ENDBRANCH  70  71
ENDBRANCH  68  70
ENDBRANCH  64  65
ENDBRANCH  63  64
ENDBRANCH  60  63
ENDBRANCH  58  59
ENDBRANCH  55  58
ENDBRANCH   1  55
TORSDOF 34
BEGIN_RES LYS A 131
REMARK  4 active torsions:
REMARK  status: ('A' for Active; 'I' for Inactive)
REMARK    1  A    between atoms: CA   and  CB  
REMARK    2  A    between atoms: CB   and  CG  
REMARK    3  A    between atoms: CG   and  CD  
REMARK    4  A    between atoms: CD   and  CE  
ROOT
ATOM      1  CA  LYS A 131      29.867  25.555  16.977  1.00 20.52     0.186 C 
ENDROOT
BRANCH   1   2
ATOM      2  CB  LYS A 131      28.345  25.722  17.026  1.00 20.94     0.034 C 
BRANCH   2   3
ATOM      3  CG  LYS A 131      27.599  24.440  16.691  1.00 22.96     0.005 C 
BRANCH   3   4
ATOM      4  CD  LYS A 131      27.007  23.793  17.913  1.00 24.33     0.041 C 
BRANCH   4   5
ATOM      5  CE  LYS A 131      25.589  23.325  17.604  1.00 26.91     0.338 C 
ATOM      6  NZ  LYS A 131      24.825  24.397  16.923  1.00 27.40     0.618 N 
ENDBRANCH   4   5
ENDBRANCH   3   4
ENDBRANCH   2   3
ENDBRANCH   1   2
END_RES LYS A 131
BEGIN_RES LYS A 135
REMARK  4 active torsions:
REMARK  status: ('A' for Active; 'I' for Inactive)
REMARK    5  A    between atoms: CA   and  CB  
REMARK    6  A    between atoms: CB   and  CG  
REMARK    7  A    between atoms: CG   and  CD  
REMARK    8  A    between atoms: CD   and  CE  
ROOT
ATOM      7  CA  LYS A 135      33.193  34.663   9.290  1.00 25.02     0.186 C 
ENDROOT
BRANCH   7   8
ATOM      8  CB  LYS A 135      32.060  35.360  10.034  1.00 26.63     0.034 C 
BRANCH   8   9
ATOM      9  CG  LYS A 135      30.698  34.792   9.727  1.00 29.45     0.005 C 
BRANCH   9  10
ATOM     10  CD  LYS A 135      29.947  35.693   8.759  1.00 32.00     0.041 C 
BRANCH  10  11
ATOM     11  CE  LYS A 135      29.438  34.894   7.574  1.00 34.25     0.338 C 
ATOM     12  NZ  LYS A 135      28.488  35.697   6.755  1.00 35.99     0.618 N 
ENDBRANCH  10  11
ENDBRANCH   9  10
ENDBRANCH   8   9
ENDBRANCH   7   8
END_RES LYS A 135
