REMARK VINA RESULT:    -4.459      8.863     15.337
REMARK INTER + INTRA:         -21.287
REMARK INTER:                  -8.270
REMARK INTRA:                 -13.017
REMARK UNBOUND:                -9.660
REMARK SMILES CC(=O)N[C@@H]1[C@@H](O)C[C@](OC[C@H]2O[C@@H](O[C@H]3[C@H](O)[C@@H](O)[C@H](OCCN=[N+]=[N-])O[C@@H]3CO)[C@H](O)[C@@H](O)[C@H]2O)(C(=O)O)O[C@H]1C(O)[C@H](O)CNC(=O)OCc1cn(CCC(=O)O)nn1
REMARK SMILES IDX 43 1 42 2 9 3 8 4 41 5 6 6 5 7 10 8 11 9 12 10 14 11 13 12
REMARK SMILES IDX 32 13 34 14 36 15 15 16 16 17 29 18 28 19 21 20 17 21 19 22
REMARK SMILES IDX 30 23 31 24 22 26 23 27 24 28 25 29 26 30 27 31 18 32 20 34
REMARK SMILES IDX 33 36 35 38 37 40 38 42 39 43 40 44 7 46 4 48 2 49 1 51 3 52
REMARK SMILES IDX 44 53 45 55 46 56 47 58 48 59 49 60 50 62 51 63 52 64 53 65
REMARK SMILES IDX 54 66 62 67 55 68 61 69 56 70 57 71 58 72 59 73 60 74
REMARK H PARENT 31 25 18 33 20 35 33 37 35 39 37 41 40 45 7 47 4 50 44 54
REMARK H PARENT 46 57 48 61 60 75
REMARK Flexibility Score: inf
ROOT
ATOM      1  C   UNL     1      28.652  34.049  18.360  1.00  0.00     0.176 C 
ENDROOT
BRANCH   1   2
ATOM      2  C   UNL     1      28.451  32.890  17.414  1.00  0.00     0.178 C 
ATOM      3  C   UNL     1      27.441  30.775  17.297  1.00  0.00     0.272 C 
ATOM      4  C   UNL     1      27.907  31.049  15.878  1.00  0.00     0.113 C 
ATOM      5  O   UNL     1      28.253  31.697  18.060  1.00  0.00    -0.332 OA
ATOM      6  C   UNL     1      29.421  31.341  15.835  1.00  0.00     0.145 C 
ATOM      7  C   UNL     1      29.658  32.688  16.507  1.00  0.00     0.142 C 
BRANCH   3   8
ATOM      8  O   UNL     1      27.747  29.518  17.667  1.00  0.00    -0.338 OA
BRANCH   8   9
ATOM      9  C   UNL     1      27.006  28.628  18.267  1.00  0.00     0.199 C 
BRANCH   9  10
ATOM     10  C   UNL     1      27.189  28.077  19.615  1.00  0.00     0.179 C 
ATOM     11  C   UNL     1      28.567  27.371  21.312  1.00  0.00     0.282 C 
ATOM     12  O   UNL     1      28.460  27.755  20.006  1.00  0.00    -0.341 OA
ATOM     13  C   UNL     1      27.284  27.329  22.093  1.00  0.00     0.202 C 
ATOM     14  C   UNL     1      26.446  28.575  21.878  1.00  0.00     0.179 C 
ATOM     15  C   UNL     1      26.807  29.260  20.580  1.00  0.00     0.177 C 
BRANCH  11  16
ATOM     16  O   UNL     1      29.454  28.152  22.052  1.00  0.00    -0.341 OA
BRANCH  16  17
ATOM     17  C   UNL     1      30.792  27.841  21.821  1.00  0.00     0.184 C 
ATOM     18  C   UNL     1      31.634  28.626  22.765  1.00  0.00     0.178 C 
ATOM     19  O   UNL     1      32.442  29.590  22.139  1.00  0.00    -0.341 OA
ATOM     20  C   UNL     1      31.555  30.338  21.338  1.00  0.00     0.281 C 
ATOM     21  C   UNL     1      31.070  28.107  20.371  1.00  0.00     0.180 C 
ATOM     22  C   UNL     1      31.385  29.538  20.066  1.00  0.00     0.202 C 
BRANCH  18  23
ATOM     23  C   UNL     1      32.539  27.720  23.585  1.00  0.00     0.191 C 
BRANCH  23  24
ATOM     24  O   UNL     1      33.543  27.187  22.782  1.00  0.00    -0.394 OA
ATOM     25  H   UNL     1      33.371  26.223  22.669  1.00  0.00     0.210 HD
ENDBRANCH  23  24
ENDBRANCH  18  23
BRANCH  20  26
ATOM     26  O   UNL     1      32.024  31.607  21.099  1.00  0.00    -0.350 OA
BRANCH  26  27
ATOM     27  C   UNL     1      32.882  31.981  22.129  1.00  0.00     0.169 C 
BRANCH  27  28
ATOM     28  C   UNL     1      32.340  33.236  22.802  1.00  0.00     0.119 C 
BRANCH  28  29
ATOM     29  N   UNL     1      31.773  32.810  24.064  1.00  0.00    -0.092 NA
ATOM     30  N   UNL     1      32.317  31.889  24.671  1.00  0.00     0.001 N 
ATOM     31  N   UNL     1      32.713  31.065  25.523  1.00  0.00    -0.003 NA
ENDBRANCH  28  29
ENDBRANCH  27  28
ENDBRANCH  26  27
ENDBRANCH  20  26
BRANCH  21  32
ATOM     32  O   UNL     1      32.162  27.326  20.008  1.00  0.00    -0.387 OA
ATOM     33  H   UNL     1      31.949  26.867  19.172  1.00  0.00     0.211 HD
ENDBRANCH  21  32
BRANCH  22  34
ATOM     34  O   UNL     1      30.407  30.102  19.245  1.00  0.00    -0.385 OA
ATOM     35  H   UNL     1      30.601  29.900  18.289  1.00  0.00     0.211 HD
ENDBRANCH  22  34
ENDBRANCH  16  17
ENDBRANCH  11  16
BRANCH  13  36
ATOM     36  O   UNL     1      26.542  26.158  21.877  1.00  0.00    -0.385 OA
ATOM     37  H   UNL     1      25.910  26.032  22.603  1.00  0.00     0.211 HD
ENDBRANCH  13  36
BRANCH  14  38
ATOM     38  O   UNL     1      26.529  29.407  22.971  1.00  0.00    -0.387 OA
ATOM     39  H   UNL     1      25.944  30.185  22.868  1.00  0.00     0.211 HD
ENDBRANCH  14  38
BRANCH  15  40
ATOM     40  O   UNL     1      27.943  30.027  20.681  1.00  0.00    -0.387 OA
ATOM     41  H   UNL     1      27.872  30.801  21.286  1.00  0.00     0.211 HD
ENDBRANCH  15  40
ENDBRANCH   9  10
ENDBRANCH   8   9
ENDBRANCH   3   8
BRANCH   3  42
ATOM     42  C   UNL     1      26.053  31.166  17.555  1.00  0.00     0.364 C 
ATOM     43  O   UNL     1      25.162  30.928  16.703  1.00  0.00    -0.246 OA
BRANCH  42  44
ATOM     44  O   UNL     1      25.689  31.793  18.720  1.00  0.00    -0.477 OA
ATOM     45  H   UNL     1      26.190  32.533  19.167  1.00  0.00     0.296 HD
ENDBRANCH  42  44
ENDBRANCH   3  42
BRANCH   6  46
ATOM     46  O   UNL     1      30.042  30.366  16.583  1.00  0.00    -0.391 OA
ATOM     47  H   UNL     1      30.567  29.785  15.958  1.00  0.00     0.211 HD
ENDBRANCH   6  46
BRANCH   7  48
ATOM     48  N   UNL     1      29.786  33.723  15.535  1.00  0.00    -0.348 N 
ATOM     49  C   UNL     1      31.073  34.073  15.050  1.00  0.00     0.217 C 
ATOM     50  H   UNL     1      28.967  34.247  15.155  1.00  0.00     0.163 HD
ATOM     51  C   UNL     1      31.296  35.137  14.042  1.00  0.00     0.114 C 
ATOM     52  O   UNL     1      32.108  33.476  15.469  1.00  0.00    -0.275 OA
ENDBRANCH   7  48
ENDBRANCH   1   2
BRANCH   1  53
ATOM     53  O   UNL     1      27.451  34.269  19.036  1.00  0.00    -0.388 OA
ATOM     54  H   UNL     1      26.747  34.570  18.427  1.00  0.00     0.211 HD
ENDBRANCH   1  53
BRANCH   1  55
ATOM     55  C   UNL     1      29.738  33.853  19.369  1.00  0.00     0.165 C 
BRANCH  55  56
ATOM     56  O   UNL     1      29.391  32.780  20.196  1.00  0.00    -0.388 OA
ATOM     57  H   UNL     1      28.476  32.491  19.967  1.00  0.00     0.211 HD
ENDBRANCH  55  56
BRANCH  55  58
ATOM     58  C   UNL     1      29.756  35.110  20.246  1.00  0.00     0.154 C 
BRANCH  58  59
ATOM     59  N   UNL     1      28.865  34.968  21.363  1.00  0.00    -0.319 N 
ATOM     60  C   UNL     1      29.151  35.408  22.685  1.00  0.00     0.407 C 
ATOM     61  H   UNL     1      27.912  34.510  21.237  1.00  0.00     0.167 HD
ATOM     62  O   UNL     1      30.262  35.959  22.888  1.00  0.00    -0.225 OA
BRANCH  60  63
ATOM     63  O   UNL     1      28.259  35.248  23.730  1.00  0.00    -0.443 OA
BRANCH  63  64
ATOM     64  C   UNL     1      27.304  34.219  23.668  1.00  0.00     0.294 C 
BRANCH  64  65
ATOM     65  C   UNL     1      27.939  32.900  23.851  1.00  0.00     0.120 A 
ATOM     66  C   UNL     1      28.193  32.350  25.101  1.00  0.00     0.138 A 
ATOM     67  N   UNL     1      28.353  32.020  22.908  1.00  0.00    -0.132 NA
ATOM     68  N   UNL     1      28.758  31.143  24.860  1.00  0.00    -0.252 N 
ATOM     69  N   UNL     1      28.840  30.977  23.548  1.00  0.00    -0.067 NA
BRANCH  68  70
ATOM     70  C   UNL     1      29.194  30.187  25.856  1.00  0.00     0.158 C 
BRANCH  70  71
ATOM     71  C   UNL     1      28.994  28.750  25.430  1.00  0.00     0.146 C 
BRANCH  71  72
ATOM     72  C   UNL     1      29.856  27.901  26.264  1.00  0.00     0.305 C 
ATOM     73  O   UNL     1      30.940  28.352  26.694  1.00  0.00    -0.252 OA
BRANCH  72  74
ATOM     74  O   UNL     1      29.504  26.593  26.592  1.00  0.00    -0.481 OA
ATOM     75  H   UNL     1      28.557  26.234  26.517  1.00  0.00     0.296 HD
ENDBRANCH  72  74
ENDBRANCH  71  72
ENDBRANCH  70  71
ENDBRANCH  68  70
ENDBRANCH  64  65
ENDBRANCH  63  64
ENDBRANCH  60  63
ENDBRANCH  58  59
ENDBRANCH  55  58
ENDBRANCH   1  55
TORSDOF 33
BEGIN_RES LYS A 131
REMARK  4 active torsions:
REMARK  status: ('A' for Active; 'I' for Inactive)
REMARK    1  A    between atoms: CA   and  CB  
REMARK    2  A    between atoms: CB   and  CG  
REMARK    3  A    between atoms: CG   and  CD  
REMARK    4  A    between atoms: CD   and  CE  
ROOT
ATOM      1  CA  LYS A 131      29.867  25.555  16.977  1.00 20.52     0.186 C 
ENDROOT
BRANCH   1   2
ATOM      2  CB  LYS A 131      28.345  25.722  17.026  1.00 20.94     0.034 C 
BRANCH   2   3
ATOM      3  CG  LYS A 131      27.602  24.400  16.915  1.00 22.96     0.005 C 
BRANCH   3   4
ATOM      4  CD  LYS A 131      26.147  24.536  17.268  1.00 24.33     0.041 C 
BRANCH   4   5
ATOM      5  CE  LYS A 131      26.000  24.661  18.781  1.00 26.91     0.338 C 
ATOM      6  NZ  LYS A 131      25.487  23.396  19.358  1.00 27.40     0.618 N 
ENDBRANCH   4   5
ENDBRANCH   3   4
ENDBRANCH   2   3
ENDBRANCH   1   2
END_RES LYS A 131
BEGIN_RES LYS A 135
REMARK  4 active torsions:
REMARK  status: ('A' for Active; 'I' for Inactive)
REMARK    5  A    between atoms: CA   and  CB  
REMARK    6  A    between atoms: CB   and  CG  
REMARK    7  A    between atoms: CG   and  CD  
REMARK    8  A    between atoms: CD   and  CE  
ROOT
ATOM      7  CA  LYS A 135      33.193  34.663   9.290  1.00 25.02     0.186 C 
ENDROOT
BRANCH   7   8
ATOM      8  CB  LYS A 135      32.060  35.360  10.034  1.00 26.63     0.034 C 
BRANCH   8   9
ATOM      9  CG  LYS A 135      30.698  35.091   9.447  1.00 29.45     0.005 C 
BRANCH   9  10
ATOM     10  CD  LYS A 135      29.674  34.868  10.548  1.00 32.00     0.041 C 
BRANCH  10  11
ATOM     11  CE  LYS A 135      28.266  35.030  10.006  1.00 34.25     0.338 C 
ATOM     12  NZ  LYS A 135      27.759  33.749   9.441  1.00 35.99     0.618 N 
ENDBRANCH  10  11
ENDBRANCH   9  10
ENDBRANCH   8   9
ENDBRANCH   7   8
END_RES LYS A 135
