REMARK VINA RESULT:    -4.625      4.769     10.626
REMARK INTER + INTRA:         -22.857
REMARK INTER:                 -10.679
REMARK INTRA:                 -12.178
REMARK UNBOUND:               -11.068
REMARK SMILES CC(=O)N[C@@H]1[C@@H](O)C[C@](OC[C@H]2O[C@@H](O[C@H]3[C@H](O)[C@@H](O)[C@H](OCCN=[N+]=[N-])O[C@@H]3CO)[C@H](O)[C@@H](O)[C@H]2O)(C(=O)O)O[C@H]1C(O)[C@H](O)CNC(=O)OCc1cn(Cc2cc(Br)cc(Br)c2O)nn1
REMARK SMILES IDX 9 1 8 2 6 3 5 4 42 5 41 6 10 7 11 8 12 9 14 10 13 11 32 12
REMARK SMILES IDX 34 13 36 14 15 15 16 16 29 17 28 18 21 19 17 20 19 21 30 22
REMARK SMILES IDX 31 23 22 25 23 26 24 27 25 28 26 29 27 30 18 31 20 33 33 35
REMARK SMILES IDX 35 37 37 39 38 41 39 42 40 43 7 45 43 47 44 48 45 50 46 51
REMARK SMILES IDX 47 53 48 54 49 55 50 57 51 58 52 59 53 60 54 61 67 62 55 63
REMARK SMILES IDX 66 64 56 65 57 66 58 67 64 68 59 69 62 70 60 71 61 72 63 73
REMARK SMILES IDX 65 74 4 76 2 77 1 79 3 80
REMARK H PARENT 31 24 18 32 20 34 33 36 35 38 37 40 40 44 7 46 44 49 46 52
REMARK H PARENT 48 56 65 75 4 78
REMARK Flexibility Score: inf
ROOT
ATOM      1  C   UNL     1      30.769  37.630  12.291  1.00  0.00     0.272 C 
ATOM      2  C   UNL     1      30.500  38.901  13.230  1.00  0.00     0.113 C 
ATOM      3  C   UNL     1      29.251  39.573  12.825  1.00  0.00     0.145 C 
ATOM      4  C   UNL     1      28.104  38.597  12.841  1.00  0.00     0.142 C 
ATOM      5  C   UNL     1      28.489  37.150  12.774  1.00  0.00     0.178 C 
ATOM      6  O   UNL     1      29.726  36.789  12.454  1.00  0.00    -0.332 OA
ENDROOT
BRANCH   1   7
ATOM      7  O   UNL     1      31.884  37.146  12.885  1.00  0.00    -0.338 OA
BRANCH   7   8
ATOM      8  C   UNL     1      31.973  36.651  14.104  1.00  0.00     0.199 C 
BRANCH   8   9
ATOM      9  C   UNL     1      32.926  35.557  14.440  1.00  0.00     0.179 C 
ATOM     10  C   UNL     1      32.387  35.337  16.696  1.00  0.00     0.282 C 
ATOM     11  O   UNL     1      33.319  35.557  15.734  1.00  0.00    -0.341 OA
ATOM     12  C   UNL     1      31.442  34.234  16.344  1.00  0.00     0.202 C 
ATOM     13  C   UNL     1      32.000  33.388  15.232  1.00  0.00     0.179 C 
ATOM     14  C   UNL     1      32.388  34.187  14.022  1.00  0.00     0.177 C 
BRANCH  10  15
ATOM     15  O   UNL     1      31.743  36.530  17.060  1.00  0.00    -0.341 OA
BRANCH  15  16
ATOM     16  C   UNL     1      32.311  37.173  18.136  1.00  0.00     0.184 C 
ATOM     17  C   UNL     1      31.276  37.543  19.173  1.00  0.00     0.178 C 
ATOM     18  O   UNL     1      31.723  38.398  20.139  1.00  0.00    -0.341 OA
ATOM     19  C   UNL     1      33.093  38.567  20.223  1.00  0.00     0.281 C 
ATOM     20  C   UNL     1      32.922  38.517  17.723  1.00  0.00     0.180 C 
ATOM     21  C   UNL     1      33.716  38.985  18.918  1.00  0.00     0.202 C 
BRANCH  17  22
ATOM     22  C   UNL     1      30.627  36.330  19.807  1.00  0.00     0.191 C 
BRANCH  22  23
ATOM     23  O   UNL     1      31.526  35.297  19.960  1.00  0.00    -0.394 OA
ATOM     24  H   UNL     1      31.707  34.908  19.072  1.00  0.00     0.210 HD
ENDBRANCH  22  23
ENDBRANCH  17  22
BRANCH  19  25
ATOM     25  O   UNL     1      33.656  37.412  20.740  1.00  0.00    -0.350 OA
BRANCH  25  26
ATOM     26  C   UNL     1      35.022  37.491  20.760  1.00  0.00     0.169 C 
BRANCH  26  27
ATOM     27  C   UNL     1      35.756  36.231  20.451  1.00  0.00     0.119 C 
BRANCH  27  28
ATOM     28  N   UNL     1      35.371  35.649  19.182  1.00  0.00    -0.092 NA
ATOM     29  N   UNL     1      35.827  36.024  18.120  1.00  0.00     0.001 N 
ATOM     30  N   UNL     1      36.374  36.108  17.023  1.00  0.00    -0.003 NA
ENDBRANCH  27  28
ENDBRANCH  26  27
ENDBRANCH  25  26
ENDBRANCH  19  25
BRANCH  20  31
ATOM     31  O   UNL     1      33.659  38.454  16.571  1.00  0.00    -0.387 OA
ATOM     32  H   UNL     1      34.090  37.541  16.565  1.00  0.00     0.211 HD
ENDBRANCH  20  31
BRANCH  21  33
ATOM     33  O   UNL     1      33.889  40.365  18.911  1.00  0.00    -0.385 OA
ATOM     34  H   UNL     1      34.809  40.598  19.123  1.00  0.00     0.211 HD
ENDBRANCH  21  33
ENDBRANCH  15  16
ENDBRANCH  10  15
BRANCH  12  35
ATOM     35  O   UNL     1      31.261  33.444  17.506  1.00  0.00    -0.385 OA
ATOM     36  H   UNL     1      31.262  32.513  17.180  1.00  0.00     0.211 HD
ENDBRANCH  12  35
BRANCH  13  37
ATOM     37  O   UNL     1      31.142  32.344  14.889  1.00  0.00    -0.387 OA
ATOM     38  H   UNL     1      30.349  32.442  15.474  1.00  0.00     0.211 HD
ENDBRANCH  13  37
BRANCH  14  39
ATOM     39  O   UNL     1      31.287  34.358  13.203  1.00  0.00    -0.387 OA
ATOM     40  H   UNL     1      31.327  35.236  12.737  1.00  0.00     0.211 HD
ENDBRANCH  14  39
ENDBRANCH   8   9
ENDBRANCH   7   8
ENDBRANCH   1   7
BRANCH   1  41
ATOM     41  C   UNL     1      30.893  38.175  10.943  1.00  0.00     0.364 C 
ATOM     42  O   UNL     1      31.880  38.940  10.625  1.00  0.00    -0.246 OA
BRANCH  41  43
ATOM     43  O   UNL     1      30.016  37.935   9.918  1.00  0.00    -0.477 OA
ATOM     44  H   UNL     1      29.897  37.006   9.541  1.00  0.00     0.296 HD
ENDBRANCH  41  43
ENDBRANCH   1  41
BRANCH   3  45
ATOM     45  O   UNL     1      29.018  40.654  13.694  1.00  0.00    -0.391 OA
ATOM     46  H   UNL     1      28.270  40.442  14.297  1.00  0.00     0.211 HD
ENDBRANCH   3  45
BRANCH   5  47
ATOM     47  C   UNL     1      27.937  36.472  14.013  1.00  0.00     0.176 C 
BRANCH  47  48
ATOM     48  O   UNL     1      26.812  37.197  14.480  1.00  0.00    -0.388 OA
ATOM     49  H   UNL     1      27.090  37.942  15.048  1.00  0.00     0.211 HD
ENDBRANCH  47  48
BRANCH  47  50
ATOM     50  C   UNL     1      27.649  35.033  13.888  1.00  0.00     0.165 C 
BRANCH  50  51
ATOM     51  O   UNL     1      28.575  34.371  13.111  1.00  0.00    -0.388 OA
ATOM     52  H   UNL     1      29.442  34.225  13.566  1.00  0.00     0.211 HD
ENDBRANCH  50  51
BRANCH  50  53
ATOM     53  C   UNL     1      26.266  34.623  13.519  1.00  0.00     0.154 C 
BRANCH  53  54
ATOM     54  N   UNL     1      25.980  34.506  12.130  1.00  0.00    -0.319 N 
ATOM     55  C   UNL     1      25.285  35.596  11.502  1.00  0.00     0.407 C 
ATOM     56  H   UNL     1      26.216  33.687  11.548  1.00  0.00     0.167 HD
ATOM     57  O   UNL     1      24.961  36.610  12.211  1.00  0.00    -0.225 OA
BRANCH  55  58
ATOM     58  O   UNL     1      24.985  35.540  10.171  1.00  0.00    -0.443 OA
BRANCH  58  59
ATOM     59  C   UNL     1      24.736  36.685   9.397  1.00  0.00     0.294 C 
BRANCH  59  60
ATOM     60  C   UNL     1      25.941  37.065   8.627  1.00  0.00     0.120 A 
ATOM     61  C   UNL     1      26.266  36.796   7.303  1.00  0.00     0.138 A 
ATOM     62  N   UNL     1      26.984  37.778   9.082  1.00  0.00    -0.132 NA
ATOM     63  N   UNL     1      27.458  37.332   7.000  1.00  0.00    -0.248 N 
ATOM     64  N   UNL     1      27.872  37.931   8.120  1.00  0.00    -0.067 NA
BRANCH  63  65
ATOM     65  C   UNL     1      28.207  37.308   5.739  1.00  0.00     0.185 C 
BRANCH  65  66
ATOM     66  C   UNL     1      28.424  38.713   5.324  1.00  0.00     0.018 A 
ATOM     67  C   UNL     1      27.464  39.334   4.550  1.00  0.00     0.025 A 
ATOM     68  C   UNL     1      29.559  39.429   5.687  1.00  0.00     0.134 A 
ATOM     69  C   UNL     1      27.602  40.648   4.127  1.00  0.00     0.019 A 
ATOM     70  C   UNL     1      29.726  40.743   5.280  1.00  0.00     0.061 A 
ATOM     71  Br  UNL     1      26.253  41.463   3.060  1.00  0.00    -0.051 Br
ATOM     72  C   UNL     1      28.732  41.334   4.499  1.00  0.00     0.035 A 
ATOM     73  Br  UNL     1      31.276  41.695   5.787  1.00  0.00    -0.047 Br
BRANCH  68  74
ATOM     74  O   UNL     1      30.481  38.750   6.460  1.00  0.00    -0.506 OA
ATOM     75  H   UNL     1      30.959  37.952   6.075  1.00  0.00     0.293 HD
ENDBRANCH  68  74
ENDBRANCH  65  66
ENDBRANCH  63  65
ENDBRANCH  59  60
ENDBRANCH  58  59
ENDBRANCH  55  58
ENDBRANCH  53  54
ENDBRANCH  50  53
ENDBRANCH  47  50
ENDBRANCH   5  47
BRANCH   4  76
ATOM     76  N   UNL     1      27.111  38.994  11.866  1.00  0.00    -0.348 N 
ATOM     77  C   UNL     1      25.996  39.760  12.292  1.00  0.00     0.217 C 
ATOM     78  H   UNL     1      27.172  38.741  10.853  1.00  0.00     0.163 HD
ATOM     79  C   UNL     1      24.970  40.171  11.283  1.00  0.00     0.114 C 
ATOM     80  O   UNL     1      25.880  40.090  13.520  1.00  0.00    -0.275 OA
ENDBRANCH   4  76
TORSDOF 32
BEGIN_RES LYS A 131
REMARK  4 active torsions:
REMARK  status: ('A' for Active; 'I' for Inactive)
REMARK    1  A    between atoms: CA   and  CB  
REMARK    2  A    between atoms: CB   and  CG  
REMARK    3  A    between atoms: CG   and  CD  
REMARK    4  A    between atoms: CD   and  CE  
ROOT
ATOM      1  CA  LYS A 131      29.867  25.555  16.977  1.00 20.52     0.186 C 
ENDROOT
BRANCH   1   2
ATOM      2  CB  LYS A 131      28.345  25.722  17.026  1.00 20.94     0.034 C 
BRANCH   2   3
ATOM      3  CG  LYS A 131      27.599  24.480  16.563  1.00 22.96     0.005 C 
BRANCH   3   4
ATOM      4  CD  LYS A 131      27.005  23.714  17.712  1.00 24.33     0.041 C 
BRANCH   4   5
ATOM      5  CE  LYS A 131      25.494  23.918  17.733  1.00 26.91     0.338 C 
ATOM      6  NZ  LYS A 131      24.794  22.642  17.453  1.00 27.40     0.618 N 
ENDBRANCH   4   5
ENDBRANCH   3   4
ENDBRANCH   2   3
ENDBRANCH   1   2
END_RES LYS A 131
BEGIN_RES LYS A 135
REMARK  4 active torsions:
REMARK  status: ('A' for Active; 'I' for Inactive)
REMARK    5  A    between atoms: CA   and  CB  
REMARK    6  A    between atoms: CB   and  CG  
REMARK    7  A    between atoms: CG   and  CD  
REMARK    8  A    between atoms: CD   and  CE  
ROOT
ATOM      7  CA  LYS A 135      33.193  34.663   9.290  1.00 25.02     0.186 C 
ENDROOT
BRANCH   7   8
ATOM      8  CB  LYS A 135      32.060  35.360  10.034  1.00 26.63     0.034 C 
BRANCH   8   9
ATOM      9  CG  LYS A 135      30.736  34.650   9.917  1.00 29.45     0.005 C 
BRANCH   9  10
ATOM     10  CD  LYS A 135      30.338  34.495   8.457  1.00 32.00     0.041 C 
BRANCH  10  11
ATOM     11  CE  LYS A 135      28.828  34.487   8.315  1.00 34.25     0.338 C 
ATOM     12  NZ  LYS A 135      28.179  33.888   9.514  1.00 35.99     0.618 N 
ENDBRANCH  10  11
ENDBRANCH   9  10
ENDBRANCH   8   9
ENDBRANCH   7   8
END_RES LYS A 135
