REMARK VINA RESULT:    -4.704      4.182      7.243
REMARK INTER + INTRA:         -22.507
REMARK INTER:                  -9.774
REMARK INTRA:                 -12.733
REMARK UNBOUND:               -10.516
REMARK SMILES CC(=O)N[C@@H]1[C@@H](O)C[C@](OC[C@H]2O[C@@H](O[C@H]3[C@H](O)[C@@H](O)[C@H](OCCN=[N+]=[N-])O[C@@H]3CO)[C@H](O)[C@@H](O)[C@H]2O)(C(=O)O)O[C@H]1C(O)[C@H](O)CNC(=O)OCc1cn(C(C)(C)C(=O)O)nn1
REMARK SMILES IDX 9 1 8 2 6 3 5 4 42 5 41 6 10 7 11 8 12 9 14 10 13 11 32 12
REMARK SMILES IDX 34 13 36 14 15 15 16 16 29 17 28 18 21 19 17 20 19 21 30 22
REMARK SMILES IDX 31 23 22 25 23 26 24 27 25 28 26 29 27 30 18 31 20 33 33 35
REMARK SMILES IDX 35 37 37 39 38 41 39 42 40 43 7 45 43 47 44 48 45 50 46 51
REMARK SMILES IDX 47 53 48 54 49 55 50 57 51 58 52 59 53 60 54 61 63 62 55 63
REMARK SMILES IDX 62 64 56 65 57 66 58 67 59 68 60 69 61 70 4 72 2 73 1 75
REMARK SMILES IDX 3 76
REMARK H PARENT 31 24 18 32 20 34 33 36 35 38 37 40 40 44 7 46 44 49 46 52
REMARK H PARENT 48 56 61 71 4 74
REMARK Flexibility Score: inf
ROOT
ATOM      1  C   UNL     1      27.676  33.828  16.229  1.00  0.00     0.272 C 
ATOM      2  C   UNL     1      27.361  35.091  16.916  1.00  0.00     0.113 C 
ATOM      3  C   UNL     1      28.364  35.525  17.947  1.00  0.00     0.145 C 
ATOM      4  C   UNL     1      29.089  34.331  18.491  1.00  0.00     0.142 C 
ATOM      5  C   UNL     1      28.091  33.162  18.390  1.00  0.00     0.178 C 
ATOM      6  O   UNL     1      28.057  32.777  17.069  1.00  0.00    -0.332 OA
ENDROOT
BRANCH   1   7
ATOM      7  O   UNL     1      28.610  33.928  15.244  1.00  0.00    -0.338 OA
BRANCH   7   8
ATOM      8  C   UNL     1      29.471  32.893  15.055  1.00  0.00     0.199 C 
BRANCH   8   9
ATOM      9  C   UNL     1      30.799  33.372  14.511  1.00  0.00     0.179 C 
ATOM     10  C   UNL     1      31.726  35.137  13.347  1.00  0.00     0.282 C 
ATOM     11  O   UNL     1      30.596  34.697  14.129  1.00  0.00    -0.341 OA
ATOM     12  C   UNL     1      32.860  35.254  14.293  1.00  0.00     0.202 C 
ATOM     13  C   UNL     1      32.529  34.661  15.662  1.00  0.00     0.179 C 
ATOM     14  C   UNL     1      31.880  33.292  15.522  1.00  0.00     0.177 C 
BRANCH  10  15
ATOM     15  O   UNL     1      31.266  36.262  12.734  1.00  0.00    -0.341 OA
BRANCH  15  16
ATOM     16  C   UNL     1      30.236  36.913  13.390  1.00  0.00     0.184 C 
ATOM     17  C   UNL     1      29.304  37.522  12.389  1.00  0.00     0.178 C 
ATOM     18  O   UNL     1      28.556  38.566  12.953  1.00  0.00    -0.341 OA
ATOM     19  C   UNL     1      29.311  39.710  13.167  1.00  0.00     0.281 C 
ATOM     20  C   UNL     1      30.787  38.052  14.249  1.00  0.00     0.180 C 
ATOM     21  C   UNL     1      30.747  39.342  13.471  1.00  0.00     0.202 C 
BRANCH  17  22
ATOM     22  C   UNL     1      28.247  36.509  11.916  1.00  0.00     0.191 C 
BRANCH  22  23
ATOM     23  O   UNL     1      28.291  35.434  12.780  1.00  0.00    -0.394 OA
ATOM     24  H   UNL     1      28.471  34.605  12.245  1.00  0.00     0.210 HD
ENDBRANCH  22  23
ENDBRANCH  17  22
BRANCH  19  25
ATOM     25  O   UNL     1      28.719  40.371  14.243  1.00  0.00    -0.350 OA
BRANCH  25  26
ATOM     26  C   UNL     1      29.210  41.626  14.491  1.00  0.00     0.169 C 
BRANCH  26  27
ATOM     27  C   UNL     1      29.367  41.730  16.015  1.00  0.00     0.119 C 
BRANCH  27  28
ATOM     28  N   UNL     1      28.248  41.146  16.717  1.00  0.00    -0.092 NA
ATOM     29  N   UNL     1      28.476  40.238  17.532  1.00  0.00     0.001 N 
ATOM     30  N   UNL     1      28.694  39.197  18.137  1.00  0.00    -0.003 NA
ENDBRANCH  27  28
ENDBRANCH  26  27
ENDBRANCH  25  26
ENDBRANCH  19  25
BRANCH  20  31
ATOM     31  O   UNL     1      29.985  38.207  15.375  1.00  0.00    -0.387 OA
ATOM     32  H   UNL     1      30.164  39.047  15.866  1.00  0.00     0.211 HD
ENDBRANCH  20  31
BRANCH  21  33
ATOM     33  O   UNL     1      31.493  39.171  12.311  1.00  0.00    -0.385 OA
ATOM     34  H   UNL     1      32.346  39.667  12.315  1.00  0.00     0.211 HD
ENDBRANCH  21  33
ENDBRANCH  15  16
ENDBRANCH  10  15
BRANCH  12  35
ATOM     35  O   UNL     1      33.920  34.455  13.811  1.00  0.00    -0.385 OA
ATOM     36  H   UNL     1      34.602  34.949  13.333  1.00  0.00     0.211 HD
ENDBRANCH  12  35
BRANCH  13  37
ATOM     37  O   UNL     1      31.734  35.531  16.384  1.00  0.00    -0.387 OA
ATOM     38  H   UNL     1      31.630  36.391  15.901  1.00  0.00     0.211 HD
ENDBRANCH  13  37
BRANCH  14  39
ATOM     39  O   UNL     1      31.381  32.955  16.769  1.00  0.00    -0.387 OA
ATOM     40  H   UNL     1      31.818  32.101  17.050  1.00  0.00     0.211 HD
ENDBRANCH  14  39
ENDBRANCH   8   9
ENDBRANCH   7   8
ENDBRANCH   1   7
BRANCH   1  41
ATOM     41  C   UNL     1      26.357  33.316  15.635  1.00  0.00     0.364 C 
ATOM     42  O   UNL     1      25.359  34.066  15.581  1.00  0.00    -0.246 OA
BRANCH  41  43
ATOM     43  O   UNL     1      26.245  32.028  15.152  1.00  0.00    -0.477 OA
ATOM     44  H   UNL     1      26.469  31.758  14.207  1.00  0.00     0.296 HD
ENDBRANCH  41  43
ENDBRANCH   1  41
BRANCH   3  45
ATOM     45  O   UNL     1      29.274  36.380  17.363  1.00  0.00    -0.391 OA
ATOM     46  H   UNL     1      29.128  36.483  16.386  1.00  0.00     0.211 HD
ENDBRANCH   3  45
BRANCH   5  47
ATOM     47  C   UNL     1      28.494  32.016  19.274  1.00  0.00     0.176 C 
BRANCH  47  48
ATOM     48  O   UNL     1      27.371  31.257  19.592  1.00  0.00    -0.388 OA
ATOM     49  H   UNL     1      26.855  31.683  20.340  1.00  0.00     0.211 HD
ENDBRANCH  47  48
BRANCH  47  50
ATOM     50  C   UNL     1      29.472  31.124  18.545  1.00  0.00     0.165 C 
BRANCH  50  51
ATOM     51  O   UNL     1      28.808  30.060  17.920  1.00  0.00    -0.388 OA
ATOM     52  H   UNL     1      28.382  29.513  18.617  1.00  0.00     0.211 HD
ENDBRANCH  50  51
BRANCH  50  53
ATOM     53  C   UNL     1      30.532  30.555  19.450  1.00  0.00     0.154 C 
BRANCH  53  54
ATOM     54  N   UNL     1      30.163  29.250  19.943  1.00  0.00    -0.319 N 
ATOM     55  C   UNL     1      29.539  29.081  21.203  1.00  0.00     0.407 C 
ATOM     56  H   UNL     1      30.355  28.404  19.371  1.00  0.00     0.167 HD
ATOM     57  O   UNL     1      29.273  30.054  21.953  1.00  0.00    -0.225 OA
BRANCH  55  58
ATOM     58  O   UNL     1      29.189  27.807  21.673  1.00  0.00    -0.443 OA
BRANCH  58  59
ATOM     59  C   UNL     1      27.807  27.437  21.693  1.00  0.00     0.294 C 
BRANCH  59  60
ATOM     60  C   UNL     1      27.183  27.644  20.387  1.00  0.00     0.120 A 
ATOM     61  C   UNL     1      25.919  28.119  20.152  1.00  0.00     0.139 A 
ATOM     62  N   UNL     1      27.738  27.402  19.196  1.00  0.00    -0.132 NA
ATOM     63  N   UNL     1      25.725  28.159  18.819  1.00  0.00    -0.235 N 
ATOM     64  N   UNL     1      26.863  27.712  18.277  1.00  0.00    -0.066 NA
BRANCH  63  65
ATOM     65  C   UNL     1      24.561  28.583  18.069  1.00  0.00     0.155 C 
ATOM     66  C   UNL     1      23.542  29.191  18.986  1.00  0.00     0.049 C 
ATOM     67  C   UNL     1      23.911  27.397  17.364  1.00  0.00     0.049 C 
BRANCH  65  68
ATOM     68  C   UNL     1      25.012  29.533  17.027  1.00  0.00     0.331 C 
ATOM     69  O   UNL     1      24.444  29.540  15.924  1.00  0.00    -0.250 OA
BRANCH  68  70
ATOM     70  O   UNL     1      26.060  30.391  17.310  1.00  0.00    -0.479 OA
ATOM     71  H   UNL     1      26.059  31.013  18.111  1.00  0.00     0.296 HD
ENDBRANCH  68  70
ENDBRANCH  65  68
ENDBRANCH  63  65
ENDBRANCH  59  60
ENDBRANCH  58  59
ENDBRANCH  55  58
ENDBRANCH  53  54
ENDBRANCH  50  53
ENDBRANCH  47  50
ENDBRANCH   5  47
BRANCH   4  72
ATOM     72  N   UNL     1      29.407  34.460  19.889  1.00  0.00    -0.348 N 
ATOM     73  C   UNL     1      30.722  34.340  20.422  1.00  0.00     0.217 C 
ATOM     74  H   UNL     1      28.633  34.657  20.553  1.00  0.00     0.163 HD
ATOM     75  C   UNL     1      30.966  34.488  21.890  1.00  0.00     0.114 C 
ATOM     76  O   UNL     1      31.683  34.106  19.643  1.00  0.00    -0.275 OA
ENDBRANCH   4  72
TORSDOF 32
BEGIN_RES LYS A 131
REMARK  4 active torsions:
REMARK  status: ('A' for Active; 'I' for Inactive)
REMARK    1  A    between atoms: CA   and  CB  
REMARK    2  A    between atoms: CB   and  CG  
REMARK    3  A    between atoms: CG   and  CD  
REMARK    4  A    between atoms: CD   and  CE  
ROOT
ATOM      1  CA  LYS A 131      29.867  25.555  16.977  1.00 20.52     0.186 C 
ENDROOT
BRANCH   1   2
ATOM      2  CB  LYS A 131      28.345  25.722  17.026  1.00 20.94     0.034 C 
BRANCH   2   3
ATOM      3  CG  LYS A 131      27.602  24.400  16.912  1.00 22.96     0.005 C 
BRANCH   3   4
ATOM      4  CD  LYS A 131      26.155  24.528  17.300  1.00 24.33     0.041 C 
BRANCH   4   5
ATOM      5  CE  LYS A 131      25.878  23.663  18.525  1.00 26.91     0.338 C 
ATOM      6  NZ  LYS A 131      25.477  24.506  19.676  1.00 27.40     0.618 N 
ENDBRANCH   4   5
ENDBRANCH   3   4
ENDBRANCH   2   3
ENDBRANCH   1   2
END_RES LYS A 131
BEGIN_RES LYS A 135
REMARK  4 active torsions:
REMARK  status: ('A' for Active; 'I' for Inactive)
REMARK    5  A    between atoms: CA   and  CB  
REMARK    6  A    between atoms: CB   and  CG  
REMARK    7  A    between atoms: CG   and  CD  
REMARK    8  A    between atoms: CD   and  CE  
ROOT
ATOM      7  CA  LYS A 135      33.193  34.663   9.290  1.00 25.02     0.186 C 
ENDROOT
BRANCH   7   8
ATOM      8  CB  LYS A 135      32.060  35.360  10.034  1.00 26.63     0.034 C 
BRANCH   8   9
ATOM      9  CG  LYS A 135      30.707  34.744   9.785  1.00 29.45     0.005 C 
BRANCH   9  10
ATOM     10  CD  LYS A 135      30.484  34.522   8.297  1.00 32.00     0.041 C 
BRANCH  10  11
ATOM     11  CE  LYS A 135      29.057  34.867   7.915  1.00 34.25     0.338 C 
ATOM     12  NZ  LYS A 135      28.088  34.293   8.889  1.00 35.99     0.618 N 
ENDBRANCH  10  11
ENDBRANCH   9  10
ENDBRANCH   8   9
ENDBRANCH   7   8
END_RES LYS A 135
