REMARK VINA RESULT:    -4.990      2.595      7.663
REMARK INTER + INTRA:         -22.592
REMARK INTER:                 -12.757
REMARK INTRA:                  -9.835
REMARK UNBOUND:               -10.018
REMARK SMILES COc1ccc(-n2cc(COC(=O)NC[C@@H](O)C(O)[C@@H]3O[C@@](OC[C@H]4O[C@@H](O[C@H]5[C@H](O)[C@@H](O)[C@H](OCCN=[N+]=[N-])O[C@@H]5CO)[C@H](O)[C@@H](O)[C@H]4O)(C(=O)O)C[C@H](O)[C@H]3NC(C)=O)nn2)cc1
REMARK SMILES IDX 22 1 54 2 55 3 57 4 20 5 21 6 23 7 24 8 25 9 27 10 26 11
REMARK SMILES IDX 45 12 47 13 49 14 28 15 29 16 42 17 41 18 34 19 30 20 32 21
REMARK SMILES IDX 43 22 44 23 35 25 36 26 37 27 38 28 39 29 40 30 31 31 33 33
REMARK SMILES IDX 46 35 48 37 50 39 51 41 52 42 53 43 56 45 18 47 19 48 16 50
REMARK SMILES IDX 17 51 15 53 14 54 12 55 13 57 11 58 10 59 9 60 8 61 62 62
REMARK SMILES IDX 7 63 63 64 6 65 5 66 64 67 4 68 65 69 3 70 2 71 1 72 58 73
REMARK SMILES IDX 59 74 60 76 61 77
REMARK H PARENT 44 24 31 32 33 34 46 36 48 38 50 40 53 44 56 46 19 49 17 52
REMARK H PARENT 14 56 58 75
REMARK Flexibility Score: inf
ROOT
ATOM      1  C   UNL     1      27.416  38.001  10.020  1.00  0.00     0.272 C 
ATOM      2  C   UNL     1      26.999  39.410  10.218  1.00  0.00     0.113 C 
ATOM      3  C   UNL     1      26.912  40.262   9.014  1.00  0.00     0.145 C 
ATOM      4  C   UNL     1      27.812  39.642   7.925  1.00  0.00     0.142 C 
ATOM      5  C   UNL     1      29.004  39.081   8.616  1.00  0.00     0.178 C 
ATOM      6  O   UNL     1      28.596  37.914   9.259  1.00  0.00    -0.332 OA
ENDROOT
BRANCH   1   7
ATOM      7  O   UNL     1      26.628  37.032   9.676  1.00  0.00    -0.338 OA
BRANCH   7   8
ATOM      8  C   UNL     1      25.853  36.647   8.733  1.00  0.00     0.199 C 
BRANCH   8   9
ATOM      9  C   UNL     1      24.353  36.694   8.790  1.00  0.00     0.179 C 
ATOM     10  C   UNL     1      22.481  36.913  10.082  1.00  0.00     0.282 C 
ATOM     11  O   UNL     1      23.880  37.029  10.012  1.00  0.00    -0.341 OA
ATOM     12  C   UNL     1      21.753  37.783   9.108  1.00  0.00     0.202 C 
ATOM     13  C   UNL     1      22.551  38.277   7.961  1.00  0.00     0.179 C 
ATOM     14  C   UNL     1      23.768  37.500   7.656  1.00  0.00     0.177 C 
BRANCH  10  15
ATOM     15  O   UNL     1      22.109  37.264  11.376  1.00  0.00    -0.341 OA
BRANCH  15  16
ATOM     16  C   UNL     1      21.901  36.183  12.188  1.00  0.00     0.184 C 
ATOM     17  C   UNL     1      23.158  35.481  12.549  1.00  0.00     0.178 C 
ATOM     18  O   UNL     1      22.882  34.311  13.306  1.00  0.00    -0.341 OA
ATOM     19  C   UNL     1      22.297  33.403  12.385  1.00  0.00     0.281 C 
ATOM     20  C   UNL     1      20.965  35.208  11.450  1.00  0.00     0.180 C 
ATOM     21  C   UNL     1      20.866  33.924  12.228  1.00  0.00     0.202 C 
BRANCH  17  22
ATOM     22  C   UNL     1      24.094  36.362  13.335  1.00  0.00     0.191 C 
BRANCH  22  23
ATOM     23  O   UNL     1      25.043  36.892  12.479  1.00  0.00    -0.394 OA
ATOM     24  H   UNL     1      25.339  37.791  12.743  1.00  0.00     0.210 HD
ENDBRANCH  22  23
ENDBRANCH  17  22
BRANCH  19  25
ATOM     25  O   UNL     1      22.332  32.134  12.848  1.00  0.00    -0.350 OA
BRANCH  25  26
ATOM     26  C   UNL     1      23.297  31.759  13.730  1.00  0.00     0.169 C 
BRANCH  26  27
ATOM     27  C   UNL     1      24.358  30.833  13.238  1.00  0.00     0.119 C 
BRANCH  27  28
ATOM     28  N   UNL     1      23.903  29.572  12.735  1.00  0.00    -0.092 NA
ATOM     29  N   UNL     1      23.236  28.812  13.428  1.00  0.00     0.001 N 
ATOM     30  N   UNL     1      22.679  28.098  14.269  1.00  0.00    -0.003 NA
ENDBRANCH  27  28
ENDBRANCH  26  27
ENDBRANCH  25  26
ENDBRANCH  19  25
BRANCH  20  31
ATOM     31  O   UNL     1      19.734  35.816  11.285  1.00  0.00    -0.387 OA
ATOM     32  H   UNL     1      19.857  36.790  11.511  1.00  0.00     0.211 HD
ENDBRANCH  20  31
BRANCH  21  33
ATOM     33  O   UNL     1      20.148  32.986  11.521  1.00  0.00    -0.385 OA
ATOM     34  H   UNL     1      19.265  32.818  11.934  1.00  0.00     0.211 HD
ENDBRANCH  21  33
ENDBRANCH  15  16
ENDBRANCH  10  15
BRANCH  12  35
ATOM     35  O   UNL     1      20.633  37.127   8.569  1.00  0.00    -0.385 OA
ATOM     36  H   UNL     1      20.070  37.744   8.051  1.00  0.00     0.211 HD
ENDBRANCH  12  35
BRANCH  13  37
ATOM     37  O   UNL     1      22.784  39.651   8.091  1.00  0.00    -0.387 OA
ATOM     38  H   UNL     1      22.259  40.193   7.468  1.00  0.00     0.211 HD
ENDBRANCH  13  37
BRANCH  14  39
ATOM     39  O   UNL     1      24.716  38.353   7.086  1.00  0.00    -0.387 OA
ATOM     40  H   UNL     1      25.381  38.554   7.792  1.00  0.00     0.211 HD
ENDBRANCH  14  39
ENDBRANCH   8   9
ENDBRANCH   7   8
ENDBRANCH   1   7
BRANCH   1  41
ATOM     41  C   UNL     1      27.973  37.617  11.428  1.00  0.00     0.364 C 
ATOM     42  O   UNL     1      28.366  38.492  12.202  1.00  0.00    -0.246 OA
BRANCH  41  43
ATOM     43  O   UNL     1      27.989  36.278  11.728  1.00  0.00    -0.477 OA
ATOM     44  H   UNL     1      28.676  35.636  11.306  1.00  0.00     0.296 HD
ENDBRANCH  41  43
ENDBRANCH   1  41
BRANCH   3  45
ATOM     45  O   UNL     1      25.663  40.556   8.550  1.00  0.00    -0.391 OA
ATOM     46  H   UNL     1      25.048  40.970   9.196  1.00  0.00     0.211 HD
ENDBRANCH   3  45
BRANCH   5  47
ATOM     47  C   UNL     1      30.116  38.624   7.643  1.00  0.00     0.176 C 
BRANCH  47  48
ATOM     48  O   UNL     1      29.584  38.156   6.480  1.00  0.00    -0.388 OA
ATOM     49  H   UNL     1      29.316  37.215   6.595  1.00  0.00     0.211 HD
ENDBRANCH  47  48
BRANCH  47  50
ATOM     50  C   UNL     1      31.273  39.484   7.676  1.00  0.00     0.165 C 
BRANCH  50  51
ATOM     51  O   UNL     1      32.156  39.389   6.565  1.00  0.00    -0.388 OA
ATOM     52  H   UNL     1      31.588  39.474   5.773  1.00  0.00     0.211 HD
ENDBRANCH  50  51
BRANCH  50  53
ATOM     53  C   UNL     1      32.162  39.647   8.837  1.00  0.00     0.154 C 
BRANCH  53  54
ATOM     54  N   UNL     1      32.333  38.586   9.723  1.00  0.00    -0.319 N 
ATOM     55  C   UNL     1      31.883  38.516  11.049  1.00  0.00     0.407 C 
ATOM     56  H   UNL     1      32.867  37.719   9.369  1.00  0.00     0.167 HD
ATOM     57  O   UNL     1      31.237  39.436  11.576  1.00  0.00    -0.225 OA
BRANCH  55  58
ATOM     58  O   UNL     1      32.169  37.361  11.814  1.00  0.00    -0.443 OA
BRANCH  58  59
ATOM     59  C   UNL     1      31.679  37.322  13.130  1.00  0.00     0.294 C 
BRANCH  59  60
ATOM     60  C   UNL     1      31.039  36.010  13.389  1.00  0.00     0.121 A 
ATOM     61  C   UNL     1      30.818  35.353  14.584  1.00  0.00     0.144 A 
ATOM     62  N   UNL     1      30.527  35.218  12.426  1.00  0.00    -0.131 NA
ATOM     63  N   UNL     1      30.191  34.205  14.302  1.00  0.00    -0.220 N 
ATOM     64  N   UNL     1      30.025  34.146  12.977  1.00  0.00    -0.062 NA
BRANCH  63  65
ATOM     65  C   UNL     1      29.720  33.156  15.134  1.00  0.00     0.067 A 
ATOM     66  C   UNL     1      28.411  32.996  15.502  1.00  0.00     0.032 A 
ATOM     67  C   UNL     1      30.637  32.229  15.625  1.00  0.00     0.032 A 
ATOM     68  C   UNL     1      28.020  31.952  16.329  1.00  0.00     0.048 A 
ATOM     69  C   UNL     1      30.248  31.191  16.449  1.00  0.00     0.048 A 
ATOM     70  C   UNL     1      28.929  31.031  16.818  1.00  0.00     0.119 A 
BRANCH  70  71
ATOM     71  O   UNL     1      28.518  29.978  17.658  1.00  0.00    -0.497 OA
ATOM     72  C   UNL     1      27.105  29.814  17.849  1.00  0.00     0.278 C 
ENDBRANCH  70  71
ENDBRANCH  63  65
ENDBRANCH  59  60
ENDBRANCH  58  59
ENDBRANCH  55  58
ENDBRANCH  53  54
ENDBRANCH  50  53
ENDBRANCH  47  50
ENDBRANCH   5  47
BRANCH   4  73
ATOM     73  N   UNL     1      28.027  40.622   6.897  1.00  0.00    -0.348 N 
ATOM     74  C   UNL     1      27.574  40.408   5.570  1.00  0.00     0.217 C 
ATOM     75  H   UNL     1      28.494  41.514   7.135  1.00  0.00     0.163 HD
ATOM     76  C   UNL     1      27.810  41.437   4.524  1.00  0.00     0.114 C 
ATOM     77  O   UNL     1      26.964  39.363   5.219  1.00  0.00    -0.275 OA
ENDBRANCH   4  73
TORSDOF 31
BEGIN_RES LYS A 131
REMARK  4 active torsions:
REMARK  status: ('A' for Active; 'I' for Inactive)
REMARK    1  A    between atoms: CA   and  CB  
REMARK    2  A    between atoms: CB   and  CG  
REMARK    3  A    between atoms: CG   and  CD  
REMARK    4  A    between atoms: CD   and  CE  
ROOT
ATOM      1  CA  LYS A 131      29.867  25.555  16.977  1.00 20.52     0.186 C 
ENDROOT
BRANCH   1   2
ATOM      2  CB  LYS A 131      28.345  25.722  17.026  1.00 20.94     0.034 C 
BRANCH   2   3
ATOM      3  CG  LYS A 131      27.601  24.402  16.891  1.00 22.96     0.005 C 
BRANCH   3   4
ATOM      4  CD  LYS A 131      26.665  24.159  18.043  1.00 24.33     0.041 C 
BRANCH   4   5
ATOM      5  CE  LYS A 131      25.534  23.240  17.594  1.00 26.91     0.338 C 
ATOM      6  NZ  LYS A 131      24.490  24.013  16.881  1.00 27.40     0.618 N 
ENDBRANCH   4   5
ENDBRANCH   3   4
ENDBRANCH   2   3
ENDBRANCH   1   2
END_RES LYS A 131
BEGIN_RES LYS A 135
REMARK  4 active torsions:
REMARK  status: ('A' for Active; 'I' for Inactive)
REMARK    5  A    between atoms: CA   and  CB  
REMARK    6  A    between atoms: CB   and  CG  
REMARK    7  A    between atoms: CG   and  CD  
REMARK    8  A    between atoms: CD   and  CE  
ROOT
ATOM      7  CA  LYS A 135      33.193  34.663   9.290  1.00 25.02     0.186 C 
ENDROOT
BRANCH   7   8
ATOM      8  CB  LYS A 135      32.060  35.360  10.034  1.00 26.63     0.034 C 
BRANCH   8   9
ATOM      9  CG  LYS A 135      30.795  35.486   9.224  1.00 29.45     0.005 C 
BRANCH   9  10
ATOM     10  CD  LYS A 135      30.158  34.123   9.008  1.00 32.00     0.041 C 
BRANCH  10  11
ATOM     11  CE  LYS A 135      28.699  34.272   8.621  1.00 34.25     0.338 C 
ATOM     12  NZ  LYS A 135      27.808  33.644   9.635  1.00 35.99     0.618 N 
ENDBRANCH  10  11
ENDBRANCH   9  10
ENDBRANCH   8   9
ENDBRANCH   7   8
END_RES LYS A 135
