REMARK VINA RESULT:    -4.495      2.042      2.547
REMARK INTER + INTRA:         -21.606
REMARK INTER:                 -11.961
REMARK INTRA:                  -9.645
REMARK UNBOUND:               -10.541
REMARK SMILES CC(=O)N[C@@H]1[C@@H](O)C[C@](OC[C@H]2O[C@@H](O[C@H]3[C@H](O)[C@@H](O)[C@H](OCCN=[N+]=[N-])O[C@@H]3CO)[C@H](O)[C@@H](O)[C@H]2O)(C(=O)O)O[C@H]1C(O)[C@H](O)CNC(=O)OCc1cn(-c2ccccc2)nn1
REMARK SMILES IDX 9 1 8 2 6 3 5 4 42 5 41 6 10 7 11 8 12 9 14 10 13 11 32 12
REMARK SMILES IDX 34 13 36 14 15 15 16 16 29 17 28 18 21 19 17 20 19 21 30 22
REMARK SMILES IDX 31 23 22 25 23 26 24 27 25 28 26 29 27 30 18 31 20 33 33 35
REMARK SMILES IDX 35 37 37 39 38 41 39 42 40 43 7 45 43 47 44 48 45 50 46 51
REMARK SMILES IDX 47 53 48 54 49 55 50 57 51 58 52 59 53 60 54 61 63 62 55 63
REMARK SMILES IDX 62 64 56 65 57 66 61 67 58 68 60 69 59 70 4 71 2 72 1 74
REMARK SMILES IDX 3 75
REMARK H PARENT 31 24 18 32 20 34 33 36 35 38 37 40 40 44 7 46 44 49 46 52
REMARK H PARENT 48 56 4 73
REMARK Flexibility Score: inf
ROOT
ATOM      1  C   UNL     1      28.574  32.006  16.232  1.00  0.00     0.272 C 
ATOM      2  C   UNL     1      28.560  30.526  16.337  1.00  0.00     0.113 C 
ATOM      3  C   UNL     1      27.285  29.938  16.814  1.00  0.00     0.145 C 
ATOM      4  C   UNL     1      26.102  30.643  16.175  1.00  0.00     0.142 C 
ATOM      5  C   UNL     1      26.235  32.103  16.546  1.00  0.00     0.178 C 
ATOM      6  O   UNL     1      27.318  32.564  15.844  1.00  0.00    -0.332 OA
ENDROOT
BRANCH   1   7
ATOM      7  O   UNL     1      29.411  32.518  15.284  1.00  0.00    -0.338 OA
BRANCH   7   8
ATOM      8  C   UNL     1      30.720  32.346  15.266  1.00  0.00     0.199 C 
BRANCH   8   9
ATOM      9  C   UNL     1      31.671  33.380  14.804  1.00  0.00     0.179 C 
ATOM     10  C   UNL     1      31.628  35.464  13.754  1.00  0.00     0.282 C 
ATOM     11  O   UNL     1      30.872  34.314  14.070  1.00  0.00    -0.341 OA
ATOM     12  C   UNL     1      33.080  35.352  14.079  1.00  0.00     0.202 C 
ATOM     13  C   UNL     1      33.294  35.062  15.549  1.00  0.00     0.179 C 
ATOM     14  C   UNL     1      32.186  34.164  16.017  1.00  0.00     0.177 C 
BRANCH  10  15
ATOM     15  O   UNL     1      31.101  36.501  14.433  1.00  0.00    -0.341 OA
BRANCH  15  16
ATOM     16  C   UNL     1      30.129  37.278  13.920  1.00  0.00     0.184 C 
ATOM     17  C   UNL     1      29.451  38.201  14.905  1.00  0.00     0.178 C 
ATOM     18  O   UNL     1      28.181  38.471  14.358  1.00  0.00    -0.341 OA
ATOM     19  C   UNL     1      27.380  37.372  14.735  1.00  0.00     0.281 C 
ATOM     20  C   UNL     1      29.046  36.478  13.194  1.00  0.00     0.180 C 
ATOM     21  C   UNL     1      27.950  36.089  14.165  1.00  0.00     0.202 C 
BRANCH  17  22
ATOM     22  C   UNL     1      30.162  39.530  15.034  1.00  0.00     0.191 C 
BRANCH  22  23
ATOM     23  O   UNL     1      31.484  39.366  14.610  1.00  0.00    -0.394 OA
ATOM     24  H   UNL     1      31.553  39.403  13.605  1.00  0.00     0.210 HD
ENDBRANCH  22  23
ENDBRANCH  17  22
BRANCH  19  25
ATOM     25  O   UNL     1      26.091  37.504  14.316  1.00  0.00    -0.350 OA
BRANCH  25  26
ATOM     26  C   UNL     1      25.189  38.050  15.188  1.00  0.00     0.169 C 
BRANCH  26  27
ATOM     27  C   UNL     1      23.776  38.094  14.700  1.00  0.00     0.119 C 
BRANCH  27  28
ATOM     28  N   UNL     1      23.202  36.802  14.607  1.00  0.00    -0.092 NA
ATOM     29  N   UNL     1      22.674  36.242  15.586  1.00  0.00     0.001 N 
ATOM     30  N   UNL     1      22.507  35.720  16.700  1.00  0.00    -0.003 NA
ENDBRANCH  27  28
ENDBRANCH  26  27
ENDBRANCH  25  26
ENDBRANCH  19  25
BRANCH  20  31
ATOM     31  O   UNL     1      28.446  37.188  12.163  1.00  0.00    -0.387 OA
ATOM     32  H   UNL     1      29.052  37.876  11.795  1.00  0.00     0.211 HD
ENDBRANCH  20  31
BRANCH  21  33
ATOM     33  O   UNL     1      28.401  35.260  15.170  1.00  0.00    -0.385 OA
ATOM     34  H   UNL     1      28.360  35.666  16.066  1.00  0.00     0.211 HD
ENDBRANCH  21  33
ENDBRANCH  15  16
ENDBRANCH  10  15
BRANCH  12  35
ATOM     35  O   UNL     1      33.805  34.521  13.235  1.00  0.00    -0.385 OA
ATOM     36  H   UNL     1      34.577  34.174  13.752  1.00  0.00     0.211 HD
ENDBRANCH  12  35
BRANCH  13  37
ATOM     37  O   UNL     1      33.227  36.251  16.250  1.00  0.00    -0.387 OA
ATOM     38  H   UNL     1      33.947  36.894  16.031  1.00  0.00     0.211 HD
ENDBRANCH  13  37
BRANCH  14  39
ATOM     39  O   UNL     1      31.081  34.920  16.473  1.00  0.00    -0.387 OA
ATOM     40  H   UNL     1      31.194  35.872  16.275  1.00  0.00     0.211 HD
ENDBRANCH  14  39
ENDBRANCH   8   9
ENDBRANCH   7   8
ENDBRANCH   1   7
BRANCH   1  41
ATOM     41  C   UNL     1      28.769  32.603  17.573  1.00  0.00     0.364 C 
ATOM     42  O   UNL     1      29.057  31.919  18.555  1.00  0.00    -0.246 OA
BRANCH  41  43
ATOM     43  O   UNL     1      28.622  33.994  17.756  1.00  0.00    -0.477 OA
ATOM     44  H   UNL     1      27.855  34.462  17.279  1.00  0.00     0.296 HD
ENDBRANCH  41  43
ENDBRANCH   1  41
BRANCH   3  45
ATOM     45  O   UNL     1      27.270  28.571  16.546  1.00  0.00    -0.391 OA
ATOM     46  H   UNL     1      26.340  28.289  16.545  1.00  0.00     0.211 HD
ENDBRANCH   3  45
BRANCH   5  47
ATOM     47  C   UNL     1      25.032  32.905  16.060  1.00  0.00     0.176 C 
BRANCH  47  48
ATOM     48  O   UNL     1      24.999  34.078  16.765  1.00  0.00    -0.388 OA
ATOM     49  H   UNL     1      24.978  33.970  17.740  1.00  0.00     0.211 HD
ENDBRANCH  47  48
BRANCH  47  50
ATOM     50  C   UNL     1      24.941  33.108  14.606  1.00  0.00     0.165 C 
BRANCH  50  51
ATOM     51  O   UNL     1      25.306  34.471  14.371  1.00  0.00    -0.388 OA
ATOM     52  H   UNL     1      25.799  34.757  15.162  1.00  0.00     0.211 HD
ENDBRANCH  50  51
BRANCH  50  53
ATOM     53  C   UNL     1      23.488  33.044  14.105  1.00  0.00     0.154 C 
BRANCH  53  54
ATOM     54  N   UNL     1      23.380  33.410  12.715  1.00  0.00    -0.319 N 
ATOM     55  C   UNL     1      22.253  34.152  12.217  1.00  0.00     0.407 C 
ATOM     56  H   UNL     1      24.098  33.165  12.003  1.00  0.00     0.167 HD
ATOM     57  O   UNL     1      21.333  34.515  12.985  1.00  0.00    -0.225 OA
BRANCH  55  58
ATOM     58  O   UNL     1      22.159  34.486  10.878  1.00  0.00    -0.443 OA
BRANCH  58  59
ATOM     59  C   UNL     1      22.696  35.706  10.381  1.00  0.00     0.294 C 
BRANCH  59  60
ATOM     60  C   UNL     1      24.172  35.606  10.583  1.00  0.00     0.121 A 
ATOM     61  C   UNL     1      25.068  35.366   9.550  1.00  0.00     0.144 A 
ATOM     62  N   UNL     1      24.915  35.711  11.687  1.00  0.00    -0.131 NA
ATOM     63  N   UNL     1      26.328  35.332  10.058  1.00  0.00    -0.220 N 
ATOM     64  N   UNL     1      26.197  35.544  11.348  1.00  0.00    -0.062 NA
BRANCH  63  65
ATOM     65  C   UNL     1      27.529  35.109   9.337  1.00  0.00     0.066 A 
ATOM     66  C   UNL     1      28.588  34.425   9.888  1.00  0.00     0.028 A 
ATOM     67  C   UNL     1      27.655  35.574   8.047  1.00  0.00     0.028 A 
ATOM     68  C   UNL     1      29.757  34.197   9.192  1.00  0.00     0.002 A 
ATOM     69  C   UNL     1      28.831  35.343   7.351  1.00  0.00     0.002 A 
ATOM     70  C   UNL     1      29.899  34.664   7.884  1.00  0.00     0.000 A 
ENDBRANCH  63  65
ENDBRANCH  59  60
ENDBRANCH  58  59
ENDBRANCH  55  58
ENDBRANCH  53  54
ENDBRANCH  50  53
ENDBRANCH  47  50
ENDBRANCH   5  47
BRANCH   4  71
ATOM     71  N   UNL     1      24.869  30.018  16.500  1.00  0.00    -0.348 N 
ATOM     72  C   UNL     1      24.039  29.540  15.453  1.00  0.00     0.217 C 
ATOM     73  H   UNL     1      24.554  29.882  17.478  1.00  0.00     0.163 HD
ATOM     74  C   UNL     1      22.737  28.878  15.766  1.00  0.00     0.114 C 
ATOM     75  O   UNL     1      24.356  29.649  14.229  1.00  0.00    -0.275 OA
ENDBRANCH   4  71
TORSDOF 30
BEGIN_RES LYS A 131
REMARK  4 active torsions:
REMARK  status: ('A' for Active; 'I' for Inactive)
REMARK    1  A    between atoms: CA   and  CB  
REMARK    2  A    between atoms: CB   and  CG  
REMARK    3  A    between atoms: CG   and  CD  
REMARK    4  A    between atoms: CD   and  CE  
ROOT
ATOM      1  CA  LYS A 131      29.867  25.555  16.977  1.00 20.52     0.186 C 
ENDROOT
BRANCH   1   2
ATOM      2  CB  LYS A 131      28.345  25.722  17.026  1.00 20.94     0.034 C 
BRANCH   2   3
ATOM      3  CG  LYS A 131      27.602  24.399  16.921  1.00 22.96     0.005 C 
BRANCH   3   4
ATOM      4  CD  LYS A 131      26.153  24.532  17.300  1.00 24.33     0.041 C 
BRANCH   4   5
ATOM      5  CE  LYS A 131      25.783  23.430  18.288  1.00 26.91     0.338 C 
ATOM      6  NZ  LYS A 131      24.883  22.441  17.649  1.00 27.40     0.618 N 
ENDBRANCH   4   5
ENDBRANCH   3   4
ENDBRANCH   2   3
ENDBRANCH   1   2
END_RES LYS A 131
BEGIN_RES LYS A 135
REMARK  4 active torsions:
REMARK  status: ('A' for Active; 'I' for Inactive)
REMARK    5  A    between atoms: CA   and  CB  
REMARK    6  A    between atoms: CB   and  CG  
REMARK    7  A    between atoms: CG   and  CD  
REMARK    8  A    between atoms: CD   and  CE  
ROOT
ATOM      7  CA  LYS A 135      33.193  34.663   9.290  1.00 25.02     0.186 C 
ENDROOT
BRANCH   7   8
ATOM      8  CB  LYS A 135      32.060  35.360  10.034  1.00 26.63     0.034 C 
BRANCH   8   9
ATOM      9  CG  LYS A 135      32.447  36.702  10.601  1.00 29.45     0.005 C 
BRANCH   9  10
ATOM     10  CD  LYS A 135      31.357  37.729  10.338  1.00 32.00     0.041 C 
BRANCH  10  11
ATOM     11  CE  LYS A 135      31.939  38.968   9.685  1.00 34.25     0.338 C 
ATOM     12  NZ  LYS A 135      31.593  39.024   8.237  1.00 35.99     0.618 N 
ENDBRANCH  10  11
ENDBRANCH   9  10
ENDBRANCH   8   9
ENDBRANCH   7   8
END_RES LYS A 135
