REMARK VINA RESULT:    -4.389      4.667      9.422
REMARK INTER + INTRA:         -22.911
REMARK INTER:                  -9.846
REMARK INTRA:                 -13.065
REMARK UNBOUND:               -11.851
REMARK SMILES CC(=O)N[C@@H]1[C@@H](O)C[C@](OC[C@H]2O[C@@H](O[C@H]3[C@H](O)[C@@H](O)[C@H](OCCN=[N+]=[N-])O[C@@H]3CO)[C@H](O)[C@@H](O)[C@H]2O)(C(=O)O)O[C@H]1C(O)[C@H](O)CNC(=O)OCc1cn(Cc2ccccc2)nn1
REMARK SMILES IDX 9 1 8 2 6 3 5 4 42 5 41 6 10 7 11 8 12 9 14 10 13 11 32 12
REMARK SMILES IDX 34 13 36 14 15 15 16 16 29 17 28 18 21 19 17 20 19 21 30 22
REMARK SMILES IDX 31 23 22 25 23 26 24 27 25 28 26 29 27 30 18 31 20 33 33 35
REMARK SMILES IDX 35 37 37 39 38 41 39 42 40 43 7 45 43 47 44 48 45 50 46 51
REMARK SMILES IDX 47 53 48 54 49 55 50 57 51 58 52 59 53 60 54 61 64 62 55 63
REMARK SMILES IDX 63 64 56 65 57 66 58 67 62 68 59 69 61 70 60 71 4 72 2 73
REMARK SMILES IDX 1 75 3 76
REMARK H PARENT 31 24 18 32 20 34 33 36 35 38 37 40 40 44 7 46 44 49 46 52
REMARK H PARENT 48 56 4 74
REMARK Flexibility Score: inf
ROOT
ATOM      1  C   UNL     1      28.080  35.820   7.888  1.00  0.00     0.272 C 
ATOM      2  C   UNL     1      28.908  35.762   6.657  1.00  0.00     0.113 C 
ATOM      3  C   UNL     1      28.625  36.946   5.816  1.00  0.00     0.145 C 
ATOM      4  C   UNL     1      27.497  37.843   6.350  1.00  0.00     0.142 C 
ATOM      5  C   UNL     1      26.373  37.041   6.854  1.00  0.00     0.178 C 
ATOM      6  O   UNL     1      26.735  35.830   7.473  1.00  0.00    -0.332 OA
ENDROOT
BRANCH   1   7
ATOM      7  O   UNL     1      28.348  36.858   8.756  1.00  0.00    -0.338 OA
BRANCH   7   8
ATOM      8  C   UNL     1      29.716  36.993   8.929  1.00  0.00     0.199 C 
BRANCH   8   9
ATOM      9  C   UNL     1      30.108  38.394   9.337  1.00  0.00     0.179 C 
ATOM     10  C   UNL     1      29.117  40.468   9.738  1.00  0.00     0.282 C 
ATOM     11  O   UNL     1      29.203  39.342   8.916  1.00  0.00    -0.341 OA
ATOM     12  C   UNL     1      30.432  40.907  10.265  1.00  0.00     0.202 C 
ATOM     13  C   UNL     1      31.035  39.841  11.124  1.00  0.00     0.179 C 
ATOM     14  C   UNL     1      30.425  38.496  10.805  1.00  0.00     0.177 C 
BRANCH  10  15
ATOM     15  O   UNL     1      28.213  40.268  10.769  1.00  0.00    -0.341 OA
BRANCH  15  16
ATOM     16  C   UNL     1      26.906  40.077  10.338  1.00  0.00     0.184 C 
ATOM     17  C   UNL     1      26.141  41.346  10.411  1.00  0.00     0.178 C 
ATOM     18  O   UNL     1      24.819  41.062  10.007  1.00  0.00    -0.341 OA
ATOM     19  C   UNL     1      24.222  40.440  11.122  1.00  0.00     0.281 C 
ATOM     20  C   UNL     1      26.299  39.098  11.357  1.00  0.00     0.180 C 
ATOM     21  C   UNL     1      24.808  39.045  11.289  1.00  0.00     0.202 C 
BRANCH  17  22
ATOM     22  C   UNL     1      26.722  42.429   9.507  1.00  0.00     0.191 C 
BRANCH  22  23
ATOM     23  O   UNL     1      26.301  42.127   8.193  1.00  0.00    -0.394 OA
ATOM     24  H   UNL     1      25.838  41.256   8.205  1.00  0.00     0.210 HD
ENDBRANCH  22  23
ENDBRANCH  17  22
BRANCH  19  25
ATOM     25  O   UNL     1      22.867  40.361  10.922  1.00  0.00    -0.350 OA
BRANCH  25  26
ATOM     26  C   UNL     1      22.479  41.269   9.956  1.00  0.00     0.169 C 
BRANCH  26  27
ATOM     27  C   UNL     1      21.467  40.756   8.975  1.00  0.00     0.119 C 
BRANCH  27  28
ATOM     28  N   UNL     1      22.226  40.282   7.808  1.00  0.00    -0.092 NA
ATOM     29  N   UNL     1      22.919  41.114   7.224  1.00  0.00     0.001 N 
ATOM     30  N   UNL     1      23.810  41.636   6.538  1.00  0.00    -0.003 NA
ENDBRANCH  27  28
ENDBRANCH  26  27
ENDBRANCH  25  26
ENDBRANCH  19  25
BRANCH  20  31
ATOM     31  O   UNL     1      26.810  37.838  10.984  1.00  0.00    -0.387 OA
ATOM     32  H   UNL     1      26.219  37.094  11.277  1.00  0.00     0.211 HD
ENDBRANCH  20  31
BRANCH  21  33
ATOM     33  O   UNL     1      24.310  38.523  12.482  1.00  0.00    -0.385 OA
ATOM     34  H   UNL     1      24.637  39.016  13.282  1.00  0.00     0.211 HD
ENDBRANCH  21  33
ENDBRANCH  15  16
ENDBRANCH  10  15
BRANCH  12  35
ATOM     35  O   UNL     1      31.310  41.309   9.244  1.00  0.00    -0.385 OA
ATOM     36  H   UNL     1      30.941  40.933   8.405  1.00  0.00     0.211 HD
ENDBRANCH  12  35
BRANCH  13  37
ATOM     37  O   UNL     1      30.825  40.166  12.458  1.00  0.00    -0.387 OA
ATOM     38  H   UNL     1      29.867  40.346  12.659  1.00  0.00     0.211 HD
ENDBRANCH  13  37
BRANCH  14  39
ATOM     39  O   UNL     1      29.413  38.128  11.648  1.00  0.00    -0.387 OA
ATOM     40  H   UNL     1      29.218  38.721  12.400  1.00  0.00     0.211 HD
ENDBRANCH  14  39
ENDBRANCH   8   9
ENDBRANCH   7   8
ENDBRANCH   1   7
BRANCH   1  41
ATOM     41  C   UNL     1      28.156  34.547   8.684  1.00  0.00     0.364 C 
ATOM     42  O   UNL     1      29.214  33.916   8.721  1.00  0.00    -0.246 OA
BRANCH  41  43
ATOM     43  O   UNL     1      27.048  34.095   9.366  1.00  0.00    -0.477 OA
ATOM     44  H   UNL     1      27.118  33.539  10.219  1.00  0.00     0.296 HD
ENDBRANCH  41  43
ENDBRANCH   1  41
BRANCH   3  45
ATOM     45  O   UNL     1      29.729  37.802   5.636  1.00  0.00    -0.391 OA
ATOM     46  H   UNL     1      30.180  38.026   6.464  1.00  0.00     0.211 HD
ENDBRANCH   3  45
BRANCH   5  47
ATOM     47  C   UNL     1      25.373  37.653   7.743  1.00  0.00     0.176 C 
BRANCH  47  48
ATOM     48  O   UNL     1      25.280  39.026   7.680  1.00  0.00    -0.388 OA
ATOM     49  H   UNL     1      25.322  39.488   8.546  1.00  0.00     0.211 HD
ENDBRANCH  47  48
BRANCH  47  50
ATOM     50  C   UNL     1      23.993  37.063   7.775  1.00  0.00     0.165 C 
BRANCH  50  51
ATOM     51  O   UNL     1      23.081  37.731   7.018  1.00  0.00    -0.388 OA
ATOM     52  H   UNL     1      23.379  38.604   6.693  1.00  0.00     0.211 HD
ENDBRANCH  50  51
BRANCH  50  53
ATOM     53  C   UNL     1      23.577  36.638   9.153  1.00  0.00     0.154 C 
BRANCH  53  54
ATOM     54  N   UNL     1      24.503  35.753   9.811  1.00  0.00    -0.319 N 
ATOM     55  C   UNL     1      24.373  35.293  11.162  1.00  0.00     0.407 C 
ATOM     56  H   UNL     1      25.367  35.374   9.320  1.00  0.00     0.167 HD
ATOM     57  O   UNL     1      23.398  35.672  11.849  1.00  0.00    -0.225 OA
BRANCH  55  58
ATOM     58  O   UNL     1      25.302  34.439  11.727  1.00  0.00    -0.443 OA
BRANCH  58  59
ATOM     59  C   UNL     1      25.485  34.444  13.122  1.00  0.00     0.294 C 
BRANCH  59  60
ATOM     60  C   UNL     1      26.396  35.531  13.541  1.00  0.00     0.120 A 
ATOM     61  C   UNL     1      26.147  36.385  14.624  1.00  0.00     0.138 A 
ATOM     62  N   UNL     1      27.571  35.935  13.047  1.00  0.00    -0.132 NA
ATOM     63  N   UNL     1      27.169  37.248  14.728  1.00  0.00    -0.248 N 
ATOM     64  N   UNL     1      28.013  36.968  13.779  1.00  0.00    -0.067 NA
BRANCH  63  65
ATOM     65  C   UNL     1      27.287  38.286  15.727  1.00  0.00     0.181 C 
BRANCH  65  66
ATOM     66  C   UNL     1      26.953  39.597  15.118  1.00  0.00    -0.026 A 
ATOM     67  C   UNL     1      27.906  40.376  14.485  1.00  0.00     0.005 A 
ATOM     68  C   UNL     1      25.644  40.049  15.187  1.00  0.00     0.005 A 
ATOM     69  C   UNL     1      27.544  41.592  13.932  1.00  0.00     0.000 A 
ATOM     70  C   UNL     1      25.295  41.265  14.630  1.00  0.00     0.000 A 
ATOM     71  C   UNL     1      26.246  42.030  14.007  1.00  0.00     0.000 A 
ENDBRANCH  65  66
ENDBRANCH  63  65
ENDBRANCH  59  60
ENDBRANCH  58  59
ENDBRANCH  55  58
ENDBRANCH  53  54
ENDBRANCH  50  53
ENDBRANCH  47  50
ENDBRANCH   5  47
BRANCH   4  72
ATOM     72  N   UNL     1      27.102  38.555   5.118  1.00  0.00    -0.348 N 
ATOM     73  C   UNL     1      27.036  39.963   5.026  1.00  0.00     0.217 C 
ATOM     74  H   UNL     1      26.855  37.998   4.271  1.00  0.00     0.163 HD
ATOM     75  C   UNL     1      26.627  40.655   3.767  1.00  0.00     0.114 C 
ATOM     76  O   UNL     1      27.333  40.643   6.039  1.00  0.00    -0.275 OA
ENDBRANCH   4  72
TORSDOF 31
BEGIN_RES LYS A 131
REMARK  4 active torsions:
REMARK  status: ('A' for Active; 'I' for Inactive)
REMARK    1  A    between atoms: CA   and  CB  
REMARK    2  A    between atoms: CB   and  CG  
REMARK    3  A    between atoms: CG   and  CD  
REMARK    4  A    between atoms: CD   and  CE  
ROOT
ATOM      1  CA  LYS A 131      29.867  25.555  16.977  1.00 20.52     0.186 C 
ENDROOT
BRANCH   1   2
ATOM      2  CB  LYS A 131      28.345  25.722  17.026  1.00 20.94     0.034 C 
BRANCH   2   3
ATOM      3  CG  LYS A 131      27.600  24.411  16.828  1.00 22.96     0.005 C 
BRANCH   3   4
ATOM      4  CD  LYS A 131      26.621  24.142  17.937  1.00 24.33     0.041 C 
BRANCH   4   5
ATOM      5  CE  LYS A 131      25.217  24.011  17.356  1.00 26.91     0.338 C 
ATOM      6  NZ  LYS A 131      24.733  22.616  17.477  1.00 27.40     0.618 N 
ENDBRANCH   4   5
ENDBRANCH   3   4
ENDBRANCH   2   3
ENDBRANCH   1   2
END_RES LYS A 131
BEGIN_RES LYS A 135
REMARK  4 active torsions:
REMARK  status: ('A' for Active; 'I' for Inactive)
REMARK    5  A    between atoms: CA   and  CB  
REMARK    6  A    between atoms: CB   and  CG  
REMARK    7  A    between atoms: CG   and  CD  
REMARK    8  A    between atoms: CD   and  CE  
ROOT
ATOM      7  CA  LYS A 135      33.193  34.663   9.290  1.00 25.02     0.186 C 
ENDROOT
BRANCH   7   8
ATOM      8  CB  LYS A 135      32.060  35.360  10.034  1.00 26.63     0.034 C 
BRANCH   8   9
ATOM      9  CG  LYS A 135      32.247  35.386  11.529  1.00 29.45     0.005 C 
BRANCH   9  10
ATOM     10  CD  LYS A 135      30.969  34.963  12.237  1.00 32.00     0.041 C 
BRANCH  10  11
ATOM     11  CE  LYS A 135      31.212  34.807  13.726  1.00 34.25     0.338 C 
ATOM     12  NZ  LYS A 135      30.116  34.032  14.371  1.00 35.99     0.618 N 
ENDBRANCH  10  11
ENDBRANCH   9  10
ENDBRANCH   8   9
ENDBRANCH   7   8
END_RES LYS A 135
