REMARK VINA RESULT:    -4.628      1.920      2.396
REMARK INTER + INTRA:         -21.933
REMARK INTER:                 -13.046
REMARK INTRA:                  -8.887
REMARK UNBOUND:               -10.541
REMARK SMILES CC(=O)N[C@@H]1[C@@H](O)C[C@](OC[C@H]2O[C@@H](O[C@H]3[C@H](O)[C@@H](O)[C@H](OCCN=[N+]=[N-])O[C@@H]3CO)[C@H](O)[C@@H](O)[C@H]2O)(C(=O)O)O[C@H]1C(O)[C@H](O)CNC(=O)OCc1cn(-c2ccccc2)nn1
REMARK SMILES IDX 9 1 8 2 6 3 5 4 42 5 41 6 10 7 11 8 12 9 14 10 13 11 32 12
REMARK SMILES IDX 34 13 36 14 15 15 16 16 29 17 28 18 21 19 17 20 19 21 30 22
REMARK SMILES IDX 31 23 22 25 23 26 24 27 25 28 26 29 27 30 18 31 20 33 33 35
REMARK SMILES IDX 35 37 37 39 38 41 39 42 40 43 7 45 43 47 44 48 45 50 46 51
REMARK SMILES IDX 47 53 48 54 49 55 50 57 51 58 52 59 53 60 54 61 63 62 55 63
REMARK SMILES IDX 62 64 56 65 57 66 61 67 58 68 60 69 59 70 4 71 2 72 1 74
REMARK SMILES IDX 3 75
REMARK H PARENT 31 24 18 32 20 34 33 36 35 38 37 40 40 44 7 46 44 49 46 52
REMARK H PARENT 48 56 4 73
REMARK Flexibility Score: inf
ROOT
ATOM      1  C   UNL     1      29.552  32.074  17.009  1.00  0.00     0.272 C 
ATOM      2  C   UNL     1      30.113  31.237  18.098  1.00  0.00     0.113 C 
ATOM      3  C   UNL     1      29.111  30.590  18.979  1.00  0.00     0.145 C 
ATOM      4  C   UNL     1      27.950  30.053  18.162  1.00  0.00     0.142 C 
ATOM      5  C   UNL     1      27.380  31.239  17.417  1.00  0.00     0.178 C 
ATOM      6  O   UNL     1      28.322  31.575  16.480  1.00  0.00    -0.332 OA
ENDROOT
BRANCH   1   7
ATOM      7  O   UNL     1      30.320  32.166  15.886  1.00  0.00    -0.338 OA
BRANCH   7   8
ATOM      8  C   UNL     1      31.529  32.695  15.845  1.00  0.00     0.199 C 
BRANCH   8   9
ATOM      9  C   UNL     1      31.928  33.741  14.878  1.00  0.00     0.179 C 
ATOM     10  C   UNL     1      30.925  35.229  13.386  1.00  0.00     0.282 C 
ATOM     11  O   UNL     1      30.720  34.088  14.191  1.00  0.00    -0.341 OA
ATOM     12  C   UNL     1      32.348  35.670  13.295  1.00  0.00     0.202 C 
ATOM     13  C   UNL     1      32.917  35.976  14.664  1.00  0.00     0.179 C 
ATOM     14  C   UNL     1      32.326  35.007  15.646  1.00  0.00     0.177 C 
BRANCH  10  15
ATOM     15  O   UNL     1      30.184  36.231  13.897  1.00  0.00    -0.341 OA
BRANCH  15  16
ATOM     16  C   UNL     1      29.285  36.909  13.160  1.00  0.00     0.184 C 
ATOM     17  C   UNL     1      28.557  38.017  13.885  1.00  0.00     0.178 C 
ATOM     18  O   UNL     1      27.348  38.197  13.185  1.00  0.00    -0.341 OA
ATOM     19  C   UNL     1      26.481  37.205  13.693  1.00  0.00     0.281 C 
ATOM     20  C   UNL     1      28.241  36.003  12.507  1.00  0.00     0.180 C 
ATOM     21  C   UNL     1      27.054  35.827  13.432  1.00  0.00     0.202 C 
BRANCH  17  22
ATOM     22  C   UNL     1      29.300  39.334  13.821  1.00  0.00     0.191 C 
BRANCH  22  23
ATOM     23  O   UNL     1      30.651  39.092  14.080  1.00  0.00    -0.394 OA
ATOM     24  H   UNL     1      31.014  38.366  13.482  1.00  0.00     0.210 HD
ENDBRANCH  22  23
ENDBRANCH  17  22
BRANCH  19  25
ATOM     25  O   UNL     1      25.238  37.275  13.143  1.00  0.00    -0.350 OA
BRANCH  25  26
ATOM     26  C   UNL     1      24.247  37.866  13.878  1.00  0.00     0.169 C 
BRANCH  26  27
ATOM     27  C   UNL     1      23.880  39.253  13.456  1.00  0.00     0.119 C 
BRANCH  27  28
ATOM     28  N   UNL     1      22.914  39.258  12.420  1.00  0.00    -0.092 NA
ATOM     29  N   UNL     1      23.200  38.947  11.249  1.00  0.00     0.001 N 
ATOM     30  N   UNL     1      23.719  38.941  10.121  1.00  0.00    -0.003 NA
ENDBRANCH  27  28
ENDBRANCH  26  27
ENDBRANCH  25  26
ENDBRANCH  19  25
BRANCH  20  31
ATOM     31  O   UNL     1      27.755  36.509  11.309  1.00  0.00    -0.387 OA
ATOM     32  H   UNL     1      27.546  37.472  11.380  1.00  0.00     0.211 HD
ENDBRANCH  20  31
BRANCH  21  33
ATOM     33  O   UNL     1      27.391  35.200  14.614  1.00  0.00    -0.385 OA
ATOM     34  H   UNL     1      26.666  35.195  15.279  1.00  0.00     0.211 HD
ENDBRANCH  21  33
ENDBRANCH  15  16
ENDBRANCH  10  15
BRANCH  12  35
ATOM     35  O   UNL     1      33.163  34.854  12.522  1.00  0.00    -0.385 OA
ATOM     36  H   UNL     1      33.028  35.113  11.574  1.00  0.00     0.211 HD
ENDBRANCH  12  35
BRANCH  13  37
ATOM     37  O   UNL     1      32.542  37.257  15.024  1.00  0.00    -0.387 OA
ATOM     38  H   UNL     1      31.941  37.702  14.376  1.00  0.00     0.211 HD
ENDBRANCH  13  37
BRANCH  14  39
ATOM     39  O   UNL     1      31.122  35.511  16.191  1.00  0.00    -0.387 OA
ATOM     40  H   UNL     1      31.134  35.480  17.170  1.00  0.00     0.211 HD
ENDBRANCH  14  39
ENDBRANCH   8   9
ENDBRANCH   7   8
ENDBRANCH   1   7
BRANCH   1  41
ATOM     41  C   UNL     1      29.137  33.389  17.549  1.00  0.00     0.364 C 
ATOM     42  O   UNL     1      28.431  34.164  16.905  1.00  0.00    -0.246 OA
BRANCH  41  43
ATOM     43  O   UNL     1      29.555  33.788  18.835  1.00  0.00    -0.477 OA
ATOM     44  H   UNL     1      28.890  33.708  19.602  1.00  0.00     0.296 HD
ENDBRANCH  41  43
ENDBRANCH   1  41
BRANCH   3  45
ATOM     45  O   UNL     1      29.722  29.582  19.722  1.00  0.00    -0.391 OA
ATOM     46  H   UNL     1      29.847  28.823  19.126  1.00  0.00     0.211 HD
ENDBRANCH   3  45
BRANCH   5  47
ATOM     47  C   UNL     1      26.123  30.851  16.645  1.00  0.00     0.176 C 
BRANCH  47  48
ATOM     48  O   UNL     1      25.043  31.349  17.325  1.00  0.00    -0.388 OA
ATOM     49  H   UNL     1      25.076  32.316  17.493  1.00  0.00     0.211 HD
ENDBRANCH  47  48
BRANCH  47  50
ATOM     50  C   UNL     1      26.112  31.203  15.217  1.00  0.00     0.165 C 
BRANCH  50  51
ATOM     51  O   UNL     1      26.158  32.632  15.160  1.00  0.00    -0.388 OA
ATOM     52  H   UNL     1      26.894  32.900  15.740  1.00  0.00     0.211 HD
ENDBRANCH  50  51
BRANCH  50  53
ATOM     53  C   UNL     1      24.766  30.870  14.552  1.00  0.00     0.154 C 
BRANCH  53  54
ATOM     54  N   UNL     1      24.065  32.057  14.128  1.00  0.00    -0.319 N 
ATOM     55  C   UNL     1      23.051  32.011  13.110  1.00  0.00     0.407 C 
ATOM     56  H   UNL     1      24.248  33.000  14.529  1.00  0.00     0.167 HD
ATOM     57  O   UNL     1      22.736  30.927  12.567  1.00  0.00    -0.225 OA
BRANCH  55  58
ATOM     58  O   UNL     1      22.396  33.159  12.707  1.00  0.00    -0.443 OA
BRANCH  58  59
ATOM     59  C   UNL     1      23.001  34.441  12.837  1.00  0.00     0.294 C 
BRANCH  59  60
ATOM     60  C   UNL     1      23.257  34.906  11.441  1.00  0.00     0.121 A 
ATOM     61  C   UNL     1      24.524  34.961  10.876  1.00  0.00     0.144 A 
ATOM     62  N   UNL     1      22.421  35.337  10.493  1.00  0.00    -0.131 NA
ATOM     63  N   UNL     1      24.420  35.423   9.603  1.00  0.00    -0.220 N 
ATOM     64  N   UNL     1      23.138  35.639   9.407  1.00  0.00    -0.062 NA
BRANCH  63  65
ATOM     65  C   UNL     1      25.481  35.632   8.685  1.00  0.00     0.066 A 
ATOM     66  C   UNL     1      25.572  36.780   7.932  1.00  0.00     0.028 A 
ATOM     67  C   UNL     1      26.459  34.675   8.535  1.00  0.00     0.028 A 
ATOM     68  C   UNL     1      26.604  36.993   7.043  1.00  0.00     0.002 A 
ATOM     69  C   UNL     1      27.495  34.893   7.640  1.00  0.00     0.002 A 
ATOM     70  C   UNL     1      27.603  36.032   6.879  1.00  0.00     0.000 A 
ENDBRANCH  63  65
ENDBRANCH  59  60
ENDBRANCH  58  59
ENDBRANCH  55  58
ENDBRANCH  53  54
ENDBRANCH  50  53
ENDBRANCH  47  50
ENDBRANCH   5  47
BRANCH   4  71
ATOM     71  N   UNL     1      27.039  29.306  18.954  1.00  0.00    -0.348 N 
ATOM     72  C   UNL     1      26.656  28.007  18.528  1.00  0.00     0.217 C 
ATOM     73  H   UNL     1      26.650  29.666  19.844  1.00  0.00     0.163 HD
ATOM     74  C   UNL     1      25.700  27.199  19.343  1.00  0.00     0.114 C 
ATOM     75  O   UNL     1      27.098  27.483  17.461  1.00  0.00    -0.275 OA
ENDBRANCH   4  71
TORSDOF 30
BEGIN_RES LYS A 131
REMARK  4 active torsions:
REMARK  status: ('A' for Active; 'I' for Inactive)
REMARK    1  A    between atoms: CA   and  CB  
REMARK    2  A    between atoms: CB   and  CG  
REMARK    3  A    between atoms: CG   and  CD  
REMARK    4  A    between atoms: CD   and  CE  
ROOT
ATOM      1  CA  LYS A 131      29.867  25.555  16.977  1.00 20.52     0.186 C 
ENDROOT
BRANCH   1   2
ATOM      2  CB  LYS A 131      28.345  25.722  17.026  1.00 20.94     0.034 C 
BRANCH   2   3
ATOM      3  CG  LYS A 131      27.599  24.424  16.757  1.00 22.96     0.005 C 
BRANCH   3   4
ATOM      4  CD  LYS A 131      26.836  23.949  17.963  1.00 24.33     0.041 C 
BRANCH   4   5
ATOM      5  CE  LYS A 131      25.441  23.502  17.538  1.00 26.91     0.338 C 
ATOM      6  NZ  LYS A 131      24.716  24.616  16.884  1.00 27.40     0.618 N 
ENDBRANCH   4   5
ENDBRANCH   3   4
ENDBRANCH   2   3
ENDBRANCH   1   2
END_RES LYS A 131
BEGIN_RES LYS A 135
REMARK  4 active torsions:
REMARK  status: ('A' for Active; 'I' for Inactive)
REMARK    5  A    between atoms: CA   and  CB  
REMARK    6  A    between atoms: CB   and  CG  
REMARK    7  A    between atoms: CG   and  CD  
REMARK    8  A    between atoms: CD   and  CE  
ROOT
ATOM      7  CA  LYS A 135      33.193  34.663   9.290  1.00 25.02     0.186 C 
ENDROOT
BRANCH   7   8
ATOM      8  CB  LYS A 135      32.060  35.360  10.034  1.00 26.63     0.034 C 
BRANCH   8   9
ATOM      9  CG  LYS A 135      30.786  35.459   9.235  1.00 29.45     0.005 C 
BRANCH   9  10
ATOM     10  CD  LYS A 135      30.452  36.913   8.937  1.00 32.00     0.041 C 
BRANCH  10  11
ATOM     11  CE  LYS A 135      30.960  37.814  10.046  1.00 34.25     0.338 C 
ATOM     12  NZ  LYS A 135      30.041  38.965  10.265  1.00 35.99     0.618 N 
ENDBRANCH  10  11
ENDBRANCH   9  10
ENDBRANCH   8   9
ENDBRANCH   7   8
END_RES LYS A 135
