REMARK VINA RESULT:    -4.752      4.637     10.103
REMARK INTER + INTRA:         -22.902
REMARK INTER:                 -12.529
REMARK INTRA:                 -10.372
REMARK UNBOUND:               -10.372
REMARK SMILES CC(=O)N[C@@H]1[C@@H](O)C[C@](OC[C@H]2O[C@@H](O[C@H]3[C@H](O)[C@@H](O)[C@H](OCCN=[N+]=[N-])O[C@@H]3CO)[C@H](O)[C@@H](O)[C@H]2O)(C(=O)O)O[C@H]1C(O)[C@H](O)CNC(=O)OCc1cn(CC(=O)NCc2cccs2)nn1
REMARK SMILES IDX 43 1 42 2 9 3 8 4 41 5 6 6 5 7 10 8 11 9 12 10 14 11 13 12
REMARK SMILES IDX 32 13 34 14 36 15 15 16 16 17 29 18 28 19 21 20 17 21 19 22
REMARK SMILES IDX 30 23 31 24 22 26 23 27 24 28 25 29 26 30 27 31 18 32 20 34
REMARK SMILES IDX 33 36 35 38 37 40 38 42 39 43 40 44 7 46 4 48 2 49 1 51 3 52
REMARK SMILES IDX 44 53 45 55 46 56 47 58 48 59 49 60 50 62 51 63 52 64 53 65
REMARK SMILES IDX 54 66 67 67 55 68 66 69 56 70 57 71 58 72 59 73 60 75 61 76
REMARK SMILES IDX 62 77 65 78 63 79 64 80
REMARK H PARENT 31 25 18 33 20 35 33 37 35 39 37 41 40 45 7 47 4 50 44 54
REMARK H PARENT 46 57 48 61 59 74
REMARK Flexibility Score: inf
ROOT
ATOM      1  C   UNL     1      28.160  30.736  17.314  1.00  0.00     0.176 C 
ENDROOT
BRANCH   1   2
ATOM      2  C   UNL     1      26.699  31.101  17.270  1.00  0.00     0.178 C 
ATOM      3  C   UNL     1      26.047  32.701  18.885  1.00  0.00     0.272 C 
ATOM      4  C   UNL     1      25.871  31.530  19.866  1.00  0.00     0.113 C 
ATOM      5  O   UNL     1      26.567  32.376  17.697  1.00  0.00    -0.332 OA
ATOM      6  C   UNL     1      25.187  30.428  19.164  1.00  0.00     0.145 C 
ATOM      7  C   UNL     1      25.761  30.095  17.812  1.00  0.00     0.142 C 
BRANCH   3   8
ATOM      8  O   UNL     1      26.857  33.582  19.563  1.00  0.00    -0.338 OA
BRANCH   8   9
ATOM      9  C   UNL     1      27.472  33.235  20.695  1.00  0.00     0.199 C 
BRANCH   9  10
ATOM     10  C   UNL     1      28.968  33.106  20.721  1.00  0.00     0.179 C 
ATOM     11  C   UNL     1      30.487  31.389  20.601  1.00  0.00     0.282 C 
ATOM     12  O   UNL     1      29.232  31.832  20.161  1.00  0.00    -0.341 OA
ATOM     13  C   UNL     1      31.515  32.468  20.520  1.00  0.00     0.202 C 
ATOM     14  C   UNL     1      31.125  33.665  19.719  1.00  0.00     0.179 C 
ATOM     15  C   UNL     1      29.687  34.066  19.799  1.00  0.00     0.177 C 
BRANCH  11  16
ATOM     16  O   UNL     1      30.909  30.264  19.950  1.00  0.00    -0.341 OA
BRANCH  16  17
ATOM     17  C   UNL     1      30.578  29.082  20.610  1.00  0.00     0.184 C 
ATOM     18  C   UNL     1      29.730  29.272  21.790  1.00  0.00     0.178 C 
ATOM     19  O   UNL     1      30.268  29.044  23.028  1.00  0.00    -0.341 OA
ATOM     20  C   UNL     1      31.611  28.871  23.122  1.00  0.00     0.281 C 
ATOM     21  C   UNL     1      31.848  28.302  20.795  1.00  0.00     0.180 C 
ATOM     22  C   UNL     1      31.981  27.713  22.177  1.00  0.00     0.202 C 
BRANCH  18  23
ATOM     23  C   UNL     1      28.504  28.338  21.716  1.00  0.00     0.191 C 
BRANCH  23  24
ATOM     24  O   UNL     1      27.927  28.329  20.465  1.00  0.00    -0.394 OA
ATOM     25  H   UNL     1      27.575  27.414  20.297  1.00  0.00     0.210 HD
ENDBRANCH  23  24
ENDBRANCH  18  23
BRANCH  20  26
ATOM     26  O   UNL     1      31.909  28.373  24.401  1.00  0.00    -0.350 OA
BRANCH  26  27
ATOM     27  C   UNL     1      30.775  28.238  25.177  1.00  0.00     0.169 C 
BRANCH  27  28
ATOM     28  C   UNL     1      30.689  26.768  25.599  1.00  0.00     0.119 C 
BRANCH  28  29
ATOM     29  N   UNL     1      29.367  26.506  26.150  1.00  0.00    -0.092 NA
ATOM     30  N   UNL     1      28.370  26.727  25.466  1.00  0.00     0.001 N 
ATOM     31  N   UNL     1      27.343  26.738  24.762  1.00  0.00    -0.003 NA
ENDBRANCH  28  29
ENDBRANCH  27  28
ENDBRANCH  26  27
ENDBRANCH  20  26
BRANCH  21  32
ATOM     32  O   UNL     1      32.038  27.325  19.813  1.00  0.00    -0.387 OA
ATOM     33  H   UNL     1      33.013  27.232  19.584  1.00  0.00     0.211 HD
ENDBRANCH  21  32
BRANCH  22  34
ATOM     34  O   UNL     1      33.295  27.329  22.361  1.00  0.00    -0.385 OA
ATOM     35  H   UNL     1      33.703  27.823  23.117  1.00  0.00     0.211 HD
ENDBRANCH  22  34
ENDBRANCH  16  17
ENDBRANCH  11  16
BRANCH  13  36
ATOM     36  O   UNL     1      31.951  32.869  21.803  1.00  0.00    -0.385 OA
ATOM     37  H   UNL     1      31.697  33.777  22.033  1.00  0.00     0.211 HD
ENDBRANCH  13  36
BRANCH  14  38
ATOM     38  O   UNL     1      31.553  33.526  18.378  1.00  0.00    -0.387 OA
ATOM     39  H   UNL     1      31.702  32.571  18.174  1.00  0.00     0.211 HD
ENDBRANCH  14  38
BRANCH  15  40
ATOM     40  O   UNL     1      29.160  33.917  18.494  1.00  0.00    -0.387 OA
ATOM     41  H   UNL     1      29.844  34.047  17.799  1.00  0.00     0.211 HD
ENDBRANCH  15  40
ENDBRANCH   9  10
ENDBRANCH   8   9
ENDBRANCH   3   8
BRANCH   3  42
ATOM     42  C   UNL     1      24.664  33.248  18.717  1.00  0.00     0.364 C 
ATOM     43  O   UNL     1      23.936  33.639  19.657  1.00  0.00    -0.246 OA
BRANCH  42  44
ATOM     44  O   UNL     1      24.126  33.341  17.440  1.00  0.00    -0.477 OA
ATOM     45  H   UNL     1      23.178  33.669  17.305  1.00  0.00     0.296 HD
ENDBRANCH  42  44
ENDBRANCH   3  42
BRANCH   6  46
ATOM     46  O   UNL     1      25.169  29.278  20.006  1.00  0.00    -0.391 OA
ATOM     47  H   UNL     1      24.514  28.617  19.692  1.00  0.00     0.211 HD
ENDBRANCH   6  46
BRANCH   7  48
ATOM     48  N   UNL     1      24.707  29.773  16.871  1.00  0.00    -0.348 N 
ATOM     49  C   UNL     1      24.120  28.490  16.874  1.00  0.00     0.217 C 
ATOM     50  H   UNL     1      24.357  30.472  16.164  1.00  0.00     0.163 HD
ATOM     51  C   UNL     1      23.037  28.177  15.896  1.00  0.00     0.114 C 
ATOM     52  O   UNL     1      24.453  27.571  17.658  1.00  0.00    -0.275 OA
ENDBRANCH   7  48
ENDBRANCH   1   2
BRANCH   1  53
ATOM     53  O   UNL     1      28.483  29.681  18.119  1.00  0.00    -0.388 OA
ATOM     54  H   UNL     1      28.996  28.955  17.705  1.00  0.00     0.211 HD
ENDBRANCH   1  53
BRANCH   1  55
ATOM     55  C   UNL     1      28.851  30.697  15.969  1.00  0.00     0.165 C 
BRANCH  55  56
ATOM     56  O   UNL     1      28.835  29.468  15.383  1.00  0.00    -0.388 OA
ATOM     57  H   UNL     1      28.503  29.448  14.459  1.00  0.00     0.211 HD
ENDBRANCH  55  56
BRANCH  55  58
ATOM     58  C   UNL     1      30.269  31.227  16.097  1.00  0.00     0.154 C 
BRANCH  58  59
ATOM     59  N   UNL     1      30.652  32.070  15.004  1.00  0.00    -0.319 N 
ATOM     60  C   UNL     1      30.549  33.482  14.939  1.00  0.00     0.407 C 
ATOM     61  H   UNL     1      31.073  31.642  14.103  1.00  0.00     0.167 HD
ATOM     62  O   UNL     1      30.103  34.149  15.871  1.00  0.00    -0.225 OA
BRANCH  60  63
ATOM     63  O   UNL     1      30.956  34.193  13.792  1.00  0.00    -0.443 OA
BRANCH  63  64
ATOM     64  C   UNL     1      30.550  35.482  13.465  1.00  0.00     0.294 C 
BRANCH  64  65
ATOM     65  C   UNL     1      29.147  35.600  13.046  1.00  0.00     0.120 A 
ATOM     66  C   UNL     1      28.510  34.874  12.064  1.00  0.00     0.138 A 
ATOM     67  N   UNL     1      28.210  36.445  13.552  1.00  0.00    -0.132 NA
ATOM     68  N   UNL     1      27.235  35.280  11.993  1.00  0.00    -0.243 N 
ATOM     69  N   UNL     1      27.091  36.220  12.897  1.00  0.00    -0.067 NA
BRANCH  68  70
ATOM     70  C   UNL     1      26.155  34.839  11.139  1.00  0.00     0.245 C 
BRANCH  70  71
ATOM     71  C   UNL     1      25.046  34.372  11.992  1.00  0.00     0.242 C 
ATOM     72  O   UNL     1      23.887  34.778  11.794  1.00  0.00    -0.273 OA
ATOM     73  N   UNL     1      25.287  33.455  13.044  1.00  0.00    -0.350 N 
ATOM     74  H   UNL     1      26.259  33.086  13.246  1.00  0.00     0.163 HD
BRANCH  73  75
ATOM     75  C   UNL     1      24.240  32.976  13.892  1.00  0.00     0.162 C 
BRANCH  75  76
ATOM     76  C   UNL     1      23.763  31.680  13.389  1.00  0.00     0.024 A 
ATOM     77  C   UNL     1      24.405  30.503  13.180  1.00  0.00     0.017 A 
ATOM     78  S   UNL     1      22.108  31.333  12.910  1.00  0.00    -0.147 S 
ATOM     79  C   UNL     1      23.718  29.452  12.708  1.00  0.00     0.012 A 
ATOM     80  C   UNL     1      22.403  29.567  12.445  1.00  0.00     0.065 A 
ENDBRANCH  75  76
ENDBRANCH  73  75
ENDBRANCH  70  71
ENDBRANCH  68  70
ENDBRANCH  64  65
ENDBRANCH  63  64
ENDBRANCH  60  63
ENDBRANCH  58  59
ENDBRANCH  55  58
ENDBRANCH   1  55
TORSDOF 33
BEGIN_RES LYS A 131
REMARK  4 active torsions:
REMARK  status: ('A' for Active; 'I' for Inactive)
REMARK    1  A    between atoms: CA   and  CB  
REMARK    2  A    between atoms: CB   and  CG  
REMARK    3  A    between atoms: CG   and  CD  
REMARK    4  A    between atoms: CD   and  CE  
ROOT
ATOM      1  CA  LYS A 131      29.867  25.555  16.977  1.00 20.52     0.186 C 
ENDROOT
BRANCH   1   2
ATOM      2  CB  LYS A 131      28.345  25.722  17.026  1.00 20.94     0.034 C 
BRANCH   2   3
ATOM      3  CG  LYS A 131      27.602  24.400  16.911  1.00 22.96     0.005 C 
BRANCH   3   4
ATOM      4  CD  LYS A 131      26.156  24.527  17.305  1.00 24.33     0.041 C 
BRANCH   4   5
ATOM      5  CE  LYS A 131      26.049  24.624  18.823  1.00 26.91     0.338 C 
ATOM      6  NZ  LYS A 131      24.681  24.268  19.270  1.00 27.40     0.618 N 
ENDBRANCH   4   5
ENDBRANCH   3   4
ENDBRANCH   2   3
ENDBRANCH   1   2
END_RES LYS A 131
BEGIN_RES LYS A 135
REMARK  4 active torsions:
REMARK  status: ('A' for Active; 'I' for Inactive)
REMARK    5  A    between atoms: CA   and  CB  
REMARK    6  A    between atoms: CB   and  CG  
REMARK    7  A    between atoms: CG   and  CD  
REMARK    8  A    between atoms: CD   and  CE  
ROOT
ATOM      7  CA  LYS A 135      33.193  34.663   9.290  1.00 25.02     0.186 C 
ENDROOT
BRANCH   7   8
ATOM      8  CB  LYS A 135      32.060  35.360  10.034  1.00 26.63     0.034 C 
BRANCH   8   9
ATOM      9  CG  LYS A 135      30.828  35.573   9.193  1.00 29.45     0.005 C 
BRANCH   9  10
ATOM     10  CD  LYS A 135      30.140  34.248   8.903  1.00 32.00     0.041 C 
BRANCH  10  11
ATOM     11  CE  LYS A 135      28.758  34.481   8.325  1.00 34.25     0.338 C 
ATOM     12  NZ  LYS A 135      28.339  35.901   8.489  1.00 35.99     0.618 N 
ENDBRANCH  10  11
ENDBRANCH   9  10
ENDBRANCH   8   9
ENDBRANCH   7   8
END_RES LYS A 135
