REMARK VINA RESULT:    -3.124      3.401      7.613
REMARK INTER + INTRA:         -22.514
REMARK INTER:                  -9.639
REMARK INTRA:                 -12.875
REMARK UNBOUND:               -13.729
REMARK SMILES CCOC(CCn1cc(COC(=O)NC[C@@H](O)C(O)[C@@H]2O[C@@](OC[C@H]3O[C@@H](O[C@H]4[C@H](O)[C@@H](O)[C@H](OCCN=[N+]=[N-])O[C@@H]4CO)[C@H](O)[C@@H](O)[C@H]3O)(C(=O)O)C[C@H](O)[C@H]2NC(C)=O)nn1)OCC
REMARK SMILES IDX 18 1 20 2 22 3 54 4 21 5 55 6 57 7 23 8 24 9 25 10 27 11
REMARK SMILES IDX 26 12 45 13 47 14 49 15 28 16 29 17 42 18 41 19 34 20 30 21
REMARK SMILES IDX 32 22 43 23 44 24 35 26 36 27 37 28 38 29 39 30 40 31 31 32
REMARK SMILES IDX 33 34 46 36 48 38 50 40 51 42 52 43 53 44 56 46 58 48 59 49
REMARK SMILES IDX 60 51 61 52 19 53 16 55 17 56 15 58 14 59 12 60 13 62 11 63
REMARK SMILES IDX 10 64 9 65 8 66 62 67 7 68 63 69 6 70 5 71 4 72 3 73 2 74
REMARK SMILES IDX 1 75 64 76 65 77 66 78
REMARK H PARENT 44 25 31 33 33 35 46 37 48 39 50 41 53 45 56 47 58 50 19 54
REMARK H PARENT 17 57 14 61
REMARK Flexibility Score: inf
ROOT
ATOM      1  C   UNL     1      23.223  38.176  11.996  1.00  0.00     0.176 C 
ENDROOT
BRANCH   1   2
ATOM      2  C   UNL     1      22.991  38.049  10.520  1.00  0.00     0.178 C 
ATOM      3  C   UNL     1      23.990  38.234   8.441  1.00  0.00     0.272 C 
ATOM      4  C   UNL     1      22.652  37.713   8.051  1.00  0.00     0.113 C 
ATOM      5  O   UNL     1      24.137  38.422   9.834  1.00  0.00    -0.332 OA
ATOM      6  C   UNL     1      21.479  38.366   8.696  1.00  0.00     0.145 C 
ATOM      7  C   UNL     1      21.907  39.010  10.022  1.00  0.00     0.142 C 
BRANCH   3   8
ATOM      8  O   UNL     1      24.456  39.326   7.828  1.00  0.00    -0.338 OA
BRANCH   8   9
ATOM      9  C   UNL     1      25.141  40.277   8.487  1.00  0.00     0.199 C 
BRANCH   9  10
ATOM     10  C   UNL     1      26.559  40.388   7.972  1.00  0.00     0.179 C 
ATOM     11  C   UNL     1      28.673  39.644   8.110  1.00  0.00     0.282 C 
ATOM     12  O   UNL     1      27.311  39.243   8.158  1.00  0.00    -0.341 OA
ATOM     13  C   UNL     1      28.999  39.993   6.706  1.00  0.00     0.202 C 
ATOM     14  C   UNL     1      28.064  41.075   6.220  1.00  0.00     0.179 C 
ATOM     15  C   UNL     1      26.611  40.804   6.506  1.00  0.00     0.177 C 
BRANCH  11  16
ATOM     16  O   UNL     1      29.459  38.631   8.671  1.00  0.00    -0.341 OA
BRANCH  16  17
ATOM     17  C   UNL     1      29.584  38.855  10.005  1.00  0.00     0.184 C 
ATOM     18  C   UNL     1      30.938  38.888  10.601  1.00  0.00     0.178 C 
ATOM     19  O   UNL     1      30.844  39.509  11.855  1.00  0.00    -0.341 OA
ATOM     20  C   UNL     1      30.123  38.700  12.746  1.00  0.00     0.281 C 
ATOM     21  C   UNL     1      28.837  37.748  10.817  1.00  0.00     0.180 C 
ATOM     22  C   UNL     1      28.744  38.355  12.224  1.00  0.00     0.202 C 
BRANCH  18  23
ATOM     23  C   UNL     1      31.891  39.681   9.758  1.00  0.00     0.191 C 
BRANCH  23  24
ATOM     24  O   UNL     1      32.244  39.014   8.585  1.00  0.00    -0.394 OA
ATOM     25  H   UNL     1      33.174  38.729   8.575  1.00  0.00     0.210 HD
ENDBRANCH  23  24
ENDBRANCH  18  23
BRANCH  20  26
ATOM     26  O   UNL     1      29.967  39.434  13.907  1.00  0.00    -0.350 OA
BRANCH  26  27
ATOM     27  C   UNL     1      30.634  38.988  15.008  1.00  0.00     0.169 C 
BRANCH  27  28
ATOM     28  C   UNL     1      29.663  38.613  16.095  1.00  0.00     0.119 C 
BRANCH  28  29
ATOM     29  N   UNL     1      28.304  38.918  15.651  1.00  0.00    -0.092 NA
ATOM     30  N   UNL     1      27.485  39.103  16.574  1.00  0.00     0.001 N 
ATOM     31  N   UNL     1      26.481  38.941  17.271  1.00  0.00    -0.003 NA
ENDBRANCH  28  29
ENDBRANCH  27  28
ENDBRANCH  26  27
ENDBRANCH  20  26
BRANCH  21  32
ATOM     32  O   UNL     1      27.588  37.515  10.306  1.00  0.00    -0.387 OA
ATOM     33  H   UNL     1      26.980  37.080  10.952  1.00  0.00     0.211 HD
ENDBRANCH  21  32
BRANCH  22  34
ATOM     34  O   UNL     1      28.134  37.494  13.096  1.00  0.00    -0.385 OA
ATOM     35  H   UNL     1      28.625  37.569  13.973  1.00  0.00     0.211 HD
ENDBRANCH  22  34
ENDBRANCH  16  17
ENDBRANCH  11  16
BRANCH  13  36
ATOM     36  O   UNL     1      30.291  40.532   6.598  1.00  0.00    -0.385 OA
ATOM     37  H   UNL     1      30.269  41.503   6.450  1.00  0.00     0.211 HD
ENDBRANCH  13  36
BRANCH  14  38
ATOM     38  O   UNL     1      28.291  41.397   4.886  1.00  0.00    -0.387 OA
ATOM     39  H   UNL     1      28.912  42.170   4.802  1.00  0.00     0.211 HD
ENDBRANCH  14  38
BRANCH  15  40
ATOM     40  O   UNL     1      26.092  39.786   5.720  1.00  0.00    -0.387 OA
ATOM     41  H   UNL     1      26.721  39.534   5.008  1.00  0.00     0.211 HD
ENDBRANCH  15  40
ENDBRANCH   9  10
ENDBRANCH   8   9
ENDBRANCH   3   8
BRANCH   3  42
ATOM     42  C   UNL     1      24.968  37.137   8.148  1.00  0.00     0.364 C 
ATOM     43  O   UNL     1      25.186  36.220   8.960  1.00  0.00    -0.246 OA
BRANCH  42  44
ATOM     44  O   UNL     1      25.675  37.100   6.950  1.00  0.00    -0.477 OA
ATOM     45  H   UNL     1      25.177  37.312   6.092  1.00  0.00     0.296 HD
ENDBRANCH  42  44
ENDBRANCH   3  42
BRANCH   6  46
ATOM     46  O   UNL     1      20.809  39.266   7.906  1.00  0.00    -0.391 OA
ATOM     47  H   UNL     1      20.475  38.892   7.054  1.00  0.00     0.211 HD
ENDBRANCH   6  46
BRANCH   7  48
ATOM     48  N   UNL     1      20.819  39.160  10.931  1.00  0.00    -0.348 N 
ATOM     49  C   UNL     1      20.351  40.475  11.211  1.00  0.00     0.217 C 
ATOM     50  H   UNL     1      20.349  38.360  11.397  1.00  0.00     0.163 HD
ATOM     51  C   UNL     1      19.219  40.664  12.155  1.00  0.00     0.114 C 
ATOM     52  O   UNL     1      20.885  41.499  10.666  1.00  0.00    -0.275 OA
ENDBRANCH   7  48
ENDBRANCH   1   2
BRANCH   1  53
ATOM     53  O   UNL     1      22.733  36.993  12.579  1.00  0.00    -0.388 OA
ATOM     54  H   UNL     1      23.258  36.767  13.402  1.00  0.00     0.211 HD
ENDBRANCH   1  53
BRANCH   1  55
ATOM     55  C   UNL     1      24.721  38.190  12.232  1.00  0.00     0.165 C 
BRANCH  55  56
ATOM     56  O   UNL     1      25.296  37.019  11.832  1.00  0.00    -0.388 OA
ATOM     57  H   UNL     1      24.679  36.247  11.792  1.00  0.00     0.211 HD
ENDBRANCH  55  56
BRANCH  55  58
ATOM     58  C   UNL     1      25.020  38.463  13.680  1.00  0.00     0.154 C 
BRANCH  58  59
ATOM     59  N   UNL     1      25.559  37.361  14.422  1.00  0.00    -0.319 N 
ATOM     60  C   UNL     1      24.814  36.480  15.221  1.00  0.00     0.407 C 
ATOM     61  H   UNL     1      26.613  37.226  14.340  1.00  0.00     0.167 HD
ATOM     62  O   UNL     1      23.582  36.566  15.362  1.00  0.00    -0.225 OA
BRANCH  60  63
ATOM     63  O   UNL     1      25.454  35.431  15.918  1.00  0.00    -0.443 OA
BRANCH  63  64
ATOM     64  C   UNL     1      25.679  34.185  15.241  1.00  0.00     0.294 C 
BRANCH  64  65
ATOM     65  C   UNL     1      26.892  34.323  14.394  1.00  0.00     0.120 A 
ATOM     66  C   UNL     1      28.197  34.104  14.761  1.00  0.00     0.138 A 
ATOM     67  N   UNL     1      26.915  34.699  13.113  1.00  0.00    -0.132 NA
ATOM     68  N   UNL     1      28.958  34.359  13.676  1.00  0.00    -0.252 N 
ATOM     69  N   UNL     1      28.149  34.716  12.695  1.00  0.00    -0.067 NA
BRANCH  68  70
ATOM     70  C   UNL     1      30.387  34.244  13.650  1.00  0.00     0.151 C 
BRANCH  70  71
ATOM     71  C   UNL     1      31.118  35.299  14.430  1.00  0.00     0.086 C 
BRANCH  71  72
ATOM     72  C   UNL     1      31.206  34.865  15.893  1.00  0.00     0.251 C 
BRANCH  72  73
ATOM     73  O   UNL     1      31.881  35.869  16.561  1.00  0.00    -0.353 OA
BRANCH  73  74
ATOM     74  C   UNL     1      33.255  35.795  16.377  1.00  0.00     0.160 C 
ATOM     75  C   UNL     1      33.907  37.158  16.502  1.00  0.00     0.035 C 
ENDBRANCH  73  74
ENDBRANCH  72  73
BRANCH  72  76
ATOM     76  O   UNL     1      31.713  33.608  16.029  1.00  0.00    -0.353 OA
BRANCH  76  77
ATOM     77  C   UNL     1      31.084  32.768  16.908  1.00  0.00     0.160 C 
ATOM     78  C   UNL     1      30.628  31.529  16.172  1.00  0.00     0.035 C 
ENDBRANCH  76  77
ENDBRANCH  72  76
ENDBRANCH  71  72
ENDBRANCH  70  71
ENDBRANCH  68  70
ENDBRANCH  64  65
ENDBRANCH  63  64
ENDBRANCH  60  63
ENDBRANCH  58  59
ENDBRANCH  55  58
ENDBRANCH   1  55
TORSDOF 36
BEGIN_RES LYS A 131
REMARK  4 active torsions:
REMARK  status: ('A' for Active; 'I' for Inactive)
REMARK    1  A    between atoms: CA   and  CB  
REMARK    2  A    between atoms: CB   and  CG  
REMARK    3  A    between atoms: CG   and  CD  
REMARK    4  A    between atoms: CD   and  CE  
ROOT
ATOM      1  CA  LYS A 131      29.867  25.555  16.977  1.00 20.52     0.186 C 
ENDROOT
BRANCH   1   2
ATOM      2  CB  LYS A 131      28.345  25.722  17.026  1.00 20.94     0.034 C 
BRANCH   2   3
ATOM      3  CG  LYS A 131      27.601  24.403  16.888  1.00 22.96     0.005 C 
BRANCH   3   4
ATOM      4  CD  LYS A 131      26.179  24.501  17.367  1.00 24.33     0.041 C 
BRANCH   4   5
ATOM      5  CE  LYS A 131      26.135  25.291  18.671  1.00 26.91     0.338 C 
ATOM      6  NZ  LYS A 131      24.869  26.055  18.772  1.00 27.40     0.618 N 
ENDBRANCH   4   5
ENDBRANCH   3   4
ENDBRANCH   2   3
ENDBRANCH   1   2
END_RES LYS A 131
BEGIN_RES LYS A 135
REMARK  4 active torsions:
REMARK  status: ('A' for Active; 'I' for Inactive)
REMARK    5  A    between atoms: CA   and  CB  
REMARK    6  A    between atoms: CB   and  CG  
REMARK    7  A    between atoms: CG   and  CD  
REMARK    8  A    between atoms: CD   and  CE  
ROOT
ATOM      7  CA  LYS A 135      33.193  34.663   9.290  1.00 25.02     0.186 C 
ENDROOT
BRANCH   7   8
ATOM      8  CB  LYS A 135      32.060  35.360  10.034  1.00 26.63     0.034 C 
BRANCH   8   9
ATOM      9  CG  LYS A 135      30.786  35.460   9.235  1.00 29.45     0.005 C 
BRANCH   9  10
ATOM     10  CD  LYS A 135      29.854  34.304   9.564  1.00 32.00     0.041 C 
BRANCH  10  11
ATOM     11  CE  LYS A 135      28.562  34.423   8.779  1.00 34.25     0.338 C 
ATOM     12  NZ  LYS A 135      27.464  33.658   9.434  1.00 35.99     0.618 N 
ENDBRANCH  10  11
ENDBRANCH   9  10
ENDBRANCH   8   9
ENDBRANCH   7   8
END_RES LYS A 135
