REMARK VINA RESULT:    -3.741      3.025      6.005
REMARK INTER + INTRA:         -22.158
REMARK INTER:                  -9.252
REMARK INTRA:                 -12.906
REMARK UNBOUND:               -11.857
REMARK SMILES CC[N+](C)(CC)CCCn1cc(COC(=O)NC[C@@H](O)C(O)[C@@H]2O[C@@](OC[C@H]3O[C@@H](O[C@H]4[C@H](O)[C@@H](O)[C@H](OCCN=[N+]=[N-])O[C@@H]4CO)[C@H](O)[C@@H](O)[C@H]3O)(C(=O)O)C[C@H](O)[C@H]2NC(C)=O)nn1
REMARK SMILES IDX 21 1 23 2 25 3 57 4 24 5 58 6 60 7 26 8 27 9 28 10 30 11
REMARK SMILES IDX 29 12 48 13 50 14 52 15 31 16 32 17 45 18 44 19 37 20 33 21
REMARK SMILES IDX 35 22 46 23 47 24 38 26 39 27 40 28 41 29 42 30 43 31 34 32
REMARK SMILES IDX 36 34 49 36 51 38 53 40 54 42 55 43 56 44 59 46 61 48 62 49
REMARK SMILES IDX 63 51 64 52 22 53 19 55 20 56 18 58 17 59 15 60 16 62 14 63
REMARK SMILES IDX 13 64 12 65 11 66 65 67 10 68 66 69 9 70 8 71 7 72 3 73 4 74
REMARK SMILES IDX 2 75 1 76 5 77 6 78
REMARK H PARENT 47 25 34 33 36 35 49 37 51 39 53 41 56 45 59 47 61 50 22 54
REMARK H PARENT 20 57 17 61
REMARK Flexibility Score: inf
ROOT
ATOM      1  C   UNL     1      26.416  31.915  19.195  1.00  0.00     0.176 C 
ENDROOT
BRANCH   1   2
ATOM      2  C   UNL     1      27.800  31.586  18.644  1.00  0.00     0.178 C 
ATOM      3  C   UNL     1      29.406  32.482  17.167  1.00  0.00     0.272 C 
ATOM      4  C   UNL     1      29.720  31.048  16.900  1.00  0.00     0.113 C 
ATOM      5  O   UNL     1      28.067  32.497  17.647  1.00  0.00    -0.332 OA
ATOM      6  C   UNL     1      28.484  30.194  16.792  1.00  0.00     0.145 C 
ATOM      7  C   UNL     1      27.811  30.171  18.162  1.00  0.00     0.142 C 
BRANCH   3   8
ATOM      8  O   UNL     1      29.335  33.264  16.034  1.00  0.00    -0.338 OA
BRANCH   8   9
ATOM      9  C   UNL     1      30.410  33.418  15.244  1.00  0.00     0.199 C 
BRANCH   9  10
ATOM     10  C   UNL     1      30.043  34.182  13.945  1.00  0.00     0.179 C 
ATOM     11  C   UNL     1      29.728  36.379  14.745  1.00  0.00     0.282 C 
ATOM     12  O   UNL     1      29.228  35.225  14.154  1.00  0.00    -0.341 OA
ATOM     13  C   UNL     1      31.148  36.655  14.424  1.00  0.00     0.202 C 
ATOM     14  C   UNL     1      31.359  36.063  13.013  1.00  0.00     0.179 C 
ATOM     15  C   UNL     1      31.339  34.567  13.231  1.00  0.00     0.177 C 
BRANCH  11  16
ATOM     16  O   UNL     1      29.381  36.421  16.103  1.00  0.00    -0.341 OA
BRANCH  16  17
ATOM     17  C   UNL     1      28.224  37.106  16.332  1.00  0.00     0.184 C 
ATOM     18  C   UNL     1      28.217  38.268  17.225  1.00  0.00     0.178 C 
ATOM     19  O   UNL     1      27.026  38.956  17.080  1.00  0.00    -0.341 OA
ATOM     20  C   UNL     1      25.954  38.328  16.556  1.00  0.00     0.281 C 
ATOM     21  C   UNL     1      27.139  36.155  16.889  1.00  0.00     0.180 C 
ATOM     22  C   UNL     1      25.806  36.853  16.834  1.00  0.00     0.202 C 
BRANCH  18  23
ATOM     23  C   UNL     1      29.344  39.266  17.043  1.00  0.00     0.191 C 
BRANCH  23  24
ATOM     24  O   UNL     1      29.543  39.640  15.721  1.00  0.00    -0.394 OA
ATOM     25  H   UNL     1      30.418  40.146  15.703  1.00  0.00     0.210 HD
ENDBRANCH  23  24
ENDBRANCH  18  23
BRANCH  20  26
ATOM     26  O   UNL     1      25.797  38.633  15.216  1.00  0.00    -0.350 OA
BRANCH  26  27
ATOM     27  C   UNL     1      25.474  39.918  14.930  1.00  0.00     0.169 C 
BRANCH  27  28
ATOM     28  C   UNL     1      26.387  40.567  13.910  1.00  0.00     0.119 C 
BRANCH  28  29
ATOM     29  N   UNL     1      26.822  39.568  12.948  1.00  0.00    -0.092 NA
ATOM     30  N   UNL     1      28.005  39.317  12.731  1.00  0.00     0.001 N 
ATOM     31  N   UNL     1      29.185  39.033  12.516  1.00  0.00    -0.003 NA
ENDBRANCH  28  29
ENDBRANCH  27  28
ENDBRANCH  26  27
ENDBRANCH  20  26
BRANCH  21  32
ATOM     32  O   UNL     1      27.224  34.989  16.164  1.00  0.00    -0.387 OA
ATOM     33  H   UNL     1      27.712  34.264  16.585  1.00  0.00     0.211 HD
ENDBRANCH  21  32
BRANCH  22  34
ATOM     34  O   UNL     1      25.115  36.589  18.006  1.00  0.00    -0.385 OA
ATOM     35  H   UNL     1      25.323  37.218  18.746  1.00  0.00     0.211 HD
ENDBRANCH  22  34
ENDBRANCH  16  17
ENDBRANCH  11  16
BRANCH  13  36
ATOM     36  O   UNL     1      31.445  38.022  14.308  1.00  0.00    -0.385 OA
ATOM     37  H   UNL     1      30.661  38.454  13.906  1.00  0.00     0.211 HD
ENDBRANCH  13  36
BRANCH  14  38
ATOM     38  O   UNL     1      32.599  36.470  12.522  1.00  0.00    -0.387 OA
ATOM     39  H   UNL     1      33.087  36.863  13.274  1.00  0.00     0.211 HD
ENDBRANCH  14  38
BRANCH  15  40
ATOM     40  O   UNL     1      32.382  34.294  14.114  1.00  0.00    -0.387 OA
ATOM     41  H   UNL     1      32.408  34.845  14.911  1.00  0.00     0.211 HD
ENDBRANCH  15  40
ENDBRANCH   9  10
ENDBRANCH   8   9
ENDBRANCH   3   8
BRANCH   3  42
ATOM     42  C   UNL     1      30.280  33.130  18.161  1.00  0.00     0.364 C 
ATOM     43  O   UNL     1      31.113  32.480  18.830  1.00  0.00    -0.246 OA
BRANCH  42  44
ATOM     44  O   UNL     1      30.207  34.482  18.390  1.00  0.00    -0.477 OA
ATOM     45  H   UNL     1      29.995  34.885  19.302  1.00  0.00     0.296 HD
ENDBRANCH  42  44
ENDBRANCH   3  42
BRANCH   6  46
ATOM     46  O   UNL     1      27.588  30.641  15.850  1.00  0.00    -0.391 OA
ATOM     47  H   UNL     1      27.676  30.141  14.981  1.00  0.00     0.211 HD
ENDBRANCH   6  46
BRANCH   7  48
ATOM     48  N   UNL     1      28.727  29.390  19.011  1.00  0.00    -0.348 N 
ATOM     49  C   UNL     1      28.244  28.597  20.089  1.00  0.00     0.217 C 
ATOM     50  H   UNL     1      29.759  29.379  18.877  1.00  0.00     0.163 HD
ATOM     51  C   UNL     1      29.129  27.793  20.968  1.00  0.00     0.114 C 
ATOM     52  O   UNL     1      27.019  28.576  20.301  1.00  0.00    -0.275 OA
ENDBRANCH   7  48
ENDBRANCH   1   2
BRANCH   1  53
ATOM     53  O   UNL     1      25.484  30.955  18.669  1.00  0.00    -0.388 OA
ATOM     54  H   UNL     1      24.899  31.455  18.041  1.00  0.00     0.211 HD
ENDBRANCH   1  53
BRANCH   1  55
ATOM     55  C   UNL     1      25.952  33.252  18.717  1.00  0.00     0.165 C 
BRANCH  55  56
ATOM     56  O   UNL     1      25.998  34.060  19.928  1.00  0.00    -0.388 OA
ATOM     57  H   UNL     1      25.324  33.665  20.563  1.00  0.00     0.211 HD
ENDBRANCH  55  56
BRANCH  55  58
ATOM     58  C   UNL     1      24.576  33.354  18.172  1.00  0.00     0.154 C 
BRANCH  58  59
ATOM     59  N   UNL     1      24.312  33.583  16.824  1.00  0.00    -0.319 N 
ATOM     60  C   UNL     1      24.459  32.694  15.734  1.00  0.00     0.407 C 
ATOM     61  H   UNL     1      23.941  34.585  16.552  1.00  0.00     0.167 HD
ATOM     62  O   UNL     1      24.865  31.528  15.845  1.00  0.00    -0.225 OA
BRANCH  60  63
ATOM     63  O   UNL     1      24.145  33.131  14.423  1.00  0.00    -0.443 OA
BRANCH  63  64
ATOM     64  C   UNL     1      24.007  34.551  14.231  1.00  0.00     0.294 C 
BRANCH  64  65
ATOM     65  C   UNL     1      25.121  34.869  13.262  1.00  0.00     0.120 A 
ATOM     66  C   UNL     1      25.401  34.216  12.086  1.00  0.00     0.138 A 
ATOM     67  N   UNL     1      26.015  35.863  13.321  1.00  0.00    -0.132 NA
ATOM     68  N   UNL     1      26.457  34.842  11.472  1.00  0.00    -0.252 N 
ATOM     69  N   UNL     1      26.800  35.841  12.263  1.00  0.00    -0.067 NA
BRANCH  68  70
ATOM     70  C   UNL     1      27.023  34.480  10.185  1.00  0.00     0.152 C 
BRANCH  70  71
ATOM     71  C   UNL     1      26.168  34.867   9.056  1.00  0.00     0.085 C 
BRANCH  71  72
ATOM     72  C   UNL     1      25.877  36.285   8.786  1.00  0.00     0.265 C 
BRANCH  72  73
ATOM     73  N   UNL     1      24.577  36.791   9.074  1.00  0.00    -0.326 N 
ATOM     74  C   UNL     1      24.037  37.464   7.924  1.00  0.00     0.334 C 
BRANCH  73  75
ATOM     75  C   UNL     1      24.472  37.610  10.248  1.00  0.00     0.260 C 
ATOM     76  C   UNL     1      24.053  39.029   9.944  1.00  0.00     0.071 C 
ENDBRANCH  73  75
BRANCH  73  77
ATOM     77  C   UNL     1      23.719  35.610   9.268  1.00  0.00     0.260 C 
ATOM     78  C   UNL     1      22.338  35.772   8.738  1.00  0.00     0.071 C 
ENDBRANCH  73  77
ENDBRANCH  72  73
ENDBRANCH  71  72
ENDBRANCH  70  71
ENDBRANCH  68  70
ENDBRANCH  64  65
ENDBRANCH  63  64
ENDBRANCH  60  63
ENDBRANCH  58  59
ENDBRANCH  55  58
ENDBRANCH   1  55
TORSDOF 35
BEGIN_RES LYS A 131
REMARK  4 active torsions:
REMARK  status: ('A' for Active; 'I' for Inactive)
REMARK    1  A    between atoms: CA   and  CB  
REMARK    2  A    between atoms: CB   and  CG  
REMARK    3  A    between atoms: CG   and  CD  
REMARK    4  A    between atoms: CD   and  CE  
ROOT
ATOM      1  CA  LYS A 131      29.867  25.555  16.977  1.00 20.52     0.186 C 
ENDROOT
BRANCH   1   2
ATOM      2  CB  LYS A 131      28.345  25.722  17.026  1.00 20.94     0.034 C 
BRANCH   2   3
ATOM      3  CG  LYS A 131      27.602  24.398  16.929  1.00 22.96     0.005 C 
BRANCH   3   4
ATOM      4  CD  LYS A 131      26.641  24.204  18.068  1.00 24.33     0.041 C 
BRANCH   4   5
ATOM      5  CE  LYS A 131      26.285  25.559  18.672  1.00 26.91     0.338 C 
ATOM      6  NZ  LYS A 131      25.577  25.383  19.961  1.00 27.40     0.618 N 
ENDBRANCH   4   5
ENDBRANCH   3   4
ENDBRANCH   2   3
ENDBRANCH   1   2
END_RES LYS A 131
BEGIN_RES LYS A 135
REMARK  4 active torsions:
REMARK  status: ('A' for Active; 'I' for Inactive)
REMARK    5  A    between atoms: CA   and  CB  
REMARK    6  A    between atoms: CB   and  CG  
REMARK    7  A    between atoms: CG   and  CD  
REMARK    8  A    between atoms: CD   and  CE  
ROOT
ATOM      7  CA  LYS A 135      33.193  34.663   9.290  1.00 25.02     0.186 C 
ENDROOT
BRANCH   7   8
ATOM      8  CB  LYS A 135      32.060  35.360  10.034  1.00 26.63     0.034 C 
BRANCH   8   9
ATOM      9  CG  LYS A 135      30.708  34.741   9.789  1.00 29.45     0.005 C 
BRANCH   9  10
ATOM     10  CD  LYS A 135      30.409  34.678   8.299  1.00 32.00     0.041 C 
BRANCH  10  11
ATOM     11  CE  LYS A 135      29.594  35.882   7.868  1.00 34.25     0.338 C 
ATOM     12  NZ  LYS A 135      28.854  35.606   6.606  1.00 35.99     0.618 N 
ENDBRANCH  10  11
ENDBRANCH   9  10
ENDBRANCH   8   9
ENDBRANCH   7   8
END_RES LYS A 135
