REMARK VINA RESULT:    -4.233      2.934      9.197
REMARK INTER + INTRA:         -22.912
REMARK INTER:                 -11.458
REMARK INTRA:                 -11.453
REMARK UNBOUND:               -12.122
REMARK SMILES CC(=O)N[C@@H]1[C@@H](O)C[C@](OC[C@H]2O[C@@H](O[C@H]3[C@H](O)[C@@H](O)[C@H](OCCN=[N+]=[N-])O[C@@H]3CO)[C@H](O)[C@@H](O)[C@H]2O)(C(=O)O)O[C@H]1C(O)[C@H](O)CNC(=O)OCc1cn(-c2ccc(O)c([N+](=O)[O-])c2)nn1
REMARK SMILES IDX 9 1 8 2 6 3 5 4 42 5 41 6 10 7 11 8 12 9 14 10 13 11 32 12
REMARK SMILES IDX 34 13 36 14 15 15 16 16 29 17 28 18 21 19 17 20 19 21 30 22
REMARK SMILES IDX 31 23 22 25 23 26 24 27 25 28 26 29 27 30 18 31 20 33 33 35
REMARK SMILES IDX 35 37 37 39 38 41 39 42 40 43 7 45 43 47 44 48 45 50 46 51
REMARK SMILES IDX 47 53 48 54 49 55 50 57 51 58 52 59 53 60 54 61 67 62 55 63
REMARK SMILES IDX 66 64 56 65 57 66 65 67 58 68 61 69 59 70 62 71 63 72 64 73
REMARK SMILES IDX 60 74 4 76 2 77 1 79 3 80
REMARK H PARENT 31 24 18 32 20 34 33 36 35 38 37 40 40 44 7 46 44 49 46 52
REMARK H PARENT 48 56 60 75 4 78
REMARK Flexibility Score: inf
ROOT
ATOM      1  C   UNL     1      22.670  32.883  13.381  1.00  0.00     0.272 C 
ATOM      2  C   UNL     1      23.174  31.470  13.029  1.00  0.00     0.113 C 
ATOM      3  C   UNL     1      21.974  30.536  12.901  1.00  0.00     0.145 C 
ATOM      4  C   UNL     1      21.429  30.424  14.349  1.00  0.00     0.142 C 
ATOM      5  C   UNL     1      21.463  31.776  15.004  1.00  0.00     0.178 C 
ATOM      6  O   UNL     1      21.463  32.799  14.039  1.00  0.00    -0.332 OA
ENDROOT
BRANCH   1   7
ATOM      7  O   UNL     1      22.482  33.499  12.157  1.00  0.00    -0.338 OA
BRANCH   7   8
ATOM      8  C   UNL     1      21.455  34.389  12.067  1.00  0.00     0.199 C 
BRANCH   8   9
ATOM      9  C   UNL     1      22.054  35.644  11.386  1.00  0.00     0.179 C 
ATOM     10  C   UNL     1      23.323  36.076   9.557  1.00  0.00     0.282 C 
ATOM     11  O   UNL     1      23.046  35.170  10.583  1.00  0.00    -0.341 OA
ATOM     12  C   UNL     1      22.186  36.008   8.598  1.00  0.00     0.202 C 
ATOM     13  C   UNL     1      20.934  36.489   9.284  1.00  0.00     0.179 C 
ATOM     14  C   UNL     1      20.956  36.413  10.764  1.00  0.00     0.177 C 
BRANCH  10  15
ATOM     15  O   UNL     1      24.568  35.774   8.987  1.00  0.00    -0.341 OA
BRANCH  15  16
ATOM     16  C   UNL     1      25.503  36.660   9.486  1.00  0.00     0.184 C 
ATOM     17  C   UNL     1      26.447  37.228   8.484  1.00  0.00     0.178 C 
ATOM     18  O   UNL     1      27.099  38.298   9.086  1.00  0.00    -0.341 OA
ATOM     19  C   UNL     1      28.016  37.823  10.070  1.00  0.00     0.281 C 
ATOM     20  C   UNL     1      26.407  35.925  10.511  1.00  0.00     0.180 C 
ATOM     21  C   UNL     1      27.322  36.999  11.091  1.00  0.00     0.202 C 
BRANCH  17  22
ATOM     22  C   UNL     1      25.842  37.671   7.194  1.00  0.00     0.191 C 
BRANCH  22  23
ATOM     23  O   UNL     1      24.694  38.413   7.407  1.00  0.00    -0.394 OA
ATOM     24  H   UNL     1      24.118  38.320   6.583  1.00  0.00     0.210 HD
ENDBRANCH  22  23
ENDBRANCH  17  22
BRANCH  19  25
ATOM     25  O   UNL     1      28.505  38.993  10.638  1.00  0.00    -0.350 OA
BRANCH  25  26
ATOM     26  C   UNL     1      29.873  38.989  10.834  1.00  0.00     0.169 C 
BRANCH  26  27
ATOM     27  C   UNL     1      30.235  39.297  12.253  1.00  0.00     0.119 C 
BRANCH  27  28
ATOM     28  N   UNL     1      30.760  38.079  12.866  1.00  0.00    -0.092 NA
ATOM     29  N   UNL     1      31.527  37.345  12.204  1.00  0.00     0.001 N 
ATOM     30  N   UNL     1      32.582  36.762  11.894  1.00  0.00    -0.003 NA
ENDBRANCH  27  28
ENDBRANCH  26  27
ENDBRANCH  25  26
ENDBRANCH  19  25
BRANCH  20  31
ATOM     31  O   UNL     1      25.652  35.416  11.557  1.00  0.00    -0.387 OA
ATOM     32  H   UNL     1      26.183  34.814  12.147  1.00  0.00     0.211 HD
ENDBRANCH  20  31
BRANCH  21  33
ATOM     33  O   UNL     1      28.251  36.303  11.860  1.00  0.00    -0.385 OA
ATOM     34  H   UNL     1      28.707  35.613  11.341  1.00  0.00     0.211 HD
ENDBRANCH  21  33
ENDBRANCH  15  16
ENDBRANCH  10  15
BRANCH  12  35
ATOM     35  O   UNL     1      22.400  36.738   7.434  1.00  0.00    -0.385 OA
ATOM     36  H   UNL     1      22.073  36.238   6.631  1.00  0.00     0.211 HD
ENDBRANCH  12  35
BRANCH  13  37
ATOM     37  O   UNL     1      19.860  35.818   8.687  1.00  0.00    -0.387 OA
ATOM     38  H   UNL     1      20.212  35.395   7.857  1.00  0.00     0.211 HD
ENDBRANCH  13  37
BRANCH  14  39
ATOM     39  O   UNL     1      19.685  35.981  11.200  1.00  0.00    -0.387 OA
ATOM     40  H   UNL     1      19.567  36.077  12.168  1.00  0.00     0.211 HD
ENDBRANCH  14  39
ENDBRANCH   8   9
ENDBRANCH   7   8
ENDBRANCH   1   7
BRANCH   1  41
ATOM     41  C   UNL     1      23.765  33.526  14.097  1.00  0.00     0.364 C 
ATOM     42  O   UNL     1      23.697  34.605  14.743  1.00  0.00    -0.246 OA
BRANCH  41  43
ATOM     43  O   UNL     1      25.026  32.924  14.095  1.00  0.00    -0.477 OA
ATOM     44  H   UNL     1      25.289  32.205  13.430  1.00  0.00     0.296 HD
ENDBRANCH  41  43
ENDBRANCH   1  41
BRANCH   3  45
ATOM     45  O   UNL     1      21.018  31.053  12.068  1.00  0.00    -0.391 OA
ATOM     46  H   UNL     1      20.304  30.385  11.936  1.00  0.00     0.211 HD
ENDBRANCH   3  45
BRANCH   5  47
ATOM     47  C   UNL     1      20.208  31.967  15.821  1.00  0.00     0.176 C 
BRANCH  47  48
ATOM     48  O   UNL     1      19.833  30.734  16.331  1.00  0.00    -0.388 OA
ATOM     49  H   UNL     1      18.854  30.649  16.444  1.00  0.00     0.211 HD
ENDBRANCH  47  48
BRANCH  47  50
ATOM     50  C   UNL     1      20.353  32.946  16.959  1.00  0.00     0.165 C 
BRANCH  50  51
ATOM     51  O   UNL     1      21.624  33.546  16.747  1.00  0.00    -0.388 OA
ATOM     52  H   UNL     1      21.775  33.729  15.778  1.00  0.00     0.211 HD
ENDBRANCH  50  51
BRANCH  50  53
ATOM     53  C   UNL     1      20.442  32.251  18.287  1.00  0.00     0.154 C 
BRANCH  53  54
ATOM     54  N   UNL     1      21.818  32.030  18.643  1.00  0.00    -0.319 N 
ATOM     55  C   UNL     1      22.495  30.793  18.591  1.00  0.00     0.407 C 
ATOM     56  H   UNL     1      22.402  32.857  18.979  1.00  0.00     0.167 HD
ATOM     57  O   UNL     1      21.854  29.803  18.213  1.00  0.00    -0.225 OA
BRANCH  55  58
ATOM     58  O   UNL     1      23.815  30.609  18.929  1.00  0.00    -0.443 OA
BRANCH  58  59
ATOM     59  C   UNL     1      24.555  29.536  18.402  1.00  0.00     0.294 C 
BRANCH  59  60
ATOM     60  C   UNL     1      25.394  30.059  17.282  1.00  0.00     0.121 A 
ATOM     61  C   UNL     1      26.685  30.581  17.401  1.00  0.00     0.144 A 
ATOM     62  N   UNL     1      25.135  30.160  15.972  1.00  0.00    -0.131 NA
ATOM     63  N   UNL     1      27.111  30.952  16.200  1.00  0.00    -0.220 N 
ATOM     64  N   UNL     1      26.133  30.677  15.349  1.00  0.00    -0.062 NA
BRANCH  63  65
ATOM     65  C   UNL     1      28.383  31.544  15.882  1.00  0.00     0.073 A 
ATOM     66  C   UNL     1      29.545  30.982  16.316  1.00  0.00     0.033 A 
ATOM     67  C   UNL     1      28.475  32.686  15.134  1.00  0.00     0.118 A 
ATOM     68  C   UNL     1      30.784  31.508  16.037  1.00  0.00     0.056 A 
ATOM     69  C   UNL     1      29.732  33.248  14.832  1.00  0.00     0.312 A 
ATOM     70  C   UNL     1      30.903  32.686  15.265  1.00  0.00     0.194 A 
BRANCH  69  71
ATOM     71  N   UNL     1      29.735  34.419  14.055  1.00  0.00     0.066 N 
ATOM     72  O   UNL     1      30.298  34.360  12.917  1.00  0.00    -0.258 OA
ATOM     73  O   UNL     1      29.169  35.574  14.489  1.00  0.00    -0.258 OA
ENDBRANCH  69  71
BRANCH  70  74
ATOM     74  O   UNL     1      32.174  33.171  15.011  1.00  0.00    -0.502 OA
ATOM     75  H   UNL     1      32.808  33.403  15.706  1.00  0.00     0.293 HD
ENDBRANCH  70  74
ENDBRANCH  63  65
ENDBRANCH  59  60
ENDBRANCH  58  59
ENDBRANCH  55  58
ENDBRANCH  53  54
ENDBRANCH  50  53
ENDBRANCH  47  50
ENDBRANCH   5  47
BRANCH   4  76
ATOM     76  N   UNL     1      22.318  29.472  14.986  1.00  0.00    -0.348 N 
ATOM     77  C   UNL     1      21.868  28.161  15.350  1.00  0.00     0.217 C 
ATOM     78  H   UNL     1      23.304  29.715  15.195  1.00  0.00     0.163 HD
ATOM     79  C   UNL     1      22.795  27.205  16.001  1.00  0.00     0.114 C 
ATOM     80  O   UNL     1      20.666  27.845  15.101  1.00  0.00    -0.275 OA
ENDBRANCH   4  76
TORSDOF 32
BEGIN_RES LYS A 131
REMARK  4 active torsions:
REMARK  status: ('A' for Active; 'I' for Inactive)
REMARK    1  A    between atoms: CA   and  CB  
REMARK    2  A    between atoms: CB   and  CG  
REMARK    3  A    between atoms: CG   and  CD  
REMARK    4  A    between atoms: CD   and  CE  
ROOT
ATOM      1  CA  LYS A 131      29.867  25.555  16.977  1.00 20.52     0.186 C 
ENDROOT
BRANCH   1   2
ATOM      2  CB  LYS A 131      28.345  25.722  17.026  1.00 20.94     0.034 C 
BRANCH   2   3
ATOM      3  CG  LYS A 131      27.601  24.402  16.894  1.00 22.96     0.005 C 
BRANCH   3   4
ATOM      4  CD  LYS A 131      26.614  24.194  18.008  1.00 24.33     0.041 C 
BRANCH   4   5
ATOM      5  CE  LYS A 131      25.315  24.923  17.680  1.00 26.91     0.338 C 
ATOM      6  NZ  LYS A 131      24.919  25.808  18.801  1.00 27.40     0.618 N 
ENDBRANCH   4   5
ENDBRANCH   3   4
ENDBRANCH   2   3
ENDBRANCH   1   2
END_RES LYS A 131
BEGIN_RES LYS A 135
REMARK  4 active torsions:
REMARK  status: ('A' for Active; 'I' for Inactive)
REMARK    5  A    between atoms: CA   and  CB  
REMARK    6  A    between atoms: CB   and  CG  
REMARK    7  A    between atoms: CG   and  CD  
REMARK    8  A    between atoms: CD   and  CE  
ROOT
ATOM      7  CA  LYS A 135      33.193  34.663   9.290  1.00 25.02     0.186 C 
ENDROOT
BRANCH   7   8
ATOM      8  CB  LYS A 135      32.060  35.360  10.034  1.00 26.63     0.034 C 
BRANCH   8   9
ATOM      9  CG  LYS A 135      30.823  35.561   9.197  1.00 29.45     0.005 C 
BRANCH   9  10
ATOM     10  CD  LYS A 135      30.083  34.246   9.009  1.00 32.00     0.041 C 
BRANCH  10  11
ATOM     11  CE  LYS A 135      28.802  34.463   8.226  1.00 34.25     0.338 C 
ATOM     12  NZ  LYS A 135      29.047  35.300   7.019  1.00 35.99     0.618 N 
ENDBRANCH  10  11
ENDBRANCH   9  10
ENDBRANCH   8   9
ENDBRANCH   7   8
END_RES LYS A 135
