REMARK VINA RESULT:    -4.737      2.077      3.435
REMARK INTER + INTRA:         -22.791
REMARK INTER:                 -10.292
REMARK INTRA:                 -12.500
REMARK UNBOUND:               -10.853
REMARK SMILES CC(=O)N[C@@H]1[C@@H](O)C[C@](OC[C@H]2O[C@@H](O[C@H]3[C@H](O)[C@@H](O)[C@H](OCCN=[N+]=[N-])O[C@@H]3CO)[C@H](O)[C@@H](O)[C@H]2O)(C(=O)O)O[C@H]1C(O)[C@H](O)CNC(=O)OCc1cn(-c2ncn3c2c(=O)n(C(C)C)c2ccccc23)nn1
REMARK SMILES IDX 9 1 8 2 6 3 5 4 42 5 41 6 10 7 11 8 12 9 14 10 13 11 32 12
REMARK SMILES IDX 34 13 36 14 15 15 16 16 29 17 28 18 21 19 17 20 19 21 30 22
REMARK SMILES IDX 31 23 22 25 23 26 24 27 25 28 26 29 27 30 18 31 20 33 33 35
REMARK SMILES IDX 35 37 37 39 38 41 39 42 40 43 7 45 43 47 44 48 45 50 46 51
REMARK SMILES IDX 47 53 48 54 49 55 50 57 51 58 52 59 53 60 54 61 74 62 55 63
REMARK SMILES IDX 73 64 56 65 57 66 60 67 58 68 59 69 61 70 72 71 63 72 62 73
REMARK SMILES IDX 71 74 67 75 70 76 68 77 69 78 64 79 65 80 66 81 4 82 2 83
REMARK SMILES IDX 1 85 3 86
REMARK H PARENT 31 24 18 32 20 34 33 36 35 38 37 40 40 44 7 46 44 49 46 52
REMARK H PARENT 48 56 4 84
REMARK Flexibility Score: inf
ROOT
ATOM      1  C   UNL     1      25.108  36.682   9.277  1.00  0.00     0.272 C 
ATOM      2  C   UNL     1      23.770  36.055   8.990  1.00  0.00     0.113 C 
ATOM      3  C   UNL     1      22.667  36.688   9.730  1.00  0.00     0.145 C 
ATOM      4  C   UNL     1      22.694  38.189   9.738  1.00  0.00     0.142 C 
ATOM      5  C   UNL     1      24.058  38.767   9.616  1.00  0.00     0.178 C 
ATOM      6  O   UNL     1      24.985  38.072   8.960  1.00  0.00    -0.332 OA
ENDROOT
BRANCH   1   7
ATOM      7  O   UNL     1      25.949  36.253   8.288  1.00  0.00    -0.338 OA
BRANCH   7   8
ATOM      8  C   UNL     1      26.230  36.859   7.170  1.00  0.00     0.199 C 
BRANCH   8   9
ATOM      9  C   UNL     1      27.591  37.172   6.650  1.00  0.00     0.179 C 
ATOM     10  C   UNL     1      28.567  38.838   5.348  1.00  0.00     0.282 C 
ATOM     11  O   UNL     1      27.402  38.384   5.908  1.00  0.00    -0.341 OA
ATOM     12  C   UNL     1      29.599  39.224   6.392  1.00  0.00     0.202 C 
ATOM     13  C   UNL     1      29.811  38.091   7.381  1.00  0.00     0.179 C 
ATOM     14  C   UNL     1      28.465  37.596   7.832  1.00  0.00     0.177 C 
BRANCH  10  15
ATOM     15  O   UNL     1      28.252  39.980   4.621  1.00  0.00    -0.341 OA
BRANCH  15  16
ATOM     16  C   UNL     1      27.400  40.794   5.322  1.00  0.00     0.184 C 
ATOM     17  C   UNL     1      26.468  41.493   4.400  1.00  0.00     0.178 C 
ATOM     18  O   UNL     1      26.803  42.779   4.058  1.00  0.00    -0.341 OA
ATOM     19  C   UNL     1      28.135  43.093   4.115  1.00  0.00     0.281 C 
ATOM     20  C   UNL     1      28.127  41.747   6.249  1.00  0.00     0.180 C 
ATOM     21  C   UNL     1      28.745  42.851   5.473  1.00  0.00     0.202 C 
BRANCH  17  22
ATOM     22  C   UNL     1      25.057  41.464   4.948  1.00  0.00     0.191 C 
BRANCH  22  23
ATOM     23  O   UNL     1      25.001  40.320   5.780  1.00  0.00    -0.394 OA
ATOM     24  H   UNL     1      25.873  40.270   6.232  1.00  0.00     0.210 HD
ENDBRANCH  22  23
ENDBRANCH  17  22
BRANCH  19  25
ATOM     25  O   UNL     1      28.245  44.477   3.890  1.00  0.00    -0.350 OA
BRANCH  25  26
ATOM     26  C   UNL     1      27.174  45.203   4.337  1.00  0.00     0.169 C 
BRANCH  26  27
ATOM     27  C   UNL     1      27.498  46.394   5.181  1.00  0.00     0.119 C 
BRANCH  27  28
ATOM     28  N   UNL     1      26.854  46.154   6.482  1.00  0.00    -0.092 NA
ATOM     29  N   UNL     1      27.418  45.654   7.431  1.00  0.00     0.001 N 
ATOM     30  N   UNL     1      27.802  44.914   8.342  1.00  0.00    -0.003 NA
ENDBRANCH  27  28
ENDBRANCH  26  27
ENDBRANCH  25  26
ENDBRANCH  19  25
BRANCH  20  31
ATOM     31  O   UNL     1      27.233  42.184   7.233  1.00  0.00    -0.387 OA
ATOM     32  H   UNL     1      26.405  41.638   7.089  1.00  0.00     0.211 HD
ENDBRANCH  20  31
BRANCH  21  33
ATOM     33  O   UNL     1      30.100  42.523   5.284  1.00  0.00    -0.385 OA
ATOM     34  H   UNL     1      30.663  43.334   5.183  1.00  0.00     0.211 HD
ENDBRANCH  21  33
ENDBRANCH  15  16
ENDBRANCH  10  15
BRANCH  12  35
ATOM     35  O   UNL     1      30.814  39.394   5.733  1.00  0.00    -0.385 OA
ATOM     36  H   UNL     1      31.103  40.337   5.717  1.00  0.00     0.211 HD
ENDBRANCH  12  35
BRANCH  13  37
ATOM     37  O   UNL     1      30.423  38.663   8.512  1.00  0.00    -0.387 OA
ATOM     38  H   UNL     1      31.377  38.874   8.315  1.00  0.00     0.211 HD
ENDBRANCH  13  37
BRANCH  14  39
ATOM     39  O   UNL     1      27.832  38.705   8.451  1.00  0.00    -0.387 OA
ATOM     40  H   UNL     1      28.409  39.504   8.388  1.00  0.00     0.211 HD
ENDBRANCH  14  39
ENDBRANCH   8   9
ENDBRANCH   7   8
ENDBRANCH   1   7
BRANCH   1  41
ATOM     41  C   UNL     1      25.542  36.593  10.665  1.00  0.00     0.364 C 
ATOM     42  O   UNL     1      24.982  35.924  11.533  1.00  0.00    -0.246 OA
BRANCH  41  43
ATOM     43  O   UNL     1      26.677  37.303  11.100  1.00  0.00    -0.477 OA
ATOM     44  H   UNL     1      26.937  37.274  12.078  1.00  0.00     0.296 HD
ENDBRANCH  41  43
ENDBRANCH   1  41
BRANCH   3  45
ATOM     45  O   UNL     1      21.463  36.249   9.120  1.00  0.00    -0.391 OA
ATOM     46  H   UNL     1      20.688  36.460   9.688  1.00  0.00     0.211 HD
ENDBRANCH   3  45
BRANCH   5  47
ATOM     47  C   UNL     1      24.035  40.187   9.081  1.00  0.00     0.176 C 
BRANCH  47  48
ATOM     48  O   UNL     1      25.266  40.507   8.552  1.00  0.00    -0.388 OA
ATOM     49  H   UNL     1      25.425  41.481   8.479  1.00  0.00     0.211 HD
ENDBRANCH  47  48
BRANCH  47  50
ATOM     50  C   UNL     1      23.598  41.214  10.066  1.00  0.00     0.165 C 
BRANCH  50  51
ATOM     51  O   UNL     1      22.353  41.750   9.881  1.00  0.00    -0.388 OA
ATOM     52  H   UNL     1      22.342  42.590   9.368  1.00  0.00     0.211 HD
ENDBRANCH  50  51
BRANCH  50  53
ATOM     53  C   UNL     1      24.604  42.301  10.293  1.00  0.00     0.154 C 
BRANCH  53  54
ATOM     54  N   UNL     1      25.482  41.967  11.421  1.00  0.00    -0.319 N 
ATOM     55  C   UNL     1      26.871  41.817  11.282  1.00  0.00     0.407 C 
ATOM     56  H   UNL     1      25.059  41.832  12.388  1.00  0.00     0.167 HD
ATOM     57  O   UNL     1      27.432  41.951  10.164  1.00  0.00    -0.225 OA
BRANCH  55  58
ATOM     58  O   UNL     1      27.621  41.512  12.427  1.00  0.00    -0.443 OA
BRANCH  58  59
ATOM     59  C   UNL     1      28.993  41.249  12.331  1.00  0.00     0.294 C 
BRANCH  59  60
ATOM     60  C   UNL     1      29.284  39.783  12.107  1.00  0.00     0.121 A 
ATOM     61  C   UNL     1      29.824  38.910  13.024  1.00  0.00     0.146 A 
ATOM     62  N   UNL     1      29.073  39.056  10.997  1.00  0.00    -0.131 NA
ATOM     63  N   UNL     1      29.931  37.671  12.458  1.00  0.00    -0.200 N 
ATOM     64  N   UNL     1      29.465  37.807  11.232  1.00  0.00    -0.060 NA
BRANCH  63  65
ATOM     65  C   UNL     1      30.442  36.504  13.103  1.00  0.00     0.186 A 
ATOM     66  N   UNL     1      31.738  36.150  13.135  1.00  0.00    -0.216 NA
ATOM     67  C   UNL     1      29.788  35.512  13.789  1.00  0.00     0.158 A 
ATOM     68  C   UNL     1      31.878  34.993  13.810  1.00  0.00     0.207 A 
ATOM     69  N   UNL     1      30.665  34.574  14.230  1.00  0.00    -0.291 N 
ATOM     70  C   UNL     1      28.452  35.367  14.060  1.00  0.00     0.279 A 
ATOM     71  C   UNL     1      30.254  33.501  14.928  1.00  0.00     0.071 A 
ATOM     72  N   UNL     1      28.007  34.294  14.763  1.00  0.00    -0.302 N 
ATOM     73  O   UNL     1      27.609  36.230  13.661  1.00  0.00    -0.267 OA
ATOM     74  C   UNL     1      31.136  32.551  15.368  1.00  0.00     0.029 A 
ATOM     75  C   UNL     1      28.906  33.379  15.186  1.00  0.00     0.068 A 
ATOM     76  C   UNL     1      30.706  31.428  16.092  1.00  0.00     0.002 A 
ATOM     77  C   UNL     1      28.488  32.271  15.899  1.00  0.00     0.028 A 
ATOM     78  C   UNL     1      29.363  31.294  16.356  1.00  0.00     0.002 A 
BRANCH  72  79
ATOM     79  C   UNL     1      26.582  34.144  15.059  1.00  0.00     0.085 C 
ATOM     80  C   UNL     1      26.005  35.293  15.820  1.00  0.00     0.031 C 
ATOM     81  C   UNL     1      25.786  33.734  13.846  1.00  0.00     0.031 C 
ENDBRANCH  72  79
ENDBRANCH  63  65
ENDBRANCH  59  60
ENDBRANCH  58  59
ENDBRANCH  55  58
ENDBRANCH  53  54
ENDBRANCH  50  53
ENDBRANCH  47  50
ENDBRANCH   5  47
BRANCH   4  82
ATOM     82  N   UNL     1      21.991  38.652  10.916  1.00  0.00    -0.348 N 
ATOM     83  C   UNL     1      20.617  38.983  10.923  1.00  0.00     0.217 C 
ATOM     84  H   UNL     1      22.509  38.754  11.822  1.00  0.00     0.163 HD
ATOM     85  C   UNL     1      19.905  39.460  12.145  1.00  0.00     0.114 C 
ATOM     86  O   UNL     1      19.978  38.865   9.837  1.00  0.00    -0.275 OA
ENDBRANCH   4  82
TORSDOF 31
BEGIN_RES LYS A 131
REMARK  4 active torsions:
REMARK  status: ('A' for Active; 'I' for Inactive)
REMARK    1  A    between atoms: CA   and  CB  
REMARK    2  A    between atoms: CB   and  CG  
REMARK    3  A    between atoms: CG   and  CD  
REMARK    4  A    between atoms: CD   and  CE  
ROOT
ATOM      1  CA  LYS A 131      29.867  25.555  16.977  1.00 20.52     0.186 C 
ENDROOT
BRANCH   1   2
ATOM      2  CB  LYS A 131      28.345  25.722  17.026  1.00 20.94     0.034 C 
BRANCH   2   3
ATOM      3  CG  LYS A 131      27.602  24.399  16.918  1.00 22.96     0.005 C 
BRANCH   3   4
ATOM      4  CD  LYS A 131      26.591  24.226  18.017  1.00 24.33     0.041 C 
BRANCH   4   5
ATOM      5  CE  LYS A 131      25.986  25.581  18.371  1.00 26.91     0.338 C 
ATOM      6  NZ  LYS A 131      25.879  25.734  19.841  1.00 27.40     0.618 N 
ENDBRANCH   4   5
ENDBRANCH   3   4
ENDBRANCH   2   3
ENDBRANCH   1   2
END_RES LYS A 131
BEGIN_RES LYS A 135
REMARK  4 active torsions:
REMARK  status: ('A' for Active; 'I' for Inactive)
REMARK    5  A    between atoms: CA   and  CB  
REMARK    6  A    between atoms: CB   and  CG  
REMARK    7  A    between atoms: CG   and  CD  
REMARK    8  A    between atoms: CD   and  CE  
ROOT
ATOM      7  CA  LYS A 135      33.193  34.663   9.290  1.00 25.02     0.186 C 
ENDROOT
BRANCH   7   8
ATOM      8  CB  LYS A 135      32.060  35.360  10.034  1.00 26.63     0.034 C 
BRANCH   8   9
ATOM      9  CG  LYS A 135      30.768  35.405   9.259  1.00 29.45     0.005 C 
BRANCH   9  10
ATOM     10  CD  LYS A 135      30.163  34.014   9.144  1.00 32.00     0.041 C 
BRANCH  10  11
ATOM     11  CE  LYS A 135      28.676  34.103   8.859  1.00 34.25     0.338 C 
ATOM     12  NZ  LYS A 135      27.881  33.971  10.112  1.00 35.99     0.618 N 
ENDBRANCH  10  11
ENDBRANCH   9  10
ENDBRANCH   8   9
ENDBRANCH   7   8
END_RES LYS A 135
