REMARK VINA RESULT:    -3.284      3.169      6.782
REMARK INTER + INTRA:         -21.898
REMARK INTER:                 -12.387
REMARK INTRA:                  -9.511
REMARK UNBOUND:               -13.239
REMARK SMILES CCOC(=O)Cn1cc(COC(=O)NC[C@@H](O)C(O)[C@@H]2O[C@@](OC[C@H]3O[C@@H](O[C@H]4[C@H](O)[C@@H](O)[C@H](OCCN=[N+]=[N-])O[C@@H]4CO)[C@H](O)[C@@H](O)[C@H]3O)(C(=O)O)C[C@H](O)[C@H]2NC(C)=O)nn1
REMARK SMILES IDX 18 1 20 2 22 3 54 4 21 5 55 6 57 7 23 8 24 9 25 10 27 11
REMARK SMILES IDX 26 12 45 13 47 14 49 15 28 16 29 17 42 18 41 19 34 20 30 21
REMARK SMILES IDX 32 22 43 23 44 24 35 26 36 27 37 28 38 29 39 30 40 31 31 32
REMARK SMILES IDX 33 34 46 36 48 38 50 40 51 42 52 43 53 44 56 46 58 48 59 49
REMARK SMILES IDX 60 51 61 52 19 53 16 55 17 56 15 58 14 59 12 60 13 62 11 63
REMARK SMILES IDX 10 64 9 65 8 66 62 67 7 68 63 69 6 70 4 71 5 72 3 73 2 74
REMARK SMILES IDX 1 75
REMARK H PARENT 44 25 31 33 33 35 46 37 48 39 50 41 53 45 56 47 58 50 19 54
REMARK H PARENT 17 57 14 61
REMARK Flexibility Score: inf
ROOT
ATOM      1  C   UNL     1      29.637  36.348  13.875  1.00  0.00     0.176 C 
ENDROOT
BRANCH   1   2
ATOM      2  C   UNL     1      28.142  36.440  13.742  1.00  0.00     0.178 C 
ATOM      3  C   UNL     1      26.337  35.395  12.686  1.00  0.00     0.272 C 
ATOM      4  C   UNL     1      25.626  36.631  13.119  1.00  0.00     0.113 C 
ATOM      5  O   UNL     1      27.595  35.260  13.312  1.00  0.00    -0.332 OA
ATOM      6  C   UNL     1      26.391  37.892  12.879  1.00  0.00     0.145 C 
ATOM      7  C   UNL     1      27.861  37.534  12.727  1.00  0.00     0.142 C 
BRANCH   3   8
ATOM      8  O   UNL     1      26.504  35.251  11.326  1.00  0.00    -0.338 OA
BRANCH   8   9
ATOM      9  C   UNL     1      26.887  34.045  10.847  1.00  0.00     0.199 C 
BRANCH   9  10
ATOM     10  C   UNL     1      27.337  34.229   9.385  1.00  0.00     0.179 C 
ATOM     11  C   UNL     1      27.148  35.641   7.554  1.00  0.00     0.282 C 
ATOM     12  O   UNL     1      26.651  35.228   8.770  1.00  0.00    -0.341 OA
ATOM     13  C   UNL     1      28.611  35.966   7.574  1.00  0.00     0.202 C 
ATOM     14  C   UNL     1      29.336  34.700   7.953  1.00  0.00     0.179 C 
ATOM     15  C   UNL     1      28.833  34.290   9.296  1.00  0.00     0.177 C 
BRANCH  11  16
ATOM     16  O   UNL     1      26.468  36.728   7.031  1.00  0.00    -0.341 OA
BRANCH  16  17
ATOM     17  C   UNL     1      25.689  37.419   7.923  1.00  0.00     0.184 C 
ATOM     18  C   UNL     1      24.204  37.224   7.701  1.00  0.00     0.178 C 
ATOM     19  O   UNL     1      23.602  38.379   7.222  1.00  0.00    -0.341 OA
ATOM     20  C   UNL     1      23.634  39.426   8.172  1.00  0.00     0.281 C 
ATOM     21  C   UNL     1      25.999  38.912   7.817  1.00  0.00     0.180 C 
ATOM     22  C   UNL     1      25.007  39.618   8.730  1.00  0.00     0.202 C 
BRANCH  18  23
ATOM     23  C   UNL     1      23.561  36.679   8.950  1.00  0.00     0.191 C 
BRANCH  23  24
ATOM     24  O   UNL     1      24.480  36.651  10.016  1.00  0.00    -0.394 OA
ATOM     25  H   UNL     1      24.431  35.806  10.506  1.00  0.00     0.210 HD
ENDBRANCH  23  24
ENDBRANCH  18  23
BRANCH  20  26
ATOM     26  O   UNL     1      22.690  39.224   9.145  1.00  0.00    -0.350 OA
BRANCH  26  27
ATOM     27  C   UNL     1      21.420  39.656   8.961  1.00  0.00     0.169 C 
BRANCH  27  28
ATOM     28  C   UNL     1      20.329  38.668   8.783  1.00  0.00     0.119 C 
BRANCH  28  29
ATOM     29  N   UNL     1      20.151  37.692   9.804  1.00  0.00    -0.092 NA
ATOM     30  N   UNL     1      19.990  36.485   9.526  1.00  0.00     0.001 N 
ATOM     31  N   UNL     1      20.048  35.339   9.047  1.00  0.00    -0.003 NA
ENDBRANCH  28  29
ENDBRANCH  27  28
ENDBRANCH  26  27
ENDBRANCH  20  26
BRANCH  21  32
ATOM     32  O   UNL     1      27.302  39.143   8.265  1.00  0.00    -0.387 OA
ATOM     33  H   UNL     1      27.409  40.142   8.328  1.00  0.00     0.211 HD
ENDBRANCH  21  32
BRANCH  22  34
ATOM     34  O   UNL     1      25.368  40.963   8.848  1.00  0.00    -0.385 OA
ATOM     35  H   UNL     1      24.747  41.579   8.387  1.00  0.00     0.211 HD
ENDBRANCH  22  34
ENDBRANCH  16  17
ENDBRANCH  11  16
BRANCH  13  36
ATOM     36  O   UNL     1      28.993  36.377   6.303  1.00  0.00    -0.385 OA
ATOM     37  H   UNL     1      29.750  36.982   6.269  1.00  0.00     0.211 HD
ENDBRANCH  13  36
BRANCH  14  38
ATOM     38  O   UNL     1      30.712  35.007   8.049  1.00  0.00    -0.387 OA
ATOM     39  H   UNL     1      31.253  34.283   7.647  1.00  0.00     0.211 HD
ENDBRANCH  14  38
BRANCH  15  40
ATOM     40  O   UNL     1      29.367  35.197  10.241  1.00  0.00    -0.387 OA
ATOM     41  H   UNL     1      30.246  34.801  10.492  1.00  0.00     0.211 HD
ENDBRANCH  15  40
ENDBRANCH   9  10
ENDBRANCH   8   9
ENDBRANCH   3   8
BRANCH   3  42
ATOM     42  C   UNL     1      25.570  34.236  13.203  1.00  0.00     0.364 C 
ATOM     43  O   UNL     1      24.413  34.022  12.777  1.00  0.00    -0.246 OA
BRANCH  42  44
ATOM     44  O   UNL     1      26.109  33.400  14.140  1.00  0.00    -0.477 OA
ATOM     45  H   UNL     1      25.646  33.201  15.024  1.00  0.00     0.296 HD
ENDBRANCH  42  44
ENDBRANCH   3  42
BRANCH   6  46
ATOM     46  O   UNL     1      25.934  38.662  11.836  1.00  0.00    -0.391 OA
ATOM     47  H   UNL     1      26.316  39.580  11.926  1.00  0.00     0.211 HD
ENDBRANCH   6  46
BRANCH   7  48
ATOM     48  N   UNL     1      28.702  38.700  12.958  1.00  0.00    -0.348 N 
ATOM     49  C   UNL     1      29.018  39.617  11.928  1.00  0.00     0.217 C 
ATOM     50  H   UNL     1      29.075  38.863  13.909  1.00  0.00     0.163 HD
ATOM     51  C   UNL     1      29.880  40.816  12.151  1.00  0.00     0.114 C 
ATOM     52  O   UNL     1      28.547  39.402  10.778  1.00  0.00    -0.275 OA
ENDBRANCH   7  48
ENDBRANCH   1   2
BRANCH   1  53
ATOM     53  O   UNL     1      30.078  37.088  14.954  1.00  0.00    -0.388 OA
ATOM     54  H   UNL     1      31.073  37.085  15.056  1.00  0.00     0.211 HD
ENDBRANCH   1  53
BRANCH   1  55
ATOM     55  C   UNL     1      30.134  34.921  14.026  1.00  0.00     0.165 C 
BRANCH  55  56
ATOM     56  O   UNL     1      29.870  34.140  12.925  1.00  0.00    -0.388 OA
ATOM     57  H   UNL     1      29.604  34.649  12.125  1.00  0.00     0.211 HD
ENDBRANCH  55  56
BRANCH  55  58
ATOM     58  C   UNL     1      29.539  34.343  15.267  1.00  0.00     0.154 C 
BRANCH  58  59
ATOM     59  N   UNL     1      28.965  33.054  15.109  1.00  0.00    -0.319 N 
ATOM     60  C   UNL     1      29.588  31.826  15.454  1.00  0.00     0.407 C 
ATOM     61  H   UNL     1      27.972  32.954  14.695  1.00  0.00     0.167 HD
ATOM     62  O   UNL     1      30.728  31.781  15.946  1.00  0.00    -0.225 OA
BRANCH  60  63
ATOM     63  O   UNL     1      28.895  30.622  15.238  1.00  0.00    -0.443 OA
BRANCH  63  64
ATOM     64  C   UNL     1      28.208  29.998  16.272  1.00  0.00     0.294 C 
BRANCH  64  65
ATOM     65  C   UNL     1      26.793  30.399  16.386  1.00  0.00     0.120 A 
ATOM     66  C   UNL     1      25.715  29.556  16.575  1.00  0.00     0.139 A 
ATOM     67  N   UNL     1      26.274  31.631  16.319  1.00  0.00    -0.132 NA
ATOM     68  N   UNL     1      24.576  30.289  16.617  1.00  0.00    -0.241 N 
ATOM     69  N   UNL     1      24.954  31.539  16.460  1.00  0.00    -0.066 NA
BRANCH  68  70
ATOM     70  C   UNL     1      23.240  29.735  16.797  1.00  0.00     0.268 C 
BRANCH  70  71
ATOM     71  C   UNL     1      22.987  28.799  15.643  1.00  0.00     0.327 C 
ATOM     72  O   UNL     1      22.996  27.561  15.780  1.00  0.00    -0.250 OA
BRANCH  71  73
ATOM     73  O   UNL     1      22.730  29.285  14.373  1.00  0.00    -0.465 OA
BRANCH  73  74
ATOM     74  C   UNL     1      23.612  29.194  13.292  1.00  0.00     0.229 C 
ATOM     75  C   UNL     1      24.380  30.470  13.050  1.00  0.00     0.049 C 
ENDBRANCH  73  74
ENDBRANCH  71  73
ENDBRANCH  70  71
ENDBRANCH  68  70
ENDBRANCH  64  65
ENDBRANCH  63  64
ENDBRANCH  60  63
ENDBRANCH  58  59
ENDBRANCH  55  58
ENDBRANCH   1  55
TORSDOF 33
BEGIN_RES LYS A 131
REMARK  4 active torsions:
REMARK  status: ('A' for Active; 'I' for Inactive)
REMARK    1  A    between atoms: CA   and  CB  
REMARK    2  A    between atoms: CB   and  CG  
REMARK    3  A    between atoms: CG   and  CD  
REMARK    4  A    between atoms: CD   and  CE  
ROOT
ATOM      1  CA  LYS A 131      29.867  25.555  16.977  1.00 20.52     0.186 C 
ENDROOT
BRANCH   1   2
ATOM      2  CB  LYS A 131      28.345  25.722  17.026  1.00 20.94     0.034 C 
BRANCH   2   3
ATOM      3  CG  LYS A 131      27.601  24.403  16.888  1.00 22.96     0.005 C 
BRANCH   3   4
ATOM      4  CD  LYS A 131      26.502  24.263  17.905  1.00 24.33     0.041 C 
BRANCH   4   5
ATOM      5  CE  LYS A 131      25.153  24.481  17.229  1.00 26.91     0.338 C 
ATOM      6  NZ  LYS A 131      24.387  23.213  17.178  1.00 27.40     0.618 N 
ENDBRANCH   4   5
ENDBRANCH   3   4
ENDBRANCH   2   3
ENDBRANCH   1   2
END_RES LYS A 131
BEGIN_RES LYS A 135
REMARK  4 active torsions:
REMARK  status: ('A' for Active; 'I' for Inactive)
REMARK    5  A    between atoms: CA   and  CB  
REMARK    6  A    between atoms: CB   and  CG  
REMARK    7  A    between atoms: CG   and  CD  
REMARK    8  A    between atoms: CD   and  CE  
ROOT
ATOM      7  CA  LYS A 135      33.193  34.663   9.290  1.00 25.02     0.186 C 
ENDROOT
BRANCH   7   8
ATOM      8  CB  LYS A 135      32.060  35.360  10.034  1.00 26.63     0.034 C 
BRANCH   8   9
ATOM      9  CG  LYS A 135      32.500  36.031  11.309  1.00 29.45     0.005 C 
BRANCH   9  10
ATOM     10  CD  LYS A 135      32.036  37.479  11.342  1.00 32.00     0.041 C 
BRANCH  10  11
ATOM     11  CE  LYS A 135      31.552  37.914   9.971  1.00 34.25     0.338 C 
ATOM     12  NZ  LYS A 135      32.163  39.212   9.574  1.00 35.99     0.618 N 
ENDBRANCH  10  11
ENDBRANCH   9  10
ENDBRANCH   8   9
ENDBRANCH   7   8
END_RES LYS A 135
