REMARK VINA RESULT:    -3.986      2.972      8.085
REMARK INTER + INTRA:         -21.172
REMARK INTER:                 -10.228
REMARK INTRA:                 -10.944
REMARK UNBOUND:               -10.427
REMARK SMILES CCN(CC)CCn1cc(COC(=O)NC[C@@H](O)C(O)[C@@H]2O[C@@](OC[C@H]3O[C@@H](O[C@H]4[C@H](O)[C@@H](O)[C@H](OCCN=[N+]=[N-])O[C@@H]4CO)[C@H](O)[C@@H](O)[C@H]3O)(C(=O)O)C[C@H](O)[C@H]2NC(C)=O)nn1
REMARK SMILES IDX 19 1 21 2 23 3 55 4 22 5 56 6 58 7 24 8 25 9 26 10 28 11
REMARK SMILES IDX 27 12 46 13 48 14 50 15 29 16 30 17 43 18 42 19 35 20 31 21
REMARK SMILES IDX 33 22 44 23 45 24 36 26 37 27 38 28 39 29 40 30 41 31 32 32
REMARK SMILES IDX 34 34 47 36 49 38 51 40 52 42 53 43 54 44 57 46 59 48 60 49
REMARK SMILES IDX 61 51 62 52 20 53 17 55 18 56 16 58 15 59 13 60 14 62 12 63
REMARK SMILES IDX 11 64 10 65 9 66 63 67 8 68 64 69 7 70 6 71 3 72 2 73 1 74
REMARK SMILES IDX 4 75 5 76
REMARK H PARENT 45 25 32 33 34 35 47 37 49 39 51 41 54 45 57 47 59 50 20 54
REMARK H PARENT 18 57 15 61
REMARK Flexibility Score: inf
ROOT
ATOM      1  C   UNL     1      30.079  35.280  18.090  1.00  0.00     0.176 C 
ENDROOT
BRANCH   1   2
ATOM      2  C   UNL     1      30.666  34.362  17.050  1.00  0.00     0.178 C 
ATOM      3  C   UNL     1      31.275  34.211  14.836  1.00  0.00     0.272 C 
ATOM      4  C   UNL     1      31.826  32.893  15.399  1.00  0.00     0.113 C 
ATOM      5  O   UNL     1      30.788  35.012  15.845  1.00  0.00    -0.332 OA
ATOM      6  C   UNL     1      30.823  32.114  16.187  1.00  0.00     0.145 C 
ATOM      7  C   UNL     1      29.837  33.122  16.799  1.00  0.00     0.142 C 
BRANCH   3   8
ATOM      8  O   UNL     1      30.352  33.870  13.876  1.00  0.00    -0.338 OA
BRANCH   8   9
ATOM      9  C   UNL     1      29.136  34.505  13.951  1.00  0.00     0.199 C 
BRANCH   9  10
ATOM     10  C   UNL     1      29.124  35.786  13.099  1.00  0.00     0.179 C 
ATOM     11  C   UNL     1      27.627  36.517  11.438  1.00  0.00     0.282 C 
ATOM     12  O   UNL     1      28.386  35.505  12.005  1.00  0.00    -0.341 OA
ATOM     13  C   UNL     1      28.181  37.859  11.707  1.00  0.00     0.202 C 
ATOM     14  C   UNL     1      28.390  38.156  13.166  1.00  0.00     0.179 C 
ATOM     15  C   UNL     1      28.497  36.858  13.937  1.00  0.00     0.177 C 
BRANCH  11  16
ATOM     16  O   UNL     1      26.326  36.255  11.845  1.00  0.00    -0.341 OA
BRANCH  16  17
ATOM     17  C   UNL     1      25.368  36.692  11.000  1.00  0.00     0.184 C 
ATOM     18  C   UNL     1      24.151  37.221  11.713  1.00  0.00     0.178 C 
ATOM     19  O   UNL     1      23.267  37.751  10.728  1.00  0.00    -0.341 OA
ATOM     20  C   UNL     1      22.578  36.699  10.165  1.00  0.00     0.281 C 
ATOM     21  C   UNL     1      24.873  35.619  10.036  1.00  0.00     0.180 C 
ATOM     22  C   UNL     1      23.384  35.482  10.023  1.00  0.00     0.202 C 
BRANCH  18  23
ATOM     23  C   UNL     1      24.408  38.205  12.795  1.00  0.00     0.191 C 
BRANCH  23  24
ATOM     24  O   UNL     1      24.713  37.501  13.953  1.00  0.00    -0.394 OA
ATOM     25  H   UNL     1      25.303  37.994  14.576  1.00  0.00     0.210 HD
ENDBRANCH  23  24
ENDBRANCH  18  23
BRANCH  20  26
ATOM     26  O   UNL     1      21.892  37.082   9.017  1.00  0.00    -0.350 OA
BRANCH  26  27
ATOM     27  C   UNL     1      22.022  38.396   8.680  1.00  0.00     0.169 C 
BRANCH  27  28
ATOM     28  C   UNL     1      22.856  38.608   7.431  1.00  0.00     0.119 C 
BRANCH  28  29
ATOM     29  N   UNL     1      24.258  38.336   7.683  1.00  0.00    -0.092 NA
ATOM     30  N   UNL     1      25.116  39.227   7.728  1.00  0.00     0.001 N 
ATOM     31  N   UNL     1      25.979  40.005   7.319  1.00  0.00    -0.003 NA
ENDBRANCH  28  29
ENDBRANCH  27  28
ENDBRANCH  26  27
ENDBRANCH  20  26
BRANCH  21  32
ATOM     32  O   UNL     1      25.316  35.938   8.766  1.00  0.00    -0.387 OA
ATOM     33  H   UNL     1      26.116  35.450   8.483  1.00  0.00     0.211 HD
ENDBRANCH  21  32
BRANCH  22  34
ATOM     34  O   UNL     1      22.951  34.518  10.968  1.00  0.00    -0.385 OA
ATOM     35  H   UNL     1      22.236  34.960  11.494  1.00  0.00     0.211 HD
ENDBRANCH  22  34
ENDBRANCH  16  17
ENDBRANCH  11  16
BRANCH  13  36
ATOM     36  O   UNL     1      29.465  37.940  11.092  1.00  0.00    -0.385 OA
ATOM     37  H   UNL     1      29.525  37.339  10.328  1.00  0.00     0.211 HD
ENDBRANCH  13  36
BRANCH  14  38
ATOM     38  O   UNL     1      27.439  39.003  13.713  1.00  0.00    -0.387 OA
ATOM     39  H   UNL     1      26.893  39.452  13.047  1.00  0.00     0.211 HD
ENDBRANCH  14  38
BRANCH  15  40
ATOM     40  O   UNL     1      27.212  36.461  14.282  1.00  0.00    -0.387 OA
ATOM     41  H   UNL     1      26.806  35.926  13.541  1.00  0.00     0.211 HD
ENDBRANCH  15  40
ENDBRANCH   9  10
ENDBRANCH   8   9
ENDBRANCH   3   8
BRANCH   3  42
ATOM     42  C   UNL     1      32.457  34.871  14.226  1.00  0.00     0.364 C 
ATOM     43  O   UNL     1      33.294  35.507  14.954  1.00  0.00    -0.246 OA
BRANCH  42  44
ATOM     44  O   UNL     1      32.751  34.861  12.878  1.00  0.00    -0.477 OA
ATOM     45  H   UNL     1      32.080  34.487  12.216  1.00  0.00     0.296 HD
ENDBRANCH  42  44
ENDBRANCH   3  42
BRANCH   6  46
ATOM     46  O   UNL     1      30.198  31.101  15.502  1.00  0.00    -0.391 OA
ATOM     47  H   UNL     1      29.302  30.979  15.909  1.00  0.00     0.211 HD
ENDBRANCH   6  46
BRANCH   7  48
ATOM     48  N   UNL     1      29.190  32.590  17.950  1.00  0.00    -0.348 N 
ATOM     49  C   UNL     1      27.964  31.855  17.764  1.00  0.00     0.217 C 
ATOM     50  H   UNL     1      29.521  32.678  18.928  1.00  0.00     0.163 HD
ATOM     51  C   UNL     1      27.234  31.274  18.919  1.00  0.00     0.114 C 
ATOM     52  O   UNL     1      27.470  31.681  16.619  1.00  0.00    -0.275 OA
ENDBRANCH   7  48
ENDBRANCH   1   2
BRANCH   1  53
ATOM     53  O   UNL     1      31.058  35.551  19.036  1.00  0.00    -0.388 OA
ATOM     54  H   UNL     1      30.631  35.597  19.949  1.00  0.00     0.211 HD
ENDBRANCH   1  53
BRANCH   1  55
ATOM     55  C   UNL     1      29.710  36.559  17.384  1.00  0.00     0.165 C 
BRANCH  55  56
ATOM     56  O   UNL     1      30.724  37.502  17.587  1.00  0.00    -0.388 OA
ATOM     57  H   UNL     1      31.340  37.459  16.816  1.00  0.00     0.211 HD
ENDBRANCH  55  56
BRANCH  55  58
ATOM     58  C   UNL     1      28.401  37.147  17.763  1.00  0.00     0.154 C 
BRANCH  58  59
ATOM     59  N   UNL     1      27.283  36.303  17.513  1.00  0.00    -0.319 N 
ATOM     60  C   UNL     1      26.143  36.834  16.821  1.00  0.00     0.407 C 
ATOM     61  H   UNL     1      27.263  35.329  17.819  1.00  0.00     0.167 HD
ATOM     62  O   UNL     1      26.117  38.022  16.443  1.00  0.00    -0.225 OA
BRANCH  60  63
ATOM     63  O   UNL     1      25.069  35.992  16.584  1.00  0.00    -0.443 OA
BRANCH  63  64
ATOM     64  C   UNL     1      25.277  34.574  16.696  1.00  0.00     0.294 C 
BRANCH  64  65
ATOM     65  C   UNL     1      25.037  33.985  15.372  1.00  0.00     0.120 A 
ATOM     66  C   UNL     1      24.615  32.666  15.174  1.00  0.00     0.138 A 
ATOM     67  N   UNL     1      25.148  34.503  14.151  1.00  0.00    -0.132 NA
ATOM     68  N   UNL     1      24.489  32.448  13.853  1.00  0.00    -0.251 N 
ATOM     69  N   UNL     1      24.816  33.566  13.261  1.00  0.00    -0.067 NA
BRANCH  68  70
ATOM     70  C   UNL     1      24.076  31.222  13.197  1.00  0.00     0.161 C 
BRANCH  70  71
ATOM     71  C   UNL     1      23.839  30.183  14.271  1.00  0.00     0.108 C 
BRANCH  71  72
ATOM     72  N   UNL     1      22.965  29.124  13.856  1.00  0.00    -0.302 NA
BRANCH  72  73
ATOM     73  C   UNL     1      22.659  29.186  12.453  1.00  0.00     0.081 C 
ATOM     74  C   UNL     1      21.156  29.005  12.278  1.00  0.00     0.021 C 
ENDBRANCH  72  73
BRANCH  72  75
ATOM     75  C   UNL     1      21.807  28.991  14.685  1.00  0.00     0.081 C 
ATOM     76  C   UNL     1      21.870  29.943  15.863  1.00  0.00     0.021 C 
ENDBRANCH  72  75
ENDBRANCH  71  72
ENDBRANCH  70  71
ENDBRANCH  68  70
ENDBRANCH  64  65
ENDBRANCH  63  64
ENDBRANCH  60  63
ENDBRANCH  58  59
ENDBRANCH  55  58
ENDBRANCH   1  55
TORSDOF 34
BEGIN_RES LYS A 131
REMARK  4 active torsions:
REMARK  status: ('A' for Active; 'I' for Inactive)
REMARK    1  A    between atoms: CA   and  CB  
REMARK    2  A    between atoms: CB   and  CG  
REMARK    3  A    between atoms: CG   and  CD  
REMARK    4  A    between atoms: CD   and  CE  
ROOT
ATOM      1  CA  LYS A 131      29.867  25.555  16.977  1.00 20.52     0.186 C 
ENDROOT
BRANCH   1   2
ATOM      2  CB  LYS A 131      28.345  25.722  17.026  1.00 20.94     0.034 C 
BRANCH   2   3
ATOM      3  CG  LYS A 131      27.601  24.403  16.887  1.00 22.96     0.005 C 
BRANCH   3   4
ATOM      4  CD  LYS A 131      26.544  24.234  17.943  1.00 24.33     0.041 C 
BRANCH   4   5
ATOM      5  CE  LYS A 131      25.207  23.923  17.280  1.00 26.91     0.338 C 
ATOM      6  NZ  LYS A 131      24.761  22.553  17.629  1.00 27.40     0.618 N 
ENDBRANCH   4   5
ENDBRANCH   3   4
ENDBRANCH   2   3
ENDBRANCH   1   2
END_RES LYS A 131
BEGIN_RES LYS A 135
REMARK  4 active torsions:
REMARK  status: ('A' for Active; 'I' for Inactive)
REMARK    5  A    between atoms: CA   and  CB  
REMARK    6  A    between atoms: CB   and  CG  
REMARK    7  A    between atoms: CG   and  CD  
REMARK    8  A    between atoms: CD   and  CE  
ROOT
ATOM      7  CA  LYS A 135      33.193  34.663   9.290  1.00 25.02     0.186 C 
ENDROOT
BRANCH   7   8
ATOM      8  CB  LYS A 135      32.060  35.360  10.034  1.00 26.63     0.034 C 
BRANCH   8   9
ATOM      9  CG  LYS A 135      30.708  34.740   9.791  1.00 29.45     0.005 C 
BRANCH   9  10
ATOM     10  CD  LYS A 135      30.474  34.529   8.303  1.00 32.00     0.041 C 
BRANCH  10  11
ATOM     11  CE  LYS A 135      29.040  34.858   7.937  1.00 34.25     0.338 C 
ATOM     12  NZ  LYS A 135      28.798  36.327   7.979  1.00 35.99     0.618 N 
ENDBRANCH  10  11
ENDBRANCH   9  10
ENDBRANCH   8   9
ENDBRANCH   7   8
END_RES LYS A 135
