REMARK VINA RESULT:    -4.554      2.660      5.325
REMARK INTER + INTRA:         -21.535
REMARK INTER:                 -11.875
REMARK INTRA:                  -9.660
REMARK UNBOUND:                -9.660
REMARK SMILES CC(=O)N[C@@H]1[C@@H](O)C[C@](OC[C@H]2O[C@@H](O[C@H]3[C@H](O)[C@@H](O)[C@H](OCCN=[N+]=[N-])O[C@@H]3CO)[C@H](O)[C@@H](O)[C@H]2O)(C(=O)O)O[C@H]1C(O)[C@H](O)CNC(=O)OCc1cn(CCC(=O)O)nn1
REMARK SMILES IDX 43 1 42 2 9 3 8 4 41 5 6 6 5 7 10 8 11 9 12 10 14 11 13 12
REMARK SMILES IDX 32 13 34 14 36 15 15 16 16 17 29 18 28 19 21 20 17 21 19 22
REMARK SMILES IDX 30 23 31 24 22 26 23 27 24 28 25 29 26 30 27 31 18 32 20 34
REMARK SMILES IDX 33 36 35 38 37 40 38 42 39 43 40 44 7 46 4 48 2 49 1 51 3 52
REMARK SMILES IDX 44 53 45 55 46 56 47 58 48 59 49 60 50 62 51 63 52 64 53 65
REMARK SMILES IDX 54 66 62 67 55 68 61 69 56 70 57 71 58 72 59 73 60 74
REMARK H PARENT 31 25 18 33 20 35 33 37 35 39 37 41 40 45 7 47 4 50 44 54
REMARK H PARENT 46 57 48 61 60 75
REMARK Flexibility Score: inf
ROOT
ATOM      1  C   UNL     1      28.554  38.367   9.431  1.00  0.00     0.176 C 
ENDROOT
BRANCH   1   2
ATOM      2  C   UNL     1      28.563  38.386   7.921  1.00  0.00     0.178 C 
ATOM      3  C   UNL     1      27.814  39.662   6.100  1.00  0.00     0.272 C 
ATOM      4  C   UNL     1      28.701  38.601   5.475  1.00  0.00     0.113 C 
ATOM      5  O   UNL     1      27.506  39.076   7.386  1.00  0.00    -0.332 OA
ATOM      6  C   UNL     1      28.225  37.183   5.855  1.00  0.00     0.145 C 
ATOM      7  C   UNL     1      28.493  36.979   7.341  1.00  0.00     0.142 C 
BRANCH   3   8
ATOM      8  O   UNL     1      26.672  39.804   5.402  1.00  0.00    -0.338 OA
BRANCH   8   9
ATOM      9  C   UNL     1      25.745  40.715   5.506  1.00  0.00     0.199 C 
BRANCH   9  10
ATOM     10  C   UNL     1      24.517  40.651   6.307  1.00  0.00     0.179 C 
ATOM     11  C   UNL     1      23.080  39.483   7.666  1.00  0.00     0.282 C 
ATOM     12  O   UNL     1      24.159  39.439   6.830  1.00  0.00    -0.341 OA
ATOM     13  C   UNL     1      22.443  40.831   7.848  1.00  0.00     0.202 C 
ATOM     14  C   UNL     1      23.471  41.917   8.103  1.00  0.00     0.179 C 
ATOM     15  C   UNL     1      24.833  41.513   7.584  1.00  0.00     0.177 C 
BRANCH  11  16
ATOM     16  O   UNL     1      23.345  38.996   8.946  1.00  0.00    -0.341 OA
BRANCH  16  17
ATOM     17  C   UNL     1      22.597  37.869   9.276  1.00  0.00     0.184 C 
ATOM     18  C   UNL     1      22.653  37.675  10.751  1.00  0.00     0.178 C 
ATOM     19  O   UNL     1      23.338  36.513  11.146  1.00  0.00    -0.341 OA
ATOM     20  C   UNL     1      24.583  36.590  10.488  1.00  0.00     0.281 C 
ATOM     21  C   UNL     1      23.140  36.721   8.477  1.00  0.00     0.180 C 
ATOM     22  C   UNL     1      24.336  36.065   9.092  1.00  0.00     0.202 C 
BRANCH  18  23
ATOM     23  C   UNL     1      21.258  37.621  11.356  1.00  0.00     0.191 C 
BRANCH  23  24
ATOM     24  O   UNL     1      20.537  36.560  10.814  1.00  0.00    -0.394 OA
ATOM     25  H   UNL     1      21.027  35.725  10.999  1.00  0.00     0.210 HD
ENDBRANCH  23  24
ENDBRANCH  18  23
BRANCH  20  26
ATOM     26  O   UNL     1      25.557  35.881  11.149  1.00  0.00    -0.350 OA
BRANCH  26  27
ATOM     27  C   UNL     1      25.309  35.925  12.519  1.00  0.00     0.169 C 
BRANCH  27  28
ATOM     28  C   UNL     1      26.620  35.742  13.272  1.00  0.00     0.119 C 
BRANCH  28  29
ATOM     29  N   UNL     1      27.504  36.794  12.815  1.00  0.00    -0.092 NA
ATOM     30  N   UNL     1      27.243  37.955  13.125  1.00  0.00     0.001 N 
ATOM     31  N   UNL     1      27.270  39.180  13.369  1.00  0.00    -0.003 NA
ENDBRANCH  28  29
ENDBRANCH  27  28
ENDBRANCH  26  27
ENDBRANCH  20  26
BRANCH  21  32
ATOM     32  O   UNL     1      22.125  35.776   8.366  1.00  0.00    -0.387 OA
ATOM     33  H   UNL     1      22.374  34.993   8.895  1.00  0.00     0.211 HD
ENDBRANCH  21  32
BRANCH  22  34
ATOM     34  O   UNL     1      25.466  36.228   8.288  1.00  0.00    -0.385 OA
ATOM     35  H   UNL     1      26.139  36.799   8.751  1.00  0.00     0.211 HD
ENDBRANCH  22  34
ENDBRANCH  16  17
ENDBRANCH  11  16
BRANCH  13  36
ATOM     36  O   UNL     1      21.568  41.176   6.807  1.00  0.00    -0.385 OA
ATOM     37  H   UNL     1      20.651  41.117   7.117  1.00  0.00     0.211 HD
ENDBRANCH  13  36
BRANCH  14  38
ATOM     38  O   UNL     1      23.482  42.270   9.433  1.00  0.00    -0.387 OA
ATOM     39  H   UNL     1      23.237  41.512  10.002  1.00  0.00     0.211 HD
ENDBRANCH  14  38
BRANCH  15  40
ATOM     40  O   UNL     1      25.498  40.666   8.438  1.00  0.00    -0.387 OA
ATOM     41  H   UNL     1      25.348  40.837   9.397  1.00  0.00     0.211 HD
ENDBRANCH  15  40
ENDBRANCH   9  10
ENDBRANCH   8   9
ENDBRANCH   3   8
BRANCH   3  42
ATOM     42  C   UNL     1      28.506  40.920   6.397  1.00  0.00     0.364 C 
ATOM     43  O   UNL     1      29.345  41.384   5.586  1.00  0.00    -0.246 OA
BRANCH  42  44
ATOM     44  O   UNL     1      28.262  41.617   7.552  1.00  0.00    -0.477 OA
ATOM     45  H   UNL     1      28.749  41.505   8.418  1.00  0.00     0.296 HD
ENDBRANCH  42  44
ENDBRANCH   3  42
BRANCH   6  46
ATOM     46  O   UNL     1      26.864  37.146   5.648  1.00  0.00    -0.391 OA
ATOM     47  H   UNL     1      26.503  38.068   5.798  1.00  0.00     0.211 HD
ENDBRANCH   6  46
BRANCH   7  48
ATOM     48  N   UNL     1      29.701  36.248   7.541  1.00  0.00    -0.348 N 
ATOM     49  C   UNL     1      29.651  34.972   8.161  1.00  0.00     0.217 C 
ATOM     50  H   UNL     1      30.635  36.610   7.252  1.00  0.00     0.163 HD
ATOM     51  C   UNL     1      30.857  34.146   8.410  1.00  0.00     0.114 C 
ATOM     52  O   UNL     1      28.548  34.476   8.536  1.00  0.00    -0.275 OA
ENDBRANCH   7  48
ENDBRANCH   1   2
BRANCH   1  53
ATOM     53  O   UNL     1      27.970  37.170   9.845  1.00  0.00    -0.388 OA
ATOM     54  H   UNL     1      28.626  36.575  10.259  1.00  0.00     0.211 HD
ENDBRANCH   1  53
BRANCH   1  55
ATOM     55  C   UNL     1      29.903  38.486  10.066  1.00  0.00     0.165 C 
BRANCH  55  56
ATOM     56  O   UNL     1      29.766  38.294  11.444  1.00  0.00    -0.388 OA
ATOM     57  H   UNL     1      28.818  38.424  11.686  1.00  0.00     0.211 HD
ENDBRANCH  55  56
BRANCH  55  58
ATOM     58  C   UNL     1      30.363  39.932   9.855  1.00  0.00     0.154 C 
BRANCH  58  59
ATOM     59  N   UNL     1      31.375  40.005   8.839  1.00  0.00    -0.319 N 
ATOM     60  C   UNL     1      31.729  41.188   8.135  1.00  0.00     0.407 C 
ATOM     61  H   UNL     1      31.927  39.136   8.565  1.00  0.00     0.167 HD
ATOM     62  O   UNL     1      31.110  42.244   8.422  1.00  0.00    -0.225 OA
BRANCH  60  63
ATOM     63  O   UNL     1      32.712  41.209   7.162  1.00  0.00    -0.443 OA
BRANCH  63  64
ATOM     64  C   UNL     1      32.889  40.082   6.340  1.00  0.00     0.294 C 
BRANCH  64  65
ATOM     65  C   UNL     1      34.300  39.651   6.335  1.00  0.00     0.120 A 
ATOM     66  C   UNL     1      35.260  40.192   7.180  1.00  0.00     0.138 A 
ATOM     67  N   UNL     1      34.892  38.700   5.572  1.00  0.00    -0.132 NA
ATOM     68  N   UNL     1      36.410  39.536   6.892  1.00  0.00    -0.252 N 
ATOM     69  N   UNL     1      36.158  38.658   5.932  1.00  0.00    -0.067 NA
BRANCH  68  70
ATOM     70  C   UNL     1      37.695  39.746   7.522  1.00  0.00     0.158 C 
BRANCH  70  71
ATOM     71  C   UNL     1      38.706  40.406   6.611  1.00  0.00     0.146 C 
BRANCH  71  72
ATOM     72  C   UNL     1      39.648  39.377   6.149  1.00  0.00     0.305 C 
ATOM     73  O   UNL     1      40.846  39.432   6.500  1.00  0.00    -0.252 OA
BRANCH  72  74
ATOM     74  O   UNL     1      39.245  38.330   5.321  1.00  0.00    -0.481 OA
ATOM     75  H   UNL     1      39.229  37.360   5.616  1.00  0.00     0.296 HD
ENDBRANCH  72  74
ENDBRANCH  71  72
ENDBRANCH  70  71
ENDBRANCH  68  70
ENDBRANCH  64  65
ENDBRANCH  63  64
ENDBRANCH  60  63
ENDBRANCH  58  59
ENDBRANCH  55  58
ENDBRANCH   1  55
TORSDOF 33
BEGIN_RES LYS A 131
REMARK  4 active torsions:
REMARK  status: ('A' for Active; 'I' for Inactive)
REMARK    1  A    between atoms: CA   and  CB  
REMARK    2  A    between atoms: CB   and  CG  
REMARK    3  A    between atoms: CG   and  CD  
REMARK    4  A    between atoms: CD   and  CE  
ROOT
ATOM      1  CA  LYS A 131      29.867  25.555  16.977  1.00 20.52     0.186 C 
ENDROOT
BRANCH   1   2
ATOM      2  CB  LYS A 131      28.345  25.722  17.026  1.00 20.94     0.034 C 
BRANCH   2   3
ATOM      3  CG  LYS A 131      27.601  24.403  16.887  1.00 22.96     0.005 C 
BRANCH   3   4
ATOM      4  CD  LYS A 131      26.678  24.148  18.046  1.00 24.33     0.041 C 
BRANCH   4   5
ATOM      5  CE  LYS A 131      25.538  23.238  17.599  1.00 26.91     0.338 C 
ATOM      6  NZ  LYS A 131      24.495  24.021  16.895  1.00 27.40     0.618 N 
ENDBRANCH   4   5
ENDBRANCH   3   4
ENDBRANCH   2   3
ENDBRANCH   1   2
END_RES LYS A 131
BEGIN_RES LYS A 135
REMARK  4 active torsions:
REMARK  status: ('A' for Active; 'I' for Inactive)
REMARK    5  A    between atoms: CA   and  CB  
REMARK    6  A    between atoms: CB   and  CG  
REMARK    7  A    between atoms: CG   and  CD  
REMARK    8  A    between atoms: CD   and  CE  
ROOT
ATOM      7  CA  LYS A 135      33.193  34.663   9.290  1.00 25.02     0.186 C 
ENDROOT
BRANCH   7   8
ATOM      8  CB  LYS A 135      32.060  35.360  10.034  1.00 26.63     0.034 C 
BRANCH   8   9
ATOM      9  CG  LYS A 135      32.519  36.133  11.243  1.00 29.45     0.005 C 
BRANCH   9  10
ATOM     10  CD  LYS A 135      31.853  35.603  12.504  1.00 32.00     0.041 C 
BRANCH  10  11
ATOM     11  CE  LYS A 135      30.568  34.875  12.161  1.00 34.25     0.338 C 
ATOM     12  NZ  LYS A 135      29.982  34.225  13.366  1.00 35.99     0.618 N 
ENDBRANCH  10  11
ENDBRANCH   9  10
ENDBRANCH   8   9
ENDBRANCH   7   8
END_RES LYS A 135
