REMARK VINA RESULT:    -5.304      5.236     10.849
REMARK INTER + INTRA:         -22.636
REMARK INTER:                 -10.065
REMARK INTRA:                 -12.571
REMARK UNBOUND:                -8.960
REMARK SMILES CC(=O)N[C@@H]1[C@@H](O)C[C@](OC[C@H]2O[C@@H](O[C@H]3[C@H](O)[C@@H](O)[C@H](OCCN=[N+]=[N-])O[C@@H]3CO)[C@H](O)[C@@H](O)[C@H]2O)(C(=O)O)O[C@H]1C(O)[C@H](O)CNC(=O)OCc1cn(Cc2cccc(C#N)c2)nn1
REMARK SMILES IDX 9 1 8 2 6 3 5 4 42 5 41 6 10 7 11 8 12 9 14 10 13 11 32 12
REMARK SMILES IDX 34 13 36 14 15 15 16 16 29 17 28 18 21 19 17 20 19 21 30 22
REMARK SMILES IDX 31 23 22 25 23 26 24 27 25 28 26 29 27 30 18 31 20 33 33 35
REMARK SMILES IDX 35 37 37 39 38 41 39 42 40 43 7 45 43 47 44 48 45 50 46 51
REMARK SMILES IDX 47 53 48 54 49 55 50 57 51 58 52 59 53 60 54 61 66 62 55 63
REMARK SMILES IDX 65 64 56 65 57 66 58 67 64 68 59 69 61 70 60 71 62 72 63 73
REMARK SMILES IDX 4 74 2 75 1 77 3 78
REMARK H PARENT 31 24 18 32 20 34 33 36 35 38 37 40 40 44 7 46 44 49 46 52
REMARK H PARENT 48 56 4 76
REMARK Flexibility Score: inf
ROOT
ATOM      1  C   UNL     1      26.075  35.663  11.390  1.00  0.00     0.272 C 
ATOM      2  C   UNL     1      25.955  34.179  11.640  1.00  0.00     0.113 C 
ATOM      3  C   UNL     1      25.145  33.749  12.789  1.00  0.00     0.145 C 
ATOM      4  C   UNL     1      25.193  34.763  13.937  1.00  0.00     0.142 C 
ATOM      5  C   UNL     1      25.007  36.144  13.492  1.00  0.00     0.178 C 
ATOM      6  O   UNL     1      25.414  36.485  12.243  1.00  0.00    -0.332 OA
ENDROOT
BRANCH   1   7
ATOM      7  O   UNL     1      25.664  35.920  10.161  1.00  0.00    -0.338 OA
BRANCH   7   8
ATOM      8  C   UNL     1      24.759  35.899   9.306  1.00  0.00     0.199 C 
BRANCH   8   9
ATOM      9  C   UNL     1      23.985  37.059   8.745  1.00  0.00     0.179 C 
ATOM     10  C   UNL     1      21.891  37.872   8.570  1.00  0.00     0.282 C 
ATOM     11  O   UNL     1      22.694  37.078   9.398  1.00  0.00    -0.341 OA
ATOM     12  C   UNL     1      22.291  39.307   8.624  1.00  0.00     0.202 C 
ATOM     13  C   UNL     1      23.797  39.491   8.599  1.00  0.00     0.179 C 
ATOM     14  C   UNL     1      24.553  38.393   9.266  1.00  0.00     0.177 C 
BRANCH  10  15
ATOM     15  O   UNL     1      20.562  37.736   8.963  1.00  0.00    -0.341 OA
BRANCH  15  16
ATOM     16  C   UNL     1      20.343  36.615   9.721  1.00  0.00     0.184 C 
ATOM     17  C   UNL     1      19.270  35.746   9.176  1.00  0.00     0.178 C 
ATOM     18  O   UNL     1      18.978  34.658   9.966  1.00  0.00    -0.341 OA
ATOM     19  C   UNL     1      18.737  34.926  11.295  1.00  0.00     0.281 C 
ATOM     20  C   UNL     1      19.756  37.150  11.068  1.00  0.00     0.180 C 
ATOM     21  C   UNL     1      19.664  35.910  11.933  1.00  0.00     0.202 C 
BRANCH  17  22
ATOM     22  C   UNL     1      19.660  35.207   7.818  1.00  0.00     0.191 C 
BRANCH  22  23
ATOM     23  O   UNL     1      21.009  34.839   7.825  1.00  0.00    -0.394 OA
ATOM     24  H   UNL     1      21.280  34.389   8.643  1.00  0.00     0.210 HD
ENDBRANCH  22  23
ENDBRANCH  17  22
BRANCH  19  25
ATOM     25  O   UNL     1      18.923  33.709  11.986  1.00  0.00    -0.350 OA
BRANCH  25  26
ATOM     26  C   UNL     1      20.227  33.304  11.874  1.00  0.00     0.169 C 
BRANCH  26  27
ATOM     27  C   UNL     1      20.730  32.615  13.111  1.00  0.00     0.119 C 
BRANCH  27  28
ATOM     28  N   UNL     1      21.663  31.549  12.829  1.00  0.00    -0.092 NA
ATOM     29  N   UNL     1      21.227  30.485  12.368  1.00  0.00     0.001 N 
ATOM     30  N   UNL     1      20.906  29.337  11.987  1.00  0.00    -0.003 NA
ENDBRANCH  27  28
ENDBRANCH  26  27
ENDBRANCH  25  26
ENDBRANCH  19  25
BRANCH  20  31
ATOM     31  O   UNL     1      20.617  38.101  11.545  1.00  0.00    -0.387 OA
ATOM     32  H   UNL     1      20.726  38.864  10.907  1.00  0.00     0.211 HD
ENDBRANCH  20  31
BRANCH  21  33
ATOM     33  O   UNL     1      19.130  36.297  13.160  1.00  0.00    -0.385 OA
ATOM     34  H   UNL     1      19.873  36.230  13.828  1.00  0.00     0.211 HD
ENDBRANCH  21  33
ENDBRANCH  15  16
ENDBRANCH  10  15
BRANCH  12  35
ATOM     35  O   UNL     1      21.835  39.928   7.438  1.00  0.00    -0.385 OA
ATOM     36  H   UNL     1      22.647  40.236   6.966  1.00  0.00     0.211 HD
ENDBRANCH  12  35
BRANCH  13  37
ATOM     37  O   UNL     1      24.050  40.668   9.320  1.00  0.00    -0.387 OA
ATOM     38  H   UNL     1      24.941  41.035   9.161  1.00  0.00     0.211 HD
ENDBRANCH  13  37
BRANCH  14  39
ATOM     39  O   UNL     1      24.257  38.465  10.636  1.00  0.00    -0.387 OA
ATOM     40  H   UNL     1      23.321  38.695  10.802  1.00  0.00     0.211 HD
ENDBRANCH  14  39
ENDBRANCH   8   9
ENDBRANCH   7   8
ENDBRANCH   1   7
BRANCH   1  41
ATOM     41  C   UNL     1      27.532  35.993  11.582  1.00  0.00     0.364 C 
ATOM     42  O   UNL     1      28.034  37.051  11.071  1.00  0.00    -0.246 OA
BRANCH  41  43
ATOM     43  O   UNL     1      28.368  35.183  12.302  1.00  0.00    -0.477 OA
ATOM     44  H   UNL     1      29.336  35.082  11.957  1.00  0.00     0.296 HD
ENDBRANCH  41  43
ENDBRANCH   1  41
BRANCH   3  45
ATOM     45  O   UNL     1      23.824  33.570  12.405  1.00  0.00    -0.391 OA
ATOM     46  H   UNL     1      23.244  33.252  13.136  1.00  0.00     0.211 HD
ENDBRANCH   3  45
BRANCH   5  47
ATOM     47  C   UNL     1      23.580  36.649  13.533  1.00  0.00     0.176 C 
BRANCH  47  48
ATOM     48  O   UNL     1      22.929  35.762  14.455  1.00  0.00    -0.388 OA
ATOM     49  H   UNL     1      23.366  34.886  14.362  1.00  0.00     0.211 HD
ENDBRANCH  47  48
BRANCH  47  50
ATOM     50  C   UNL     1      23.318  38.000  14.054  1.00  0.00     0.165 C 
BRANCH  50  51
ATOM     51  O   UNL     1      24.478  38.747  13.568  1.00  0.00    -0.388 OA
ATOM     52  H   UNL     1      25.190  38.070  13.363  1.00  0.00     0.211 HD
ENDBRANCH  50  51
BRANCH  50  53
ATOM     53  C   UNL     1      23.368  38.221  15.521  1.00  0.00     0.154 C 
BRANCH  53  54
ATOM     54  N   UNL     1      24.656  38.403  16.109  1.00  0.00    -0.319 N 
ATOM     55  C   UNL     1      25.241  37.347  16.883  1.00  0.00     0.407 C 
ATOM     56  H   UNL     1      25.209  39.262  16.008  1.00  0.00     0.167 HD
ATOM     57  O   UNL     1      24.575  36.293  17.004  1.00  0.00    -0.225 OA
BRANCH  55  58
ATOM     58  O   UNL     1      26.467  37.442  17.476  1.00  0.00    -0.443 OA
BRANCH  58  59
ATOM     59  C   UNL     1      27.555  38.160  16.860  1.00  0.00     0.294 C 
BRANCH  59  60
ATOM     60  C   UNL     1      28.495  37.180  16.245  1.00  0.00     0.120 A 
ATOM     61  C   UNL     1      29.632  36.654  16.814  1.00  0.00     0.138 A 
ATOM     62  N   UNL     1      28.410  36.634  15.027  1.00  0.00    -0.132 NA
ATOM     63  N   UNL     1      30.220  35.797  15.933  1.00  0.00    -0.248 N 
ATOM     64  N   UNL     1      29.451  35.807  14.856  1.00  0.00    -0.067 NA
BRANCH  63  65
ATOM     65  C   UNL     1      31.430  35.057  16.149  1.00  0.00     0.181 C 
BRANCH  65  66
ATOM     66  C   UNL     1      31.094  33.690  16.611  1.00  0.00    -0.025 A 
ATOM     67  C   UNL     1      30.933  32.628  15.760  1.00  0.00     0.006 A 
ATOM     68  C   UNL     1      30.927  33.457  17.971  1.00  0.00     0.025 A 
ATOM     69  C   UNL     1      30.617  31.369  16.196  1.00  0.00     0.002 A 
ATOM     70  C   UNL     1      30.611  32.195  18.408  1.00  0.00     0.052 A 
ATOM     71  C   UNL     1      30.444  31.109  17.548  1.00  0.00     0.019 A 
BRANCH  70  72
ATOM     72  C   UNL     1      30.445  31.961  19.819  1.00  0.00     0.099 C 
ATOM     73  N   UNL     1      30.323  31.764  20.965  1.00  0.00    -0.192 NA
ENDBRANCH  70  72
ENDBRANCH  65  66
ENDBRANCH  63  65
ENDBRANCH  59  60
ENDBRANCH  58  59
ENDBRANCH  55  58
ENDBRANCH  53  54
ENDBRANCH  50  53
ENDBRANCH  47  50
ENDBRANCH   5  47
BRANCH   4  74
ATOM     74  N   UNL     1      26.385  34.497  14.739  1.00  0.00    -0.348 N 
ATOM     75  C   UNL     1      26.286  33.653  15.865  1.00  0.00     0.217 C 
ATOM     76  H   UNL     1      27.327  34.888  14.540  1.00  0.00     0.163 HD
ATOM     77  C   UNL     1      27.448  33.327  16.739  1.00  0.00     0.114 C 
ATOM     78  O   UNL     1      25.182  33.158  16.143  1.00  0.00    -0.275 OA
ENDBRANCH   4  74
TORSDOF 32
BEGIN_RES LYS A 131
REMARK  4 active torsions:
REMARK  status: ('A' for Active; 'I' for Inactive)
REMARK    1  A    between atoms: CA   and  CB  
REMARK    2  A    between atoms: CB   and  CG  
REMARK    3  A    between atoms: CG   and  CD  
REMARK    4  A    between atoms: CD   and  CE  
ROOT
ATOM      1  CA  LYS A 131      29.867  25.555  16.977  1.00 20.52     0.186 C 
ENDROOT
BRANCH   1   2
ATOM      2  CB  LYS A 131      28.345  25.722  17.026  1.00 20.94     0.034 C 
BRANCH   2   3
ATOM      3  CG  LYS A 131      27.599  24.438  16.696  1.00 22.96     0.005 C 
BRANCH   3   4
ATOM      4  CD  LYS A 131      27.001  23.800  17.919  1.00 24.33     0.041 C 
BRANCH   4   5
ATOM      5  CE  LYS A 131      25.600  23.292  17.595  1.00 26.91     0.338 C 
ATOM      6  NZ  LYS A 131      24.800  24.357  16.945  1.00 27.40     0.618 N 
ENDBRANCH   4   5
ENDBRANCH   3   4
ENDBRANCH   2   3
ENDBRANCH   1   2
END_RES LYS A 131
BEGIN_RES LYS A 135
REMARK  4 active torsions:
REMARK  status: ('A' for Active; 'I' for Inactive)
REMARK    5  A    between atoms: CA   and  CB  
REMARK    6  A    between atoms: CB   and  CG  
REMARK    7  A    between atoms: CG   and  CD  
REMARK    8  A    between atoms: CD   and  CE  
ROOT
ATOM      7  CA  LYS A 135      33.193  34.663   9.290  1.00 25.02     0.186 C 
ENDROOT
BRANCH   7   8
ATOM      8  CB  LYS A 135      32.060  35.360  10.034  1.00 26.63     0.034 C 
BRANCH   8   9
ATOM      9  CG  LYS A 135      30.905  35.747   9.147  1.00 29.45     0.005 C 
BRANCH   9  10
ATOM     10  CD  LYS A 135      30.389  34.540   8.380  1.00 32.00     0.041 C 
BRANCH  10  11
ATOM     11  CE  LYS A 135      29.061  34.075   8.949  1.00 34.25     0.338 C 
ATOM     12  NZ  LYS A 135      27.920  34.633   8.172  1.00 35.99     0.618 N 
ENDBRANCH  10  11
ENDBRANCH   9  10
ENDBRANCH   8   9
ENDBRANCH   7   8
END_RES LYS A 135
