REMARK VINA RESULT:    -4.470      6.607     12.957
REMARK INTER + INTRA:         -21.667
REMARK INTER:                 -10.429
REMARK INTRA:                 -11.238
REMARK UNBOUND:               -10.664
REMARK SMILES CC(=O)N[C@@H]1[C@@H](O)C[C@](OC[C@H]2O[C@@H](O[C@H]3[C@H](O)[C@@H](O)[C@H](OCCN=[N+]=[N-])O[C@@H]3CO)[C@H](O)[C@@H](O)[C@H]2O)(C(=O)O)O[C@H]1C(O)[C@H](O)CNC(=O)OCc1cn(-c2ccc(Br)cc2)nn1
REMARK SMILES IDX 9 1 8 2 6 3 5 4 42 5 41 6 10 7 11 8 12 9 14 10 13 11 32 12
REMARK SMILES IDX 34 13 36 14 15 15 16 16 29 17 28 18 21 19 17 20 19 21 30 22
REMARK SMILES IDX 31 23 22 25 23 26 24 27 25 28 26 29 27 30 18 31 20 33 33 35
REMARK SMILES IDX 35 37 37 39 38 41 39 42 40 43 7 45 43 47 44 48 45 50 46 51
REMARK SMILES IDX 47 53 48 54 49 55 50 57 51 58 52 59 53 60 54 61 64 62 55 63
REMARK SMILES IDX 63 64 56 65 57 66 62 67 58 68 61 69 59 70 60 71 4 72 2 73
REMARK SMILES IDX 1 75 3 76
REMARK H PARENT 31 24 18 32 20 34 33 36 35 38 37 40 40 44 7 46 44 49 46 52
REMARK H PARENT 48 56 4 74
REMARK Flexibility Score: inf
ROOT
ATOM      1  C   UNL     1      23.444  36.686   9.848  1.00  0.00     0.272 C 
ATOM      2  C   UNL     1      22.682  36.418   8.522  1.00  0.00     0.113 C 
ATOM      3  C   UNL     1      21.812  35.234   8.727  1.00  0.00     0.145 C 
ATOM      4  C   UNL     1      20.879  35.565   9.909  1.00  0.00     0.142 C 
ATOM      5  C   UNL     1      21.793  35.620  11.111  1.00  0.00     0.178 C 
ATOM      6  O   UNL     1      22.598  36.720  10.919  1.00  0.00    -0.332 OA
ENDROOT
BRANCH   1   7
ATOM      7  O   UNL     1      23.953  37.973   9.644  1.00  0.00    -0.338 OA
BRANCH   7   8
ATOM      8  C   UNL     1      23.108  39.000   9.934  1.00  0.00     0.199 C 
BRANCH   8   9
ATOM      9  C   UNL     1      23.729  40.270   9.318  1.00  0.00     0.179 C 
ATOM     10  C   UNL     1      25.491  40.789   7.892  1.00  0.00     0.282 C 
ATOM     11  O   UNL     1      25.031  40.065   8.965  1.00  0.00    -0.341 OA
ATOM     12  C   UNL     1      24.746  42.034   7.628  1.00  0.00     0.202 C 
ATOM     13  C   UNL     1      23.256  41.915   7.582  1.00  0.00     0.179 C 
ATOM     14  C   UNL     1      22.843  40.585   8.123  1.00  0.00     0.177 C 
BRANCH  10  15
ATOM     15  O   UNL     1      25.607  39.892   6.831  1.00  0.00    -0.341 OA
BRANCH  15  16
ATOM     16  C   UNL     1      26.916  39.496   6.626  1.00  0.00     0.184 C 
ATOM     17  C   UNL     1      27.336  39.663   5.200  1.00  0.00     0.178 C 
ATOM     18  O   UNL     1      28.672  39.413   5.074  1.00  0.00    -0.341 OA
ATOM     19  C   UNL     1      29.308  38.724   6.061  1.00  0.00     0.281 C 
ATOM     20  C   UNL     1      27.072  37.993   6.909  1.00  0.00     0.180 C 
ATOM     21  C   UNL     1      28.517  37.600   6.691  1.00  0.00     0.202 C 
BRANCH  17  22
ATOM     22  C   UNL     1      27.082  41.094   4.764  1.00  0.00     0.191 C 
BRANCH  22  23
ATOM     23  O   UNL     1      27.913  41.442   3.726  1.00  0.00    -0.394 OA
ATOM     24  H   UNL     1      27.421  41.535   2.891  1.00  0.00     0.210 HD
ENDBRANCH  22  23
ENDBRANCH  17  22
BRANCH  19  25
ATOM     25  O   UNL     1      29.892  39.548   7.017  1.00  0.00    -0.350 OA
BRANCH  25  26
ATOM     26  C   UNL     1      30.435  38.872   8.092  1.00  0.00     0.169 C 
BRANCH  26  27
ATOM     27  C   UNL     1      30.106  39.459   9.424  1.00  0.00     0.119 C 
BRANCH  27  28
ATOM     28  N   UNL     1      30.950  38.865  10.447  1.00  0.00    -0.092 NA
ATOM     29  N   UNL     1      30.665  39.107  11.622  1.00  0.00     0.001 N 
ATOM     30  N   UNL     1      30.379  39.195  12.835  1.00  0.00    -0.003 NA
ENDBRANCH  27  28
ENDBRANCH  26  27
ENDBRANCH  25  26
ENDBRANCH  19  25
BRANCH  20  31
ATOM     31  O   UNL     1      26.596  37.690   8.172  1.00  0.00    -0.387 OA
ATOM     32  H   UNL     1      25.602  37.689   8.198  1.00  0.00     0.211 HD
ENDBRANCH  20  31
BRANCH  21  33
ATOM     33  O   UNL     1      28.676  36.437   5.971  1.00  0.00    -0.385 OA
ATOM     34  H   UNL     1      29.633  36.197   5.973  1.00  0.00     0.211 HD
ENDBRANCH  21  33
ENDBRANCH  15  16
ENDBRANCH  10  15
BRANCH  12  35
ATOM     35  O   UNL     1      25.146  42.967   8.624  1.00  0.00    -0.385 OA
ATOM     36  H   UNL     1      26.108  42.812   8.851  1.00  0.00     0.211 HD
ENDBRANCH  12  35
BRANCH  13  37
ATOM     37  O   UNL     1      22.790  42.024   6.250  1.00  0.00    -0.387 OA
ATOM     38  H   UNL     1      22.680  42.995   6.091  1.00  0.00     0.211 HD
ENDBRANCH  13  37
BRANCH  14  39
ATOM     39  O   UNL     1      22.895  39.579   7.162  1.00  0.00    -0.387 OA
ATOM     40  H   UNL     1      23.449  39.856   6.391  1.00  0.00     0.211 HD
ENDBRANCH  14  39
ENDBRANCH   8   9
ENDBRANCH   7   8
ENDBRANCH   1   7
BRANCH   1  41
ATOM     41  C   UNL     1      24.552  35.734   9.889  1.00  0.00     0.364 C 
ATOM     42  O   UNL     1      25.075  35.232   8.866  1.00  0.00    -0.246 OA
BRANCH  41  43
ATOM     43  O   UNL     1      25.088  35.338  11.099  1.00  0.00    -0.477 OA
ATOM     44  H   UNL     1      25.808  35.857  11.600  1.00  0.00     0.296 HD
ENDBRANCH  41  43
ENDBRANCH   1  41
BRANCH   3  45
ATOM     45  O   UNL     1      20.967  35.014   7.649  1.00  0.00    -0.391 OA
ATOM     46  H   UNL     1      20.275  34.368   7.903  1.00  0.00     0.211 HD
ENDBRANCH   3  45
BRANCH   5  47
ATOM     47  C   UNL     1      21.104  35.792  12.422  1.00  0.00     0.176 C 
BRANCH  47  48
ATOM     48  O   UNL     1      20.823  37.185  12.513  1.00  0.00    -0.388 OA
ATOM     49  H   UNL     1      20.467  37.369  13.419  1.00  0.00     0.211 HD
ENDBRANCH  47  48
BRANCH  47  50
ATOM     50  C   UNL     1      21.980  35.529  13.637  1.00  0.00     0.165 C 
BRANCH  50  51
ATOM     51  O   UNL     1      21.208  34.610  14.401  1.00  0.00    -0.388 OA
ATOM     52  H   UNL     1      21.655  34.472  15.294  1.00  0.00     0.211 HD
ENDBRANCH  50  51
BRANCH  50  53
ATOM     53  C   UNL     1      22.143  36.745  14.481  1.00  0.00     0.154 C 
BRANCH  53  54
ATOM     54  N   UNL     1      23.446  37.314  14.356  1.00  0.00    -0.319 N 
ATOM     55  C   UNL     1      23.729  38.606  13.810  1.00  0.00     0.407 C 
ATOM     56  H   UNL     1      24.307  36.769  14.681  1.00  0.00     0.167 HD
ATOM     57  O   UNL     1      22.775  39.306  13.398  1.00  0.00    -0.225 OA
BRANCH  55  58
ATOM     58  O   UNL     1      25.010  39.099  13.727  1.00  0.00    -0.443 OA
BRANCH  58  59
ATOM     59  C   UNL     1      25.572  39.404  12.476  1.00  0.00     0.294 C 
BRANCH  59  60
ATOM     60  C   UNL     1      26.539  38.343  12.117  1.00  0.00     0.121 A 
ATOM     61  C   UNL     1      27.161  37.496  13.043  1.00  0.00     0.144 A 
ATOM     62  N   UNL     1      27.025  37.966  10.925  1.00  0.00    -0.131 NA
ATOM     63  N   UNL     1      27.979  36.662  12.379  1.00  0.00    -0.220 N 
ATOM     64  N   UNL     1      27.874  36.971  11.102  1.00  0.00    -0.062 NA
BRANCH  63  65
ATOM     65  C   UNL     1      28.773  35.669  13.016  1.00  0.00     0.066 A 
ATOM     66  C   UNL     1      30.071  35.402  12.722  1.00  0.00     0.029 A 
ATOM     67  C   UNL     1      28.147  34.936  14.019  1.00  0.00     0.029 A 
ATOM     68  C   UNL     1      30.733  34.416  13.424  1.00  0.00     0.018 A 
ATOM     69  C   UNL     1      28.820  33.954  14.711  1.00  0.00     0.018 A 
ATOM     70  C   UNL     1      30.140  33.678  14.419  1.00  0.00     0.018 A 
ATOM     71  Br  UNL     1      31.092  32.325  15.368  1.00  0.00    -0.051 Br
ENDBRANCH  63  65
ENDBRANCH  59  60
ENDBRANCH  58  59
ENDBRANCH  55  58
ENDBRANCH  53  54
ENDBRANCH  50  53
ENDBRANCH  47  50
ENDBRANCH   5  47
BRANCH   4  72
ATOM     72  N   UNL     1      19.889  34.532   9.943  1.00  0.00    -0.348 N 
ATOM     73  C   UNL     1      18.500  34.814  10.051  1.00  0.00     0.217 C 
ATOM     74  H   UNL     1      20.185  33.542   9.888  1.00  0.00     0.163 HD
ATOM     75  C   UNL     1      17.453  33.766  10.091  1.00  0.00     0.114 C 
ATOM     76  O   UNL     1      18.110  36.025  10.121  1.00  0.00    -0.275 OA
ENDBRANCH   4  72
TORSDOF 30
BEGIN_RES LYS A 131
REMARK  4 active torsions:
REMARK  status: ('A' for Active; 'I' for Inactive)
REMARK    1  A    between atoms: CA   and  CB  
REMARK    2  A    between atoms: CB   and  CG  
REMARK    3  A    between atoms: CG   and  CD  
REMARK    4  A    between atoms: CD   and  CE  
ROOT
ATOM      1  CA  LYS A 131      29.867  25.555  16.977  1.00 20.52     0.186 C 
ENDROOT
BRANCH   1   2
ATOM      2  CB  LYS A 131      28.345  25.722  17.026  1.00 20.94     0.034 C 
BRANCH   2   3
ATOM      3  CG  LYS A 131      27.602  24.398  16.932  1.00 22.96     0.005 C 
BRANCH   3   4
ATOM      4  CD  LYS A 131      26.160  24.528  17.337  1.00 24.33     0.041 C 
BRANCH   4   5
ATOM      5  CE  LYS A 131      25.542  23.140  17.470  1.00 26.91     0.338 C 
ATOM      6  NZ  LYS A 131      24.426  23.161  18.445  1.00 27.40     0.618 N 
ENDBRANCH   4   5
ENDBRANCH   3   4
ENDBRANCH   2   3
ENDBRANCH   1   2
END_RES LYS A 131
BEGIN_RES LYS A 135
REMARK  4 active torsions:
REMARK  status: ('A' for Active; 'I' for Inactive)
REMARK    5  A    between atoms: CA   and  CB  
REMARK    6  A    between atoms: CB   and  CG  
REMARK    7  A    between atoms: CG   and  CD  
REMARK    8  A    between atoms: CD   and  CE  
ROOT
ATOM      7  CA  LYS A 135      33.193  34.663   9.290  1.00 25.02     0.186 C 
ENDROOT
BRANCH   7   8
ATOM      8  CB  LYS A 135      32.060  35.360  10.034  1.00 26.63     0.034 C 
BRANCH   8   9
ATOM      9  CG  LYS A 135      30.800  35.499   9.219  1.00 29.45     0.005 C 
BRANCH   9  10
ATOM     10  CD  LYS A 135      30.161  34.140   8.983  1.00 32.00     0.041 C 
BRANCH  10  11
ATOM     11  CE  LYS A 135      28.680  34.291   8.690  1.00 34.25     0.338 C 
ATOM     12  NZ  LYS A 135      27.855  33.646   9.749  1.00 35.99     0.618 N 
ENDBRANCH  10  11
ENDBRANCH   9  10
ENDBRANCH   8   9
ENDBRANCH   7   8
END_RES LYS A 135
