REMARK VINA RESULT:    -4.530      6.377     10.758
REMARK INTER + INTRA:         -23.187
REMARK INTER:                 -10.875
REMARK INTRA:                 -12.312
REMARK UNBOUND:               -11.507
REMARK SMILES COc1ccc(Cn2cc(COC(=O)NC[C@@H](O)C(O)[C@@H]3O[C@@](OC[C@H]4O[C@@H](O[C@H]5[C@H](O)[C@@H](O)[C@H](OCCN=[N+]=[N-])O[C@@H]5CO)[C@H](O)[C@@H](O)[C@H]4O)(C(=O)O)C[C@H](O)[C@H]3NC(C)=O)nn2)cc1
REMARK SMILES IDX 23 1 55 2 56 3 58 4 21 5 22 6 24 7 25 8 26 9 28 10 27 11
REMARK SMILES IDX 46 12 48 13 50 14 29 15 30 16 43 17 42 18 35 19 31 20 33 21
REMARK SMILES IDX 44 22 45 23 36 25 37 26 38 27 39 28 40 29 41 30 32 31 34 33
REMARK SMILES IDX 47 35 49 37 51 39 52 41 53 42 54 43 57 45 19 47 20 48 17 50
REMARK SMILES IDX 18 51 16 53 15 54 13 55 14 57 12 58 11 59 10 60 9 61 63 62
REMARK SMILES IDX 8 63 64 64 7 65 6 66 5 67 65 68 4 69 66 70 3 71 2 72 1 73
REMARK SMILES IDX 59 74 60 75 61 77 62 78
REMARK H PARENT 45 24 32 32 34 34 47 36 49 38 51 40 54 44 57 46 20 49 18 52
REMARK H PARENT 15 56 59 76
REMARK Flexibility Score: inf
ROOT
ATOM      1  C   UNL     1      32.087  34.883  14.854  1.00  0.00     0.272 C 
ATOM      2  C   UNL     1      32.035  36.205  15.592  1.00  0.00     0.113 C 
ATOM      3  C   UNL     1      32.105  37.349  14.602  1.00  0.00     0.145 C 
ATOM      4  C   UNL     1      31.195  37.180  13.420  1.00  0.00     0.142 C 
ATOM      5  C   UNL     1      30.462  35.850  13.410  1.00  0.00     0.178 C 
ATOM      6  O   UNL     1      31.280  34.805  13.793  1.00  0.00    -0.332 OA
ENDROOT
BRANCH   1   7
ATOM      7  O   UNL     1      32.142  33.829  15.701  1.00  0.00    -0.338 OA
BRANCH   7   8
ATOM      8  C   UNL     1      31.525  33.794  16.887  1.00  0.00     0.199 C 
BRANCH   8   9
ATOM      9  C   UNL     1      30.583  32.619  17.036  1.00  0.00     0.179 C 
ATOM     10  C   UNL     1      28.584  32.154  18.023  1.00  0.00     0.282 C 
ATOM     11  O   UNL     1      29.254  33.098  17.213  1.00  0.00    -0.341 OA
ATOM     12  C   UNL     1      28.912  30.760  17.635  1.00  0.00     0.202 C 
ATOM     13  C   UNL     1      29.572  30.563  16.312  1.00  0.00     0.179 C 
ATOM     14  C   UNL     1      30.527  31.666  15.902  1.00  0.00     0.177 C 
BRANCH  10  15
ATOM     15  O   UNL     1      27.267  32.471  18.197  1.00  0.00    -0.341 OA
BRANCH  15  16
ATOM     16  C   UNL     1      26.363  31.869  17.346  1.00  0.00     0.184 C 
ATOM     17  C   UNL     1      25.443  32.818  16.618  1.00  0.00     0.178 C 
ATOM     18  O   UNL     1      24.225  32.204  16.329  1.00  0.00    -0.341 OA
ATOM     19  C   UNL     1      24.351  30.824  16.096  1.00  0.00     0.281 C 
ATOM     20  C   UNL     1      25.402  31.094  18.268  1.00  0.00     0.180 C 
ATOM     21  C   UNL     1      24.709  30.082  17.398  1.00  0.00     0.202 C 
BRANCH  17  22
ATOM     22  C   UNL     1      25.980  33.355  15.329  1.00  0.00     0.191 C 
BRANCH  22  23
ATOM     23  O   UNL     1      27.210  32.760  15.057  1.00  0.00    -0.394 OA
ATOM     24  H   UNL     1      27.803  33.471  14.681  1.00  0.00     0.210 HD
ENDBRANCH  22  23
ENDBRANCH  17  22
BRANCH  19  25
ATOM     25  O   UNL     1      25.210  30.495  15.097  1.00  0.00    -0.350 OA
BRANCH  25  26
ATOM     26  C   UNL     1      24.740  30.359  13.828  1.00  0.00     0.169 C 
BRANCH  26  27
ATOM     27  C   UNL     1      23.633  29.401  13.595  1.00  0.00     0.119 C 
BRANCH  27  28
ATOM     28  N   UNL     1      22.825  29.689  12.461  1.00  0.00    -0.092 NA
ATOM     29  N   UNL     1      21.743  30.292  12.503  1.00  0.00     0.001 N 
ATOM     30  N   UNL     1      20.912  31.218  12.357  1.00  0.00    -0.003 NA
ENDBRANCH  27  28
ENDBRANCH  26  27
ENDBRANCH  25  26
ENDBRANCH  19  25
BRANCH  20  31
ATOM     31  O   UNL     1      26.035  30.574  19.362  1.00  0.00    -0.387 OA
ATOM     32  H   UNL     1      25.507  29.825  19.787  1.00  0.00     0.211 HD
ENDBRANCH  20  31
BRANCH  21  33
ATOM     33  O   UNL     1      23.572  29.566  18.020  1.00  0.00    -0.385 OA
ATOM     34  H   UNL     1      23.421  28.639  17.696  1.00  0.00     0.211 HD
ENDBRANCH  21  33
ENDBRANCH  15  16
ENDBRANCH  10  15
BRANCH  12  35
ATOM     35  O   UNL     1      29.644  30.086  18.647  1.00  0.00    -0.385 OA
ATOM     36  H   UNL     1      30.283  30.734  19.075  1.00  0.00     0.211 HD
ENDBRANCH  12  35
BRANCH  13  37
ATOM     37  O   UNL     1      28.627  30.307  15.289  1.00  0.00    -0.387 OA
ATOM     38  H   UNL     1      27.908  29.744  15.676  1.00  0.00     0.211 HD
ENDBRANCH  13  37
BRANCH  14  39
ATOM     39  O   UNL     1      30.144  32.258  14.703  1.00  0.00    -0.387 OA
ATOM     40  H   UNL     1      29.444  32.945  14.830  1.00  0.00     0.211 HD
ENDBRANCH  14  39
ENDBRANCH   8   9
ENDBRANCH   7   8
ENDBRANCH   1   7
BRANCH   1  41
ATOM     41  C   UNL     1      33.568  34.869  14.350  1.00  0.00     0.364 C 
ATOM     42  O   UNL     1      34.489  35.196  15.130  1.00  0.00    -0.246 OA
BRANCH  41  43
ATOM     43  O   UNL     1      33.913  34.513  13.092  1.00  0.00    -0.477 OA
ATOM     44  H   UNL     1      33.335  34.263  12.329  1.00  0.00     0.296 HD
ENDBRANCH  41  43
ENDBRANCH   1  41
BRANCH   3  45
ATOM     45  O   UNL     1      31.694  38.480  15.367  1.00  0.00    -0.391 OA
ATOM     46  H   UNL     1      31.333  38.186  16.242  1.00  0.00     0.211 HD
ENDBRANCH   3  45
BRANCH   5  47
ATOM     47  C   UNL     1      29.184  36.038  14.131  1.00  0.00     0.176 C 
BRANCH  47  48
ATOM     48  O   UNL     1      28.828  34.936  14.961  1.00  0.00    -0.388 OA
ATOM     49  H   UNL     1      29.660  34.496  15.238  1.00  0.00     0.211 HD
ENDBRANCH  47  48
BRANCH  47  50
ATOM     50  C   UNL     1      27.933  36.004  13.204  1.00  0.00     0.165 C 
BRANCH  50  51
ATOM     51  O   UNL     1      28.091  36.388  11.932  1.00  0.00    -0.388 OA
ATOM     52  H   UNL     1      29.040  36.580  11.728  1.00  0.00     0.211 HD
ENDBRANCH  50  51
BRANCH  50  53
ATOM     53  C   UNL     1      26.849  36.845  13.914  1.00  0.00     0.154 C 
BRANCH  53  54
ATOM     54  N   UNL     1      27.272  37.333  15.185  1.00  0.00    -0.319 N 
ATOM     55  C   UNL     1      26.381  37.252  16.305  1.00  0.00     0.407 C 
ATOM     56  H   UNL     1      28.200  37.746  15.321  1.00  0.00     0.167 HD
ATOM     57  O   UNL     1      25.237  36.744  16.143  1.00  0.00    -0.225 OA
BRANCH  55  58
ATOM     58  O   UNL     1      26.816  37.735  17.525  1.00  0.00    -0.443 OA
BRANCH  58  59
ATOM     59  C   UNL     1      27.779  38.807  17.559  1.00  0.00     0.294 C 
BRANCH  59  60
ATOM     60  C   UNL     1      28.968  38.331  18.296  1.00  0.00     0.120 A 
ATOM     61  C   UNL     1      29.009  37.862  19.613  1.00  0.00     0.138 A 
ATOM     62  N   UNL     1      30.230  38.267  17.855  1.00  0.00    -0.132 NA
ATOM     63  N   UNL     1      30.282  37.549  19.883  1.00  0.00    -0.248 N 
ATOM     64  N   UNL     1      31.012  37.800  18.807  1.00  0.00    -0.067 NA
BRANCH  63  65
ATOM     65  C   UNL     1      30.779  37.030  21.132  1.00  0.00     0.181 C 
BRANCH  65  66
ATOM     66  C   UNL     1      30.985  35.571  21.001  1.00  0.00    -0.026 A 
ATOM     67  C   UNL     1      29.938  34.699  21.288  1.00  0.00     0.009 A 
ATOM     68  C   UNL     1      32.170  35.020  20.589  1.00  0.00     0.009 A 
ATOM     69  C   UNL     1      30.069  33.333  21.167  1.00  0.00     0.047 A 
ATOM     70  C   UNL     1      32.302  33.633  20.466  1.00  0.00     0.047 A 
ATOM     71  C   UNL     1      31.271  32.779  20.749  1.00  0.00     0.118 A 
BRANCH  71  72
ATOM     72  O   UNL     1      31.352  31.403  20.643  1.00  0.00    -0.497 OA
ATOM     73  C   UNL     1      31.141  30.506  21.693  1.00  0.00     0.278 C 
ENDBRANCH  71  72
ENDBRANCH  65  66
ENDBRANCH  63  65
ENDBRANCH  59  60
ENDBRANCH  58  59
ENDBRANCH  55  58
ENDBRANCH  53  54
ENDBRANCH  50  53
ENDBRANCH  47  50
ENDBRANCH   5  47
BRANCH   4  74
ATOM     74  N   UNL     1      31.792  37.482  12.137  1.00  0.00    -0.348 N 
ATOM     75  C   UNL     1      31.149  38.208  11.097  1.00  0.00     0.217 C 
ATOM     76  H   UNL     1      32.745  37.141  11.939  1.00  0.00     0.163 HD
ATOM     77  C   UNL     1      31.870  38.459   9.791  1.00  0.00     0.114 C 
ATOM     78  O   UNL     1      29.984  38.639  11.266  1.00  0.00    -0.275 OA
ENDBRANCH   4  74
TORSDOF 32
BEGIN_RES LYS A 131
REMARK  4 active torsions:
REMARK  status: ('A' for Active; 'I' for Inactive)
REMARK    1  A    between atoms: CA   and  CB  
REMARK    2  A    between atoms: CB   and  CG  
REMARK    3  A    between atoms: CG   and  CD  
REMARK    4  A    between atoms: CD   and  CE  
ROOT
ATOM      1  CA  LYS A 131      29.867  25.555  16.977  1.00 20.52     0.186 C 
ENDROOT
BRANCH   1   2
ATOM      2  CB  LYS A 131      28.345  25.722  17.026  1.00 20.94     0.034 C 
BRANCH   2   3
ATOM      3  CG  LYS A 131      27.602  24.399  16.928  1.00 22.96     0.005 C 
BRANCH   3   4
ATOM      4  CD  LYS A 131      26.150  24.536  17.292  1.00 24.33     0.041 C 
BRANCH   4   5
ATOM      5  CE  LYS A 131      25.923  25.875  17.986  1.00 26.91     0.338 C 
ATOM      6  NZ  LYS A 131      24.475  26.122  18.177  1.00 27.40     0.618 N 
ENDBRANCH   4   5
ENDBRANCH   3   4
ENDBRANCH   2   3
ENDBRANCH   1   2
END_RES LYS A 131
BEGIN_RES LYS A 135
REMARK  4 active torsions:
REMARK  status: ('A' for Active; 'I' for Inactive)
REMARK    5  A    between atoms: CA   and  CB  
REMARK    6  A    between atoms: CB   and  CG  
REMARK    7  A    between atoms: CG   and  CD  
REMARK    8  A    between atoms: CD   and  CE  
ROOT
ATOM      7  CA  LYS A 135      33.193  34.663   9.290  1.00 25.02     0.186 C 
ENDROOT
BRANCH   7   8
ATOM      8  CB  LYS A 135      32.060  35.360  10.034  1.00 26.63     0.034 C 
BRANCH   8   9
ATOM      9  CG  LYS A 135      30.711  34.730   9.804  1.00 29.45     0.005 C 
BRANCH   9  10
ATOM     10  CD  LYS A 135      30.455  34.536   8.317  1.00 32.00     0.041 C 
BRANCH  10  11
ATOM     11  CE  LYS A 135      29.004  34.828   7.984  1.00 34.25     0.338 C 
ATOM     12  NZ  LYS A 135      28.886  35.548   6.686  1.00 35.99     0.618 N 
ENDBRANCH  10  11
ENDBRANCH   9  10
ENDBRANCH   8   9
ENDBRANCH   7   8
END_RES LYS A 135
