REMARK VINA RESULT:    -4.101      2.907      5.172
REMARK INTER + INTRA:         -23.033
REMARK INTER:                 -12.001
REMARK INTRA:                 -11.031
REMARK UNBOUND:               -12.699
REMARK SMILES CC(=O)N[C@@H]1[C@@H](O)C[C@](OC[C@H]2O[C@@H](O[C@H]3[C@H](O)[C@@H](O)[C@H](OCCN=[N+]=[N-])O[C@@H]3CO)[C@H](O)[C@@H](O)[C@H]2O)(C(=O)O)O[C@H]1C(O)[C@H](O)CNC(=O)OCc1cn(Cc2ccc(Br)cc2)nn1
REMARK SMILES IDX 9 1 8 2 6 3 5 4 42 5 41 6 10 7 11 8 12 9 14 10 13 11 32 12
REMARK SMILES IDX 34 13 36 14 15 15 16 16 29 17 28 18 21 19 17 20 19 21 30 22
REMARK SMILES IDX 31 23 22 25 23 26 24 27 25 28 26 29 27 30 18 31 20 33 33 35
REMARK SMILES IDX 35 37 37 39 38 41 39 42 40 43 7 45 43 47 44 48 45 50 46 51
REMARK SMILES IDX 47 53 48 54 49 55 50 57 51 58 52 59 53 60 54 61 65 62 55 63
REMARK SMILES IDX 64 64 56 65 57 66 58 67 63 68 59 69 62 70 60 71 61 72 4 73
REMARK SMILES IDX 2 74 1 76 3 77
REMARK H PARENT 31 24 18 32 20 34 33 36 35 38 37 40 40 44 7 46 44 49 46 52
REMARK H PARENT 48 56 4 75
REMARK Flexibility Score: inf
ROOT
ATOM      1  C   UNL     1      28.365  35.084  17.378  1.00  0.00     0.272 C 
ATOM      2  C   UNL     1      29.624  35.844  17.590  1.00  0.00     0.113 C 
ATOM      3  C   UNL     1      30.494  36.116  16.428  1.00  0.00     0.145 C 
ATOM      4  C   UNL     1      30.245  35.171  15.222  1.00  0.00     0.142 C 
ATOM      5  C   UNL     1      29.768  33.913  15.895  1.00  0.00     0.178 C 
ATOM      6  O   UNL     1      28.430  34.242  16.254  1.00  0.00    -0.332 OA
ENDROOT
BRANCH   1   7
ATOM      7  O   UNL     1      27.182  35.669  17.529  1.00  0.00    -0.338 OA
BRANCH   7   8
ATOM      8  C   UNL     1      26.570  36.689  17.059  1.00  0.00     0.199 C 
BRANCH   8   9
ATOM      9  C   UNL     1      25.292  36.420  16.300  1.00  0.00     0.179 C 
ATOM     10  C   UNL     1      24.363  36.113  14.254  1.00  0.00     0.282 C 
ATOM     11  O   UNL     1      25.436  36.555  14.944  1.00  0.00    -0.341 OA
ATOM     12  C   UNL     1      23.102  35.842  15.054  1.00  0.00     0.202 C 
ATOM     13  C   UNL     1      23.385  34.983  16.266  1.00  0.00     0.179 C 
ATOM     14  C   UNL     1      24.880  34.961  16.549  1.00  0.00     0.177 C 
BRANCH  10  15
ATOM     15  O   UNL     1      24.535  35.063  13.415  1.00  0.00    -0.341 OA
BRANCH  15  16
ATOM     16  C   UNL     1      24.863  35.176  12.121  1.00  0.00     0.184 C 
ATOM     17  C   UNL     1      25.863  36.228  11.765  1.00  0.00     0.178 C 
ATOM     18  O   UNL     1      25.366  37.224  10.970  1.00  0.00    -0.341 OA
ATOM     19  C   UNL     1      24.904  36.796   9.733  1.00  0.00     0.281 C 
ATOM     20  C   UNL     1      23.609  35.398  11.302  1.00  0.00     0.180 C 
ATOM     21  C   UNL     1      24.020  35.572   9.861  1.00  0.00     0.202 C 
BRANCH  17  22
ATOM     22  C   UNL     1      27.082  35.573  11.159  1.00  0.00     0.191 C 
BRANCH  22  23
ATOM     23  O   UNL     1      28.138  36.495  11.009  1.00  0.00    -0.394 OA
ATOM     24  H   UNL     1      27.814  37.413  11.047  1.00  0.00     0.210 HD
ENDBRANCH  22  23
ENDBRANCH  17  22
BRANCH  19  25
ATOM     25  O   UNL     1      25.901  36.598   8.792  1.00  0.00    -0.350 OA
BRANCH  25  26
ATOM     26  C   UNL     1      25.672  37.153   7.562  1.00  0.00     0.169 C 
BRANCH  26  27
ATOM     27  C   UNL     1      25.658  38.654   7.559  1.00  0.00     0.119 C 
BRANCH  27  28
ATOM     28  N   UNL     1      26.955  39.166   7.981  1.00  0.00    -0.092 NA
ATOM     29  N   UNL     1      27.719  39.660   7.155  1.00  0.00     0.001 N 
ATOM     30  N   UNL     1      28.668  39.979   6.403  1.00  0.00    -0.003 NA
ENDBRANCH  27  28
ENDBRANCH  26  27
ENDBRANCH  25  26
ENDBRANCH  19  25
BRANCH  20  31
ATOM     31  O   UNL     1      22.865  34.204  11.376  1.00  0.00    -0.387 OA
ATOM     32  H   UNL     1      23.260  33.522  10.764  1.00  0.00     0.211 HD
ENDBRANCH  20  31
BRANCH  21  33
ATOM     33  O   UNL     1      22.926  35.630   9.005  1.00  0.00    -0.385 OA
ATOM     34  H   UNL     1      23.011  34.874   8.370  1.00  0.00     0.211 HD
ENDBRANCH  21  33
ENDBRANCH  15  16
ENDBRANCH  10  15
BRANCH  12  35
ATOM     35  O   UNL     1      22.440  36.990  15.453  1.00  0.00    -0.385 OA
ATOM     36  H   UNL     1      21.492  37.031  15.191  1.00  0.00     0.211 HD
ENDBRANCH  12  35
BRANCH  13  37
ATOM     37  O   UNL     1      22.885  33.692  16.150  1.00  0.00    -0.387 OA
ATOM     38  H   UNL     1      21.899  33.759  16.195  1.00  0.00     0.211 HD
ENDBRANCH  13  37
BRANCH  14  39
ATOM     39  O   UNL     1      25.569  34.197  15.600  1.00  0.00    -0.387 OA
ATOM     40  H   UNL     1      25.424  33.246  15.773  1.00  0.00     0.211 HD
ENDBRANCH  14  39
ENDBRANCH   8   9
ENDBRANCH   7   8
ENDBRANCH   1   7
BRANCH   1  41
ATOM     41  C   UNL     1      28.339  34.050  18.517  1.00  0.00     0.364 C 
ATOM     42  O   UNL     1      29.115  34.209  19.457  1.00  0.00    -0.246 OA
BRANCH  41  43
ATOM     43  O   UNL     1      27.492  32.974  18.519  1.00  0.00    -0.477 OA
ATOM     44  H   UNL     1      27.144  32.603  19.417  1.00  0.00     0.296 HD
ENDBRANCH  41  43
ENDBRANCH   1  41
BRANCH   3  45
ATOM     45  O   UNL     1      30.577  37.435  16.012  1.00  0.00    -0.391 OA
ATOM     46  H   UNL     1      31.513  37.722  16.073  1.00  0.00     0.211 HD
ENDBRANCH   3  45
BRANCH   5  47
ATOM     47  C   UNL     1      29.772  32.660  15.102  1.00  0.00     0.176 C 
BRANCH  47  48
ATOM     48  O   UNL     1      31.017  32.185  14.854  1.00  0.00    -0.388 OA
ATOM     49  H   UNL     1      31.681  32.880  14.775  1.00  0.00     0.211 HD
ENDBRANCH  47  48
BRANCH  47  50
ATOM     50  C   UNL     1      28.765  31.623  15.374  1.00  0.00     0.165 C 
BRANCH  50  51
ATOM     51  O   UNL     1      27.465  32.145  15.474  1.00  0.00    -0.388 OA
ATOM     52  H   UNL     1      26.818  31.552  15.885  1.00  0.00     0.211 HD
ENDBRANCH  50  51
BRANCH  50  53
ATOM     53  C   UNL     1      29.015  30.601  16.408  1.00  0.00     0.154 C 
BRANCH  53  54
ATOM     54  N   UNL     1      27.952  30.430  17.383  1.00  0.00    -0.319 N 
ATOM     55  C   UNL     1      27.214  29.221  17.479  1.00  0.00     0.407 C 
ATOM     56  H   UNL     1      27.680  31.183  18.063  1.00  0.00     0.167 HD
ATOM     57  O   UNL     1      27.488  28.249  16.705  1.00  0.00    -0.225 OA
BRANCH  55  58
ATOM     58  O   UNL     1      26.179  29.024  18.387  1.00  0.00    -0.443 OA
BRANCH  58  59
ATOM     59  C   UNL     1      24.820  29.308  18.004  1.00  0.00     0.294 C 
BRANCH  59  60
ATOM     60  C   UNL     1      24.738  30.028  16.723  1.00  0.00     0.120 A 
ATOM     61  C   UNL     1      24.488  29.445  15.496  1.00  0.00     0.138 A 
ATOM     62  N   UNL     1      24.891  31.335  16.506  1.00  0.00    -0.132 NA
ATOM     63  N   UNL     1      24.496  30.413  14.572  1.00  0.00    -0.248 N 
ATOM     64  N   UNL     1      24.741  31.540  15.210  1.00  0.00    -0.067 NA
BRANCH  63  65
ATOM     65  C   UNL     1      24.263  30.302  13.146  1.00  0.00     0.181 C 
BRANCH  65  66
ATOM     66  C   UNL     1      22.831  30.237  12.777  1.00  0.00    -0.026 A 
ATOM     67  C   UNL     1      22.307  28.996  12.402  1.00  0.00     0.007 A 
ATOM     68  C   UNL     1      21.981  31.306  12.795  1.00  0.00     0.007 A 
ATOM     69  C   UNL     1      20.970  28.878  12.062  1.00  0.00     0.016 A 
ATOM     70  C   UNL     1      20.631  31.200  12.456  1.00  0.00     0.016 A 
ATOM     71  C   UNL     1      20.133  29.979  12.090  1.00  0.00     0.017 A 
ATOM     72  Br  UNL     1      18.280  29.776  11.616  1.00  0.00    -0.051 Br
ENDBRANCH  65  66
ENDBRANCH  63  65
ENDBRANCH  59  60
ENDBRANCH  58  59
ENDBRANCH  55  58
ENDBRANCH  53  54
ENDBRANCH  50  53
ENDBRANCH  47  50
ENDBRANCH   5  47
BRANCH   4  73
ATOM     73  N   UNL     1      31.422  35.081  14.437  1.00  0.00    -0.348 N 
ATOM     74  C   UNL     1      31.564  35.856  13.260  1.00  0.00     0.217 C 
ATOM     75  H   UNL     1      32.197  34.460  14.724  1.00  0.00     0.163 HD
ATOM     76  C   UNL     1      32.735  35.848  12.380  1.00  0.00     0.114 C 
ATOM     77  O   UNL     1      30.598  36.632  12.932  1.00  0.00    -0.275 OA
ENDBRANCH   4  73
TORSDOF 31
BEGIN_RES LYS A 131
REMARK  4 active torsions:
REMARK  status: ('A' for Active; 'I' for Inactive)
REMARK    1  A    between atoms: CA   and  CB  
REMARK    2  A    between atoms: CB   and  CG  
REMARK    3  A    between atoms: CG   and  CD  
REMARK    4  A    between atoms: CD   and  CE  
ROOT
ATOM      1  CA  LYS A 131      29.867  25.555  16.977  1.00 20.52     0.186 C 
ENDROOT
BRANCH   1   2
ATOM      2  CB  LYS A 131      28.345  25.722  17.026  1.00 20.94     0.034 C 
BRANCH   2   3
ATOM      3  CG  LYS A 131      27.602  24.400  16.913  1.00 22.96     0.005 C 
BRANCH   3   4
ATOM      4  CD  LYS A 131      26.484  24.291  17.912  1.00 24.33     0.041 C 
BRANCH   4   5
ATOM      5  CE  LYS A 131      26.449  25.548  18.775  1.00 26.91     0.338 C 
ATOM      6  NZ  LYS A 131      25.108  25.724  19.382  1.00 27.40     0.618 N 
ENDBRANCH   4   5
ENDBRANCH   3   4
ENDBRANCH   2   3
ENDBRANCH   1   2
END_RES LYS A 131
BEGIN_RES LYS A 135
REMARK  4 active torsions:
REMARK  status: ('A' for Active; 'I' for Inactive)
REMARK    5  A    between atoms: CA   and  CB  
REMARK    6  A    between atoms: CB   and  CG  
REMARK    7  A    between atoms: CG   and  CD  
REMARK    8  A    between atoms: CD   and  CE  
ROOT
ATOM      7  CA  LYS A 135      33.193  34.663   9.290  1.00 25.02     0.186 C 
ENDROOT
BRANCH   7   8
ATOM      8  CB  LYS A 135      32.060  35.360  10.034  1.00 26.63     0.034 C 
BRANCH   8   9
ATOM      9  CG  LYS A 135      30.708  34.743   9.787  1.00 29.45     0.005 C 
BRANCH   9  10
ATOM     10  CD  LYS A 135      30.511  34.456   8.306  1.00 32.00     0.041 C 
BRANCH  10  11
ATOM     11  CE  LYS A 135      29.170  34.984   7.834  1.00 34.25     0.338 C 
ATOM     12  NZ  LYS A 135      29.206  36.463   7.664  1.00 35.99     0.618 N 
ENDBRANCH  10  11
ENDBRANCH   9  10
ENDBRANCH   8   9
ENDBRANCH   7   8
END_RES LYS A 135
