REMARK VINA RESULT:    -5.133      3.330      8.579
REMARK INTER + INTRA:         -25.055
REMARK INTER:                 -13.929
REMARK INTRA:                 -11.127
REMARK UNBOUND:               -11.071
REMARK SMILES CC(=O)N[C@@H]1[C@@H](O)C[C@](OC[C@H]2O[C@@H](O[C@H]3[C@H](O)[C@@H](O)[C@H](OCCN=[N+]=[N-])O[C@@H]3CO)[C@H](O)[C@@H](O)[C@H]2O)(C(=O)O)O[C@H]1C(O)[C@H](O)CNC(=O)OCc1cn(CC(O)CCc2ccccc2)nn1
REMARK SMILES IDX 43 1 42 2 9 3 8 4 41 5 6 6 5 7 10 8 11 9 12 10 14 11 13 12
REMARK SMILES IDX 32 13 34 14 36 15 15 16 16 17 29 18 28 19 21 20 17 21 19 22
REMARK SMILES IDX 30 23 31 24 22 26 23 27 24 28 25 29 26 30 27 31 18 32 20 34
REMARK SMILES IDX 33 36 35 38 37 40 38 42 39 43 40 44 7 46 4 48 2 49 1 51 3 52
REMARK SMILES IDX 44 53 45 55 46 56 47 58 48 59 49 60 50 62 51 63 52 64 53 65
REMARK SMILES IDX 54 66 68 67 55 68 67 69 56 70 57 71 58 72 59 74 60 75 61 76
REMARK SMILES IDX 62 77 66 78 63 79 65 80 64 81
REMARK H PARENT 31 25 18 33 20 35 33 37 35 39 37 41 40 45 7 47 4 50 44 54
REMARK H PARENT 46 57 48 61 58 73
REMARK Flexibility Score: inf
ROOT
ATOM      1  C   UNL     1      23.940  38.429   7.561  1.00  0.00     0.176 C 
ENDROOT
BRANCH   1   2
ATOM      2  C   UNL     1      23.669  37.823   8.951  1.00  0.00     0.178 C 
ATOM      3  C   UNL     1      24.712  35.918   9.905  1.00  0.00     0.272 C 
ATOM      4  C   UNL     1      23.697  35.099   9.179  1.00  0.00     0.113 C 
ATOM      5  O   UNL     1      24.761  37.170   9.353  1.00  0.00    -0.332 OA
ATOM      6  C   UNL     1      22.346  35.714   9.265  1.00  0.00     0.145 C 
ATOM      7  C   UNL     1      22.338  37.175   8.928  1.00  0.00     0.142 C 
BRANCH   3   8
ATOM      8  O   UNL     1      25.972  35.287   9.880  1.00  0.00    -0.338 OA
BRANCH   8   9
ATOM      9  C   UNL     1      26.296  34.622   8.752  1.00  0.00     0.199 C 
BRANCH   9  10
ATOM     10  C   UNL     1      27.534  35.249   8.068  1.00  0.00     0.179 C 
ATOM     11  C   UNL     1      28.849  37.091   7.905  1.00  0.00     0.282 C 
ATOM     12  O   UNL     1      27.659  36.564   8.338  1.00  0.00    -0.341 OA
ATOM     13  C   UNL     1      29.937  36.326   8.709  1.00  0.00     0.202 C 
ATOM     14  C   UNL     1      29.984  34.980   7.981  1.00  0.00     0.179 C 
ATOM     15  C   UNL     1      28.672  34.330   8.322  1.00  0.00     0.177 C 
BRANCH  11  16
ATOM     16  O   UNL     1      28.957  38.399   8.222  1.00  0.00    -0.341 OA
BRANCH  16  17
ATOM     17  C   UNL     1      29.003  39.339   7.220  1.00  0.00     0.184 C 
ATOM     18  C   UNL     1      27.839  40.273   7.219  1.00  0.00     0.178 C 
ATOM     19  O   UNL     1      27.103  40.353   6.080  1.00  0.00    -0.341 OA
ATOM     20  C   UNL     1      27.730  40.153   4.887  1.00  0.00     0.281 C 
ATOM     21  C   UNL     1      29.270  38.605   5.938  1.00  0.00     0.180 C 
ATOM     22  C   UNL     1      28.243  38.734   4.873  1.00  0.00     0.202 C 
BRANCH  18  23
ATOM     23  C   UNL     1      28.320  41.669   7.551  1.00  0.00     0.191 C 
BRANCH  23  24
ATOM     24  O   UNL     1      27.263  42.497   7.926  1.00  0.00    -0.394 OA
ATOM     25  H   UNL     1      26.430  42.040   7.600  1.00  0.00     0.210 HD
ENDBRANCH  23  24
ENDBRANCH  18  23
BRANCH  20  26
ATOM     26  O   UNL     1      28.719  41.081   4.603  1.00  0.00    -0.350 OA
BRANCH  26  27
ATOM     27  C   UNL     1      28.376  41.791   3.451  1.00  0.00     0.169 C 
BRANCH  27  28
ATOM     28  C   UNL     1      28.423  43.273   3.819  1.00  0.00     0.119 C 
BRANCH  28  29
ATOM     29  N   UNL     1      27.237  43.675   4.524  1.00  0.00    -0.092 NA
ATOM     30  N   UNL     1      27.326  44.539   5.421  1.00  0.00     0.001 N 
ATOM     31  N   UNL     1      27.466  45.171   6.486  1.00  0.00    -0.003 NA
ENDBRANCH  28  29
ENDBRANCH  27  28
ENDBRANCH  26  27
ENDBRANCH  20  26
BRANCH  21  32
ATOM     32  O   UNL     1      30.493  39.029   5.351  1.00  0.00    -0.387 OA
ATOM     33  H   UNL     1      30.694  38.535   4.523  1.00  0.00     0.211 HD
ENDBRANCH  21  32
BRANCH  22  34
ATOM     34  O   UNL     1      27.156  37.889   5.118  1.00  0.00    -0.385 OA
ATOM     35  H   UNL     1      26.799  37.492   4.297  1.00  0.00     0.211 HD
ENDBRANCH  22  34
ENDBRANCH  16  17
ENDBRANCH  11  16
BRANCH  13  36
ATOM     36  O   UNL     1      31.130  36.967   8.757  1.00  0.00    -0.385 OA
ATOM     37  H   UNL     1      31.542  37.103   9.626  1.00  0.00     0.211 HD
ENDBRANCH  13  36
BRANCH  14  38
ATOM     38  O   UNL     1      31.075  34.223   8.400  1.00  0.00    -0.387 OA
ATOM     39  H   UNL     1      31.916  34.645   8.112  1.00  0.00     0.211 HD
ENDBRANCH  14  38
BRANCH  15  40
ATOM     40  O   UNL     1      28.734  34.009   9.682  1.00  0.00    -0.387 OA
ATOM     41  H   UNL     1      28.923  34.806  10.230  1.00  0.00     0.211 HD
ENDBRANCH  15  40
ENDBRANCH   9  10
ENDBRANCH   8   9
ENDBRANCH   3   8
BRANCH   3  42
ATOM     42  C   UNL     1      24.372  35.939  11.349  1.00  0.00     0.364 C 
ATOM     43  O   UNL     1      24.814  36.882  12.065  1.00  0.00    -0.246 OA
BRANCH  42  44
ATOM     44  O   UNL     1      23.598  34.989  11.957  1.00  0.00    -0.477 OA
ATOM     45  H   UNL     1      22.740  34.688  11.519  1.00  0.00     0.296 HD
ENDBRANCH  42  44
ENDBRANCH   3  42
BRANCH   6  46
ATOM     46  O   UNL     1      21.529  34.968   8.372  1.00  0.00    -0.391 OA
ATOM     47  H   UNL     1      21.226  35.509   7.615  1.00  0.00     0.211 HD
ENDBRANCH   6  46
BRANCH   7  48
ATOM     48  N   UNL     1      21.349  37.920   9.665  1.00  0.00    -0.348 N 
ATOM     49  C   UNL     1      19.989  38.036   9.269  1.00  0.00     0.217 C 
ATOM     50  H   UNL     1      21.617  38.432  10.558  1.00  0.00     0.163 HD
ATOM     51  C   UNL     1      19.069  38.826  10.115  1.00  0.00     0.114 C 
ATOM     52  O   UNL     1      19.580  37.486   8.240  1.00  0.00    -0.275 OA
ENDBRANCH   7  48
ENDBRANCH   1   2
BRANCH   1  53
ATOM     53  O   UNL     1      25.220  38.115   7.151  1.00  0.00    -0.388 OA
ATOM     54  H   UNL     1      25.240  37.518   6.365  1.00  0.00     0.211 HD
ENDBRANCH   1  53
BRANCH   1  55
ATOM     55  C   UNL     1      23.527  39.844   7.403  1.00  0.00     0.165 C 
BRANCH  55  56
ATOM     56  O   UNL     1      24.353  40.482   6.513  1.00  0.00    -0.388 OA
ATOM     57  H   UNL     1      24.002  40.508   5.601  1.00  0.00     0.211 HD
ENDBRANCH  55  56
BRANCH  55  58
ATOM     58  C   UNL     1      23.589  40.486   8.770  1.00  0.00     0.154 C 
BRANCH  58  59
ATOM     59  N   UNL     1      24.785  41.161   9.107  1.00  0.00    -0.319 N 
ATOM     60  C   UNL     1      25.230  41.548  10.399  1.00  0.00     0.407 C 
ATOM     61  H   UNL     1      25.479  41.435   8.328  1.00  0.00     0.167 HD
ATOM     62  O   UNL     1      24.552  41.285  11.399  1.00  0.00    -0.225 OA
BRANCH  60  63
ATOM     63  O   UNL     1      26.426  42.227  10.568  1.00  0.00    -0.443 OA
BRANCH  63  64
ATOM     64  C   UNL     1      27.341  42.090  11.591  1.00  0.00     0.294 C 
BRANCH  64  65
ATOM     65  C   UNL     1      27.959  40.767  11.771  1.00  0.00     0.120 A 
ATOM     66  C   UNL     1      27.669  39.830  12.755  1.00  0.00     0.138 A 
ATOM     67  N   UNL     1      28.952  40.242  11.023  1.00  0.00    -0.132 NA
ATOM     68  N   UNL     1      28.491  38.804  12.555  1.00  0.00    -0.250 N 
ATOM     69  N   UNL     1      29.250  39.060  11.519  1.00  0.00    -0.067 NA
BRANCH  68  70
ATOM     70  C   UNL     1      28.508  37.597  13.422  1.00  0.00     0.177 C 
BRANCH  70  71
ATOM     71  C   UNL     1      28.730  36.434  12.515  1.00  0.00     0.136 C 
BRANCH  71  72
ATOM     72  O   UNL     1      27.848  36.452  11.421  1.00  0.00    -0.391 OA
ATOM     73  H   UNL     1      27.441  37.334  11.288  1.00  0.00     0.211 HD
ENDBRANCH  71  72
BRANCH  71  74
ATOM     74  C   UNL     1      28.725  35.110  13.171  1.00  0.00     0.038 C 
BRANCH  74  75
ATOM     75  C   UNL     1      29.178  34.917  14.544  1.00  0.00     0.038 C 
BRANCH  75  76
ATOM     76  C   UNL     1      29.417  33.584  15.054  1.00  0.00    -0.048 A 
ATOM     77  C   UNL     1      28.360  32.778  15.469  1.00  0.00     0.004 A 
ATOM     78  C   UNL     1      30.709  33.086  15.224  1.00  0.00     0.004 A 
ATOM     79  C   UNL     1      28.593  31.551  16.019  1.00  0.00     0.000 A 
ATOM     80  C   UNL     1      30.909  31.847  15.781  1.00  0.00     0.000 A 
ATOM     81  C   UNL     1      29.857  31.043  16.196  1.00  0.00     0.000 A 
ENDBRANCH  75  76
ENDBRANCH  74  75
ENDBRANCH  71  74
ENDBRANCH  70  71
ENDBRANCH  68  70
ENDBRANCH  64  65
ENDBRANCH  63  64
ENDBRANCH  60  63
ENDBRANCH  58  59
ENDBRANCH  55  58
ENDBRANCH   1  55
TORSDOF 35
BEGIN_RES LYS A 131
REMARK  4 active torsions:
REMARK  status: ('A' for Active; 'I' for Inactive)
REMARK    1  A    between atoms: CA   and  CB  
REMARK    2  A    between atoms: CB   and  CG  
REMARK    3  A    between atoms: CG   and  CD  
REMARK    4  A    between atoms: CD   and  CE  
ROOT
ATOM      1  CA  LYS A 131      29.867  25.555  16.977  1.00 20.52     0.186 C 
ENDROOT
BRANCH   1   2
ATOM      2  CB  LYS A 131      28.345  25.722  17.026  1.00 20.94     0.034 C 
BRANCH   2   3
ATOM      3  CG  LYS A 131      27.600  24.412  16.820  1.00 22.96     0.005 C 
BRANCH   3   4
ATOM      4  CD  LYS A 131      26.781  24.031  18.021  1.00 24.33     0.041 C 
BRANCH   4   5
ATOM      5  CE  LYS A 131      25.312  23.928  17.624  1.00 26.91     0.338 C 
ATOM      6  NZ  LYS A 131      24.444  24.455  18.704  1.00 27.40     0.618 N 
ENDBRANCH   4   5
ENDBRANCH   3   4
ENDBRANCH   2   3
ENDBRANCH   1   2
END_RES LYS A 131
BEGIN_RES LYS A 135
REMARK  4 active torsions:
REMARK  status: ('A' for Active; 'I' for Inactive)
REMARK    5  A    between atoms: CA   and  CB  
REMARK    6  A    between atoms: CB   and  CG  
REMARK    7  A    between atoms: CG   and  CD  
REMARK    8  A    between atoms: CD   and  CE  
ROOT
ATOM      7  CA  LYS A 135      33.193  34.663   9.290  1.00 25.02     0.186 C 
ENDROOT
BRANCH   7   8
ATOM      8  CB  LYS A 135      32.060  35.360  10.034  1.00 26.63     0.034 C 
BRANCH   8   9
ATOM      9  CG  LYS A 135      32.205  35.313  11.533  1.00 29.45     0.005 C 
BRANCH   9  10
ATOM     10  CD  LYS A 135      32.239  36.719  12.113  1.00 32.00     0.041 C 
BRANCH  10  11
ATOM     11  CE  LYS A 135      32.216  36.670  13.629  1.00 34.25     0.338 C 
ATOM     12  NZ  LYS A 135      32.959  35.485  14.139  1.00 35.99     0.618 N 
ENDBRANCH  10  11
ENDBRANCH   9  10
ENDBRANCH   8   9
ENDBRANCH   7   8
END_RES LYS A 135
