REMARK VINA RESULT:    -5.007      2.278      6.649
REMARK INTER + INTRA:         -23.522
REMARK INTER:                 -12.101
REMARK INTRA:                 -11.421
REMARK UNBOUND:               -11.198
REMARK SMILES CC(=O)N[C@@H]1[C@@H](O)C[C@](OC[C@H]2O[C@@H](O[C@H]3[C@H](O)[C@@H](O)[C@H](OCCN=[N+]=[N-])O[C@@H]3CO)[C@H](O)[C@@H](O)[C@H]2O)(C(=O)O)O[C@H]1C(O)[C@H](O)CNC(=O)OCc1cn(C23CC4CC(CC(C4)C2)C3)nn1
REMARK SMILES IDX 9 1 8 2 6 3 5 4 42 5 41 6 10 7 11 8 12 9 14 10 13 11 32 12
REMARK SMILES IDX 34 13 36 14 15 15 16 16 29 17 28 18 21 19 17 20 19 21 30 22
REMARK SMILES IDX 31 23 22 25 23 26 24 27 25 28 26 29 27 30 18 31 20 33 33 35
REMARK SMILES IDX 35 37 37 39 38 41 39 42 40 43 7 45 43 47 44 48 45 50 46 51
REMARK SMILES IDX 47 53 48 54 49 55 50 57 51 58 52 59 53 60 54 61 67 62 55 63
REMARK SMILES IDX 66 64 56 65 65 66 64 67 57 68 60 69 62 70 58 71 59 72 61 73
REMARK SMILES IDX 63 74 4 75 2 76 1 78 3 79
REMARK H PARENT 31 24 18 32 20 34 33 36 35 38 37 40 40 44 7 46 44 49 46 52
REMARK H PARENT 48 56 4 77
REMARK Flexibility Score: inf
ROOT
ATOM      1  C   UNL     1      28.465  35.132   8.728  1.00  0.00     0.272 C 
ATOM      2  C   UNL     1      28.305  33.897   9.545  1.00  0.00     0.113 C 
ATOM      3  C   UNL     1      27.300  34.117  10.657  1.00  0.00     0.145 C 
ATOM      4  C   UNL     1      28.026  35.003  11.680  1.00  0.00     0.142 C 
ATOM      5  C   UNL     1      28.675  36.089  10.876  1.00  0.00     0.178 C 
ATOM      6  O   UNL     1      28.197  36.248   9.600  1.00  0.00    -0.332 OA
ENDROOT
BRANCH   1   7
ATOM      7  O   UNL     1      27.635  35.314   7.710  1.00  0.00    -0.338 OA
BRANCH   7   8
ATOM      8  C   UNL     1      27.774  36.020   6.617  1.00  0.00     0.199 C 
BRANCH   8   9
ATOM      9  C   UNL     1      27.043  37.293   6.347  1.00  0.00     0.179 C 
ATOM     10  C   UNL     1      26.264  39.224   7.190  1.00  0.00     0.282 C 
ATOM     11  O   UNL     1      26.979  38.067   7.562  1.00  0.00    -0.341 OA
ATOM     12  C   UNL     1      27.292  40.193   6.705  1.00  0.00     0.202 C 
ATOM     13  C   UNL     1      28.345  39.401   5.953  1.00  0.00     0.179 C 
ATOM     14  C   UNL     1      27.762  38.161   5.320  1.00  0.00     0.177 C 
BRANCH  10  15
ATOM     15  O   UNL     1      25.482  39.686   8.243  1.00  0.00    -0.341 OA
BRANCH  15  16
ATOM     16  C   UNL     1      24.255  39.093   8.195  1.00  0.00     0.184 C 
ATOM     17  C   UNL     1      23.065  39.982   8.170  1.00  0.00     0.178 C 
ATOM     18  O   UNL     1      21.997  39.191   7.688  1.00  0.00    -0.341 OA
ATOM     19  C   UNL     1      21.599  38.241   8.658  1.00  0.00     0.281 C 
ATOM     20  C   UNL     1      24.025  38.149   9.380  1.00  0.00     0.180 C 
ATOM     21  C   UNL     1      22.749  37.420   9.135  1.00  0.00     0.202 C 
BRANCH  17  22
ATOM     22  C   UNL     1      23.190  41.248   7.409  1.00  0.00     0.191 C 
BRANCH  22  23
ATOM     23  O   UNL     1      24.060  42.088   8.124  1.00  0.00    -0.394 OA
ATOM     24  H   UNL     1      24.862  42.321   7.589  1.00  0.00     0.210 HD
ENDBRANCH  22  23
ENDBRANCH  17  22
BRANCH  19  25
ATOM     25  O   UNL     1      20.712  37.419   8.001  1.00  0.00    -0.350 OA
BRANCH  25  26
ATOM     26  C   UNL     1      21.142  36.184   7.684  1.00  0.00     0.169 C 
BRANCH  26  27
ATOM     27  C   UNL     1      20.149  35.116   8.015  1.00  0.00     0.119 C 
BRANCH  27  28
ATOM     28  N   UNL     1      19.903  35.076   9.462  1.00  0.00    -0.092 NA
ATOM     29  N   UNL     1      19.111  34.240   9.876  1.00  0.00     0.001 N 
ATOM     30  N   UNL     1      18.166  33.652  10.443  1.00  0.00    -0.003 NA
ENDBRANCH  27  28
ENDBRANCH  26  27
ENDBRANCH  25  26
ENDBRANCH  19  25
BRANCH  20  31
ATOM     31  O   UNL     1      25.057  37.219   9.496  1.00  0.00    -0.387 OA
ATOM     32  H   UNL     1      24.786  36.386   9.052  1.00  0.00     0.211 HD
ENDBRANCH  20  31
BRANCH  21  33
ATOM     33  O   UNL     1      22.398  36.799  10.332  1.00  0.00    -0.385 OA
ATOM     34  H   UNL     1      22.335  37.451  11.057  1.00  0.00     0.211 HD
ENDBRANCH  21  33
ENDBRANCH  15  16
ENDBRANCH  10  15
BRANCH  12  35
ATOM     35  O   UNL     1      26.814  41.247   5.967  1.00  0.00    -0.385 OA
ATOM     36  H   UNL     1      25.845  41.148   5.814  1.00  0.00     0.211 HD
ENDBRANCH  12  35
BRANCH  13  37
ATOM     37  O   UNL     1      29.448  39.099   6.741  1.00  0.00    -0.387 OA
ATOM     38  H   UNL     1      29.681  38.123   6.616  1.00  0.00     0.211 HD
ENDBRANCH  13  37
BRANCH  14  39
ATOM     39  O   UNL     1      28.810  37.416   4.799  1.00  0.00    -0.387 OA
ATOM     40  H   UNL     1      29.518  37.995   4.414  1.00  0.00     0.211 HD
ENDBRANCH  14  39
ENDBRANCH   8   9
ENDBRANCH   7   8
ENDBRANCH   1   7
BRANCH   1  41
ATOM     41  C   UNL     1      29.886  35.338   8.399  1.00  0.00     0.364 C 
ATOM     42  O   UNL     1      30.764  34.467   8.360  1.00  0.00    -0.246 OA
BRANCH  41  43
ATOM     43  O   UNL     1      30.246  36.686   8.107  1.00  0.00    -0.477 OA
ATOM     44  H   UNL     1      29.747  37.419   8.564  1.00  0.00     0.296 HD
ENDBRANCH  41  43
ENDBRANCH   1  41
BRANCH   3  45
ATOM     45  O   UNL     1      26.225  34.849  10.170  1.00  0.00    -0.391 OA
ATOM     46  H   UNL     1      26.584  35.712   9.839  1.00  0.00     0.211 HD
ENDBRANCH   3  45
BRANCH   5  47
ATOM     47  C   UNL     1      28.415  37.497  11.535  1.00  0.00     0.176 C 
BRANCH  47  48
ATOM     48  O   UNL     1      27.351  37.184  12.407  1.00  0.00    -0.388 OA
ATOM     49  H   UNL     1      26.566  37.660  12.039  1.00  0.00     0.211 HD
ENDBRANCH  47  48
BRANCH  47  50
ATOM     50  C   UNL     1      27.968  38.454  10.523  1.00  0.00     0.165 C 
BRANCH  50  51
ATOM     51  O   UNL     1      28.914  38.777   9.534  1.00  0.00    -0.388 OA
ATOM     52  H   UNL     1      29.686  39.249   9.967  1.00  0.00     0.211 HD
ENDBRANCH  50  51
BRANCH  50  53
ATOM     53  C   UNL     1      27.320  39.702  10.986  1.00  0.00     0.154 C 
BRANCH  53  54
ATOM     54  N   UNL     1      25.999  39.548  11.473  1.00  0.00    -0.319 N 
ATOM     55  C   UNL     1      25.546  39.642  12.797  1.00  0.00     0.407 C 
ATOM     56  H   UNL     1      25.246  39.325  10.707  1.00  0.00     0.167 HD
ATOM     57  O   UNL     1      26.334  39.869  13.729  1.00  0.00    -0.225 OA
BRANCH  55  58
ATOM     58  O   UNL     1      24.164  39.472  13.052  1.00  0.00    -0.443 OA
BRANCH  58  59
ATOM     59  C   UNL     1      23.787  38.526  14.020  1.00  0.00     0.294 C 
BRANCH  59  60
ATOM     60  C   UNL     1      23.938  37.169  13.471  1.00  0.00     0.120 A 
ATOM     61  C   UNL     1      23.477  36.019  14.057  1.00  0.00     0.138 A 
ATOM     62  N   UNL     1      24.535  36.796  12.324  1.00  0.00    -0.132 NA
ATOM     63  N   UNL     1      23.804  35.000  13.258  1.00  0.00    -0.246 N 
ATOM     64  N   UNL     1      24.443  35.500  12.219  1.00  0.00    -0.066 NA
BRANCH  63  65
ATOM     65  C   UNL     1      23.477  33.619  13.553  1.00  0.00     0.065 C 
ATOM     66  C   UNL     1      23.231  33.488  15.023  1.00  0.00     0.034 C 
ATOM     67  C   UNL     1      22.301  33.172  12.708  1.00  0.00     0.034 C 
ATOM     68  C   UNL     1      24.651  32.727  13.190  1.00  0.00     0.034 C 
ATOM     69  C   UNL     1      22.852  32.070  15.371  1.00  0.00    -0.008 C 
ATOM     70  C   UNL     1      21.901  31.785  13.116  1.00  0.00    -0.008 C 
ATOM     71  C   UNL     1      24.257  31.305  13.512  1.00  0.00    -0.008 C 
ATOM     72  C   UNL     1      23.986  31.154  14.982  1.00  0.00     0.007 C 
ATOM     73  C   UNL     1      21.611  31.717  14.584  1.00  0.00     0.007 C 
ATOM     74  C   UNL     1      23.043  30.847  12.752  1.00  0.00     0.007 C 
ENDBRANCH  63  65
ENDBRANCH  59  60
ENDBRANCH  58  59
ENDBRANCH  55  58
ENDBRANCH  53  54
ENDBRANCH  50  53
ENDBRANCH  47  50
ENDBRANCH   5  47
BRANCH   4  75
ATOM     75  N   UNL     1      29.049  34.181  12.335  1.00  0.00    -0.348 N 
ATOM     76  C   UNL     1      29.415  34.402  13.692  1.00  0.00     0.217 C 
ATOM     77  H   UNL     1      29.530  33.415  11.802  1.00  0.00     0.163 HD
ATOM     78  C   UNL     1      30.474  33.552  14.346  1.00  0.00     0.114 C 
ATOM     79  O   UNL     1      28.836  35.316  14.319  1.00  0.00    -0.275 OA
ENDBRANCH   4  75
TORSDOF 30
BEGIN_RES LYS A 131
REMARK  4 active torsions:
REMARK  status: ('A' for Active; 'I' for Inactive)
REMARK    1  A    between atoms: CA   and  CB  
REMARK    2  A    between atoms: CB   and  CG  
REMARK    3  A    between atoms: CG   and  CD  
REMARK    4  A    between atoms: CD   and  CE  
ROOT
ATOM      1  CA  LYS A 131      29.867  25.555  16.977  1.00 20.52     0.186 C 
ENDROOT
BRANCH   1   2
ATOM      2  CB  LYS A 131      28.345  25.722  17.026  1.00 20.94     0.034 C 
BRANCH   2   3
ATOM      3  CG  LYS A 131      27.602  24.400  16.917  1.00 22.96     0.005 C 
BRANCH   3   4
ATOM      4  CD  LYS A 131      26.184  24.504  17.407  1.00 24.33     0.041 C 
BRANCH   4   5
ATOM      5  CE  LYS A 131      25.964  25.875  18.040  1.00 26.91     0.338 C 
ATOM      6  NZ  LYS A 131      24.649  26.427  17.639  1.00 27.40     0.618 N 
ENDBRANCH   4   5
ENDBRANCH   3   4
ENDBRANCH   2   3
ENDBRANCH   1   2
END_RES LYS A 131
BEGIN_RES LYS A 135
REMARK  4 active torsions:
REMARK  status: ('A' for Active; 'I' for Inactive)
REMARK    5  A    between atoms: CA   and  CB  
REMARK    6  A    between atoms: CB   and  CG  
REMARK    7  A    between atoms: CG   and  CD  
REMARK    8  A    between atoms: CD   and  CE  
ROOT
ATOM      7  CA  LYS A 135      33.193  34.663   9.290  1.00 25.02     0.186 C 
ENDROOT
BRANCH   7   8
ATOM      8  CB  LYS A 135      32.060  35.360  10.034  1.00 26.63     0.034 C 
BRANCH   8   9
ATOM      9  CG  LYS A 135      32.239  35.372  11.530  1.00 29.45     0.005 C 
BRANCH   9  10
ATOM     10  CD  LYS A 135      32.286  36.799  12.054  1.00 32.00     0.041 C 
BRANCH  10  11
ATOM     11  CE  LYS A 135      31.981  37.785  10.942  1.00 34.25     0.338 C 
ATOM     12  NZ  LYS A 135      31.613  39.118  11.493  1.00 35.99     0.618 N 
ENDBRANCH  10  11
ENDBRANCH   9  10
ENDBRANCH   8   9
ENDBRANCH   7   8
END_RES LYS A 135
