REMARK VINA RESULT:    -4.260      4.703      9.125
REMARK INTER + INTRA:         -22.585
REMARK INTER:                 -12.329
REMARK INTRA:                 -10.255
REMARK UNBOUND:               -11.851
REMARK SMILES CC(=O)N[C@@H]1[C@@H](O)C[C@](OC[C@H]2O[C@@H](O[C@H]3[C@H](O)[C@@H](O)[C@H](OCCN=[N+]=[N-])O[C@@H]3CO)[C@H](O)[C@@H](O)[C@H]2O)(C(=O)O)O[C@H]1C(O)[C@H](O)CNC(=O)OCc1cn(Cc2ccccc2)nn1
REMARK SMILES IDX 9 1 8 2 6 3 5 4 42 5 41 6 10 7 11 8 12 9 14 10 13 11 32 12
REMARK SMILES IDX 34 13 36 14 15 15 16 16 29 17 28 18 21 19 17 20 19 21 30 22
REMARK SMILES IDX 31 23 22 25 23 26 24 27 25 28 26 29 27 30 18 31 20 33 33 35
REMARK SMILES IDX 35 37 37 39 38 41 39 42 40 43 7 45 43 47 44 48 45 50 46 51
REMARK SMILES IDX 47 53 48 54 49 55 50 57 51 58 52 59 53 60 54 61 64 62 55 63
REMARK SMILES IDX 63 64 56 65 57 66 58 67 62 68 59 69 61 70 60 71 4 72 2 73
REMARK SMILES IDX 1 75 3 76
REMARK H PARENT 31 24 18 32 20 34 33 36 35 38 37 40 40 44 7 46 44 49 46 52
REMARK H PARENT 48 56 4 74
REMARK Flexibility Score: inf
ROOT
ATOM      1  C   UNL     1      31.171  40.164   7.779  1.00  0.00     0.272 C 
ATOM      2  C   UNL     1      31.491  41.313   6.896  1.00  0.00     0.113 C 
ATOM      3  C   UNL     1      30.357  41.560   5.976  1.00  0.00     0.145 C 
ATOM      4  C   UNL     1      29.227  40.523   6.080  1.00  0.00     0.142 C 
ATOM      5  C   UNL     1      29.763  39.161   6.204  1.00  0.00     0.178 C 
ATOM      6  O   UNL     1      30.957  39.054   6.940  1.00  0.00    -0.332 OA
ENDROOT
BRANCH   1   7
ATOM      7  O   UNL     1      30.124  40.342   8.658  1.00  0.00    -0.338 OA
BRANCH   7   8
ATOM      8  C   UNL     1      30.356  41.448   9.459  1.00  0.00     0.199 C 
BRANCH   8   9
ATOM      9  C   UNL     1      29.487  41.454  10.696  1.00  0.00     0.179 C 
ATOM     10  C   UNL     1      27.258  41.119  11.300  1.00  0.00     0.282 C 
ATOM     11  O   UNL     1      28.163  41.706  10.413  1.00  0.00    -0.341 OA
ATOM     12  C   UNL     1      27.716  41.154  12.710  1.00  0.00     0.202 C 
ATOM     13  C   UNL     1      28.982  40.375  12.870  1.00  0.00     0.179 C 
ATOM     14  C   UNL     1      29.682  40.223  11.540  1.00  0.00     0.177 C 
BRANCH  10  15
ATOM     15  O   UNL     1      26.946  39.826  10.914  1.00  0.00    -0.341 OA
BRANCH  15  16
ATOM     16  C   UNL     1      25.645  39.678  10.450  1.00  0.00     0.184 C 
ATOM     17  C   UNL     1      25.006  38.486  11.061  1.00  0.00     0.178 C 
ATOM     18  O   UNL     1      23.712  38.375  10.509  1.00  0.00    -0.341 OA
ATOM     19  C   UNL     1      23.909  37.823   9.227  1.00  0.00     0.281 C 
ATOM     20  C   UNL     1      25.794  39.414   8.943  1.00  0.00     0.180 C 
ATOM     21  C   UNL     1      24.549  38.869   8.326  1.00  0.00     0.202 C 
BRANCH  17  22
ATOM     22  C   UNL     1      24.896  38.598  12.579  1.00  0.00     0.191 C 
BRANCH  22  23
ATOM     23  O   UNL     1      26.083  38.048  13.111  1.00  0.00    -0.394 OA
ATOM     24  H   UNL     1      26.853  38.504  12.696  1.00  0.00     0.210 HD
ENDBRANCH  22  23
ENDBRANCH  17  22
BRANCH  19  25
ATOM     25  O   UNL     1      22.698  37.435   8.712  1.00  0.00    -0.350 OA
BRANCH  25  26
ATOM     26  C   UNL     1      22.582  36.060   8.764  1.00  0.00     0.169 C 
BRANCH  26  27
ATOM     27  C   UNL     1      21.720  35.538   9.874  1.00  0.00     0.119 C 
BRANCH  27  28
ATOM     28  N   UNL     1      20.327  35.752   9.451  1.00  0.00    -0.092 NA
ATOM     29  N   UNL     1      19.981  35.221   8.397  1.00  0.00     0.001 N 
ATOM     30  N   UNL     1      19.291  34.708   7.505  1.00  0.00    -0.003 NA
ENDBRANCH  27  28
ENDBRANCH  26  27
ENDBRANCH  25  26
ENDBRANCH  19  25
BRANCH  20  31
ATOM     31  O   UNL     1      26.053  40.684   8.386  1.00  0.00    -0.387 OA
ATOM     32  H   UNL     1      25.360  40.949   7.725  1.00  0.00     0.211 HD
ENDBRANCH  20  31
BRANCH  21  33
ATOM     33  O   UNL     1      24.867  38.243   7.121  1.00  0.00    -0.385 OA
ATOM     34  H   UNL     1      24.117  38.269   6.467  1.00  0.00     0.211 HD
ENDBRANCH  21  33
ENDBRANCH  15  16
ENDBRANCH  10  15
BRANCH  12  35
ATOM     35  O   UNL     1      27.850  42.467  13.195  1.00  0.00    -0.385 OA
ATOM     36  H   UNL     1      26.970  42.706  13.580  1.00  0.00     0.211 HD
ENDBRANCH  12  35
BRANCH  13  37
ATOM     37  O   UNL     1      28.678  39.128  13.404  1.00  0.00    -0.387 OA
ATOM     38  H   UNL     1      29.431  38.483  13.314  1.00  0.00     0.211 HD
ENDBRANCH  13  37
BRANCH  14  39
ATOM     39  O   UNL     1      29.430  39.036  10.908  1.00  0.00    -0.387 OA
ATOM     40  H   UNL     1      30.086  38.320  11.021  1.00  0.00     0.211 HD
ENDBRANCH  14  39
ENDBRANCH   8   9
ENDBRANCH   7   8
ENDBRANCH   1   7
BRANCH   1  41
ATOM     41  C   UNL     1      32.359  39.724   8.590  1.00  0.00     0.364 C 
ATOM     42  O   UNL     1      33.433  40.314   8.464  1.00  0.00    -0.246 OA
BRANCH  41  43
ATOM     43  O   UNL     1      32.239  38.670   9.468  1.00  0.00    -0.477 OA
ATOM     44  H   UNL     1      32.661  37.757   9.290  1.00  0.00     0.296 HD
ENDBRANCH  41  43
ENDBRANCH   1  41
BRANCH   3  45
ATOM     45  O   UNL     1      29.735  42.810   6.151  1.00  0.00    -0.391 OA
ATOM     46  H   UNL     1      28.938  42.769   6.700  1.00  0.00     0.211 HD
ENDBRANCH   3  45
BRANCH   5  47
ATOM     47  C   UNL     1      28.902  38.072   6.692  1.00  0.00     0.176 C 
BRANCH  47  48
ATOM     48  O   UNL     1      27.907  38.447   7.569  1.00  0.00    -0.388 OA
ATOM     49  H   UNL     1      27.003  38.472   7.187  1.00  0.00     0.211 HD
ENDBRANCH  47  48
BRANCH  47  50
ATOM     50  C   UNL     1      28.342  37.103   5.691  1.00  0.00     0.165 C 
BRANCH  50  51
ATOM     51  O   UNL     1      27.085  37.402   5.266  1.00  0.00    -0.388 OA
ATOM     52  H   UNL     1      26.393  36.779   5.562  1.00  0.00     0.211 HD
ENDBRANCH  50  51
BRANCH  50  53
ATOM     53  C   UNL     1      28.638  35.674   6.041  1.00  0.00     0.154 C 
BRANCH  53  54
ATOM     54  N   UNL     1      28.002  35.209   7.245  1.00  0.00    -0.319 N 
ATOM     55  C   UNL     1      28.681  34.573   8.335  1.00  0.00     0.407 C 
ATOM     56  H   UNL     1      26.955  35.312   7.406  1.00  0.00     0.167 HD
ATOM     57  O   UNL     1      29.918  34.388   8.264  1.00  0.00    -0.225 OA
BRANCH  55  58
ATOM     58  O   UNL     1      28.004  34.154   9.465  1.00  0.00    -0.443 OA
BRANCH  58  59
ATOM     59  C   UNL     1      27.119  35.040  10.108  1.00  0.00     0.294 C 
BRANCH  59  60
ATOM     60  C   UNL     1      27.606  35.399  11.457  1.00  0.00     0.120 A 
ATOM     61  C   UNL     1      27.365  34.632  12.605  1.00  0.00     0.138 A 
ATOM     62  N   UNL     1      28.329  36.440  11.884  1.00  0.00    -0.132 NA
ATOM     63  N   UNL     1      27.947  35.238  13.651  1.00  0.00    -0.248 N 
ATOM     64  N   UNL     1      28.519  36.318  13.206  1.00  0.00    -0.067 NA
BRANCH  63  65
ATOM     65  C   UNL     1      27.929  34.753  15.013  1.00  0.00     0.181 C 
BRANCH  65  66
ATOM     66  C   UNL     1      29.291  34.300  15.392  1.00  0.00    -0.026 A 
ATOM     67  C   UNL     1      30.041  34.957  16.351  1.00  0.00     0.005 A 
ATOM     68  C   UNL     1      29.820  33.184  14.762  1.00  0.00     0.005 A 
ATOM     69  C   UNL     1      31.307  34.496  16.669  1.00  0.00     0.000 A 
ATOM     70  C   UNL     1      31.085  32.733  15.088  1.00  0.00     0.000 A 
ATOM     71  C   UNL     1      31.822  33.391  16.039  1.00  0.00     0.000 A 
ENDBRANCH  65  66
ENDBRANCH  63  65
ENDBRANCH  59  60
ENDBRANCH  58  59
ENDBRANCH  55  58
ENDBRANCH  53  54
ENDBRANCH  50  53
ENDBRANCH  47  50
ENDBRANCH   5  47
BRANCH   4  72
ATOM     72  N   UNL     1      28.573  40.695   4.768  1.00  0.00    -0.348 N 
ATOM     73  C   UNL     1      27.176  40.587   4.580  1.00  0.00     0.217 C 
ATOM     74  H   UNL     1      29.162  40.904   3.933  1.00  0.00     0.163 HD
ATOM     75  C   UNL     1      26.542  40.761   3.239  1.00  0.00     0.114 C 
ATOM     76  O   UNL     1      26.456  40.338   5.578  1.00  0.00    -0.275 OA
ENDBRANCH   4  72
TORSDOF 31
BEGIN_RES LYS A 131
REMARK  4 active torsions:
REMARK  status: ('A' for Active; 'I' for Inactive)
REMARK    1  A    between atoms: CA   and  CB  
REMARK    2  A    between atoms: CB   and  CG  
REMARK    3  A    between atoms: CG   and  CD  
REMARK    4  A    between atoms: CD   and  CE  
ROOT
ATOM      1  CA  LYS A 131      29.867  25.555  16.977  1.00 20.52     0.186 C 
ENDROOT
BRANCH   1   2
ATOM      2  CB  LYS A 131      28.345  25.722  17.026  1.00 20.94     0.034 C 
BRANCH   2   3
ATOM      3  CG  LYS A 131      27.602  24.400  16.915  1.00 22.96     0.005 C 
BRANCH   3   4
ATOM      4  CD  LYS A 131      26.149  24.534  17.279  1.00 24.33     0.041 C 
BRANCH   4   5
ATOM      5  CE  LYS A 131      26.014  24.682  18.791  1.00 26.91     0.338 C 
ATOM      6  NZ  LYS A 131      24.625  24.392  19.218  1.00 27.40     0.618 N 
ENDBRANCH   4   5
ENDBRANCH   3   4
ENDBRANCH   2   3
ENDBRANCH   1   2
END_RES LYS A 131
BEGIN_RES LYS A 135
REMARK  4 active torsions:
REMARK  status: ('A' for Active; 'I' for Inactive)
REMARK    5  A    between atoms: CA   and  CB  
REMARK    6  A    between atoms: CB   and  CG  
REMARK    7  A    between atoms: CG   and  CD  
REMARK    8  A    between atoms: CD   and  CE  
ROOT
ATOM      7  CA  LYS A 135      33.193  34.663   9.290  1.00 25.02     0.186 C 
ENDROOT
BRANCH   7   8
ATOM      8  CB  LYS A 135      32.060  35.360  10.034  1.00 26.63     0.034 C 
BRANCH   8   9
ATOM      9  CG  LYS A 135      31.879  34.874  11.449  1.00 29.45     0.005 C 
BRANCH   9  10
ATOM     10  CD  LYS A 135      32.844  35.582  12.387  1.00 32.00     0.041 C 
BRANCH  10  11
ATOM     11  CE  LYS A 135      32.087  36.289  13.495  1.00 34.25     0.338 C 
ATOM     12  NZ  LYS A 135      31.713  37.673  13.090  1.00 35.99     0.618 N 
ENDBRANCH  10  11
ENDBRANCH   9  10
ENDBRANCH   8   9
ENDBRANCH   7   8
END_RES LYS A 135
