REMARK VINA RESULT:    -4.592      5.967     10.264
REMARK INTER + INTRA:         -22.774
REMARK INTER:                 -11.115
REMARK INTRA:                 -11.659
REMARK UNBOUND:               -11.068
REMARK SMILES CC(=O)N[C@@H]1[C@@H](O)C[C@](OC[C@H]2O[C@@H](O[C@H]3[C@H](O)[C@@H](O)[C@H](OCCN=[N+]=[N-])O[C@@H]3CO)[C@H](O)[C@@H](O)[C@H]2O)(C(=O)O)O[C@H]1C(O)[C@H](O)CNC(=O)OCc1cn(Cc2cc(Br)cc(Br)c2O)nn1
REMARK SMILES IDX 9 1 8 2 6 3 5 4 42 5 41 6 10 7 11 8 12 9 14 10 13 11 32 12
REMARK SMILES IDX 34 13 36 14 15 15 16 16 29 17 28 18 21 19 17 20 19 21 30 22
REMARK SMILES IDX 31 23 22 25 23 26 24 27 25 28 26 29 27 30 18 31 20 33 33 35
REMARK SMILES IDX 35 37 37 39 38 41 39 42 40 43 7 45 43 47 44 48 45 50 46 51
REMARK SMILES IDX 47 53 48 54 49 55 50 57 51 58 52 59 53 60 54 61 67 62 55 63
REMARK SMILES IDX 66 64 56 65 57 66 58 67 64 68 59 69 62 70 60 71 61 72 63 73
REMARK SMILES IDX 65 74 4 76 2 77 1 79 3 80
REMARK H PARENT 31 24 18 32 20 34 33 36 35 38 37 40 40 44 7 46 44 49 46 52
REMARK H PARENT 48 56 65 75 4 78
REMARK Flexibility Score: inf
ROOT
ATOM      1  C   UNL     1      31.422  28.911  21.377  1.00  0.00     0.272 C 
ATOM      2  C   UNL     1      31.159  28.637  22.934  1.00  0.00     0.113 C 
ATOM      3  C   UNL     1      32.187  27.724  23.466  1.00  0.00     0.145 C 
ATOM      4  C   UNL     1      33.563  28.279  23.208  1.00  0.00     0.142 C 
ATOM      5  C   UNL     1      33.650  29.300  22.114  1.00  0.00     0.178 C 
ATOM      6  O   UNL     1      32.638  29.487  21.275  1.00  0.00    -0.332 OA
ENDROOT
BRANCH   1   7
ATOM      7  O   UNL     1      30.436  29.808  21.139  1.00  0.00    -0.338 OA
BRANCH   7   8
ATOM      8  C   UNL     1      30.085  30.297  19.965  1.00  0.00     0.199 C 
BRANCH   8   9
ATOM      9  C   UNL     1      28.692  30.741  19.683  1.00  0.00     0.179 C 
ATOM     10  C   UNL     1      29.112  31.890  17.700  1.00  0.00     0.282 C 
ATOM     11  O   UNL     1      28.621  31.885  18.965  1.00  0.00    -0.341 OA
ATOM     12  C   UNL     1      28.742  30.664  16.932  1.00  0.00     0.202 C 
ATOM     13  C   UNL     1      27.601  29.942  17.595  1.00  0.00     0.179 C 
ATOM     14  C   UNL     1      27.861  29.628  19.039  1.00  0.00     0.177 C 
BRANCH  10  15
ATOM     15  O   UNL     1      30.489  32.162  17.693  1.00  0.00    -0.341 OA
BRANCH  15  16
ATOM     16  C   UNL     1      30.802  33.489  17.510  1.00  0.00     0.184 C 
ATOM     17  C   UNL     1      31.835  33.673  16.422  1.00  0.00     0.178 C 
ATOM     18  O   UNL     1      32.376  34.925  16.361  1.00  0.00    -0.341 OA
ATOM     19  C   UNL     1      31.715  35.914  17.066  1.00  0.00     0.281 C 
ATOM     20  C   UNL     1      31.464  34.082  18.759  1.00  0.00     0.180 C 
ATOM     21  C   UNL     1      31.520  35.572  18.519  1.00  0.00     0.202 C 
BRANCH  17  22
ATOM     22  C   UNL     1      31.327  33.253  15.059  1.00  0.00     0.191 C 
BRANCH  22  23
ATOM     23  O   UNL     1      31.336  31.882  14.915  1.00  0.00    -0.394 OA
ATOM     24  H   UNL     1      30.708  31.641  14.195  1.00  0.00     0.210 HD
ENDBRANCH  22  23
ENDBRANCH  17  22
BRANCH  19  25
ATOM     25  O   UNL     1      30.525  36.206  16.420  1.00  0.00    -0.350 OA
BRANCH  25  26
ATOM     26  C   UNL     1      30.740  36.978  15.310  1.00  0.00     0.169 C 
BRANCH  26  27
ATOM     27  C   UNL     1      30.046  36.542  14.065  1.00  0.00     0.119 C 
BRANCH  27  28
ATOM     28  N   UNL     1      28.659  36.188  14.285  1.00  0.00    -0.092 NA
ATOM     29  N   UNL     1      28.289  35.041  14.442  1.00  0.00     0.001 N 
ATOM     30  N   UNL     1      27.808  33.994  14.868  1.00  0.00    -0.003 NA
ENDBRANCH  27  28
ENDBRANCH  26  27
ENDBRANCH  25  26
ENDBRANCH  19  25
BRANCH  20  31
ATOM     31  O   UNL     1      30.838  33.743  19.926  1.00  0.00    -0.387 OA
ATOM     32  H   UNL     1      31.525  33.249  20.479  1.00  0.00     0.211 HD
ENDBRANCH  20  31
BRANCH  21  33
ATOM     33  O   UNL     1      32.520  36.176  19.273  1.00  0.00    -0.385 OA
ATOM     34  H   UNL     1      33.384  36.082  18.837  1.00  0.00     0.211 HD
ENDBRANCH  21  33
ENDBRANCH  15  16
ENDBRANCH  10  15
BRANCH  12  35
ATOM     35  O   UNL     1      28.360  31.076  15.631  1.00  0.00    -0.385 OA
ATOM     36  H   UNL     1      27.841  30.320  15.270  1.00  0.00     0.211 HD
ENDBRANCH  12  35
BRANCH  13  37
ATOM     37  O   UNL     1      27.227  28.797  16.893  1.00  0.00    -0.387 OA
ATOM     38  H   UNL     1      27.843  28.741  16.119  1.00  0.00     0.211 HD
ENDBRANCH  13  37
BRANCH  14  39
ATOM     39  O   UNL     1      28.545  28.430  19.141  1.00  0.00    -0.387 OA
ATOM     40  H   UNL     1      27.944  27.707  19.467  1.00  0.00     0.211 HD
ENDBRANCH  14  39
ENDBRANCH   8   9
ENDBRANCH   7   8
ENDBRANCH   1   7
BRANCH   1  41
ATOM     41  C   UNL     1      31.323  27.602  20.741  1.00  0.00     0.364 C 
ATOM     42  O   UNL     1      30.337  26.813  20.995  1.00  0.00    -0.246 OA
BRANCH  41  43
ATOM     43  O   UNL     1      32.226  27.100  19.840  1.00  0.00    -0.477 OA
ATOM     44  H   UNL     1      32.254  26.114  19.626  1.00  0.00     0.296 HD
ENDBRANCH  41  43
ENDBRANCH   1  41
BRANCH   3  45
ATOM     45  O   UNL     1      31.958  27.540  24.842  1.00  0.00    -0.391 OA
ATOM     46  H   UNL     1      31.023  27.268  24.990  1.00  0.00     0.211 HD
ENDBRANCH   3  45
BRANCH   5  47
ATOM     47  C   UNL     1      34.207  30.574  22.720  1.00  0.00     0.176 C 
BRANCH  47  48
ATOM     48  O   UNL     1      35.605  30.429  22.907  1.00  0.00    -0.388 OA
ATOM     49  H   UNL     1      35.844  30.552  23.847  1.00  0.00     0.211 HD
ENDBRANCH  47  48
BRANCH  47  50
ATOM     50  C   UNL     1      33.873  31.824  22.017  1.00  0.00     0.165 C 
BRANCH  50  51
ATOM     51  O   UNL     1      34.991  32.530  21.629  1.00  0.00    -0.388 OA
ATOM     52  H   UNL     1      34.998  32.763  20.667  1.00  0.00     0.211 HD
ENDBRANCH  50  51
BRANCH  50  53
ATOM     53  C   UNL     1      32.867  32.732  22.636  1.00  0.00     0.154 C 
BRANCH  53  54
ATOM     54  N   UNL     1      31.510  32.308  22.596  1.00  0.00    -0.319 N 
ATOM     55  C   UNL     1      30.845  32.094  23.852  1.00  0.00     0.407 C 
ATOM     56  H   UNL     1      30.978  32.122  21.732  1.00  0.00     0.167 HD
ATOM     57  O   UNL     1      31.494  32.293  24.935  1.00  0.00    -0.225 OA
BRANCH  55  58
ATOM     58  O   UNL     1      29.541  31.688  23.874  1.00  0.00    -0.443 OA
BRANCH  58  59
ATOM     59  C   UNL     1      28.885  31.296  25.053  1.00  0.00     0.294 C 
BRANCH  59  60
ATOM     60  C   UNL     1      28.788  29.821  25.128  1.00  0.00     0.120 A 
ATOM     61  C   UNL     1      28.129  28.934  24.285  1.00  0.00     0.138 A 
ATOM     62  N   UNL     1      29.348  29.033  26.061  1.00  0.00    -0.132 NA
ATOM     63  N   UNL     1      28.299  27.675  24.715  1.00  0.00    -0.248 N 
ATOM     64  N   UNL     1      29.056  27.772  25.811  1.00  0.00    -0.067 NA
BRANCH  63  65
ATOM     65  C   UNL     1      27.795  26.415  24.157  1.00  0.00     0.185 C 
BRANCH  65  66
ATOM     66  C   UNL     1      26.481  26.698  23.536  1.00  0.00     0.018 A 
ATOM     67  C   UNL     1      25.366  26.781  24.347  1.00  0.00     0.025 A 
ATOM     68  C   UNL     1      26.329  26.882  22.167  1.00  0.00     0.134 A 
ATOM     69  C   UNL     1      24.105  27.045  23.834  1.00  0.00     0.019 A 
ATOM     70  C   UNL     1      25.081  27.146  21.624  1.00  0.00     0.061 A 
ATOM     71  Br  UNL     1      22.596  27.151  24.990  1.00  0.00    -0.051 Br
ATOM     72  C   UNL     1      23.981  27.223  22.477  1.00  0.00     0.035 A 
ATOM     73  Br  UNL     1      24.902  27.395  19.761  1.00  0.00    -0.047 Br
BRANCH  68  74
ATOM     74  O   UNL     1      27.481  26.784  21.412  1.00  0.00    -0.506 OA
ATOM     75  H   UNL     1      28.276  26.291  21.784  1.00  0.00     0.293 HD
ENDBRANCH  68  74
ENDBRANCH  65  66
ENDBRANCH  63  65
ENDBRANCH  59  60
ENDBRANCH  58  59
ENDBRANCH  55  58
ENDBRANCH  53  54
ENDBRANCH  50  53
ENDBRANCH  47  50
ENDBRANCH   5  47
BRANCH   4  76
ATOM     76  N   UNL     1      34.512  27.193  23.084  1.00  0.00    -0.348 N 
ATOM     77  C   UNL     1      35.248  26.788  24.227  1.00  0.00     0.217 C 
ATOM     78  H   UNL     1      34.688  26.687  22.185  1.00  0.00     0.163 HD
ATOM     79  C   UNL     1      36.228  25.665  24.099  1.00  0.00     0.114 C 
ATOM     80  O   UNL     1      35.067  27.379  25.344  1.00  0.00    -0.275 OA
ENDBRANCH   4  76
TORSDOF 32
BEGIN_RES LYS A 131
REMARK  4 active torsions:
REMARK  status: ('A' for Active; 'I' for Inactive)
REMARK    1  A    between atoms: CA   and  CB  
REMARK    2  A    between atoms: CB   and  CG  
REMARK    3  A    between atoms: CG   and  CD  
REMARK    4  A    between atoms: CD   and  CE  
ROOT
ATOM      1  CA  LYS A 131      29.867  25.555  16.977  1.00 20.52     0.186 C 
ENDROOT
BRANCH   1   2
ATOM      2  CB  LYS A 131      28.345  25.722  17.026  1.00 20.94     0.034 C 
BRANCH   2   3
ATOM      3  CG  LYS A 131      27.599  24.473  16.583  1.00 22.96     0.005 C 
BRANCH   3   4
ATOM      4  CD  LYS A 131      27.163  23.630  17.749  1.00 24.33     0.041 C 
BRANCH   4   5
ATOM      5  CE  LYS A 131      25.862  24.184  18.320  1.00 26.91     0.338 C 
ATOM      6  NZ  LYS A 131      24.832  24.286  17.259  1.00 27.40     0.618 N 
ENDBRANCH   4   5
ENDBRANCH   3   4
ENDBRANCH   2   3
ENDBRANCH   1   2
END_RES LYS A 131
BEGIN_RES LYS A 135
REMARK  4 active torsions:
REMARK  status: ('A' for Active; 'I' for Inactive)
REMARK    5  A    between atoms: CA   and  CB  
REMARK    6  A    between atoms: CB   and  CG  
REMARK    7  A    between atoms: CG   and  CD  
REMARK    8  A    between atoms: CD   and  CE  
ROOT
ATOM      7  CA  LYS A 135      33.193  34.663   9.290  1.00 25.02     0.186 C 
ENDROOT
BRANCH   7   8
ATOM      8  CB  LYS A 135      32.060  35.360  10.034  1.00 26.63     0.034 C 
BRANCH   8   9
ATOM      9  CG  LYS A 135      30.706  34.752   9.776  1.00 29.45     0.005 C 
BRANCH   9  10
ATOM     10  CD  LYS A 135      30.503  34.505   8.289  1.00 32.00     0.041 C 
BRANCH  10  11
ATOM     11  CE  LYS A 135      29.095  34.888   7.873  1.00 34.25     0.338 C 
ATOM     12  NZ  LYS A 135      28.821  36.322   8.164  1.00 35.99     0.618 N 
ENDBRANCH  10  11
ENDBRANCH   9  10
ENDBRANCH   8   9
ENDBRANCH   7   8
END_RES LYS A 135
