REMARK VINA RESULT:    -5.493      4.470     13.180
REMARK INTER + INTRA:         -25.674
REMARK INTER:                 -14.448
REMARK INTRA:                 -11.227
REMARK UNBOUND:               -11.349
REMARK SMILES CC(=O)N[C@@H]1[C@@H](O)C[C@](OC[C@H]2O[C@@H](O[C@H]3[C@H](O)[C@@H](O)[C@H](OCCN=[N+]=[N-])O[C@@H]3CO)[C@H](O)[C@@H](O)[C@H]2O)(C(=O)O)O[C@H]1C(O)[C@H](O)CNC(=O)OCc1cn(-c2ccc(-c3c4ccc(=O)cc-4oc4cc(O)ccc34)c(C(=O)[O-])c2)nn1
REMARK SMILES IDX 9 1 8 2 6 3 5 4 42 5 41 6 10 7 11 8 12 9 14 10 13 11 32 12
REMARK SMILES IDX 34 13 36 14 15 15 16 16 29 17 28 18 21 19 17 20 19 21 30 22
REMARK SMILES IDX 31 23 22 25 23 26 24 27 25 28 26 29 27 30 18 31 20 33 33 35
REMARK SMILES IDX 35 37 37 39 38 41 39 42 40 43 7 45 43 47 44 48 45 50 46 51
REMARK SMILES IDX 47 53 48 54 49 55 50 57 51 58 52 59 53 60 54 61 82 62 55 63
REMARK SMILES IDX 81 64 56 65 80 66 57 67 76 68 58 69 59 70 77 71 78 72 79 73
REMARK SMILES IDX 60 74 75 75 61 76 74 77 69 78 67 79 62 80 73 81 70 82 68 83
REMARK SMILES IDX 66 84 63 85 71 86 64 87 65 88 72 89 4 91 2 92 1 94 3 95
REMARK H PARENT 31 24 18 32 20 34 33 36 35 38 37 40 40 44 7 46 44 49 46 52
REMARK H PARENT 48 56 72 90 4 93
REMARK Flexibility Score: inf
ROOT
ATOM      1  C   UNL     1      27.370  32.645  19.663  1.00  0.00     0.272 C 
ATOM      2  C   UNL     1      26.047  32.637  20.388  1.00  0.00     0.113 C 
ATOM      3  C   UNL     1      25.565  31.255  20.728  1.00  0.00     0.145 C 
ATOM      4  C   UNL     1      26.351  30.273  19.898  1.00  0.00     0.142 C 
ATOM      5  C   UNL     1      26.414  30.839  18.504  1.00  0.00     0.178 C 
ATOM      6  O   UNL     1      27.303  31.884  18.470  1.00  0.00    -0.332 OA
ENDROOT
BRANCH   1   7
ATOM      7  O   UNL     1      28.457  32.250  20.392  1.00  0.00    -0.338 OA
BRANCH   7   8
ATOM      8  C   UNL     1      28.586  32.856  21.591  1.00  0.00     0.199 C 
BRANCH   8   9
ATOM      9  C   UNL     1      30.059  33.120  21.939  1.00  0.00     0.179 C 
ATOM     10  C   UNL     1      32.017  32.030  22.481  1.00  0.00     0.282 C 
ATOM     11  O   UNL     1      30.652  32.072  22.542  1.00  0.00    -0.341 OA
ATOM     12  C   UNL     1      32.689  33.342  22.373  1.00  0.00     0.202 C 
ATOM     13  C   UNL     1      32.120  34.207  21.273  1.00  0.00     0.179 C 
ATOM     14  C   UNL     1      30.816  33.615  20.764  1.00  0.00     0.177 C 
BRANCH  10  15
ATOM     15  O   UNL     1      32.346  31.072  21.522  1.00  0.00    -0.341 OA
BRANCH  15  16
ATOM     16  C   UNL     1      31.821  29.846  21.768  1.00  0.00     0.184 C 
ATOM     17  C   UNL     1      32.863  28.826  22.110  1.00  0.00     0.178 C 
ATOM     18  O   UNL     1      32.275  27.733  22.761  1.00  0.00    -0.341 OA
ATOM     19  C   UNL     1      31.085  27.360  22.146  1.00  0.00     0.281 C 
ATOM     20  C   UNL     1      31.089  29.252  20.551  1.00  0.00     0.180 C 
ATOM     21  C   UNL     1      31.034  27.748  20.712  1.00  0.00     0.202 C 
BRANCH  17  22
ATOM     22  C   UNL     1      33.896  29.418  23.019  1.00  0.00     0.191 C 
BRANCH  22  23
ATOM     23  O   UNL     1      34.905  29.990  22.241  1.00  0.00    -0.394 OA
ATOM     24  H   UNL     1      35.218  29.294  21.623  1.00  0.00     0.210 HD
ENDBRANCH  22  23
ENDBRANCH  17  22
BRANCH  19  25
ATOM     25  O   UNL     1      29.992  27.826  22.846  1.00  0.00    -0.350 OA
BRANCH  25  26
ATOM     26  C   UNL     1      29.782  27.193  24.064  1.00  0.00     0.169 C 
BRANCH  26  27
ATOM     27  C   UNL     1      29.226  28.246  25.005  1.00  0.00     0.119 C 
BRANCH  27  28
ATOM     28  N   UNL     1      29.762  29.552  24.725  1.00  0.00    -0.092 NA
ATOM     29  N   UNL     1      30.714  29.960  25.403  1.00  0.00     0.001 N 
ATOM     30  N   UNL     1      31.785  30.447  25.766  1.00  0.00    -0.003 NA
ENDBRANCH  27  28
ENDBRANCH  26  27
ENDBRANCH  25  26
ENDBRANCH  19  25
BRANCH  20  31
ATOM     31  O   UNL     1      29.782  29.728  20.612  1.00  0.00    -0.387 OA
ATOM     32  H   UNL     1      29.604  30.480  20.007  1.00  0.00     0.211 HD
ENDBRANCH  20  31
BRANCH  21  33
ATOM     33  O   UNL     1      31.987  27.083  19.940  1.00  0.00    -0.385 OA
ATOM     34  H   UNL     1      32.219  26.254  20.464  1.00  0.00     0.211 HD
ENDBRANCH  21  33
ENDBRANCH  15  16
ENDBRANCH  10  15
BRANCH  12  35
ATOM     35  O   UNL     1      32.614  34.041  23.605  1.00  0.00    -0.385 OA
ATOM     36  H   UNL     1      32.629  33.367  24.348  1.00  0.00     0.211 HD
ENDBRANCH  12  35
BRANCH  13  37
ATOM     37  O   UNL     1      33.035  34.446  20.260  1.00  0.00    -0.387 OA
ATOM     38  H   UNL     1      32.660  35.142  19.673  1.00  0.00     0.211 HD
ENDBRANCH  13  37
BRANCH  14  39
ATOM     39  O   UNL     1      31.133  32.643  19.824  1.00  0.00    -0.387 OA
ATOM     40  H   UNL     1      32.132  32.655  19.752  1.00  0.00     0.211 HD
ENDBRANCH  14  39
ENDBRANCH   8   9
ENDBRANCH   7   8
ENDBRANCH   1   7
BRANCH   1  41
ATOM     41  C   UNL     1      27.509  34.062  19.138  1.00  0.00     0.364 C 
ATOM     42  O   UNL     1      26.784  35.005  19.503  1.00  0.00    -0.246 OA
BRANCH  41  43
ATOM     43  O   UNL     1      28.490  34.359  18.196  1.00  0.00    -0.477 OA
ATOM     44  H   UNL     1      29.280  33.745  18.057  1.00  0.00     0.296 HD
ENDBRANCH  41  43
ENDBRANCH   1  41
BRANCH   3  45
ATOM     45  O   UNL     1      25.664  31.056  22.091  1.00  0.00    -0.391 OA
ATOM     46  H   UNL     1      25.430  30.112  22.273  1.00  0.00     0.211 HD
ENDBRANCH   3  45
BRANCH   5  47
ATOM     47  C   UNL     1      26.952  29.793  17.522  1.00  0.00     0.176 C 
BRANCH  47  48
ATOM     48  O   UNL     1      28.161  29.287  18.057  1.00  0.00    -0.388 OA
ATOM     49  H   UNL     1      28.907  29.896  17.938  1.00  0.00     0.211 HD
ENDBRANCH  47  48
BRANCH  47  50
ATOM     50  C   UNL     1      27.314  30.421  16.217  1.00  0.00     0.165 C 
BRANCH  50  51
ATOM     51  O   UNL     1      26.289  30.222  15.291  1.00  0.00    -0.388 OA
ATOM     52  H   UNL     1      25.439  30.094  15.786  1.00  0.00     0.211 HD
ENDBRANCH  50  51
BRANCH  50  53
ATOM     53  C   UNL     1      28.632  30.021  15.652  1.00  0.00     0.154 C 
BRANCH  53  54
ATOM     54  N   UNL     1      29.566  31.124  15.611  1.00  0.00    -0.319 N 
ATOM     55  C   UNL     1      30.375  31.528  16.699  1.00  0.00     0.407 C 
ATOM     56  H   UNL     1      29.695  31.705  14.727  1.00  0.00     0.167 HD
ATOM     57  O   UNL     1      30.310  30.918  17.783  1.00  0.00    -0.225 OA
BRANCH  55  58
ATOM     58  O   UNL     1      31.260  32.596  16.622  1.00  0.00    -0.443 OA
BRANCH  58  59
ATOM     59  C   UNL     1      31.754  33.090  15.372  1.00  0.00     0.294 C 
BRANCH  59  60
ATOM     60  C   UNL     1      30.784  34.124  14.932  1.00  0.00     0.121 A 
ATOM     61  C   UNL     1      30.248  34.274  13.683  1.00  0.00     0.144 A 
ATOM     62  N   UNL     1      30.242  35.120  15.690  1.00  0.00    -0.131 NA
ATOM     63  N   UNL     1      29.408  35.330  13.686  1.00  0.00    -0.220 N 
ATOM     64  N   UNL     1      29.428  35.821  14.923  1.00  0.00    -0.062 NA
BRANCH  63  65
ATOM     65  C   UNL     1      28.660  35.799  12.574  1.00  0.00     0.067 A 
ATOM     66  C   UNL     1      28.701  35.175  11.350  1.00  0.00     0.039 A 
ATOM     67  C   UNL     1      27.868  36.909  12.732  1.00  0.00     0.029 A 
ATOM     68  C   UNL     1      27.953  35.666  10.306  1.00  0.00     0.007 A 
ATOM     69  C   UNL     1      27.120  37.399  11.683  1.00  0.00     0.012 A 
ATOM     70  C   UNL     1      27.145  36.791  10.449  1.00  0.00    -0.008 A 
BRANCH  68  71
ATOM     71  C   UNL     1      27.973  35.025   8.989  1.00  0.00     0.072 C 
ATOM     72  O   UNL     1      28.827  35.320   8.118  1.00  0.00    -0.545 OA
ATOM     73  O   UNL     1      27.030  34.071   8.692  1.00  0.00    -0.545 OA
ENDBRANCH  68  71
BRANCH  70  74
ATOM     74  C   UNL     1      26.358  37.297   9.339  1.00  0.00     0.004 A 
ATOM     75  C   UNL     1      26.917  38.229   8.500  1.00  0.00     0.026 A 
ATOM     76  C   UNL     1      25.075  36.877   9.102  1.00  0.00     0.026 A 
ATOM     77  C   UNL     1      28.196  38.707   8.661  1.00  0.00     0.016 A 
ATOM     78  C   UNL     1      26.149  38.706   7.444  1.00  0.00     0.139 A 
ATOM     79  C   UNL     1      24.298  37.415   7.964  1.00  0.00     0.139 A 
ATOM     80  C   UNL     1      24.451  35.949   9.897  1.00  0.00     0.016 A 
ATOM     81  C   UNL     1      28.749  39.646   7.810  1.00  0.00     0.047 A 
ATOM     82  C   UNL     1      26.705  39.638   6.603  1.00  0.00     0.093 A 
ATOM     83  O   UNL     1      24.915  38.297   7.223  1.00  0.00    -0.456 OA
ATOM     84  C   UNL     1      23.014  36.992   7.731  1.00  0.00     0.099 A 
ATOM     85  C   UNL     1      23.155  35.532   9.649  1.00  0.00     0.053 A 
ATOM     86  C   UNL     1      27.995  40.125   6.760  1.00  0.00     0.119 A 
ATOM     87  C   UNL     1      22.460  36.058   8.575  1.00  0.00     0.182 A 
ATOM     88  O   UNL     1      21.285  35.638   8.402  1.00  0.00    -0.290 OA
BRANCH  86  89
ATOM     89  O   UNL     1      28.557  41.066   5.911  1.00  0.00    -0.508 OA
ATOM     90  H   UNL     1      28.589  42.023   6.252  1.00  0.00     0.293 HD
ENDBRANCH  86  89
ENDBRANCH  70  74
ENDBRANCH  63  65
ENDBRANCH  59  60
ENDBRANCH  58  59
ENDBRANCH  55  58
ENDBRANCH  53  54
ENDBRANCH  50  53
ENDBRANCH  47  50
ENDBRANCH   5  47
BRANCH   4  91
ATOM     91  N   UNL     1      25.780  28.943  19.921  1.00  0.00    -0.348 N 
ATOM     92  C   UNL     1      26.305  27.998  20.825  1.00  0.00     0.217 C 
ATOM     93  H   UNL     1      24.995  28.647  19.300  1.00  0.00     0.163 HD
ATOM     94  C   UNL     1      25.798  26.608  20.934  1.00  0.00     0.114 C 
ATOM     95  O   UNL     1      27.266  28.299  21.614  1.00  0.00    -0.275 OA
ENDBRANCH   4  91
TORSDOF 33
BEGIN_RES LYS A 131
REMARK  4 active torsions:
REMARK  status: ('A' for Active; 'I' for Inactive)
REMARK    1  A    between atoms: CA   and  CB  
REMARK    2  A    between atoms: CB   and  CG  
REMARK    3  A    between atoms: CG   and  CD  
REMARK    4  A    between atoms: CD   and  CE  
ROOT
ATOM      1  CA  LYS A 131      29.867  25.555  16.977  1.00 20.52     0.186 C 
ENDROOT
BRANCH   1   2
ATOM      2  CB  LYS A 131      28.345  25.722  17.026  1.00 20.94     0.034 C 
BRANCH   2   3
ATOM      3  CG  LYS A 131      27.601  24.401  16.901  1.00 22.96     0.005 C 
BRANCH   3   4
ATOM      4  CD  LYS A 131      26.616  24.197  18.018  1.00 24.33     0.041 C 
BRANCH   4   5
ATOM      5  CE  LYS A 131      25.213  24.541  17.529  1.00 26.91     0.338 C 
ATOM      6  NZ  LYS A 131      24.456  23.306  17.216  1.00 27.40     0.618 N 
ENDBRANCH   4   5
ENDBRANCH   3   4
ENDBRANCH   2   3
ENDBRANCH   1   2
END_RES LYS A 131
BEGIN_RES LYS A 135
REMARK  4 active torsions:
REMARK  status: ('A' for Active; 'I' for Inactive)
REMARK    5  A    between atoms: CA   and  CB  
REMARK    6  A    between atoms: CB   and  CG  
REMARK    7  A    between atoms: CG   and  CD  
REMARK    8  A    between atoms: CD   and  CE  
ROOT
ATOM      7  CA  LYS A 135      33.193  34.663   9.290  1.00 25.02     0.186 C 
ENDROOT
BRANCH   7   8
ATOM      8  CB  LYS A 135      32.060  35.360  10.034  1.00 26.63     0.034 C 
BRANCH   8   9
ATOM      9  CG  LYS A 135      32.495  36.008  11.323  1.00 29.45     0.005 C 
BRANCH   9  10
ATOM     10  CD  LYS A 135      31.849  37.376  11.481  1.00 32.00     0.041 C 
BRANCH  10  11
ATOM     11  CE  LYS A 135      31.299  37.861  10.154  1.00 34.25     0.338 C 
ATOM     12  NZ  LYS A 135      32.105  38.995   9.622  1.00 35.99     0.618 N 
ENDBRANCH  10  11
ENDBRANCH   9  10
ENDBRANCH   8   9
ENDBRANCH   7   8
END_RES LYS A 135
