REMARK VINA RESULT:    -3.696      2.687      8.576
REMARK INTER + INTRA:         -22.036
REMARK INTER:                 -11.106
REMARK INTRA:                 -10.930
REMARK UNBOUND:               -11.857
REMARK SMILES CC[N+](C)(CC)CCCn1cc(COC(=O)NC[C@@H](O)C(O)[C@@H]2O[C@@](OC[C@H]3O[C@@H](O[C@H]4[C@H](O)[C@@H](O)[C@H](OCCN=[N+]=[N-])O[C@@H]4CO)[C@H](O)[C@@H](O)[C@H]3O)(C(=O)O)C[C@H](O)[C@H]2NC(C)=O)nn1
REMARK SMILES IDX 21 1 23 2 25 3 57 4 24 5 58 6 60 7 26 8 27 9 28 10 30 11
REMARK SMILES IDX 29 12 48 13 50 14 52 15 31 16 32 17 45 18 44 19 37 20 33 21
REMARK SMILES IDX 35 22 46 23 47 24 38 26 39 27 40 28 41 29 42 30 43 31 34 32
REMARK SMILES IDX 36 34 49 36 51 38 53 40 54 42 55 43 56 44 59 46 61 48 62 49
REMARK SMILES IDX 63 51 64 52 22 53 19 55 20 56 18 58 17 59 15 60 16 62 14 63
REMARK SMILES IDX 13 64 12 65 11 66 65 67 10 68 66 69 9 70 8 71 7 72 3 73 4 74
REMARK SMILES IDX 2 75 1 76 5 77 6 78
REMARK H PARENT 47 25 34 33 36 35 49 37 51 39 53 41 56 45 59 47 61 50 22 54
REMARK H PARENT 20 57 17 61
REMARK Flexibility Score: inf
ROOT
ATOM      1  C   UNL     1      29.042  35.328  12.968  1.00  0.00     0.176 C 
ENDROOT
BRANCH   1   2
ATOM      2  C   UNL     1      30.391  35.808  13.495  1.00  0.00     0.178 C 
ATOM      3  C   UNL     1      31.817  35.480  15.346  1.00  0.00     0.272 C 
ATOM      4  C   UNL     1      32.184  36.907  15.107  1.00  0.00     0.113 C 
ATOM      5  O   UNL     1      30.523  35.318  14.776  1.00  0.00    -0.332 OA
ATOM      6  C   UNL     1      30.991  37.765  14.778  1.00  0.00     0.145 C 
ATOM      7  C   UNL     1      30.437  37.301  13.434  1.00  0.00     0.142 C 
BRANCH   3   8
ATOM      8  O   UNL     1      31.608  35.167  16.673  1.00  0.00    -0.338 OA
BRANCH   8   9
ATOM      9  C   UNL     1      30.641  34.303  17.024  1.00  0.00     0.199 C 
BRANCH   9  10
ATOM     10  C   UNL     1      29.850  34.822  18.253  1.00  0.00     0.179 C 
ATOM     11  C   UNL     1      27.894  33.508  18.163  1.00  0.00     0.282 C 
ATOM     12  O   UNL     1      28.521  34.746  18.101  1.00  0.00    -0.341 OA
ATOM     13  C   UNL     1      28.548  32.545  19.079  1.00  0.00     0.202 C 
ATOM     14  C   UNL     1      29.188  33.416  20.182  1.00  0.00     0.179 C 
ATOM     15  C   UNL     1      30.356  34.088  19.495  1.00  0.00     0.177 C 
BRANCH  11  16
ATOM     16  O   UNL     1      27.609  33.039  16.873  1.00  0.00    -0.341 OA
BRANCH  16  17
ATOM     17  C   UNL     1      27.421  31.689  16.831  1.00  0.00     0.184 C 
ATOM     18  C   UNL     1      28.140  30.872  15.848  1.00  0.00     0.178 C 
ATOM     19  O   UNL     1      28.012  29.535  16.175  1.00  0.00    -0.341 OA
ATOM     20  C   UNL     1      27.003  29.139  16.977  1.00  0.00     0.281 C 
ATOM     21  C   UNL     1      25.924  31.363  16.617  1.00  0.00     0.180 C 
ATOM     22  C   UNL     1      25.703  29.898  16.886  1.00  0.00     0.202 C 
BRANCH  18  23
ATOM     23  C   UNL     1      29.619  31.162  15.683  1.00  0.00     0.191 C 
BRANCH  23  24
ATOM     24  O   UNL     1      29.885  32.180  14.777  1.00  0.00    -0.394 OA
ATOM     25  H   UNL     1      30.886  32.173  14.636  1.00  0.00     0.210 HD
ENDBRANCH  23  24
ENDBRANCH  18  23
BRANCH  20  26
ATOM     26  O   UNL     1      27.431  28.976  18.282  1.00  0.00    -0.350 OA
BRANCH  26  27
ATOM     27  C   UNL     1      27.195  27.764  18.841  1.00  0.00     0.169 C 
BRANCH  27  28
ATOM     28  C   UNL     1      28.177  27.390  19.932  1.00  0.00     0.119 C 
BRANCH  28  29
ATOM     29  N   UNL     1      27.772  28.016  21.180  1.00  0.00    -0.092 NA
ATOM     30  N   UNL     1      28.340  28.998  21.651  1.00  0.00     0.001 N 
ATOM     31  N   UNL     1      28.880  29.998  22.130  1.00  0.00    -0.003 NA
ENDBRANCH  28  29
ENDBRANCH  27  28
ENDBRANCH  26  27
ENDBRANCH  20  26
BRANCH  21  32
ATOM     32  O   UNL     1      25.213  32.224  17.419  1.00  0.00    -0.387 OA
ATOM     33  H   UNL     1      24.304  32.411  17.137  1.00  0.00     0.211 HD
ENDBRANCH  21  32
BRANCH  22  34
ATOM     34  O   UNL     1      24.846  29.391  15.922  1.00  0.00    -0.385 OA
ATOM     35  H   UNL     1      24.389  30.089  15.382  1.00  0.00     0.211 HD
ENDBRANCH  22  34
ENDBRANCH  16  17
ENDBRANCH  11  16
BRANCH  13  36
ATOM     36  O   UNL     1      27.650  31.695  19.743  1.00  0.00    -0.385 OA
ATOM     37  H   UNL     1      26.961  31.440  19.092  1.00  0.00     0.211 HD
ENDBRANCH  13  36
BRANCH  14  38
ATOM     38  O   UNL     1      29.635  32.597  21.219  1.00  0.00    -0.387 OA
ATOM     39  H   UNL     1      28.926  31.945  21.391  1.00  0.00     0.211 HD
ENDBRANCH  14  38
BRANCH  15  40
ATOM     40  O   UNL     1      31.181  33.059  19.047  1.00  0.00    -0.387 OA
ATOM     41  H   UNL     1      31.324  32.336  19.676  1.00  0.00     0.211 HD
ENDBRANCH  15  40
ENDBRANCH   9  10
ENDBRANCH   8   9
ENDBRANCH   3   8
BRANCH   3  42
ATOM     42  C   UNL     1      32.735  34.499  14.744  1.00  0.00     0.364 C 
ATOM     43  O   UNL     1      33.814  34.843  14.212  1.00  0.00    -0.246 OA
BRANCH  42  44
ATOM     44  O   UNL     1      32.434  33.158  14.743  1.00  0.00    -0.477 OA
ATOM     45  H   UNL     1      32.270  32.620  15.593  1.00  0.00     0.296 HD
ENDBRANCH  42  44
ENDBRANCH   3  42
BRANCH   6  46
ATOM     46  O   UNL     1      29.996  37.710  15.725  1.00  0.00    -0.391 OA
ATOM     47  H   UNL     1      30.368  37.690  16.660  1.00  0.00     0.211 HD
ENDBRANCH   6  46
BRANCH   7  48
ATOM     48  N   UNL     1      31.462  37.701  12.454  1.00  0.00    -0.348 N 
ATOM     49  C   UNL     1      31.120  38.419  11.274  1.00  0.00     0.217 C 
ATOM     50  H   UNL     1      32.473  37.481  12.563  1.00  0.00     0.163 HD
ATOM     51  C   UNL     1      32.119  38.844  10.262  1.00  0.00     0.114 C 
ATOM     52  O   UNL     1      29.925  38.705  11.086  1.00  0.00    -0.275 OA
ENDBRANCH   7  48
ENDBRANCH   1   2
BRANCH   1  53
ATOM     53  O   UNL     1      28.633  36.213  11.912  1.00  0.00    -0.388 OA
ATOM     54  H   UNL     1      27.646  36.291  11.985  1.00  0.00     0.211 HD
ENDBRANCH   1  53
BRANCH   1  55
ATOM     55  C   UNL     1      27.989  35.423  14.023  1.00  0.00     0.165 C 
BRANCH  55  56
ATOM     56  O   UNL     1      27.629  34.029  14.244  1.00  0.00    -0.388 OA
ATOM     57  H   UNL     1      27.431  33.636  13.339  1.00  0.00     0.211 HD
ENDBRANCH  55  56
BRANCH  55  58
ATOM     58  C   UNL     1      26.740  36.152  13.692  1.00  0.00     0.154 C 
BRANCH  58  59
ATOM     59  N   UNL     1      25.589  35.514  13.239  1.00  0.00    -0.319 N 
ATOM     60  C   UNL     1      25.236  35.168  11.913  1.00  0.00     0.407 C 
ATOM     61  H   UNL     1      24.841  35.236  13.999  1.00  0.00     0.167 HD
ATOM     62  O   UNL     1      25.951  35.402  10.927  1.00  0.00    -0.225 OA
BRANCH  60  63
ATOM     63  O   UNL     1      23.999  34.526  11.659  1.00  0.00    -0.443 OA
BRANCH  63  64
ATOM     64  C   UNL     1      22.821  35.353  11.704  1.00  0.00     0.294 C 
BRANCH  64  65
ATOM     65  C   UNL     1      22.047  34.772  12.863  1.00  0.00     0.120 A 
ATOM     66  C   UNL     1      22.512  33.879  13.800  1.00  0.00     0.138 A 
ATOM     67  N   UNL     1      20.792  35.037  13.241  1.00  0.00    -0.132 NA
ATOM     68  N   UNL     1      21.519  33.639  14.715  1.00  0.00    -0.252 N 
ATOM     69  N   UNL     1      20.485  34.366  14.332  1.00  0.00    -0.067 NA
BRANCH  68  70
ATOM     70  C   UNL     1      21.634  32.787  15.885  1.00  0.00     0.152 C 
BRANCH  70  71
ATOM     71  C   UNL     1      22.025  31.412  15.554  1.00  0.00     0.085 C 
BRANCH  71  72
ATOM     72  C   UNL     1      21.066  30.490  14.923  1.00  0.00     0.265 C 
BRANCH  72  73
ATOM     73  N   UNL     1      21.448  29.803  13.735  1.00  0.00    -0.326 N 
ATOM     74  C   UNL     1      21.540  28.390  13.983  1.00  0.00     0.334 C 
BRANCH  73  75
ATOM     75  C   UNL     1      22.632  30.291  13.086  1.00  0.00     0.260 C 
ATOM     76  C   UNL     1      23.576  29.188  12.667  1.00  0.00     0.071 C 
ENDBRANCH  73  75
BRANCH  73  77
ATOM     77  C   UNL     1      20.322  29.958  12.799  1.00  0.00     0.260 C 
ATOM     78  C   UNL     1      20.165  31.337  12.264  1.00  0.00     0.071 C 
ENDBRANCH  73  77
ENDBRANCH  72  73
ENDBRANCH  71  72
ENDBRANCH  70  71
ENDBRANCH  68  70
ENDBRANCH  64  65
ENDBRANCH  63  64
ENDBRANCH  60  63
ENDBRANCH  58  59
ENDBRANCH  55  58
ENDBRANCH   1  55
TORSDOF 35
BEGIN_RES LYS A 131
REMARK  4 active torsions:
REMARK  status: ('A' for Active; 'I' for Inactive)
REMARK    1  A    between atoms: CA   and  CB  
REMARK    2  A    between atoms: CB   and  CG  
REMARK    3  A    between atoms: CG   and  CD  
REMARK    4  A    between atoms: CD   and  CE  
ROOT
ATOM      1  CA  LYS A 131      29.867  25.555  16.977  1.00 20.52     0.186 C 
ENDROOT
BRANCH   1   2
ATOM      2  CB  LYS A 131      28.345  25.722  17.026  1.00 20.94     0.034 C 
BRANCH   2   3
ATOM      3  CG  LYS A 131      27.603  24.396  16.966  1.00 22.96     0.005 C 
BRANCH   3   4
ATOM      4  CD  LYS A 131      26.113  24.576  17.056  1.00 24.33     0.041 C 
BRANCH   4   5
ATOM      5  CE  LYS A 131      25.494  23.361  17.740  1.00 26.91     0.338 C 
ATOM      6  NZ  LYS A 131      25.770  23.389  19.196  1.00 27.40     0.618 N 
ENDBRANCH   4   5
ENDBRANCH   3   4
ENDBRANCH   2   3
ENDBRANCH   1   2
END_RES LYS A 131
BEGIN_RES LYS A 135
REMARK  4 active torsions:
REMARK  status: ('A' for Active; 'I' for Inactive)
REMARK    5  A    between atoms: CA   and  CB  
REMARK    6  A    between atoms: CB   and  CG  
REMARK    7  A    between atoms: CG   and  CD  
REMARK    8  A    between atoms: CD   and  CE  
ROOT
ATOM      7  CA  LYS A 135      33.193  34.663   9.290  1.00 25.02     0.186 C 
ENDROOT
BRANCH   7   8
ATOM      8  CB  LYS A 135      32.060  35.360  10.034  1.00 26.63     0.034 C 
BRANCH   8   9
ATOM      9  CG  LYS A 135      30.771  35.415   9.255  1.00 29.45     0.005 C 
BRANCH   9  10
ATOM     10  CD  LYS A 135      30.195  34.019   9.072  1.00 32.00     0.041 C 
BRANCH  10  11
ATOM     11  CE  LYS A 135      28.680  34.056   9.134  1.00 34.25     0.338 C 
ATOM     12  NZ  LYS A 135      28.116  34.839   7.999  1.00 35.99     0.618 N 
ENDBRANCH  10  11
ENDBRANCH   9  10
ENDBRANCH   8   9
ENDBRANCH   7   8
END_RES LYS A 135
