REMARK VINA RESULT:    -6.949      2.873      8.213
REMARK INTER + INTRA:         -20.565
REMARK INTER:                  -9.081
REMARK INTRA:                 -11.484
REMARK UNBOUND:                -1.022
REMARK SMILES CC(=O)N[C@@H]1[C@@H](O)C[C@](OC[C@H]2O[C@@H](O[C@H]3[C@H](O)[C@@H](O)[C@H](OCCN=[N+]=[N-])O[C@@H]3CO)[C@H](O)[C@@H](O)[C@H]2O)(C(=O)O)O[C@H]1C(O)[C@H](O)CNC(=O)OCc1cn(C2CC(O)C=C[C@@H](O)C2)nn1
REMARK SMILES IDX 43 1 42 2 9 3 8 4 41 5 6 6 5 7 10 8 11 9 12 10 14 11 13 12
REMARK SMILES IDX 32 13 34 14 36 15 15 16 16 17 29 18 28 19 21 20 17 21 19 22
REMARK SMILES IDX 30 23 31 24 22 26 23 27 24 28 25 29 26 30 27 31 18 32 20 34
REMARK SMILES IDX 33 36 35 38 37 40 38 42 39 43 40 44 7 46 4 48 2 49 1 51 3 52
REMARK SMILES IDX 44 53 45 55 46 56 47 58 48 59 49 60 50 62 51 63 52 64 53 65
REMARK SMILES IDX 54 66 66 67 55 68 65 69 56 70 57 71 58 72 59 74 64 76 62 77
REMARK SMILES IDX 61 78 60 79 63 81
REMARK H PARENT 31 25 18 33 20 35 33 37 35 39 37 41 40 45 7 47 4 50 44 54
REMARK H PARENT 46 57 48 61 59 75 63 82
REMARK Flexibility Score: 90.00
ROOT
ATOM      1  C   UNL     1      30.115  33.627  16.330  1.00  0.00     0.176 C 
ENDROOT
BRANCH   1   2
ATOM      2  C   UNL     1      29.203  32.730  17.148  1.00  0.00     0.178 C 
ATOM      3  C   UNL     1      27.394  31.290  16.710  1.00  0.00     0.272 C 
ATOM      4  C   UNL     1      26.975  31.315  18.135  1.00  0.00     0.113 C 
ATOM      5  O   UNL     1      28.212  32.248  16.245  1.00  0.00    -0.332 OA
ATOM      6  C   UNL     1      27.851  32.113  19.030  1.00  0.00     0.145 C 
ATOM      7  C   UNL     1      28.452  33.328  18.257  1.00  0.00     0.142 C 
BRANCH   3   8
ATOM      8  O   UNL     1      26.234  31.167  15.919  1.00  0.00    -0.338 OA
BRANCH   8   9
ATOM      9  C   UNL     1      25.278  30.337  16.427  1.00  0.00     0.199 C 
BRANCH   9  10
ATOM     10  C   UNL     1      23.878  30.904  16.187  1.00  0.00     0.179 C 
ATOM     11  C   UNL     1      23.132  32.758  15.031  1.00  0.00     0.282 C 
ATOM     12  O   UNL     1      23.996  32.244  15.999  1.00  0.00    -0.341 OA
ATOM     13  C   UNL     1      23.604  32.133  13.732  1.00  0.00     0.202 C 
ATOM     14  C   UNL     1      23.159  30.688  13.779  1.00  0.00     0.179 C 
ATOM     15  C   UNL     1      23.124  30.127  15.164  1.00  0.00     0.177 C 
BRANCH  11  16
ATOM     16  O   UNL     1      23.206  34.131  15.048  1.00  0.00    -0.341 OA
BRANCH  16  17
ATOM     17  C   UNL     1      24.175  34.538  15.969  1.00  0.00     0.184 C 
ATOM     18  C   UNL     1      23.554  35.422  17.021  1.00  0.00     0.178 C 
ATOM     19  O   UNL     1      23.282  36.701  16.606  1.00  0.00    -0.341 OA
ATOM     20  C   UNL     1      23.761  37.002  15.333  1.00  0.00     0.281 C 
ATOM     21  C   UNL     1      25.372  35.171  15.314  1.00  0.00     0.180 C 
ATOM     22  C   UNL     1      25.246  36.669  15.250  1.00  0.00     0.202 C 
BRANCH  18  23
ATOM     23  C   UNL     1      24.418  35.455  18.275  1.00  0.00     0.191 C 
BRANCH  23  24
ATOM     24  O   UNL     1      25.057  34.251  18.500  1.00  0.00    -0.394 OA
ATOM     25  H   UNL     1      26.009  34.283  18.317  1.00  0.00     0.210 HD
ENDBRANCH  23  24
ENDBRANCH  18  23
BRANCH  20  26
ATOM     26  O   UNL     1      23.564  38.368  15.161  1.00  0.00    -0.350 OA
BRANCH  26  27
ATOM     27  C   UNL     1      22.235  38.664  15.445  1.00  0.00     0.169 C 
BRANCH  27  28
ATOM     28  C   UNL     1      21.401  38.727  14.177  1.00  0.00     0.119 C 
BRANCH  28  29
ATOM     29  N   UNL     1      20.174  37.972  14.329  1.00  0.00    -0.092 NA
ATOM     30  N   UNL     1      20.227  36.731  14.314  1.00  0.00     0.001 N 
ATOM     31  N   UNL     1      20.402  35.512  14.179  1.00  0.00    -0.003 NA
ENDBRANCH  28  29
ENDBRANCH  27  28
ENDBRANCH  26  27
ENDBRANCH  20  26
BRANCH  21  32
ATOM     32  O   UNL     1      26.537  34.824  15.996  1.00  0.00    -0.387 OA
ATOM     33  H   UNL     1      27.337  35.248  15.602  1.00  0.00     0.211 HD
ENDBRANCH  21  32
BRANCH  22  34
ATOM     34  O   UNL     1      25.766  37.165  14.060  1.00  0.00    -0.385 OA
ATOM     35  H   UNL     1      26.572  37.719  14.231  1.00  0.00     0.211 HD
ENDBRANCH  22  34
ENDBRANCH  16  17
ENDBRANCH  11  16
BRANCH  13  36
ATOM     36  O   UNL     1      23.127  32.743  12.603  1.00  0.00    -0.385 OA
ATOM     37  H   UNL     1      23.802  33.082  11.995  1.00  0.00     0.211 HD
ENDBRANCH  13  36
BRANCH  14  38
ATOM     38  O   UNL     1      24.007  29.980  12.928  1.00  0.00    -0.387 OA
ATOM     39  H   UNL     1      24.874  29.778  13.377  1.00  0.00     0.211 HD
ENDBRANCH  14  38
BRANCH  15  40
ATOM     40  O   UNL     1      23.653  28.821  15.167  1.00  0.00    -0.387 OA
ATOM     41  H   UNL     1      24.530  28.759  15.571  1.00  0.00     0.211 HD
ENDBRANCH  15  40
ENDBRANCH   9  10
ENDBRANCH   8   9
ENDBRANCH   3   8
BRANCH   3  42
ATOM     42  C   UNL     1      28.129  29.980  16.522  1.00  0.00     0.364 C 
ATOM     43  O   UNL     1      28.746  29.698  15.461  1.00  0.00    -0.246 OA
BRANCH  42  44
ATOM     44  O   UNL     1      28.105  29.076  17.571  1.00  0.00    -0.477 OA
ATOM     45  H   UNL     1      27.337  29.067  18.242  1.00  0.00     0.296 HD
ENDBRANCH  42  44
ENDBRANCH   3  42
BRANCH   6  46
ATOM     46  O   UNL     1      27.179  32.550  20.145  1.00  0.00    -0.391 OA
ATOM     47  H   UNL     1      26.951  31.791  20.723  1.00  0.00     0.211 HD
ENDBRANCH   6  46
BRANCH   7  48
ATOM     48  N   UNL     1      29.067  34.195  19.185  1.00  0.00    -0.348 N 
ATOM     49  C   UNL     1      28.643  35.544  19.292  1.00  0.00     0.217 C 
ATOM     50  H   UNL     1      29.811  33.859  19.824  1.00  0.00     0.163 HD
ATOM     51  C   UNL     1      29.275  36.475  20.263  1.00  0.00     0.114 C 
ATOM     52  O   UNL     1      27.718  35.963  18.555  1.00  0.00    -0.275 OA
ENDBRANCH   7  48
ENDBRANCH   1   2
BRANCH   1  53
ATOM     53  O   UNL     1      29.285  34.829  16.237  1.00  0.00    -0.388 OA
ATOM     54  H   UNL     1      28.661  34.819  17.028  1.00  0.00     0.211 HD
ENDBRANCH   1  53
BRANCH   1  55
ATOM     55  C   UNL     1      30.229  33.237  14.884  1.00  0.00     0.165 C 
BRANCH  55  56
ATOM     56  O   UNL     1      31.134  32.223  14.686  1.00  0.00    -0.388 OA
ATOM     57  H   UNL     1      30.742  31.323  14.718  1.00  0.00     0.211 HD
ENDBRANCH  55  56
BRANCH  55  58
ATOM     58  C   UNL     1      30.707  34.416  14.043  1.00  0.00     0.154 C 
BRANCH  58  59
ATOM     59  N   UNL     1      29.968  34.612  12.838  1.00  0.00    -0.319 N 
ATOM     60  C   UNL     1      28.798  35.418  12.770  1.00  0.00     0.407 C 
ATOM     61  H   UNL     1      30.291  34.142  11.940  1.00  0.00     0.167 HD
ATOM     62  O   UNL     1      28.422  35.969  13.844  1.00  0.00    -0.225 OA
BRANCH  60  63
ATOM     63  O   UNL     1      28.127  35.574  11.578  1.00  0.00    -0.443 OA
BRANCH  63  64
ATOM     64  C   UNL     1      27.361  34.503  11.032  1.00  0.00     0.294 C 
BRANCH  64  65
ATOM     65  C   UNL     1      25.934  34.887  11.101  1.00  0.00     0.120 A 
ATOM     66  C   UNL     1      25.097  35.241  10.074  1.00  0.00     0.138 A 
ATOM     67  N   UNL     1      25.201  34.957  12.226  1.00  0.00    -0.132 NA
ATOM     68  N   UNL     1      23.883  35.518  10.613  1.00  0.00    -0.249 N 
ATOM     69  N   UNL     1      23.980  35.336  11.914  1.00  0.00    -0.067 NA
BRANCH  68  70
ATOM     70  C   UNL     1      22.680  35.946   9.886  1.00  0.00     0.115 C 
BRANCH  70  71
ATOM     71  C   UNL     1      21.765  36.632  10.843  1.00  0.00     0.063 C 
BRANCH  71  72
ATOM     72  C   UNL     1      20.324  36.491  10.341  1.00  0.00     0.139 CG0
ATOM     73  G   UNL     1      20.121  37.402   9.203  1.00  0.00     0.000 G0
BRANCH  72  74
ATOM     74  O   UNL     1      19.432  36.763  11.375  1.00  0.00    -0.389 OA
ATOM     75  H   UNL     1      19.621  37.687  11.706  1.00  0.00     0.211 HD
ENDBRANCH  72  74
ENDBRANCH  71  72
ENDBRANCH  70  71
BRANCH  70  76
ATOM     76  C   UNL     1      23.097  36.862   8.778  1.00  0.00     0.063 C 
BRANCH  76  77
ATOM     77  C   UNL     1      22.023  36.750   7.690  1.00  0.00     0.139 C 
BRANCH  77  78
ATOM     78  C   UNL     1      20.836  37.558   8.077  1.00  0.00     0.002 C 
ATOM     79  C   UNL     1      20.131  37.428   9.191  1.00  0.00     0.002 CG0
ATOM     80  G   UNL     1      20.309  36.491  10.313  1.00  0.00     0.000 G0
ENDBRANCH  77  78
BRANCH  77  81
ATOM     81  O   UNL     1      22.511  37.125   6.448  1.00  0.00    -0.389 OA
ATOM     82  H   UNL     1      21.726  37.354   5.876  1.00  0.00     0.211 HD
ENDBRANCH  77  81
ENDBRANCH  76  77
ENDBRANCH  70  76
ENDBRANCH  68  70
ENDBRANCH  64  65
ENDBRANCH  63  64
ENDBRANCH  60  63
ENDBRANCH  58  59
ENDBRANCH  55  58
ENDBRANCH   1  55
TORSDOF 32
BEGIN_RES LYS A 131
REMARK  4 active torsions:
REMARK  status: ('A' for Active; 'I' for Inactive)
REMARK    1  A    between atoms: CA   and  CB  
REMARK    2  A    between atoms: CB   and  CG  
REMARK    3  A    between atoms: CG   and  CD  
REMARK    4  A    between atoms: CD   and  CE  
ROOT
ATOM      1  CA  LYS A 131      29.867  25.555  16.977  1.00 20.52     0.186 C 
ENDROOT
BRANCH   1   2
ATOM      2  CB  LYS A 131      28.345  25.722  17.026  1.00 20.94     0.034 C 
BRANCH   2   3
ATOM      3  CG  LYS A 131      27.602  24.398  16.938  1.00 22.96     0.005 C 
BRANCH   3   4
ATOM      4  CD  LYS A 131      26.456  24.326  17.908  1.00 24.33     0.041 C 
BRANCH   4   5
ATOM      5  CE  LYS A 131      25.370  23.413  17.347  1.00 26.91     0.338 C 
ATOM      6  NZ  LYS A 131      24.189  24.206  16.931  1.00 27.40     0.618 N 
ENDBRANCH   4   5
ENDBRANCH   3   4
ENDBRANCH   2   3
ENDBRANCH   1   2
END_RES LYS A 131
BEGIN_RES LYS A 135
REMARK  4 active torsions:
REMARK  status: ('A' for Active; 'I' for Inactive)
REMARK    5  A    between atoms: CA   and  CB  
REMARK    6  A    between atoms: CB   and  CG  
REMARK    7  A    between atoms: CG   and  CD  
REMARK    8  A    between atoms: CD   and  CE  
ROOT
ATOM      7  CA  LYS A 135      33.193  34.663   9.290  1.00 25.02     0.186 C 
ENDROOT
BRANCH   7   8
ATOM      8  CB  LYS A 135      32.060  35.360  10.034  1.00 26.63     0.034 C 
BRANCH   8   9
ATOM      9  CG  LYS A 135      30.756  35.363   9.279  1.00 29.45     0.005 C 
BRANCH   9  10
ATOM     10  CD  LYS A 135      30.043  36.697   9.444  1.00 32.00     0.041 C 
BRANCH  10  11
ATOM     11  CE  LYS A 135      29.500  37.179   8.112  1.00 34.25     0.338 C 
ATOM     12  NZ  LYS A 135      29.036  36.036   7.277  1.00 35.99     0.618 N 
ENDBRANCH  10  11
ENDBRANCH   9  10
ENDBRANCH   8   9
ENDBRANCH   7   8
END_RES LYS A 135
