REMARK VINA RESULT:    -4.858      6.054     11.776
REMARK INTER + INTRA:         -24.308
REMARK INTER:                 -12.092
REMARK INTRA:                 -12.215
REMARK UNBOUND:               -11.071
REMARK SMILES CC(=O)N[C@@H]1[C@@H](O)C[C@](OC[C@H]2O[C@@H](O[C@H]3[C@H](O)[C@@H](O)[C@H](OCCN=[N+]=[N-])O[C@@H]3CO)[C@H](O)[C@@H](O)[C@H]2O)(C(=O)O)O[C@H]1C(O)[C@H](O)CNC(=O)OCc1cn(CC(O)CCc2ccccc2)nn1
REMARK SMILES IDX 43 1 42 2 9 3 8 4 41 5 6 6 5 7 10 8 11 9 12 10 14 11 13 12
REMARK SMILES IDX 32 13 34 14 36 15 15 16 16 17 29 18 28 19 21 20 17 21 19 22
REMARK SMILES IDX 30 23 31 24 22 26 23 27 24 28 25 29 26 30 27 31 18 32 20 34
REMARK SMILES IDX 33 36 35 38 37 40 38 42 39 43 40 44 7 46 4 48 2 49 1 51 3 52
REMARK SMILES IDX 44 53 45 55 46 56 47 58 48 59 49 60 50 62 51 63 52 64 53 65
REMARK SMILES IDX 54 66 68 67 55 68 67 69 56 70 57 71 58 72 59 74 60 75 61 76
REMARK SMILES IDX 62 77 66 78 63 79 65 80 64 81
REMARK H PARENT 31 25 18 33 20 35 33 37 35 39 37 41 40 45 7 47 4 50 44 54
REMARK H PARENT 46 57 48 61 58 73
REMARK Flexibility Score: inf
ROOT
ATOM      1  C   UNL     1      28.852  36.942  17.195  1.00  0.00     0.176 C 
ENDROOT
BRANCH   1   2
ATOM      2  C   UNL     1      29.530  36.552  15.868  1.00  0.00     0.178 C 
ATOM      3  C   UNL     1      31.250  34.947  15.562  1.00  0.00     0.272 C 
ATOM      4  C   UNL     1      32.213  36.032  15.916  1.00  0.00     0.113 C 
ATOM      5  O   UNL     1      29.995  35.306  15.975  1.00  0.00    -0.332 OA
ATOM      6  C   UNL     1      31.843  37.315  15.264  1.00  0.00     0.145 C 
ATOM      7  C   UNL     1      30.398  37.673  15.439  1.00  0.00     0.142 C 
BRANCH   3   8
ATOM      8  O   UNL     1      31.654  33.720  16.125  1.00  0.00    -0.338 OA
BRANCH   8   9
ATOM      9  C   UNL     1      31.434  32.612  15.388  1.00  0.00     0.199 C 
BRANCH   9  10
ATOM     10  C   UNL     1      30.606  31.570  16.177  1.00  0.00     0.179 C 
ATOM     11  C   UNL     1      29.672  31.050  18.178  1.00  0.00     0.282 C 
ATOM     12  O   UNL     1      30.557  31.845  17.496  1.00  0.00    -0.341 OA
ATOM     13  C   UNL     1      28.284  31.382  17.562  1.00  0.00     0.202 C 
ATOM     14  C   UNL     1      28.332  30.616  16.236  1.00  0.00     0.179 C 
ATOM     15  C   UNL     1      29.348  31.362  15.416  1.00  0.00     0.177 C 
BRANCH  11  16
ATOM     16  O   UNL     1      29.620  31.374  19.487  1.00  0.00    -0.341 OA
BRANCH  16  17
ATOM     17  C   UNL     1      29.784  32.685  19.870  1.00  0.00     0.184 C 
ATOM     18  C   UNL     1      31.052  32.938  20.615  1.00  0.00     0.178 C 
ATOM     19  O   UNL     1      30.949  33.493  21.852  1.00  0.00    -0.341 OA
ATOM     20  C   UNL     1      29.912  34.342  22.097  1.00  0.00     0.281 C 
ATOM     21  C   UNL     1      28.514  33.108  20.550  1.00  0.00     0.180 C 
ATOM     22  C   UNL     1      28.633  33.552  21.962  1.00  0.00     0.202 C 
BRANCH  18  23
ATOM     23  C   UNL     1      31.947  33.833  19.786  1.00  0.00     0.191 C 
BRANCH  23  24
ATOM     24  O   UNL     1      31.230  34.482  18.783  1.00  0.00    -0.394 OA
ATOM     25  H   UNL     1      30.930  33.761  18.152  1.00  0.00     0.210 HD
ENDBRANCH  23  24
ENDBRANCH  18  23
BRANCH  20  26
ATOM     26  O   UNL     1      29.918  35.487  21.316  1.00  0.00    -0.350 OA
BRANCH  26  27
ATOM     27  C   UNL     1      30.640  36.490  21.965  1.00  0.00     0.169 C 
BRANCH  27  28
ATOM     28  C   UNL     1      30.677  37.687  21.016  1.00  0.00     0.119 C 
BRANCH  28  29
ATOM     29  N   UNL     1      31.127  37.302  19.706  1.00  0.00    -0.092 NA
ATOM     30  N   UNL     1      32.223  37.731  19.289  1.00  0.00     0.001 N 
ATOM     31  N   UNL     1      33.155  38.381  18.778  1.00  0.00    -0.003 NA
ENDBRANCH  28  29
ENDBRANCH  27  28
ENDBRANCH  26  27
ENDBRANCH  20  26
BRANCH  21  32
ATOM     32  O   UNL     1      27.896  34.183  19.856  1.00  0.00    -0.387 OA
ATOM     33  H   UNL     1      27.211  34.630  20.404  1.00  0.00     0.211 HD
ENDBRANCH  21  32
BRANCH  22  34
ATOM     34  O   UNL     1      28.719  32.457  22.828  1.00  0.00    -0.385 OA
ATOM     35  H   UNL     1      29.176  32.678  23.664  1.00  0.00     0.211 HD
ENDBRANCH  22  34
ENDBRANCH  16  17
ENDBRANCH  11  16
BRANCH  13  36
ATOM     36  O   UNL     1      27.240  31.041  18.355  1.00  0.00    -0.385 OA
ATOM     37  H   UNL     1      26.341  31.166  18.008  1.00  0.00     0.211 HD
ENDBRANCH  13  36
BRANCH  14  38
ATOM     38  O   UNL     1      27.079  30.588  15.630  1.00  0.00    -0.387 OA
ATOM     39  H   UNL     1      26.372  30.741  16.296  1.00  0.00     0.211 HD
ENDBRANCH  14  38
BRANCH  15  40
ATOM     40  O   UNL     1      28.769  32.597  15.102  1.00  0.00    -0.387 OA
ATOM     41  H   UNL     1      28.061  32.835  15.745  1.00  0.00     0.211 HD
ENDBRANCH  15  40
ENDBRANCH   9  10
ENDBRANCH   8   9
ENDBRANCH   3   8
BRANCH   3  42
ATOM     42  C   UNL     1      31.325  34.693  14.102  1.00  0.00     0.364 C 
ATOM     43  O   UNL     1      30.249  34.586  13.448  1.00  0.00    -0.246 OA
BRANCH  42  44
ATOM     44  O   UNL     1      32.501  34.567  13.417  1.00  0.00    -0.477 OA
ATOM     45  H   UNL     1      33.372  34.505  13.925  1.00  0.00     0.296 HD
ENDBRANCH  42  44
ENDBRANCH   3  42
BRANCH   6  46
ATOM     46  O   UNL     1      32.695  38.297  15.840  1.00  0.00    -0.391 OA
ATOM     47  H   UNL     1      32.265  38.764  16.584  1.00  0.00     0.211 HD
ENDBRANCH   6  46
BRANCH   7  48
ATOM     48  N   UNL     1      29.853  38.392  14.315  1.00  0.00    -0.348 N 
ATOM     49  C   UNL     1      29.965  39.799  14.148  1.00  0.00     0.217 C 
ATOM     50  H   UNL     1      29.324  37.875  13.550  1.00  0.00     0.163 HD
ATOM     51  C   UNL     1      29.366  40.420  12.946  1.00  0.00     0.114 C 
ATOM     52  O   UNL     1      30.551  40.492  14.986  1.00  0.00    -0.275 OA
ENDBRANCH   7  48
ENDBRANCH   1   2
BRANCH   1  53
ATOM     53  O   UNL     1      29.011  35.930  18.121  1.00  0.00    -0.388 OA
ATOM     54  H   UNL     1      29.948  35.814  18.411  1.00  0.00     0.211 HD
ENDBRANCH   1  53
BRANCH   1  55
ATOM     55  C   UNL     1      27.485  37.499  17.059  1.00  0.00     0.165 C 
BRANCH  55  56
ATOM     56  O   UNL     1      27.518  38.866  17.171  1.00  0.00    -0.388 OA
ATOM     57  H   UNL     1      26.776  39.236  17.689  1.00  0.00     0.211 HD
ENDBRANCH  55  56
BRANCH  55  58
ATOM     58  C   UNL     1      26.636  36.878  18.144  1.00  0.00     0.154 C 
BRANCH  58  59
ATOM     59  N   UNL     1      26.158  35.568  17.911  1.00  0.00    -0.319 N 
ATOM     60  C   UNL     1      24.830  35.168  17.604  1.00  0.00     0.407 C 
ATOM     61  H   UNL     1      26.843  34.735  17.957  1.00  0.00     0.167 HD
ATOM     62  O   UNL     1      23.933  36.012  17.495  1.00  0.00    -0.225 OA
BRANCH  60  63
ATOM     63  O   UNL     1      24.510  33.832  17.421  1.00  0.00    -0.443 OA
BRANCH  63  64
ATOM     64  C   UNL     1      24.560  33.102  16.252  1.00  0.00     0.294 C 
BRANCH  64  65
ATOM     65  C   UNL     1      25.315  33.677  15.128  1.00  0.00     0.120 A 
ATOM     66  C   UNL     1      24.945  33.695  13.789  1.00  0.00     0.138 A 
ATOM     67  N   UNL     1      26.528  34.263  15.199  1.00  0.00    -0.132 NA
ATOM     68  N   UNL     1      25.941  34.280  13.129  1.00  0.00    -0.250 N 
ATOM     69  N   UNL     1      26.878  34.615  13.980  1.00  0.00    -0.067 NA
BRANCH  68  70
ATOM     70  C   UNL     1      25.937  34.472  11.655  1.00  0.00     0.177 C 
BRANCH  70  71
ATOM     71  C   UNL     1      27.363  34.421  11.223  1.00  0.00     0.136 C 
BRANCH  71  72
ATOM     72  O   UNL     1      28.025  35.637  11.464  1.00  0.00    -0.391 OA
ATOM     73  H   UNL     1      28.738  35.544  12.131  1.00  0.00     0.211 HD
ENDBRANCH  71  72
BRANCH  71  74
ATOM     74  C   UNL     1      27.587  33.970   9.833  1.00  0.00     0.038 C 
BRANCH  74  75
ATOM     75  C   UNL     1      26.685  34.323   8.743  1.00  0.00     0.038 C 
BRANCH  75  76
ATOM     76  C   UNL     1      26.999  35.429   7.863  1.00  0.00    -0.048 A 
ATOM     77  C   UNL     1      27.907  35.276   6.819  1.00  0.00     0.004 A 
ATOM     78  C   UNL     1      26.471  36.703   8.073  1.00  0.00     0.004 A 
ATOM     79  C   UNL     1      28.257  36.338   6.038  1.00  0.00     0.000 A 
ATOM     80  C   UNL     1      26.845  37.752   7.269  1.00  0.00     0.000 A 
ATOM     81  C   UNL     1      27.751  37.601   6.228  1.00  0.00     0.000 A 
ENDBRANCH  75  76
ENDBRANCH  74  75
ENDBRANCH  71  74
ENDBRANCH  70  71
ENDBRANCH  68  70
ENDBRANCH  64  65
ENDBRANCH  63  64
ENDBRANCH  60  63
ENDBRANCH  58  59
ENDBRANCH  55  58
ENDBRANCH   1  55
TORSDOF 35
BEGIN_RES LYS A 131
REMARK  4 active torsions:
REMARK  status: ('A' for Active; 'I' for Inactive)
REMARK    1  A    between atoms: CA   and  CB  
REMARK    2  A    between atoms: CB   and  CG  
REMARK    3  A    between atoms: CG   and  CD  
REMARK    4  A    between atoms: CD   and  CE  
ROOT
ATOM      1  CA  LYS A 131      29.867  25.555  16.977  1.00 20.52     0.186 C 
ENDROOT
BRANCH   1   2
ATOM      2  CB  LYS A 131      28.345  25.722  17.026  1.00 20.94     0.034 C 
BRANCH   2   3
ATOM      3  CG  LYS A 131      27.601  24.403  16.886  1.00 22.96     0.005 C 
BRANCH   3   4
ATOM      4  CD  LYS A 131      26.178  24.502  17.360  1.00 24.33     0.041 C 
BRANCH   4   5
ATOM      5  CE  LYS A 131      26.150  25.083  18.770  1.00 26.91     0.338 C 
ATOM      6  NZ  LYS A 131      25.390  24.195  19.682  1.00 27.40     0.618 N 
ENDBRANCH   4   5
ENDBRANCH   3   4
ENDBRANCH   2   3
ENDBRANCH   1   2
END_RES LYS A 131
BEGIN_RES LYS A 135
REMARK  4 active torsions:
REMARK  status: ('A' for Active; 'I' for Inactive)
REMARK    5  A    between atoms: CA   and  CB  
REMARK    6  A    between atoms: CB   and  CG  
REMARK    7  A    between atoms: CG   and  CD  
REMARK    8  A    between atoms: CD   and  CE  
ROOT
ATOM      7  CA  LYS A 135      33.193  34.663   9.290  1.00 25.02     0.186 C 
ENDROOT
BRANCH   7   8
ATOM      8  CB  LYS A 135      32.060  35.360  10.034  1.00 26.63     0.034 C 
BRANCH   8   9
ATOM      9  CG  LYS A 135      30.770  35.410   9.257  1.00 29.45     0.005 C 
BRANCH   9  10
ATOM     10  CD  LYS A 135      30.470  36.832   8.807  1.00 32.00     0.041 C 
BRANCH  10  11
ATOM     11  CE  LYS A 135      30.401  37.765  10.000  1.00 34.25     0.338 C 
ATOM     12  NZ  LYS A 135      29.168  38.600   9.958  1.00 35.99     0.618 N 
ENDBRANCH  10  11
ENDBRANCH   9  10
ENDBRANCH   8   9
ENDBRANCH   7   8
END_RES LYS A 135
