REMARK VINA RESULT:    -3.148      2.635      7.046
REMARK INTER + INTRA:         -21.539
REMARK INTER:                  -7.938
REMARK INTRA:                 -13.601
REMARK UNBOUND:               -13.239
REMARK SMILES CCOC(=O)Cn1cc(COC(=O)NC[C@@H](O)C(O)[C@@H]2O[C@@](OC[C@H]3O[C@@H](O[C@H]4[C@H](O)[C@@H](O)[C@H](OCCN=[N+]=[N-])O[C@@H]4CO)[C@H](O)[C@@H](O)[C@H]3O)(C(=O)O)C[C@H](O)[C@H]2NC(C)=O)nn1
REMARK SMILES IDX 18 1 20 2 22 3 54 4 21 5 55 6 57 7 23 8 24 9 25 10 27 11
REMARK SMILES IDX 26 12 45 13 47 14 49 15 28 16 29 17 42 18 41 19 34 20 30 21
REMARK SMILES IDX 32 22 43 23 44 24 35 26 36 27 37 28 38 29 39 30 40 31 31 32
REMARK SMILES IDX 33 34 46 36 48 38 50 40 51 42 52 43 53 44 56 46 58 48 59 49
REMARK SMILES IDX 60 51 61 52 19 53 16 55 17 56 15 58 14 59 12 60 13 62 11 63
REMARK SMILES IDX 10 64 9 65 8 66 62 67 7 68 63 69 6 70 4 71 5 72 3 73 2 74
REMARK SMILES IDX 1 75
REMARK H PARENT 44 25 31 33 33 35 46 37 48 39 50 41 53 45 56 47 58 50 19 54
REMARK H PARENT 17 57 14 61
REMARK Flexibility Score: inf
ROOT
ATOM      1  C   UNL     1      22.953  34.779  11.983  1.00  0.00     0.176 C 
ENDROOT
BRANCH   1   2
ATOM      2  C   UNL     1      24.388  34.647  11.555  1.00  0.00     0.178 C 
ATOM      3  C   UNL     1      26.545  35.302  12.179  1.00  0.00     0.272 C 
ATOM      4  C   UNL     1      26.871  34.820  10.807  1.00  0.00     0.113 C 
ATOM      5  O   UNL     1      25.253  34.904  12.586  1.00  0.00    -0.332 OA
ATOM      6  C   UNL     1      25.905  35.266   9.757  1.00  0.00     0.145 C 
ATOM      7  C   UNL     1      24.606  35.657  10.443  1.00  0.00     0.142 C 
BRANCH   3   8
ATOM      8  O   UNL     1      26.671  36.660  12.378  1.00  0.00    -0.338 OA
BRANCH   8   9
ATOM      9  C   UNL     1      27.772  37.282  11.901  1.00  0.00     0.199 C 
BRANCH   9  10
ATOM     10  C   UNL     1      28.382  38.122  13.041  1.00  0.00     0.179 C 
ATOM     11  C   UNL     1      28.389  38.385  15.345  1.00  0.00     0.282 C 
ATOM     12  O   UNL     1      27.763  37.884  14.226  1.00  0.00    -0.341 OA
ATOM     13  C   UNL     1      29.839  38.019  15.446  1.00  0.00     0.202 C 
ATOM     14  C   UNL     1      30.526  38.607  14.240  1.00  0.00     0.179 C 
ATOM     15  C   UNL     1      29.878  38.017  13.033  1.00  0.00     0.177 C 
BRANCH  11  16
ATOM     16  O   UNL     1      27.765  38.020  16.526  1.00  0.00    -0.341 OA
BRANCH  16  17
ATOM     17  C   UNL     1      26.676  37.199  16.386  1.00  0.00     0.184 C 
ATOM     18  C   UNL     1      25.379  37.839  16.834  1.00  0.00     0.178 C 
ATOM     19  O   UNL     1      24.897  37.259  17.999  1.00  0.00    -0.341 OA
ATOM     20  C   UNL     1      24.519  35.911  17.800  1.00  0.00     0.281 C 
ATOM     21  C   UNL     1      26.891  35.926  17.205  1.00  0.00     0.180 C 
ATOM     22  C   UNL     1      25.595  35.135  17.110  1.00  0.00     0.202 C 
BRANCH  18  23
ATOM     23  C   UNL     1      24.386  37.843  15.702  1.00  0.00     0.191 C 
BRANCH  23  24
ATOM     24  O   UNL     1      24.918  37.206  14.565  1.00  0.00    -0.394 OA
ATOM     25  H   UNL     1      25.365  36.369  14.802  1.00  0.00     0.210 HD
ENDBRANCH  23  24
ENDBRANCH  18  23
BRANCH  20  26
ATOM     26  O   UNL     1      23.314  35.837  17.152  1.00  0.00    -0.350 OA
BRANCH  26  27
ATOM     27  C   UNL     1      22.168  35.701  17.859  1.00  0.00     0.169 C 
BRANCH  27  28
ATOM     28  C   UNL     1      20.875  35.579  17.143  1.00  0.00     0.119 C 
BRANCH  28  29
ATOM     29  N   UNL     1      20.792  36.132  15.835  1.00  0.00    -0.092 NA
ATOM     30  N   UNL     1      20.684  37.364  15.657  1.00  0.00     0.001 N 
ATOM     31  N   UNL     1      20.783  38.602  15.700  1.00  0.00    -0.003 NA
ENDBRANCH  28  29
ENDBRANCH  27  28
ENDBRANCH  26  27
ENDBRANCH  20  26
BRANCH  21  32
ATOM     32  O   UNL     1      27.937  35.190  16.642  1.00  0.00    -0.387 OA
ATOM     33  H   UNL     1      27.583  34.259  16.493  1.00  0.00     0.211 HD
ENDBRANCH  21  32
BRANCH  22  34
ATOM     34  O   UNL     1      25.790  33.864  17.656  1.00  0.00    -0.385 OA
ATOM     35  H   UNL     1      25.099  33.210  17.389  1.00  0.00     0.211 HD
ENDBRANCH  22  34
ENDBRANCH  16  17
ENDBRANCH  11  16
BRANCH  13  36
ATOM     36  O   UNL     1      30.358  38.568  16.612  1.00  0.00    -0.385 OA
ATOM     37  H   UNL     1      30.025  38.185  17.438  1.00  0.00     0.211 HD
ENDBRANCH  13  36
BRANCH  14  38
ATOM     38  O   UNL     1      31.880  38.207  14.280  1.00  0.00    -0.387 OA
ATOM     39  H   UNL     1      32.420  38.878  14.769  1.00  0.00     0.211 HD
ENDBRANCH  14  38
BRANCH  15  40
ATOM     40  O   UNL     1      30.297  36.669  12.947  1.00  0.00    -0.387 OA
ATOM     41  H   UNL     1      31.248  36.689  13.244  1.00  0.00     0.211 HD
ENDBRANCH  15  40
ENDBRANCH   9  10
ENDBRANCH   8   9
ENDBRANCH   3   8
BRANCH   3  42
ATOM     42  C   UNL     1      27.438  34.590  13.125  1.00  0.00     0.364 C 
ATOM     43  O   UNL     1      26.967  34.125  14.187  1.00  0.00    -0.246 OA
BRANCH  42  44
ATOM     44  O   UNL     1      28.768  34.438  12.852  1.00  0.00    -0.477 OA
ATOM     45  H   UNL     1      29.261  35.033  12.191  1.00  0.00     0.296 HD
ENDBRANCH  42  44
ENDBRANCH   3  42
BRANCH   6  46
ATOM     46  O   UNL     1      26.368  36.253   8.920  1.00  0.00    -0.391 OA
ATOM     47  H   UNL     1      25.782  36.287   8.112  1.00  0.00     0.211 HD
ENDBRANCH   6  46
BRANCH   7  48
ATOM     48  N   UNL     1      23.500  35.647   9.495  1.00  0.00    -0.348 N 
ATOM     49  C   UNL     1      23.091  36.812   8.804  1.00  0.00     0.217 C 
ATOM     50  H   UNL     1      23.003  34.758   9.321  1.00  0.00     0.163 HD
ATOM     51  C   UNL     1      21.958  36.816   7.830  1.00  0.00     0.114 C 
ATOM     52  O   UNL     1      23.716  37.885   9.027  1.00  0.00    -0.275 OA
ENDBRANCH   7  48
ENDBRANCH   1   2
BRANCH   1  53
ATOM     53  O   UNL     1      22.117  34.135  11.094  1.00  0.00    -0.388 OA
ATOM     54  H   UNL     1      21.618  34.761  10.494  1.00  0.00     0.211 HD
ENDBRANCH   1  53
BRANCH   1  55
ATOM     55  C   UNL     1      22.695  34.234  13.377  1.00  0.00     0.165 C 
BRANCH  55  56
ATOM     56  O   UNL     1      23.164  35.059  14.373  1.00  0.00    -0.388 OA
ATOM     57  H   UNL     1      22.675  34.979  15.225  1.00  0.00     0.211 HD
ENDBRANCH  55  56
BRANCH  55  58
ATOM     58  C   UNL     1      23.291  32.868  13.468  1.00  0.00     0.154 C 
BRANCH  58  59
ATOM     59  N   UNL     1      24.161  32.669  14.572  1.00  0.00    -0.319 N 
ATOM     60  C   UNL     1      24.802  31.446  14.906  1.00  0.00     0.407 C 
ATOM     61  H   UNL     1      24.381  33.489  15.239  1.00  0.00     0.167 HD
ATOM     62  O   UNL     1      24.650  30.416  14.228  1.00  0.00    -0.225 OA
BRANCH  60  63
ATOM     63  O   UNL     1      25.638  31.398  16.035  1.00  0.00    -0.443 OA
BRANCH  63  64
ATOM     64  C   UNL     1      26.806  30.645  16.027  1.00  0.00     0.294 C 
BRANCH  64  65
ATOM     65  C   UNL     1      28.032  31.429  16.266  1.00  0.00     0.120 A 
ATOM     66  C   UNL     1      29.171  31.430  15.482  1.00  0.00     0.139 A 
ATOM     67  N   UNL     1      28.293  32.272  17.273  1.00  0.00    -0.132 NA
ATOM     68  N   UNL     1      30.088  32.264  16.028  1.00  0.00    -0.241 N 
ATOM     69  N   UNL     1      29.521  32.756  17.108  1.00  0.00    -0.066 NA
BRANCH  68  70
ATOM     70  C   UNL     1      31.414  32.512  15.476  1.00  0.00     0.268 C 
BRANCH  70  71
ATOM     71  C   UNL     1      31.633  34.002  15.493  1.00  0.00     0.327 C 
ATOM     72  O   UNL     1      30.966  34.778  14.782  1.00  0.00    -0.250 OA
BRANCH  71  73
ATOM     73  O   UNL     1      32.594  34.574  16.308  1.00  0.00    -0.465 OA
BRANCH  73  74
ATOM     74  C   UNL     1      32.435  35.774  17.007  1.00  0.00     0.229 C 
ATOM     75  C   UNL     1      31.985  35.570  18.433  1.00  0.00     0.049 C 
ENDBRANCH  73  74
ENDBRANCH  71  73
ENDBRANCH  70  71
ENDBRANCH  68  70
ENDBRANCH  64  65
ENDBRANCH  63  64
ENDBRANCH  60  63
ENDBRANCH  58  59
ENDBRANCH  55  58
ENDBRANCH   1  55
TORSDOF 33
BEGIN_RES LYS A 131
REMARK  4 active torsions:
REMARK  status: ('A' for Active; 'I' for Inactive)
REMARK    1  A    between atoms: CA   and  CB  
REMARK    2  A    between atoms: CB   and  CG  
REMARK    3  A    between atoms: CG   and  CD  
REMARK    4  A    between atoms: CD   and  CE  
ROOT
ATOM      1  CA  LYS A 131      29.867  25.555  16.977  1.00 20.52     0.186 C 
ENDROOT
BRANCH   1   2
ATOM      2  CB  LYS A 131      28.345  25.722  17.026  1.00 20.94     0.034 C 
BRANCH   2   3
ATOM      3  CG  LYS A 131      27.601  24.403  16.887  1.00 22.96     0.005 C 
BRANCH   3   4
ATOM      4  CD  LYS A 131      26.678  24.148  18.045  1.00 24.33     0.041 C 
BRANCH   4   5
ATOM      5  CE  LYS A 131      25.407  24.975  17.875  1.00 26.91     0.338 C 
ATOM      6  NZ  LYS A 131      24.539  24.383  16.831  1.00 27.40     0.618 N 
ENDBRANCH   4   5
ENDBRANCH   3   4
ENDBRANCH   2   3
ENDBRANCH   1   2
END_RES LYS A 131
BEGIN_RES LYS A 135
REMARK  4 active torsions:
REMARK  status: ('A' for Active; 'I' for Inactive)
REMARK    5  A    between atoms: CA   and  CB  
REMARK    6  A    between atoms: CB   and  CG  
REMARK    7  A    between atoms: CG   and  CD  
REMARK    8  A    between atoms: CD   and  CE  
ROOT
ATOM      7  CA  LYS A 135      33.193  34.663   9.290  1.00 25.02     0.186 C 
ENDROOT
BRANCH   7   8
ATOM      8  CB  LYS A 135      32.060  35.360  10.034  1.00 26.63     0.034 C 
BRANCH   8   9
ATOM      9  CG  LYS A 135      30.723  34.685   9.866  1.00 29.45     0.005 C 
BRANCH   9  10
ATOM     10  CD  LYS A 135      30.362  34.569   8.393  1.00 32.00     0.041 C 
BRANCH  10  11
ATOM     11  CE  LYS A 135      29.596  35.795   7.934  1.00 34.25     0.338 C 
ATOM     12  NZ  LYS A 135      28.861  35.526   6.667  1.00 35.99     0.618 N 
ENDBRANCH  10  11
ENDBRANCH   9  10
ENDBRANCH   8   9
ENDBRANCH   7   8
END_RES LYS A 135
