REMARK VINA RESULT:    -5.161      3.120      6.291
REMARK INTER + INTRA:         -23.168
REMARK INTER:                 -12.368
REMARK INTRA:                 -10.800
REMARK UNBOUND:               -10.464
REMARK SMILES CC(=O)N[C@@H]1[C@@H](O)C[C@](OC[C@H]2O[C@@H](O[C@H]3[C@H](O)[C@@H](O)[C@H](OCCN=[N+]=[N-])O[C@@H]3CO)[C@H](O)[C@@H](O)[C@H]2O)(C(=O)O)O[C@H]1C(O)[C@H](O)CNC(=O)OCc1cn(-c2c3ccccc3nc3ccccc23)nn1
REMARK SMILES IDX 9 1 8 2 6 3 5 4 42 5 41 6 10 7 11 8 12 9 14 10 13 11 32 12
REMARK SMILES IDX 34 13 36 14 15 15 16 16 29 17 28 18 21 19 17 20 19 21 30 22
REMARK SMILES IDX 31 23 22 25 23 26 24 27 25 28 26 29 27 30 18 31 20 33 33 35
REMARK SMILES IDX 35 37 37 39 38 41 39 42 40 43 7 45 43 47 44 48 45 50 46 51
REMARK SMILES IDX 47 53 48 54 49 55 50 57 51 58 52 59 53 60 54 61 71 62 55 63
REMARK SMILES IDX 70 64 56 65 57 66 69 67 58 68 62 69 64 70 68 71 59 72 61 73
REMARK SMILES IDX 63 74 65 75 67 76 60 77 66 78 4 79 2 80 1 82 3 83
REMARK H PARENT 31 24 18 32 20 34 33 36 35 38 37 40 40 44 7 46 44 49 46 52
REMARK H PARENT 48 56 4 81
REMARK Flexibility Score: inf
ROOT
ATOM      1  C   UNL     1      26.415  30.237  16.187  1.00  0.00     0.272 C 
ATOM      2  C   UNL     1      25.799  30.321  17.669  1.00  0.00     0.113 C 
ATOM      3  C   UNL     1      26.910  30.889  18.474  1.00  0.00     0.145 C 
ATOM      4  C   UNL     1      27.467  32.198  17.956  1.00  0.00     0.142 C 
ATOM      5  C   UNL     1      27.317  32.393  16.505  1.00  0.00     0.178 C 
ATOM      6  O   UNL     1      26.537  31.514  15.833  1.00  0.00    -0.332 OA
ENDROOT
BRANCH   1   7
ATOM      7  O   UNL     1      25.316  29.675  15.534  1.00  0.00    -0.338 OA
BRANCH   7   8
ATOM      8  C   UNL     1      24.134  29.693  16.192  1.00  0.00     0.199 C 
BRANCH   8   9
ATOM      9  C   UNL     1      22.928  29.813  15.342  1.00  0.00     0.179 C 
ATOM     10  C   UNL     1      21.521  31.263  14.175  1.00  0.00     0.282 C 
ATOM     11  O   UNL     1      22.628  31.112  15.037  1.00  0.00    -0.341 OA
ATOM     12  C   UNL     1      20.760  30.027  13.939  1.00  0.00     0.202 C 
ATOM     13  C   UNL     1      21.648  28.887  13.495  1.00  0.00     0.179 C 
ATOM     14  C   UNL     1      23.024  28.966  14.071  1.00  0.00     0.177 C 
BRANCH  10  15
ATOM     15  O   UNL     1      21.922  31.899  13.007  1.00  0.00    -0.341 OA
BRANCH  15  16
ATOM     16  C   UNL     1      22.451  33.188  13.246  1.00  0.00     0.184 C 
ATOM     17  C   UNL     1      21.722  34.186  12.438  1.00  0.00     0.178 C 
ATOM     18  O   UNL     1      22.444  35.392  12.239  1.00  0.00    -0.341 OA
ATOM     19  C   UNL     1      23.567  35.061  11.491  1.00  0.00     0.281 C 
ATOM     20  C   UNL     1      23.918  33.066  12.807  1.00  0.00     0.180 C 
ATOM     21  C   UNL     1      24.526  34.406  12.498  1.00  0.00     0.202 C 
BRANCH  17  22
ATOM     22  C   UNL     1      20.407  34.584  13.091  1.00  0.00     0.191 C 
BRANCH  22  23
ATOM     23  O   UNL     1      19.393  33.689  12.869  1.00  0.00    -0.394 OA
ATOM     24  H   UNL     1      18.933  33.926  12.023  1.00  0.00     0.210 HD
ENDBRANCH  22  23
ENDBRANCH  17  22
BRANCH  19  25
ATOM     25  O   UNL     1      24.073  36.217  10.952  1.00  0.00    -0.350 OA
BRANCH  25  26
ATOM     26  C   UNL     1      23.162  36.946  10.195  1.00  0.00     0.169 C 
BRANCH  26  27
ATOM     27  C   UNL     1      23.193  36.556   8.733  1.00  0.00     0.119 C 
BRANCH  27  28
ATOM     28  N   UNL     1      23.508  37.763   7.976  1.00  0.00    -0.092 NA
ATOM     29  N   UNL     1      24.681  38.063   7.730  1.00  0.00     0.001 N 
ATOM     30  N   UNL     1      25.827  38.375   7.399  1.00  0.00    -0.003 NA
ENDBRANCH  27  28
ENDBRANCH  26  27
ENDBRANCH  25  26
ENDBRANCH  19  25
BRANCH  20  31
ATOM     31  O   UNL     1      24.635  32.356  13.757  1.00  0.00    -0.387 OA
ATOM     32  H   UNL     1      24.058  31.844  14.376  1.00  0.00     0.211 HD
ENDBRANCH  20  31
BRANCH  21  33
ATOM     33  O   UNL     1      25.777  34.228  11.950  1.00  0.00    -0.385 OA
ATOM     34  H   UNL     1      26.185  35.139  11.846  1.00  0.00     0.211 HD
ENDBRANCH  21  33
ENDBRANCH  15  16
ENDBRANCH  10  15
BRANCH  12  35
ATOM     35  O   UNL     1      19.987  29.691  15.061  1.00  0.00    -0.385 OA
ATOM     36  H   UNL     1      19.096  29.409  14.693  1.00  0.00     0.211 HD
ENDBRANCH  12  35
BRANCH  13  37
ATOM     37  O   UNL     1      21.676  28.897  12.087  1.00  0.00    -0.387 OA
ATOM     38  H   UNL     1      22.181  28.060  11.830  1.00  0.00     0.211 HD
ENDBRANCH  13  37
BRANCH  14  39
ATOM     39  O   UNL     1      23.965  29.450  13.185  1.00  0.00    -0.387 OA
ATOM     40  H   UNL     1      24.686  28.800  12.988  1.00  0.00     0.211 HD
ENDBRANCH  14  39
ENDBRANCH   8   9
ENDBRANCH   7   8
ENDBRANCH   1   7
BRANCH   1  41
ATOM     41  C   UNL     1      27.515  29.347  16.353  1.00  0.00     0.364 C 
ATOM     42  O   UNL     1      27.368  28.226  16.938  1.00  0.00    -0.246 OA
BRANCH  41  43
ATOM     43  O   UNL     1      28.827  29.568  15.918  1.00  0.00    -0.477 OA
ATOM     44  H   UNL     1      28.995  29.703  14.929  1.00  0.00     0.296 HD
ENDBRANCH  41  43
ENDBRANCH   1  41
BRANCH   3  45
ATOM     45  O   UNL     1      26.409  31.060  19.787  1.00  0.00    -0.391 OA
ATOM     46  H   UNL     1      27.030  31.644  20.295  1.00  0.00     0.211 HD
ENDBRANCH   3  45
BRANCH   5  47
ATOM     47  C   UNL     1      26.717  33.787  16.174  1.00  0.00     0.176 C 
BRANCH  47  48
ATOM     48  O   UNL     1      26.876  34.076  14.850  1.00  0.00    -0.388 OA
ATOM     49  H   UNL     1      27.820  33.970  14.514  1.00  0.00     0.211 HD
ENDBRANCH  47  48
BRANCH  47  50
ATOM     50  C   UNL     1      25.433  34.043  16.820  1.00  0.00     0.165 C 
BRANCH  50  51
ATOM     51  O   UNL     1      24.376  33.190  16.493  1.00  0.00    -0.388 OA
ATOM     52  H   UNL     1      23.504  33.657  16.525  1.00  0.00     0.211 HD
ENDBRANCH  50  51
BRANCH  50  53
ATOM     53  C   UNL     1      25.017  35.441  17.066  1.00  0.00     0.154 C 
BRANCH  53  54
ATOM     54  N   UNL     1      25.004  36.380  16.008  1.00  0.00    -0.319 N 
ATOM     55  C   UNL     1      23.901  36.659  15.173  1.00  0.00     0.407 C 
ATOM     56  H   UNL     1      25.917  36.940  15.816  1.00  0.00     0.167 HD
ATOM     57  O   UNL     1      22.799  36.095  15.243  1.00  0.00    -0.225 OA
BRANCH  55  58
ATOM     58  O   UNL     1      23.995  37.642  14.168  1.00  0.00    -0.443 OA
BRANCH  58  59
ATOM     59  C   UNL     1      25.107  38.512  14.044  1.00  0.00     0.294 C 
BRANCH  59  60
ATOM     60  C   UNL     1      26.204  37.812  13.317  1.00  0.00     0.121 A 
ATOM     61  C   UNL     1      26.770  38.139  12.103  1.00  0.00     0.144 A 
ATOM     62  N   UNL     1      26.847  36.704  13.713  1.00  0.00    -0.131 NA
ATOM     63  N   UNL     1      27.731  37.243  11.782  1.00  0.00    -0.219 N 
ATOM     64  N   UNL     1      27.753  36.380  12.784  1.00  0.00    -0.062 NA
BRANCH  63  65
ATOM     65  C   UNL     1      28.543  37.244  10.593  1.00  0.00     0.085 A 
ATOM     66  C   UNL     1      28.168  36.485   9.495  1.00  0.00     0.027 A 
ATOM     67  C   UNL     1      29.703  37.978  10.500  1.00  0.00     0.027 A 
ATOM     68  C   UNL     1      27.016  35.729   9.526  1.00  0.00     0.012 A 
ATOM     69  C   UNL     1      28.921  36.449   8.324  1.00  0.00     0.073 A 
ATOM     70  C   UNL     1      30.419  37.915   9.326  1.00  0.00     0.073 A 
ATOM     71  C   UNL     1      30.132  38.748  11.542  1.00  0.00     0.012 A 
ATOM     72  C   UNL     1      26.641  34.976   8.434  1.00  0.00     0.001 A 
ATOM     73  C   UNL     1      28.543  35.695   7.236  1.00  0.00     0.029 A 
ATOM     74  N   UNL     1      30.045  37.175   8.267  1.00  0.00    -0.248 NA
ATOM     75  C   UNL     1      31.587  38.638   9.195  1.00  0.00     0.029 A 
ATOM     76  C   UNL     1      31.310  39.465  11.383  1.00  0.00     0.001 A 
ATOM     77  C   UNL     1      27.395  34.940   7.264  1.00  0.00     0.002 A 
ATOM     78  C   UNL     1      32.058  39.431  10.225  1.00  0.00     0.002 A 
ENDBRANCH  63  65
ENDBRANCH  59  60
ENDBRANCH  58  59
ENDBRANCH  55  58
ENDBRANCH  53  54
ENDBRANCH  50  53
ENDBRANCH  47  50
ENDBRANCH   5  47
BRANCH   4  79
ATOM     79  N   UNL     1      28.822  32.354  18.435  1.00  0.00    -0.348 N 
ATOM     80  C   UNL     1      29.338  33.550  19.017  1.00  0.00     0.217 C 
ATOM     81  H   UNL     1      29.508  31.567  18.366  1.00  0.00     0.163 HD
ATOM     82  C   UNL     1      30.769  33.588  19.472  1.00  0.00     0.114 C 
ATOM     83  O   UNL     1      28.572  34.520  19.125  1.00  0.00    -0.275 OA
ENDBRANCH   4  79
TORSDOF 30
BEGIN_RES LYS A 131
REMARK  4 active torsions:
REMARK  status: ('A' for Active; 'I' for Inactive)
REMARK    1  A    between atoms: CA   and  CB  
REMARK    2  A    between atoms: CB   and  CG  
REMARK    3  A    between atoms: CG   and  CD  
REMARK    4  A    between atoms: CD   and  CE  
ROOT
ATOM      1  CA  LYS A 131      29.867  25.555  16.977  1.00 20.52     0.186 C 
ENDROOT
BRANCH   1   2
ATOM      2  CB  LYS A 131      28.345  25.722  17.026  1.00 20.94     0.034 C 
BRANCH   2   3
ATOM      3  CG  LYS A 131      27.599  24.488  16.541  1.00 22.96     0.005 C 
BRANCH   3   4
ATOM      4  CD  LYS A 131      27.233  23.567  17.671  1.00 24.33     0.041 C 
BRANCH   4   5
ATOM      5  CE  LYS A 131      25.847  23.929  18.195  1.00 26.91     0.338 C 
ATOM      6  NZ  LYS A 131      24.859  23.928  17.090  1.00 27.40     0.618 N 
ENDBRANCH   4   5
ENDBRANCH   3   4
ENDBRANCH   2   3
ENDBRANCH   1   2
END_RES LYS A 131
BEGIN_RES LYS A 135
REMARK  4 active torsions:
REMARK  status: ('A' for Active; 'I' for Inactive)
REMARK    5  A    between atoms: CA   and  CB  
REMARK    6  A    between atoms: CB   and  CG  
REMARK    7  A    between atoms: CG   and  CD  
REMARK    8  A    between atoms: CD   and  CE  
ROOT
ATOM      7  CA  LYS A 135      33.193  34.663   9.290  1.00 25.02     0.186 C 
ENDROOT
BRANCH   7   8
ATOM      8  CB  LYS A 135      32.060  35.360  10.034  1.00 26.63     0.034 C 
BRANCH   8   9
ATOM      9  CG  LYS A 135      32.320  35.525  11.509  1.00 29.45     0.005 C 
BRANCH   9  10
ATOM     10  CD  LYS A 135      31.099  35.116  12.318  1.00 32.00     0.041 C 
BRANCH  10  11
ATOM     11  CE  LYS A 135      31.232  35.581  13.756  1.00 34.25     0.338 C 
ATOM     12  NZ  LYS A 135      30.329  34.810  14.655  1.00 35.99     0.618 N 
ENDBRANCH  10  11
ENDBRANCH   9  10
ENDBRANCH   8   9
ENDBRANCH   7   8
END_RES LYS A 135
