REMARK VINA RESULT:    -3.514      3.529      6.859
REMARK INTER + INTRA:         -21.316
REMARK INTER:                  -8.877
REMARK INTRA:                 -12.440
REMARK UNBOUND:               -12.359
REMARK SMILES CC(=O)N[C@@H]1[C@@H](O)C[C@](OC[C@H]2O[C@@H](O[C@H]3[C@H](O)[C@@H](O)[C@H](OCCN=[N+]=[N-])O[C@@H]3CO)[C@H](O)[C@@H](O)[C@H]2O)(C(=O)O)O[C@H]1C(O)[C@H](O)CNC(=O)OCc1cn(CC(=O)O)nn1
REMARK SMILES IDX 9 1 8 2 6 3 5 4 42 5 41 6 10 7 11 8 12 9 14 10 13 11 32 12
REMARK SMILES IDX 34 13 36 14 15 15 16 16 29 17 28 18 21 19 17 20 19 21 30 22
REMARK SMILES IDX 31 23 22 25 23 26 24 27 25 28 26 29 27 30 18 31 20 33 33 35
REMARK SMILES IDX 35 37 37 39 38 41 39 42 40 43 7 45 43 47 44 48 45 50 46 51
REMARK SMILES IDX 47 53 48 54 49 55 50 57 51 58 52 59 53 60 54 61 61 62 55 63
REMARK SMILES IDX 60 64 56 65 57 66 58 67 59 68 4 70 2 71 1 73 3 74
REMARK H PARENT 31 24 18 32 20 34 33 36 35 38 37 40 40 44 7 46 44 49 46 52
REMARK H PARENT 48 56 59 69 4 72
REMARK Flexibility Score: inf
ROOT
ATOM      1  C   UNL     1      29.638  33.616  16.181  1.00  0.00     0.272 C 
ATOM      2  C   UNL     1      30.457  32.360  16.097  1.00  0.00     0.113 C 
ATOM      3  C   UNL     1      29.789  31.106  16.480  1.00  0.00     0.145 C 
ATOM      4  C   UNL     1      28.503  31.250  17.285  1.00  0.00     0.142 C 
ATOM      5  C   UNL     1      28.568  32.593  17.945  1.00  0.00     0.178 C 
ATOM      6  O   UNL     1      28.459  33.485  16.845  1.00  0.00    -0.332 OA
ENDROOT
BRANCH   1   7
ATOM      7  O   UNL     1      29.373  34.150  14.901  1.00  0.00    -0.338 OA
BRANCH   7   8
ATOM      8  C   UNL     1      30.397  34.036  14.011  1.00  0.00     0.199 C 
BRANCH   8   9
ATOM      9  C   UNL     1      30.335  35.200  13.009  1.00  0.00     0.179 C 
ATOM     10  C   UNL     1      30.063  37.469  13.326  1.00  0.00     0.282 C 
ATOM     11  O   UNL     1      29.450  36.177  13.388  1.00  0.00    -0.341 OA
ATOM     12  C   UNL     1      31.113  37.436  14.375  1.00  0.00     0.202 C 
ATOM     13  C   UNL     1      32.272  36.615  13.785  1.00  0.00     0.179 C 
ATOM     14  C   UNL     1      31.734  35.703  12.715  1.00  0.00     0.177 C 
BRANCH  10  15
ATOM     15  O   UNL     1      29.074  38.400  13.450  1.00  0.00    -0.341 OA
BRANCH  15  16
ATOM     16  C   UNL     1      27.786  37.872  13.357  1.00  0.00     0.184 C 
ATOM     17  C   UNL     1      27.003  38.706  12.386  1.00  0.00     0.178 C 
ATOM     18  O   UNL     1      25.670  38.711  12.696  1.00  0.00    -0.341 OA
ATOM     19  C   UNL     1      25.138  37.544  13.182  1.00  0.00     0.281 C 
ATOM     20  C   UNL     1      27.079  37.910  14.696  1.00  0.00     0.180 C 
ATOM     21  C   UNL     1      25.759  37.156  14.513  1.00  0.00     0.202 C 
BRANCH  17  22
ATOM     22  C   UNL     1      27.197  38.157  10.985  1.00  0.00     0.191 C 
BRANCH  22  23
ATOM     23  O   UNL     1      27.811  36.911  11.141  1.00  0.00    -0.394 OA
ATOM     24  H   UNL     1      28.561  36.809  10.514  1.00  0.00     0.210 HD
ENDBRANCH  22  23
ENDBRANCH  17  22
BRANCH  19  25
ATOM     25  O   UNL     1      25.215  36.543  12.253  1.00  0.00    -0.350 OA
BRANCH  25  26
ATOM     26  C   UNL     1      25.122  35.276  12.770  1.00  0.00     0.169 C 
BRANCH  26  27
ATOM     27  C   UNL     1      24.058  34.416  12.141  1.00  0.00     0.119 C 
BRANCH  27  28
ATOM     28  N   UNL     1      23.022  35.235  11.508  1.00  0.00    -0.092 NA
ATOM     29  N   UNL     1      22.935  35.127  10.268  1.00  0.00     0.001 N 
ATOM     30  N   UNL     1      22.819  35.532   9.096  1.00  0.00    -0.003 NA
ENDBRANCH  27  28
ENDBRANCH  26  27
ENDBRANCH  25  26
ENDBRANCH  19  25
BRANCH  20  31
ATOM     31  O   UNL     1      27.770  37.280  15.700  1.00  0.00    -0.387 OA
ATOM     32  H   UNL     1      28.606  36.863  15.440  1.00  0.00     0.211 HD
ENDBRANCH  20  31
BRANCH  21  33
ATOM     33  O   UNL     1      24.875  37.439  15.537  1.00  0.00    -0.385 OA
ATOM     34  H   UNL     1      25.211  38.165  16.123  1.00  0.00     0.211 HD
ENDBRANCH  21  33
ENDBRANCH  15  16
ENDBRANCH  10  15
BRANCH  12  35
ATOM     35  O   UNL     1      31.525  38.631  14.889  1.00  0.00    -0.385 OA
ATOM     36  H   UNL     1      31.225  38.731  15.806  1.00  0.00     0.211 HD
ENDBRANCH  12  35
BRANCH  13  37
ATOM     37  O   UNL     1      32.820  35.885  14.829  1.00  0.00    -0.387 OA
ATOM     38  H   UNL     1      33.577  35.303  14.539  1.00  0.00     0.211 HD
ENDBRANCH  13  37
BRANCH  14  39
ATOM     39  O   UNL     1      32.585  34.599  12.675  1.00  0.00    -0.387 OA
ATOM     40  H   UNL     1      33.119  34.564  11.848  1.00  0.00     0.211 HD
ENDBRANCH  14  39
ENDBRANCH   8   9
ENDBRANCH   7   8
ENDBRANCH   1   7
BRANCH   1  41
ATOM     41  C   UNL     1      30.451  34.649  16.863  1.00  0.00     0.364 C 
ATOM     42  O   UNL     1      31.652  34.462  17.136  1.00  0.00    -0.246 OA
BRANCH  41  43
ATOM     43  O   UNL     1      29.916  35.872  17.228  1.00  0.00    -0.477 OA
ATOM     44  H   UNL     1      30.380  36.767  17.026  1.00  0.00     0.296 HD
ENDBRANCH  41  43
ENDBRANCH   1  41
BRANCH   3  45
ATOM     45  O   UNL     1      29.643  30.188  15.435  1.00  0.00    -0.391 OA
ATOM     46  H   UNL     1      30.482  29.929  15.017  1.00  0.00     0.211 HD
ENDBRANCH   3  45
BRANCH   5  47
ATOM     47  C   UNL     1      27.506  32.924  18.936  1.00  0.00     0.176 C 
BRANCH  47  48
ATOM     48  O   UNL     1      26.357  32.196  18.482  1.00  0.00    -0.388 OA
ATOM     49  H   UNL     1      26.180  31.439  19.110  1.00  0.00     0.211 HD
ENDBRANCH  47  48
BRANCH  47  50
ATOM     50  C   UNL     1      27.133  34.390  18.984  1.00  0.00     0.165 C 
BRANCH  50  51
ATOM     51  O   UNL     1      28.206  35.113  19.567  1.00  0.00    -0.388 OA
ATOM     52  H   UNL     1      28.864  34.453  19.874  1.00  0.00     0.211 HD
ENDBRANCH  50  51
BRANCH  50  53
ATOM     53  C   UNL     1      25.893  34.660  19.743  1.00  0.00     0.154 C 
BRANCH  53  54
ATOM     54  N   UNL     1      24.707  34.393  18.981  1.00  0.00    -0.319 N 
ATOM     55  C   UNL     1      23.981  35.302  18.181  1.00  0.00     0.407 C 
ATOM     56  H   UNL     1      24.275  33.399  18.979  1.00  0.00     0.167 HD
ATOM     57  O   UNL     1      24.322  36.483  18.071  1.00  0.00    -0.225 OA
BRANCH  55  58
ATOM     58  O   UNL     1      22.837  34.920  17.472  1.00  0.00    -0.443 OA
BRANCH  58  59
ATOM     59  C   UNL     1      22.885  34.705  16.072  1.00  0.00     0.294 C 
BRANCH  59  60
ATOM     60  C   UNL     1      23.665  33.468  15.756  1.00  0.00     0.120 A 
ATOM     61  C   UNL     1      23.197  32.339  15.099  1.00  0.00     0.139 A 
ATOM     62  N   UNL     1      24.950  33.210  16.042  1.00  0.00    -0.132 NA
ATOM     63  N   UNL     1      24.207  31.454  15.015  1.00  0.00    -0.241 N 
ATOM     64  N   UNL     1      25.261  32.005  15.596  1.00  0.00    -0.066 NA
BRANCH  63  65
ATOM     65  C   UNL     1      24.183  30.122  14.403  1.00  0.00     0.268 C 
BRANCH  65  66
ATOM     66  C   UNL     1      23.660  29.171  15.400  1.00  0.00     0.325 C 
ATOM     67  O   UNL     1      22.857  28.289  15.063  1.00  0.00    -0.250 OA
BRANCH  66  68
ATOM     68  O   UNL     1      24.067  29.266  16.715  1.00  0.00    -0.480 OA
ATOM     69  H   UNL     1      23.841  28.584  17.408  1.00  0.00     0.296 HD
ENDBRANCH  66  68
ENDBRANCH  65  66
ENDBRANCH  63  65
ENDBRANCH  59  60
ENDBRANCH  58  59
ENDBRANCH  55  58
ENDBRANCH  53  54
ENDBRANCH  50  53
ENDBRANCH  47  50
ENDBRANCH   5  47
BRANCH   4  70
ATOM     70  N   UNL     1      28.280  30.115  18.111  1.00  0.00    -0.348 N 
ATOM     71  C   UNL     1      27.479  28.998  17.688  1.00  0.00     0.217 C 
ATOM     72  H   UNL     1      28.708  30.046  19.056  1.00  0.00     0.163 HD
ATOM     73  C   UNL     1      27.301  27.856  18.614  1.00  0.00     0.114 C 
ATOM     74  O   UNL     1      26.938  28.984  16.558  1.00  0.00    -0.275 OA
ENDBRANCH   4  70
TORSDOF 32
BEGIN_RES LYS A 131
REMARK  4 active torsions:
REMARK  status: ('A' for Active; 'I' for Inactive)
REMARK    1  A    between atoms: CA   and  CB  
REMARK    2  A    between atoms: CB   and  CG  
REMARK    3  A    between atoms: CG   and  CD  
REMARK    4  A    between atoms: CD   and  CE  
ROOT
ATOM      1  CA  LYS A 131      29.867  25.555  16.977  1.00 20.52     0.186 C 
ENDROOT
BRANCH   1   2
ATOM      2  CB  LYS A 131      28.345  25.722  17.026  1.00 20.94     0.034 C 
BRANCH   2   3
ATOM      3  CG  LYS A 131      27.601  24.403  16.887  1.00 22.96     0.005 C 
BRANCH   3   4
ATOM      4  CD  LYS A 131      26.562  24.223  17.959  1.00 24.33     0.041 C 
BRANCH   4   5
ATOM      5  CE  LYS A 131      25.202  23.977  17.313  1.00 26.91     0.338 C 
ATOM      6  NZ  LYS A 131      24.792  22.564  17.490  1.00 27.40     0.618 N 
ENDBRANCH   4   5
ENDBRANCH   3   4
ENDBRANCH   2   3
ENDBRANCH   1   2
END_RES LYS A 131
BEGIN_RES LYS A 135
REMARK  4 active torsions:
REMARK  status: ('A' for Active; 'I' for Inactive)
REMARK    5  A    between atoms: CA   and  CB  
REMARK    6  A    between atoms: CB   and  CG  
REMARK    7  A    between atoms: CG   and  CD  
REMARK    8  A    between atoms: CD   and  CE  
ROOT
ATOM      7  CA  LYS A 135      33.193  34.663   9.290  1.00 25.02     0.186 C 
ENDROOT
BRANCH   7   8
ATOM      8  CB  LYS A 135      32.060  35.360  10.034  1.00 26.63     0.034 C 
BRANCH   8   9
ATOM      9  CG  LYS A 135      30.774  35.425   9.250  1.00 29.45     0.005 C 
BRANCH   9  10
ATOM     10  CD  LYS A 135      30.186  34.034   9.069  1.00 32.00     0.041 C 
BRANCH  10  11
ATOM     11  CE  LYS A 135      28.673  34.078   9.173  1.00 34.25     0.338 C 
ATOM     12  NZ  LYS A 135      28.081  34.851   8.046  1.00 35.99     0.618 N 
ENDBRANCH  10  11
ENDBRANCH   9  10
ENDBRANCH   8   9
ENDBRANCH   7   8
END_RES LYS A 135
