REMARK VINA RESULT:    -4.790      2.362      7.260
REMARK INTER + INTRA:         -22.439
REMARK INTER:                  -9.288
REMARK INTRA:                 -13.151
REMARK UNBOUND:               -10.230
REMARK SMILES CC(=O)N[C@@H]1[C@@H](O)C[C@](OC[C@H]2O[C@@H](O[C@H]3[C@H](O)[C@@H](O)[C@H](OCCN=[N+]=[N-])O[C@@H]3CO)[C@H](O)[C@@H](O)[C@H]2O)(C(=O)O)O[C@H]1C(O)[C@H](O)CNC(=O)OCc1cn(C(C)(C)CO)nn1
REMARK SMILES IDX 9 1 8 2 6 3 5 4 42 5 41 6 10 7 11 8 12 9 14 10 13 11 32 12
REMARK SMILES IDX 34 13 36 14 15 15 16 16 29 17 28 18 21 19 17 20 19 21 30 22
REMARK SMILES IDX 31 23 22 25 23 26 24 27 25 28 26 29 27 30 18 31 20 33 33 35
REMARK SMILES IDX 35 37 37 39 38 41 39 42 40 43 7 45 43 47 44 48 45 50 46 51
REMARK SMILES IDX 47 53 48 54 49 55 50 57 51 58 52 59 53 60 54 61 62 62 55 63
REMARK SMILES IDX 61 64 56 65 57 66 58 67 59 68 60 69 4 71 2 72 1 74 3 75
REMARK H PARENT 31 24 18 32 20 34 33 36 35 38 37 40 40 44 7 46 44 49 46 52
REMARK H PARENT 48 56 60 70 4 73
REMARK Flexibility Score: inf
ROOT
ATOM      1  C   UNL     1      27.570  33.547  15.585  1.00  0.00     0.272 C 
ATOM      2  C   UNL     1      27.882  34.493  16.714  1.00  0.00     0.113 C 
ATOM      3  C   UNL     1      28.922  33.837  17.589  1.00  0.00     0.145 C 
ATOM      4  C   UNL     1      28.176  32.686  18.304  1.00  0.00     0.142 C 
ATOM      5  C   UNL     1      27.541  31.856  17.230  1.00  0.00     0.178 C 
ATOM      6  O   UNL     1      27.959  32.206  15.962  1.00  0.00    -0.332 OA
ENDROOT
BRANCH   1   7
ATOM      7  O   UNL     1      28.305  33.756  14.464  1.00  0.00    -0.338 OA
BRANCH   7   8
ATOM      8  C   UNL     1      28.423  34.925  13.858  1.00  0.00     0.199 C 
BRANCH   8   9
ATOM      9  C   UNL     1      29.693  35.577  13.493  1.00  0.00     0.179 C 
ATOM     10  C   UNL     1      31.297  36.965  14.399  1.00  0.00     0.282 C 
ATOM     11  O   UNL     1      30.292  36.083  14.696  1.00  0.00    -0.341 OA
ATOM     12  C   UNL     1      31.881  36.872  13.034  1.00  0.00     0.202 C 
ATOM     13  C   UNL     1      31.883  35.474  12.455  1.00  0.00     0.179 C 
ATOM     14  C   UNL     1      30.772  34.628  12.987  1.00  0.00     0.177 C 
BRANCH  10  15
ATOM     15  O   UNL     1      32.249  36.884  15.419  1.00  0.00    -0.341 OA
BRANCH  15  16
ATOM     16  C   UNL     1      31.767  36.341  16.587  1.00  0.00     0.184 C 
ATOM     17  C   UNL     1      31.597  37.351  17.700  1.00  0.00     0.178 C 
ATOM     18  O   UNL     1      32.093  36.922  18.914  1.00  0.00    -0.341 OA
ATOM     19  C   UNL     1      33.436  36.660  18.955  1.00  0.00     0.281 C 
ATOM     20  C   UNL     1      32.824  35.317  17.041  1.00  0.00     0.180 C 
ATOM     21  C   UNL     1      33.940  36.169  17.616  1.00  0.00     0.202 C 
BRANCH  17  22
ATOM     22  C   UNL     1      30.094  37.520  17.882  1.00  0.00     0.191 C 
BRANCH  22  23
ATOM     23  O   UNL     1      29.710  36.985  19.112  1.00  0.00    -0.394 OA
ATOM     24  H   UNL     1      28.941  36.387  19.056  1.00  0.00     0.210 HD
ENDBRANCH  22  23
ENDBRANCH  17  22
BRANCH  19  25
ATOM     25  O   UNL     1      33.652  35.745  19.970  1.00  0.00    -0.350 OA
BRANCH  25  26
ATOM     26  C   UNL     1      34.598  36.087  20.885  1.00  0.00     0.169 C 
BRANCH  26  27
ATOM     27  C   UNL     1      34.067  36.901  22.055  1.00  0.00     0.119 C 
BRANCH  27  28
ATOM     28  N   UNL     1      32.793  36.382  22.516  1.00  0.00    -0.092 NA
ATOM     29  N   UNL     1      31.799  37.109  22.377  1.00  0.00     0.001 N 
ATOM     30  N   UNL     1      30.716  37.582  21.967  1.00  0.00    -0.003 NA
ENDBRANCH  27  28
ENDBRANCH  26  27
ENDBRANCH  25  26
ENDBRANCH  19  25
BRANCH  20  31
ATOM     31  O   UNL     1      32.191  34.548  18.023  1.00  0.00    -0.387 OA
ATOM     32  H   UNL     1      32.577  34.851  18.887  1.00  0.00     0.211 HD
ENDBRANCH  20  31
BRANCH  21  33
ATOM     33  O   UNL     1      34.066  37.296  16.786  1.00  0.00    -0.385 OA
ATOM     34  H   UNL     1      33.958  37.027  15.825  1.00  0.00     0.211 HD
ENDBRANCH  21  33
ENDBRANCH  15  16
ENDBRANCH  10  15
BRANCH  12  35
ATOM     35  O   UNL     1      31.370  37.797  12.122  1.00  0.00    -0.385 OA
ATOM     36  H   UNL     1      30.434  37.943  12.364  1.00  0.00     0.211 HD
ENDBRANCH  12  35
BRANCH  13  37
ATOM     37  O   UNL     1      33.130  34.853  12.646  1.00  0.00    -0.387 OA
ATOM     38  H   UNL     1      33.616  35.263  13.410  1.00  0.00     0.211 HD
ENDBRANCH  13  37
BRANCH  14  39
ATOM     39  O   UNL     1      31.283  33.960  14.124  1.00  0.00    -0.387 OA
ATOM     40  H   UNL     1      32.080  33.445  13.877  1.00  0.00     0.211 HD
ENDBRANCH  14  39
ENDBRANCH   8   9
ENDBRANCH   7   8
ENDBRANCH   1   7
BRANCH   1  41
ATOM     41  C   UNL     1      26.135  33.404  15.343  1.00  0.00     0.364 C 
ATOM     42  O   UNL     1      25.299  34.164  15.838  1.00  0.00    -0.246 OA
BRANCH  41  43
ATOM     43  O   UNL     1      25.608  32.385  14.529  1.00  0.00    -0.477 OA
ATOM     44  H   UNL     1      25.747  32.478  13.530  1.00  0.00     0.296 HD
ENDBRANCH  41  43
ENDBRANCH   1  41
BRANCH   3  45
ATOM     45  O   UNL     1      29.834  33.197  16.747  1.00  0.00    -0.391 OA
ATOM     46  H   UNL     1      30.722  33.601  16.808  1.00  0.00     0.211 HD
ENDBRANCH   3  45
BRANCH   5  47
ATOM     47  C   UNL     1      28.098  30.432  17.417  1.00  0.00     0.176 C 
BRANCH  47  48
ATOM     48  O   UNL     1      29.412  30.402  16.892  1.00  0.00    -0.388 OA
ATOM     49  H   UNL     1      29.927  29.653  17.238  1.00  0.00     0.211 HD
ENDBRANCH  47  48
BRANCH  47  50
ATOM     50  C   UNL     1      27.342  29.414  16.580  1.00  0.00     0.165 C 
BRANCH  50  51
ATOM     51  O   UNL     1      26.192  29.898  16.050  1.00  0.00    -0.388 OA
ATOM     52  H   UNL     1      26.146  29.937  15.066  1.00  0.00     0.211 HD
ENDBRANCH  50  51
BRANCH  50  53
ATOM     53  C   UNL     1      27.083  28.164  17.396  1.00  0.00     0.154 C 
BRANCH  53  54
ATOM     54  N   UNL     1      27.831  28.036  18.593  1.00  0.00    -0.319 N 
ATOM     55  C   UNL     1      27.276  28.003  19.876  1.00  0.00     0.407 C 
ATOM     56  H   UNL     1      28.904  27.957  18.534  1.00  0.00     0.167 HD
ATOM     57  O   UNL     1      26.052  28.075  20.073  1.00  0.00    -0.225 OA
BRANCH  55  58
ATOM     58  O   UNL     1      28.091  27.886  21.028  1.00  0.00    -0.443 OA
BRANCH  58  59
ATOM     59  C   UNL     1      29.497  27.934  20.939  1.00  0.00     0.294 C 
BRANCH  59  60
ATOM     60  C   UNL     1      30.030  29.295  20.727  1.00  0.00     0.120 A 
ATOM     61  C   UNL     1      30.205  30.285  21.673  1.00  0.00     0.139 A 
ATOM     62  N   UNL     1      30.452  29.829  19.570  1.00  0.00    -0.132 NA
ATOM     63  N   UNL     1      30.723  31.384  21.073  1.00  0.00    -0.244 N 
ATOM     64  N   UNL     1      30.863  31.080  19.793  1.00  0.00    -0.066 NA
BRANCH  63  65
ATOM     65  C   UNL     1      31.049  32.624  21.730  1.00  0.00     0.082 C 
ATOM     66  C   UNL     1      32.511  32.916  21.567  1.00  0.00     0.039 C 
ATOM     67  C   UNL     1      30.784  32.506  23.238  1.00  0.00     0.039 C 
BRANCH  65  68
ATOM     68  C   UNL     1      30.254  33.800  21.238  1.00  0.00     0.186 C 
BRANCH  68  69
ATOM     69  O   UNL     1      31.004  34.721  20.545  1.00  0.00    -0.394 OA
ATOM     70  H   UNL     1      31.764  35.085  21.025  1.00  0.00     0.210 HD
ENDBRANCH  68  69
ENDBRANCH  65  68
ENDBRANCH  63  65
ENDBRANCH  59  60
ENDBRANCH  58  59
ENDBRANCH  55  58
ENDBRANCH  53  54
ENDBRANCH  50  53
ENDBRANCH  47  50
ENDBRANCH   5  47
BRANCH   4  71
ATOM     71  N   UNL     1      27.272  33.320  19.210  1.00  0.00    -0.348 N 
ATOM     72  C   UNL     1      26.775  32.773  20.416  1.00  0.00     0.217 C 
ATOM     73  H   UNL     1      26.910  34.296  18.992  1.00  0.00     0.163 HD
ATOM     74  C   UNL     1      25.831  33.513  21.296  1.00  0.00     0.114 C 
ATOM     75  O   UNL     1      27.134  31.636  20.762  1.00  0.00    -0.275 OA
ENDBRANCH   4  71
TORSDOF 32
BEGIN_RES LYS A 131
REMARK  4 active torsions:
REMARK  status: ('A' for Active; 'I' for Inactive)
REMARK    1  A    between atoms: CA   and  CB  
REMARK    2  A    between atoms: CB   and  CG  
REMARK    3  A    between atoms: CG   and  CD  
REMARK    4  A    between atoms: CD   and  CE  
ROOT
ATOM      1  CA  LYS A 131      29.867  25.555  16.977  1.00 20.52     0.186 C 
ENDROOT
BRANCH   1   2
ATOM      2  CB  LYS A 131      28.345  25.722  17.026  1.00 20.94     0.034 C 
BRANCH   2   3
ATOM      3  CG  LYS A 131      27.599  24.441  16.684  1.00 22.96     0.005 C 
BRANCH   3   4
ATOM      4  CD  LYS A 131      27.008  23.788  17.903  1.00 24.33     0.041 C 
BRANCH   4   5
ATOM      5  CE  LYS A 131      25.591  23.316  17.591  1.00 26.91     0.338 C 
ATOM      6  NZ  LYS A 131      24.824  24.389  16.915  1.00 27.40     0.618 N 
ENDBRANCH   4   5
ENDBRANCH   3   4
ENDBRANCH   2   3
ENDBRANCH   1   2
END_RES LYS A 131
BEGIN_RES LYS A 135
REMARK  4 active torsions:
REMARK  status: ('A' for Active; 'I' for Inactive)
REMARK    5  A    between atoms: CA   and  CB  
REMARK    6  A    between atoms: CB   and  CG  
REMARK    7  A    between atoms: CG   and  CD  
REMARK    8  A    between atoms: CD   and  CE  
ROOT
ATOM      7  CA  LYS A 135      33.193  34.663   9.290  1.00 25.02     0.186 C 
ENDROOT
BRANCH   7   8
ATOM      8  CB  LYS A 135      32.060  35.360  10.034  1.00 26.63     0.034 C 
BRANCH   8   9
ATOM      9  CG  LYS A 135      30.844  35.612   9.180  1.00 29.45     0.005 C 
BRANCH   9  10
ATOM     10  CD  LYS A 135      30.232  34.299   8.718  1.00 32.00     0.041 C 
BRANCH  10  11
ATOM     11  CE  LYS A 135      28.736  34.451   8.514  1.00 34.25     0.338 C 
ATOM     12  NZ  LYS A 135      27.975  33.719   9.564  1.00 35.99     0.618 N 
ENDBRANCH  10  11
ENDBRANCH   9  10
ENDBRANCH   8   9
ENDBRANCH   7   8
END_RES LYS A 135
