REMARK VINA RESULT:    -5.004      4.176      7.128
REMARK INTER + INTRA:         -22.472
REMARK INTER:                 -12.397
REMARK INTRA:                 -10.074
REMARK UNBOUND:                -9.861
REMARK SMILES CC(=O)N[C@@H]1[C@@H](O)C[C@](OC[C@H]2O[C@@H](O[C@H]3[C@H](O)[C@@H](O)[C@H](OCCN=[N+]=[N-])O[C@@H]3CO)[C@H](O)[C@@H](O)[C@H]2O)(C(=O)O)O[C@H]1C(O)[C@H](O)CNC(=O)OCc1cn(-c2ccc([N+](=O)[O-])cc2)nn1
REMARK SMILES IDX 9 1 8 2 6 3 5 4 42 5 41 6 10 7 11 8 12 9 14 10 13 11 32 12
REMARK SMILES IDX 34 13 36 14 15 15 16 16 29 17 28 18 21 19 17 20 19 21 30 22
REMARK SMILES IDX 31 23 22 25 23 26 24 27 25 28 26 29 27 30 18 31 20 33 33 35
REMARK SMILES IDX 35 37 37 39 38 41 39 42 40 43 7 45 43 47 44 48 45 50 46 51
REMARK SMILES IDX 47 53 48 54 49 55 50 57 51 58 52 59 53 60 54 61 66 62 55 63
REMARK SMILES IDX 65 64 56 65 57 66 64 67 58 68 63 69 59 70 60 71 61 72 62 73
REMARK SMILES IDX 4 74 2 75 1 77 3 78
REMARK H PARENT 31 24 18 32 20 34 33 36 35 38 37 40 40 44 7 46 44 49 46 52
REMARK H PARENT 48 56 4 76
REMARK Flexibility Score: inf
ROOT
ATOM      1  C   UNL     1      29.037  39.227  10.664  1.00  0.00     0.272 C 
ATOM      2  C   UNL     1      30.372  39.856  10.894  1.00  0.00     0.113 C 
ATOM      3  C   UNL     1      31.314  38.868  11.434  1.00  0.00     0.145 C 
ATOM      4  C   UNL     1      30.691  37.554  11.939  1.00  0.00     0.142 C 
ATOM      5  C   UNL     1      29.396  37.844  12.540  1.00  0.00     0.178 C 
ATOM      6  O   UNL     1      28.571  38.746  11.875  1.00  0.00    -0.332 OA
ENDROOT
BRANCH   1   7
ATOM      7  O   UNL     1      28.976  38.326   9.647  1.00  0.00    -0.338 OA
BRANCH   7   8
ATOM      8  C   UNL     1      29.423  38.735   8.432  1.00  0.00     0.199 C 
BRANCH   8   9
ATOM      9  C   UNL     1      28.904  37.845   7.309  1.00  0.00     0.179 C 
ATOM     10  C   UNL     1      26.584  38.105   7.164  1.00  0.00     0.282 C 
ATOM     11  O   UNL     1      27.648  37.351   7.546  1.00  0.00    -0.341 OA
ATOM     12  C   UNL     1      26.831  39.381   6.469  1.00  0.00     0.202 C 
ATOM     13  C   UNL     1      27.978  39.268   5.499  1.00  0.00     0.179 C 
ATOM     14  C   UNL     1      29.095  38.393   5.940  1.00  0.00     0.177 C 
BRANCH  10  15
ATOM     15  O   UNL     1      25.732  38.207   8.259  1.00  0.00    -0.341 OA
BRANCH  15  16
ATOM     16  C   UNL     1      25.044  37.097   8.618  1.00  0.00     0.184 C 
ATOM     17  C   UNL     1      23.540  37.261   8.593  1.00  0.00     0.178 C 
ATOM     18  O   UNL     1      22.959  36.058   9.043  1.00  0.00    -0.341 OA
ATOM     19  C   UNL     1      23.150  35.951  10.421  1.00  0.00     0.281 C 
ATOM     20  C   UNL     1      25.369  36.850  10.104  1.00  0.00     0.180 C 
ATOM     21  C   UNL     1      24.638  35.610  10.577  1.00  0.00     0.202 C 
BRANCH  17  22
ATOM     22  C   UNL     1      22.967  37.511   7.223  1.00  0.00     0.191 C 
BRANCH  22  23
ATOM     23  O   UNL     1      21.809  36.697   7.153  1.00  0.00    -0.394 OA
ATOM     24  H   UNL     1      22.043  35.788   6.829  1.00  0.00     0.210 HD
ENDBRANCH  22  23
ENDBRANCH  17  22
BRANCH  19  25
ATOM     25  O   UNL     1      22.413  34.912  10.927  1.00  0.00    -0.350 OA
BRANCH  25  26
ATOM     26  C   UNL     1      21.178  35.236  11.427  1.00  0.00     0.169 C 
BRANCH  26  27
ATOM     27  C   UNL     1      20.140  34.156  11.311  1.00  0.00     0.119 C 
BRANCH  27  28
ATOM     28  N   UNL     1      19.145  34.579  10.324  1.00  0.00    -0.092 NA
ATOM     29  N   UNL     1      19.496  34.809   9.176  1.00  0.00     0.001 N 
ATOM     30  N   UNL     1      19.830  34.800   8.002  1.00  0.00    -0.003 NA
ENDBRANCH  27  28
ENDBRANCH  26  27
ENDBRANCH  25  26
ENDBRANCH  19  25
BRANCH  20  31
ATOM     31  O   UNL     1      26.715  36.807  10.337  1.00  0.00    -0.387 OA
ATOM     32  H   UNL     1      27.057  37.466  10.972  1.00  0.00     0.211 HD
ENDBRANCH  20  31
BRANCH  21  33
ATOM     33  O   UNL     1      24.976  35.333  11.874  1.00  0.00    -0.385 OA
ATOM     34  H   UNL     1      25.905  35.623  12.033  1.00  0.00     0.211 HD
ENDBRANCH  21  33
ENDBRANCH  15  16
ENDBRANCH  10  15
BRANCH  12  35
ATOM     35  O   UNL     1      25.717  39.681   5.661  1.00  0.00    -0.385 OA
ATOM     36  H   UNL     1      25.182  38.888   5.469  1.00  0.00     0.211 HD
ENDBRANCH  12  35
BRANCH  13  37
ATOM     37  O   UNL     1      28.432  40.571   5.180  1.00  0.00    -0.387 OA
ATOM     38  H   UNL     1      28.364  40.674   4.217  1.00  0.00     0.211 HD
ENDBRANCH  13  37
BRANCH  14  39
ATOM     39  O   UNL     1      30.359  38.957   5.829  1.00  0.00    -0.387 OA
ATOM     40  H   UNL     1      30.970  38.241   5.504  1.00  0.00     0.211 HD
ENDBRANCH  14  39
ENDBRANCH   8   9
ENDBRANCH   7   8
ENDBRANCH   1   7
BRANCH   1  41
ATOM     41  C   UNL     1      28.054  40.341  10.366  1.00  0.00     0.364 C 
ATOM     42  O   UNL     1      28.450  41.519  10.277  1.00  0.00    -0.246 OA
BRANCH  41  43
ATOM     43  O   UNL     1      26.730  40.046  10.200  1.00  0.00    -0.477 OA
ATOM     44  H   UNL     1      26.358  39.119  10.012  1.00  0.00     0.296 HD
ENDBRANCH  41  43
ENDBRANCH   1  41
BRANCH   3  45
ATOM     45  O   UNL     1      32.261  38.501  10.481  1.00  0.00    -0.391 OA
ATOM     46  H   UNL     1      31.899  38.579   9.576  1.00  0.00     0.211 HD
ENDBRANCH   3  45
BRANCH   5  47
ATOM     47  C   UNL     1      28.482  36.795  12.998  1.00  0.00     0.176 C 
BRANCH  47  48
ATOM     48  O   UNL     1      28.540  35.577  12.314  1.00  0.00    -0.388 OA
ATOM     49  H   UNL     1      28.004  34.863  12.701  1.00  0.00     0.211 HD
ENDBRANCH  47  48
BRANCH  47  50
ATOM     50  C   UNL     1      28.387  36.441  14.447  1.00  0.00     0.165 C 
BRANCH  50  51
ATOM     51  O   UNL     1      29.344  35.609  14.939  1.00  0.00    -0.388 OA
ATOM     52  H   UNL     1      30.222  35.721  14.489  1.00  0.00     0.211 HD
ENDBRANCH  50  51
BRANCH  50  53
ATOM     53  C   UNL     1      26.973  36.215  14.911  1.00  0.00     0.154 C 
BRANCH  53  54
ATOM     54  N   UNL     1      26.376  34.984  14.466  1.00  0.00    -0.319 N 
ATOM     55  C   UNL     1      26.495  33.745  15.141  1.00  0.00     0.407 C 
ATOM     56  H   UNL     1      25.801  34.961  13.582  1.00  0.00     0.167 HD
ATOM     57  O   UNL     1      27.155  33.674  16.181  1.00  0.00    -0.225 OA
BRANCH  55  58
ATOM     58  O   UNL     1      25.884  32.585  14.661  1.00  0.00    -0.443 OA
BRANCH  58  59
ATOM     59  C   UNL     1      24.845  31.909  15.318  1.00  0.00     0.294 C 
BRANCH  59  60
ATOM     60  C   UNL     1      24.136  31.011  14.384  1.00  0.00     0.121 A 
ATOM     61  C   UNL     1      22.883  30.420  14.535  1.00  0.00     0.144 A 
ATOM     62  N   UNL     1      24.558  30.582  13.158  1.00  0.00    -0.131 NA
ATOM     63  N   UNL     1      22.597  29.685  13.444  1.00  0.00    -0.220 N 
ATOM     64  N   UNL     1      23.627  29.804  12.636  1.00  0.00    -0.062 NA
BRANCH  63  65
ATOM     65  C   UNL     1      21.406  28.930  13.195  1.00  0.00     0.067 A 
ATOM     66  C   UNL     1      20.730  28.943  11.999  1.00  0.00     0.035 A 
ATOM     67  C   UNL     1      20.880  28.141  14.208  1.00  0.00     0.035 A 
ATOM     68  C   UNL     1      19.568  28.196  11.813  1.00  0.00     0.088 A 
ATOM     69  C   UNL     1      19.731  27.401  14.028  1.00  0.00     0.088 A 
ATOM     70  C   UNL     1      19.051  27.412  12.829  1.00  0.00     0.269 A 
BRANCH  70  71
ATOM     71  N   UNL     1      17.862  26.656  12.628  1.00  0.00     0.062 N 
ATOM     72  O   UNL     1      16.775  27.146  12.281  1.00  0.00    -0.258 OA
ATOM     73  O   UNL     1      17.923  25.302  12.835  1.00  0.00    -0.258 OA
ENDBRANCH  70  71
ENDBRANCH  63  65
ENDBRANCH  59  60
ENDBRANCH  58  59
ENDBRANCH  55  58
ENDBRANCH  53  54
ENDBRANCH  50  53
ENDBRANCH  47  50
ENDBRANCH   5  47
BRANCH   4  74
ATOM     74  N   UNL     1      31.654  37.188  12.991  1.00  0.00    -0.348 N 
ATOM     75  C   UNL     1      31.980  35.854  13.287  1.00  0.00     0.217 C 
ATOM     76  H   UNL     1      32.103  37.960  13.514  1.00  0.00     0.163 HD
ATOM     77  C   UNL     1      32.967  35.590  14.378  1.00  0.00     0.114 C 
ATOM     78  O   UNL     1      31.483  34.892  12.681  1.00  0.00    -0.275 OA
ENDBRANCH   4  74
TORSDOF 31
BEGIN_RES LYS A 131
REMARK  4 active torsions:
REMARK  status: ('A' for Active; 'I' for Inactive)
REMARK    1  A    between atoms: CA   and  CB  
REMARK    2  A    between atoms: CB   and  CG  
REMARK    3  A    between atoms: CG   and  CD  
REMARK    4  A    between atoms: CD   and  CE  
ROOT
ATOM      1  CA  LYS A 131      29.867  25.555  16.977  1.00 20.52     0.186 C 
ENDROOT
BRANCH   1   2
ATOM      2  CB  LYS A 131      28.345  25.722  17.026  1.00 20.94     0.034 C 
BRANCH   2   3
ATOM      3  CG  LYS A 131      27.601  24.401  16.904  1.00 22.96     0.005 C 
BRANCH   3   4
ATOM      4  CD  LYS A 131      26.152  24.529  17.285  1.00 24.33     0.041 C 
BRANCH   4   5
ATOM      5  CE  LYS A 131      25.634  23.181  17.775  1.00 26.91     0.338 C 
ATOM      6  NZ  LYS A 131      25.477  23.191  19.249  1.00 27.40     0.618 N 
ENDBRANCH   4   5
ENDBRANCH   3   4
ENDBRANCH   2   3
ENDBRANCH   1   2
END_RES LYS A 131
BEGIN_RES LYS A 135
REMARK  4 active torsions:
REMARK  status: ('A' for Active; 'I' for Inactive)
REMARK    5  A    between atoms: CA   and  CB  
REMARK    6  A    between atoms: CB   and  CG  
REMARK    7  A    between atoms: CG   and  CD  
REMARK    8  A    between atoms: CD   and  CE  
ROOT
ATOM      7  CA  LYS A 135      33.193  34.663   9.290  1.00 25.02     0.186 C 
ENDROOT
BRANCH   7   8
ATOM      8  CB  LYS A 135      32.060  35.360  10.034  1.00 26.63     0.034 C 
BRANCH   8   9
ATOM      9  CG  LYS A 135      30.784  35.454   9.237  1.00 29.45     0.005 C 
BRANCH   9  10
ATOM     10  CD  LYS A 135      30.167  34.077   9.048  1.00 32.00     0.041 C 
BRANCH  10  11
ATOM     11  CE  LYS A 135      28.709  34.198   8.649  1.00 34.25     0.338 C 
ATOM     12  NZ  LYS A 135      27.816  33.652   9.709  1.00 35.99     0.618 N 
ENDBRANCH  10  11
ENDBRANCH   9  10
ENDBRANCH   8   9
ENDBRANCH   7   8
END_RES LYS A 135
