REMARK VINA RESULT:    -4.368      0.000      0.000
REMARK INTER + INTRA:         -24.845
REMARK INTER:                 -11.396
REMARK INTRA:                 -13.450
REMARK UNBOUND:               -13.073
REMARK SMILES CC(=O)N[C@@H]1[C@@H](O)C[C@](OC[C@H]2O[C@@H](O[C@H]3[C@H](O)[C@@H](O)[C@H](OCCN=[N+]=[N-])O[C@@H]3CO)[C@H](O)[C@@H](O)[C@H]2O)(C(=O)O)O[C@H]1C(O)[C@H](O)CNC(=O)OCc1cn(C[C@@H](C)CN2CCN(c3ccc(Cl)cc3)CC2)nn1
REMARK SMILES IDX 43 1 42 2 9 3 8 4 41 5 6 6 5 7 10 8 11 9 12 10 14 11 13 12
REMARK SMILES IDX 32 13 34 14 36 15 15 16 16 17 29 18 28 19 21 20 17 21 19 22
REMARK SMILES IDX 30 23 31 24 22 26 23 27 24 28 25 29 26 30 27 31 18 32 20 34
REMARK SMILES IDX 33 36 35 38 37 40 38 42 39 43 40 44 7 46 4 48 2 49 1 51 3 52
REMARK SMILES IDX 44 53 45 55 46 56 47 58 48 59 49 60 50 62 51 63 52 64 53 65
REMARK SMILES IDX 54 66 74 67 55 68 73 69 56 70 57 71 58 72 59 73 60 74 61 75
REMARK SMILES IDX 72 76 62 77 71 78 63 79 64 80 65 81 70 82 66 83 69 84 67 85
REMARK SMILES IDX 68 86
REMARK H PARENT 31 25 18 33 20 35 33 37 35 39 37 41 40 45 7 47 4 50 44 54
REMARK H PARENT 46 57 48 61
REMARK Flexibility Score: inf
ROOT
ATOM      1  C   UNL     1      22.082  35.434   8.923  1.00  0.00     0.176 C 
ENDROOT
BRANCH   1   2
ATOM      2  C   UNL     1      21.319  35.600  10.229  1.00  0.00     0.178 C 
ATOM      3  C   UNL     1      21.265  34.958  12.502  1.00  0.00     0.272 C 
ATOM      4  C   UNL     1      19.858  35.290  12.437  1.00  0.00     0.113 C 
ATOM      5  O   UNL     1      21.781  34.756  11.184  1.00  0.00    -0.332 OA
ATOM      6  C   UNL     1      19.193  34.836  11.151  1.00  0.00     0.145 C 
ATOM      7  C   UNL     1      19.844  35.636  10.014  1.00  0.00     0.142 C 
BRANCH   3   8
ATOM      8  O   UNL     1      21.706  33.901  13.179  1.00  0.00    -0.338 OA
BRANCH   8   9
ATOM      9  C   UNL     1      21.744  33.697  14.470  1.00  0.00     0.199 C 
BRANCH   9  10
ATOM     10  C   UNL     1      22.361  32.479  15.095  1.00  0.00     0.179 C 
ATOM     11  C   UNL     1      22.911  30.362  14.282  1.00  0.00     0.282 C 
ATOM     12  O   UNL     1      21.948  31.299  14.547  1.00  0.00    -0.341 OA
ATOM     13  C   UNL     1      23.848  30.902  13.217  1.00  0.00     0.202 C 
ATOM     14  C   UNL     1      24.456  32.168  13.727  1.00  0.00     0.179 C 
ATOM     15  C   UNL     1      23.888  32.628  15.026  1.00  0.00     0.177 C 
BRANCH  11  16
ATOM     16  O   UNL     1      22.233  29.253  13.721  1.00  0.00    -0.341 OA
BRANCH  16  17
ATOM     17  C   UNL     1      20.890  29.524  13.651  1.00  0.00     0.184 C 
ATOM     18  C   UNL     1      20.035  28.377  14.147  1.00  0.00     0.178 C 
ATOM     19  O   UNL     1      19.314  27.741  13.183  1.00  0.00    -0.341 OA
ATOM     20  C   UNL     1      18.484  28.534  12.411  1.00  0.00     0.281 C 
ATOM     21  C   UNL     1      20.468  29.945  12.247  1.00  0.00     0.180 C 
ATOM     22  C   UNL     1      18.957  29.950  12.232  1.00  0.00     0.202 C 
BRANCH  18  23
ATOM     23  C   UNL     1      19.207  28.766  15.362  1.00  0.00     0.191 C 
BRANCH  23  24
ATOM     24  O   UNL     1      19.430  30.064  15.750  1.00  0.00    -0.394 OA
ATOM     25  H   UNL     1      20.228  30.390  15.232  1.00  0.00     0.210 HD
ENDBRANCH  23  24
ENDBRANCH  18  23
BRANCH  20  26
ATOM     26  O   UNL     1      17.172  28.532  12.870  1.00  0.00    -0.350 OA
BRANCH  26  27
ATOM     27  C   UNL     1      16.668  29.747  13.233  1.00  0.00     0.169 C 
BRANCH  27  28
ATOM     28  C   UNL     1      15.269  29.952  12.723  1.00  0.00     0.119 C 
BRANCH  28  29
ATOM     29  N   UNL     1      15.327  30.490  11.373  1.00  0.00    -0.092 NA
ATOM     30  N   UNL     1      15.823  31.616  11.185  1.00  0.00     0.001 N 
ATOM     31  N   UNL     1      16.332  32.729  11.139  1.00  0.00    -0.003 NA
ENDBRANCH  28  29
ENDBRANCH  27  28
ENDBRANCH  26  27
ENDBRANCH  20  26
BRANCH  21  32
ATOM     32  O   UNL     1      20.895  31.243  11.972  1.00  0.00    -0.387 OA
ATOM     33  H   UNL     1      20.261  31.842  12.466  1.00  0.00     0.211 HD
ENDBRANCH  21  32
BRANCH  22  34
ATOM     34  O   UNL     1      18.534  30.387  10.953  1.00  0.00    -0.385 OA
ATOM     35  H   UNL     1      19.202  30.252  10.262  1.00  0.00     0.211 HD
ENDBRANCH  22  34
ENDBRANCH  16  17
ENDBRANCH  11  16
BRANCH  13  36
ATOM     36  O   UNL     1      24.778  29.920  12.925  1.00  0.00    -0.385 OA
ATOM     37  H   UNL     1      24.280  29.180  12.468  1.00  0.00     0.211 HD
ENDBRANCH  13  36
BRANCH  14  38
ATOM     38  O   UNL     1      24.438  33.203  12.782  1.00  0.00    -0.387 OA
ATOM     39  H   UNL     1      25.345  33.408  12.462  1.00  0.00     0.211 HD
ENDBRANCH  14  38
BRANCH  15  40
ATOM     40  O   UNL     1      24.216  33.937  15.277  1.00  0.00    -0.387 OA
ATOM     41  H   UNL     1      23.492  34.429  15.728  1.00  0.00     0.211 HD
ENDBRANCH  15  40
ENDBRANCH   9  10
ENDBRANCH   8   9
ENDBRANCH   3   8
BRANCH   3  42
ATOM     42  C   UNL     1      22.068  36.176  12.917  1.00  0.00     0.364 C 
ATOM     43  O   UNL     1      21.475  37.220  13.362  1.00  0.00    -0.246 OA
BRANCH  42  44
ATOM     44  O   UNL     1      23.435  36.260  12.848  1.00  0.00    -0.477 OA
ATOM     45  H   UNL     1      23.920  36.305  11.960  1.00  0.00     0.296 HD
ENDBRANCH  42  44
ENDBRANCH   3  42
BRANCH   6  46
ATOM     46  O   UNL     1      19.474  33.477  11.005  1.00  0.00    -0.391 OA
ATOM     47  H   UNL     1      18.798  32.916  11.454  1.00  0.00     0.211 HD
ENDBRANCH   6  46
BRANCH   7  48
ATOM     48  N   UNL     1      19.302  36.979  10.076  1.00  0.00    -0.348 N 
ATOM     49  C   UNL     1      19.024  37.689   8.880  1.00  0.00     0.217 C 
ATOM     50  H   UNL     1      19.101  37.470  10.990  1.00  0.00     0.163 HD
ATOM     51  C   UNL     1      18.462  39.082   8.988  1.00  0.00     0.114 C 
ATOM     52  O   UNL     1      19.224  37.210   7.728  1.00  0.00    -0.275 OA
ENDBRANCH   7  48
ENDBRANCH   1   2
BRANCH   1  53
ATOM     53  O   UNL     1      21.170  34.991   7.966  1.00  0.00    -0.388 OA
ATOM     54  H   UNL     1      21.457  35.238   7.056  1.00  0.00     0.211 HD
ENDBRANCH   1  53
BRANCH   1  55
ATOM     55  C   UNL     1      22.671  36.711   8.394  1.00  0.00     0.165 C 
BRANCH  55  56
ATOM     56  O   UNL     1      22.205  37.112   7.169  1.00  0.00    -0.388 OA
ATOM     57  H   UNL     1      22.548  36.573   6.436  1.00  0.00     0.211 HD
ENDBRANCH  55  56
BRANCH  55  58
ATOM     58  C   UNL     1      24.159  36.781   8.453  1.00  0.00     0.154 C 
BRANCH  58  59
ATOM     59  N   UNL     1      24.581  36.491   9.826  1.00  0.00    -0.319 N 
ATOM     60  C   UNL     1      25.542  35.492  10.106  1.00  0.00     0.407 C 
ATOM     61  H   UNL     1      24.161  37.035  10.606  1.00  0.00     0.167 HD
ATOM     62  O   UNL     1      26.025  34.850   9.141  1.00  0.00    -0.225 OA
BRANCH  60  63
ATOM     63  O   UNL     1      25.932  35.238  11.414  1.00  0.00    -0.443 OA
BRANCH  63  64
ATOM     64  C   UNL     1      27.308  34.942  11.654  1.00  0.00     0.294 C 
BRANCH  64  65
ATOM     65  C   UNL     1      27.596  34.733  13.092  1.00  0.00     0.120 A 
ATOM     66  C   UNL     1      28.814  34.446  13.663  1.00  0.00     0.138 A 
ATOM     67  N   UNL     1      26.719  34.779  14.123  1.00  0.00    -0.132 NA
ATOM     68  N   UNL     1      28.624  34.334  14.974  1.00  0.00    -0.252 N 
ATOM     69  N   UNL     1      27.354  34.536  15.248  1.00  0.00    -0.067 NA
BRANCH  68  70
ATOM     70  C   UNL     1      29.679  34.022  15.939  1.00  0.00     0.150 C 
BRANCH  70  71
ATOM     71  C   UNL     1      30.592  32.916  15.401  1.00  0.00     0.022 C 
ATOM     72  C   UNL     1      31.927  33.577  15.137  1.00  0.00     0.011 C 
BRANCH  71  73
ATOM     73  C   UNL     1      30.704  31.832  16.427  1.00  0.00     0.089 C 
BRANCH  73  74
ATOM     74  N   UNL     1      29.617  30.963  16.608  1.00  0.00    -0.299 NA
ATOM     75  C   UNL     1      28.772  30.620  15.544  1.00  0.00     0.106 C 
ATOM     76  C   UNL     1      29.039  30.977  17.914  1.00  0.00     0.106 C 
ATOM     77  C   UNL     1      27.295  30.842  15.871  1.00  0.00     0.132 C 
ATOM     78  C   UNL     1      28.035  29.844  18.033  1.00  0.00     0.132 C 
ATOM     79  N   UNL     1      26.971  30.136  17.109  1.00  0.00    -0.369 N 
BRANCH  79  80
ATOM     80  C   UNL     1      25.643  29.772  17.362  1.00  0.00     0.037 A 
ATOM     81  C   UNL     1      25.148  28.509  17.046  1.00  0.00     0.027 A 
ATOM     82  C   UNL     1      24.728  30.634  17.951  1.00  0.00     0.027 A 
ATOM     83  C   UNL     1      23.851  28.125  17.290  1.00  0.00     0.022 A 
ATOM     84  C   UNL     1      23.425  30.251  18.198  1.00  0.00     0.022 A 
ATOM     85  C   UNL     1      22.966  28.994  17.872  1.00  0.00     0.041 A 
ATOM     86  Cl  UNL     1      21.332  28.509  18.180  1.00  0.00    -0.084 Cl
ENDBRANCH  79  80
ENDBRANCH  73  74
ENDBRANCH  71  73
ENDBRANCH  70  71
ENDBRANCH  68  70
ENDBRANCH  64  65
ENDBRANCH  63  64
ENDBRANCH  60  63
ENDBRANCH  58  59
ENDBRANCH  55  58
ENDBRANCH   1  55
TORSDOF 34
BEGIN_RES LYS A 131
REMARK  4 active torsions:
REMARK  status: ('A' for Active; 'I' for Inactive)
REMARK    1  A    between atoms: CA   and  CB  
REMARK    2  A    between atoms: CB   and  CG  
REMARK    3  A    between atoms: CG   and  CD  
REMARK    4  A    between atoms: CD   and  CE  
ROOT
ATOM      1  CA  LYS A 131      29.867  25.555  16.977  1.00 20.52     0.186 C 
ENDROOT
BRANCH   1   2
ATOM      2  CB  LYS A 131      28.345  25.722  17.026  1.00 20.94     0.034 C 
BRANCH   2   3
ATOM      3  CG  LYS A 131      27.599  24.458  16.627  1.00 22.96     0.005 C 
BRANCH   3   4
ATOM      4  CD  LYS A 131      27.040  23.730  17.817  1.00 24.33     0.041 C 
BRANCH   4   5
ATOM      5  CE  LYS A 131      25.579  23.376  17.558  1.00 26.91     0.338 C 
ATOM      6  NZ  LYS A 131      24.824  24.574  17.121  1.00 27.40     0.618 N 
ENDBRANCH   4   5
ENDBRANCH   3   4
ENDBRANCH   2   3
ENDBRANCH   1   2
END_RES LYS A 131
BEGIN_RES LYS A 135
REMARK  4 active torsions:
REMARK  status: ('A' for Active; 'I' for Inactive)
REMARK    5  A    between atoms: CA   and  CB  
REMARK    6  A    between atoms: CB   and  CG  
REMARK    7  A    between atoms: CG   and  CD  
REMARK    8  A    between atoms: CD   and  CE  
ROOT
ATOM      7  CA  LYS A 135      33.193  34.663   9.290  1.00 25.02     0.186 C 
ENDROOT
BRANCH   7   8
ATOM      8  CB  LYS A 135      32.060  35.360  10.034  1.00 26.63     0.034 C 
BRANCH   8   9
ATOM      9  CG  LYS A 135      30.707  34.747   9.782  1.00 29.45     0.005 C 
BRANCH   9  10
ATOM     10  CD  LYS A 135      30.487  34.525   8.293  1.00 32.00     0.041 C 
BRANCH  10  11
ATOM     11  CE  LYS A 135      29.056  34.853   7.912  1.00 34.25     0.338 C 
ATOM     12  NZ  LYS A 135      28.999  35.563   6.604  1.00 35.99     0.618 N 
ENDBRANCH  10  11
ENDBRANCH   9  10
ENDBRANCH   8   9
ENDBRANCH   7   8
END_RES LYS A 135
