REMARK VINA RESULT:    -4.332      5.290     11.687
REMARK INTER + INTRA:         -22.363
REMARK INTER:                 -12.453
REMARK INTRA:                  -9.911
REMARK UNBOUND:               -11.447
REMARK SMILES CC(=O)N[C@@H]1[C@@H](O)C[C@](OC[C@H]2O[C@@H](O[C@H]3[C@H](O)[C@@H](O)[C@H](OCCN=[N+]=[N-])O[C@@H]3CO)[C@H](O)[C@@H](O)[C@H]2O)(C(=O)O)O[C@H]1C(O)[C@H](O)CNC(=O)OCc1cn(-c2ccccc2C(C)C)nn1
REMARK SMILES IDX 9 1 8 2 6 3 5 4 42 5 41 6 10 7 11 8 12 9 14 10 13 11 32 12
REMARK SMILES IDX 34 13 36 14 15 15 16 16 29 17 28 18 21 19 17 20 19 21 30 22
REMARK SMILES IDX 31 23 22 25 23 26 24 27 25 28 26 29 27 30 18 31 20 33 33 35
REMARK SMILES IDX 35 37 37 39 38 41 39 42 40 43 7 45 43 47 44 48 45 50 46 51
REMARK SMILES IDX 47 53 48 54 49 55 50 57 51 58 52 59 53 60 54 61 66 62 55 63
REMARK SMILES IDX 65 64 56 65 61 66 57 67 60 68 58 69 59 70 62 71 63 72 64 73
REMARK SMILES IDX 4 74 2 75 1 77 3 78
REMARK H PARENT 31 24 18 32 20 34 33 36 35 38 37 40 40 44 7 46 44 49 46 52
REMARK H PARENT 48 56 4 76
REMARK Flexibility Score: inf
ROOT
ATOM      1  C   UNL     1      29.799  33.577  15.402  1.00  0.00     0.272 C 
ATOM      2  C   UNL     1      31.094  32.996  15.920  1.00  0.00     0.113 C 
ATOM      3  C   UNL     1      31.182  33.325  17.402  1.00  0.00     0.145 C 
ATOM      4  C   UNL     1      31.385  34.847  17.507  1.00  0.00     0.142 C 
ATOM      5  C   UNL     1      30.344  35.491  16.672  1.00  0.00     0.178 C 
ATOM      6  O   UNL     1      29.369  34.562  16.341  1.00  0.00    -0.332 OA
ENDROOT
BRANCH   1   7
ATOM      7  O   UNL     1      28.794  32.681  15.406  1.00  0.00    -0.338 OA
BRANCH   7   8
ATOM      8  C   UNL     1      28.788  31.393  15.394  1.00  0.00     0.199 C 
BRANCH   8   9
ATOM      9  C   UNL     1      28.267  30.533  16.499  1.00  0.00     0.179 C 
ATOM     10  C   UNL     1      28.541  29.941  18.676  1.00  0.00     0.282 C 
ATOM     11  O   UNL     1      29.114  30.446  17.576  1.00  0.00    -0.341 OA
ATOM     12  C   UNL     1      27.227  29.198  18.479  1.00  0.00     0.202 C 
ATOM     13  C   UNL     1      26.218  30.039  17.744  1.00  0.00     0.179 C 
ATOM     14  C   UNL     1      26.940  31.135  17.017  1.00  0.00     0.177 C 
BRANCH  10  15
ATOM     15  O   UNL     1      28.399  30.753  19.760  1.00  0.00    -0.341 OA
BRANCH  15  16
ATOM     16  C   UNL     1      29.235  30.597  20.836  1.00  0.00     0.184 C 
ATOM     17  C   UNL     1      30.682  30.567  20.472  1.00  0.00     0.178 C 
ATOM     18  O   UNL     1      31.320  29.438  20.853  1.00  0.00    -0.341 OA
ATOM     19  C   UNL     1      31.280  29.032  22.151  1.00  0.00     0.281 C 
ATOM     20  C   UNL     1      28.883  29.505  21.763  1.00  0.00     0.180 C 
ATOM     21  C   UNL     1      29.965  29.424  22.826  1.00  0.00     0.202 C 
BRANCH  17  22
ATOM     22  C   UNL     1      31.474  31.766  21.019  1.00  0.00     0.191 C 
BRANCH  22  23
ATOM     23  O   UNL     1      30.616  32.888  20.963  1.00  0.00    -0.394 OA
ATOM     24  H   UNL     1      29.681  32.513  20.927  1.00  0.00     0.210 HD
ENDBRANCH  22  23
ENDBRANCH  17  22
BRANCH  19  25
ATOM     25  O   UNL     1      32.300  29.597  22.868  1.00  0.00    -0.350 OA
BRANCH  25  26
ATOM     26  C   UNL     1      33.556  29.103  22.703  1.00  0.00     0.169 C 
BRANCH  26  27
ATOM     27  C   UNL     1      34.664  30.061  22.472  1.00  0.00     0.119 C 
BRANCH  27  28
ATOM     28  N   UNL     1      34.711  31.080  23.466  1.00  0.00    -0.092 NA
ATOM     29  N   UNL     1      34.460  32.260  23.323  1.00  0.00     0.001 N 
ATOM     30  N   UNL     1      34.031  33.375  23.051  1.00  0.00    -0.003 NA
ENDBRANCH  27  28
ENDBRANCH  26  27
ENDBRANCH  25  26
ENDBRANCH  19  25
BRANCH  20  31
ATOM     31  O   UNL     1      27.683  29.691  22.446  1.00  0.00    -0.387 OA
ATOM     32  H   UNL     1      26.950  29.398  21.861  1.00  0.00     0.211 HD
ENDBRANCH  20  31
BRANCH  21  33
ATOM     33  O   UNL     1      29.658  28.439  23.768  1.00  0.00    -0.385 OA
ATOM     34  H   UNL     1      29.515  28.903  24.631  1.00  0.00     0.211 HD
ENDBRANCH  21  33
ENDBRANCH  15  16
ENDBRANCH  10  15
BRANCH  12  35
ATOM     35  O   UNL     1      27.497  28.030  17.788  1.00  0.00    -0.385 OA
ATOM     36  H   UNL     1      27.704  27.288  18.441  1.00  0.00     0.211 HD
ENDBRANCH  12  35
BRANCH  13  37
ATOM     37  O   UNL     1      25.294  30.557  18.663  1.00  0.00    -0.387 OA
ATOM     38  H   UNL     1      24.647  31.090  18.138  1.00  0.00     0.211 HD
ENDBRANCH  13  37
BRANCH  14  39
ATOM     39  O   UNL     1      27.270  32.144  17.898  1.00  0.00    -0.387 OA
ATOM     40  H   UNL     1      27.669  31.728  18.702  1.00  0.00     0.211 HD
ENDBRANCH  14  39
ENDBRANCH   8   9
ENDBRANCH   7   8
ENDBRANCH   1   7
BRANCH   1  41
ATOM     41  C   UNL     1      29.980  34.243  14.106  1.00  0.00     0.364 C 
ATOM     42  O   UNL     1      31.144  34.145  13.574  1.00  0.00    -0.246 OA
BRANCH  41  43
ATOM     43  O   UNL     1      29.073  34.965  13.377  1.00  0.00    -0.477 OA
ATOM     44  H   UNL     1      28.373  34.602  12.757  1.00  0.00     0.296 HD
ENDBRANCH  41  43
ENDBRANCH   1  41
BRANCH   3  45
ATOM     45  O   UNL     1      29.946  33.086  18.012  1.00  0.00    -0.391 OA
ATOM     46  H   UNL     1      29.252  33.478  17.427  1.00  0.00     0.211 HD
ENDBRANCH   3  45
BRANCH   5  47
ATOM     47  C   UNL     1      29.599  36.647  17.269  1.00  0.00     0.176 C 
BRANCH  47  48
ATOM     48  O   UNL     1      30.376  36.971  18.436  1.00  0.00    -0.388 OA
ATOM     49  H   UNL     1      30.947  37.727  18.090  1.00  0.00     0.211 HD
ENDBRANCH  47  48
BRANCH  47  50
ATOM     50  C   UNL     1      28.220  36.372  17.778  1.00  0.00     0.165 C 
BRANCH  50  51
ATOM     51  O   UNL     1      28.053  35.116  18.296  1.00  0.00    -0.388 OA
ATOM     52  H   UNL     1      27.769  34.533  17.545  1.00  0.00     0.211 HD
ENDBRANCH  50  51
BRANCH  50  53
ATOM     53  C   UNL     1      27.142  36.923  16.923  1.00  0.00     0.154 C 
BRANCH  53  54
ATOM     54  N   UNL     1      27.019  36.322  15.609  1.00  0.00    -0.319 N 
ATOM     55  C   UNL     1      26.292  35.123  15.406  1.00  0.00     0.407 C 
ATOM     56  H   UNL     1      27.456  36.742  14.761  1.00  0.00     0.167 HD
ATOM     57  O   UNL     1      25.714  34.497  16.322  1.00  0.00    -0.225 OA
BRANCH  55  58
ATOM     58  O   UNL     1      26.153  34.522  14.132  1.00  0.00    -0.443 OA
BRANCH  58  59
ATOM     59  C   UNL     1      25.293  35.082  13.187  1.00  0.00     0.294 C 
BRANCH  59  60
ATOM     60  C   UNL     1      26.112  35.665  12.088  1.00  0.00     0.121 A 
ATOM     61  C   UNL     1      26.088  35.427  10.731  1.00  0.00     0.144 A 
ATOM     62  N   UNL     1      27.099  36.604  12.239  1.00  0.00    -0.131 NA
ATOM     63  N   UNL     1      27.003  36.175  10.093  1.00  0.00    -0.220 N 
ATOM     64  N   UNL     1      27.605  36.886  11.057  1.00  0.00    -0.062 NA
BRANCH  63  65
ATOM     65  C   UNL     1      27.307  36.248   8.704  1.00  0.00     0.070 A 
ATOM     66  C   UNL     1      28.404  35.572   8.217  1.00  0.00    -0.020 A 
ATOM     67  C   UNL     1      26.563  36.976   7.803  1.00  0.00     0.029 A 
ATOM     68  C   UNL     1      28.740  35.628   6.878  1.00  0.00     0.006 A 
ATOM     69  C   UNL     1      26.885  37.042   6.460  1.00  0.00     0.002 A 
ATOM     70  C   UNL     1      27.989  36.360   5.990  1.00  0.00     0.000 A 
BRANCH  66  71
ATOM     71  C   UNL     1      29.223  34.770   9.147  1.00  0.00     0.015 C 
ATOM     72  C   UNL     1      30.538  34.441   8.456  1.00  0.00     0.012 C 
ATOM     73  C   UNL     1      28.507  33.442   9.441  1.00  0.00     0.012 C 
ENDBRANCH  66  71
ENDBRANCH  63  65
ENDBRANCH  59  60
ENDBRANCH  58  59
ENDBRANCH  55  58
ENDBRANCH  53  54
ENDBRANCH  50  53
ENDBRANCH  47  50
ENDBRANCH   5  47
BRANCH   4  74
ATOM     74  N   UNL     1      32.728  35.124  17.051  1.00  0.00    -0.348 N 
ATOM     75  C   UNL     1      33.618  36.024  17.658  1.00  0.00     0.217 C 
ATOM     76  H   UNL     1      33.070  34.611  16.184  1.00  0.00     0.163 HD
ATOM     77  C   UNL     1      34.983  36.204  17.057  1.00  0.00     0.114 C 
ATOM     78  O   UNL     1      33.291  36.660  18.668  1.00  0.00    -0.275 OA
ENDBRANCH   4  74
TORSDOF 31
BEGIN_RES LYS A 131
REMARK  4 active torsions:
REMARK  status: ('A' for Active; 'I' for Inactive)
REMARK    1  A    between atoms: CA   and  CB  
REMARK    2  A    between atoms: CB   and  CG  
REMARK    3  A    between atoms: CG   and  CD  
REMARK    4  A    between atoms: CD   and  CE  
ROOT
ATOM      1  CA  LYS A 131      29.867  25.555  16.977  1.00 20.52     0.186 C 
ENDROOT
BRANCH   1   2
ATOM      2  CB  LYS A 131      28.345  25.722  17.026  1.00 20.94     0.034 C 
BRANCH   2   3
ATOM      3  CG  LYS A 131      27.599  24.425  16.753  1.00 22.96     0.005 C 
BRANCH   3   4
ATOM      4  CD  LYS A 131      26.911  23.898  17.982  1.00 24.33     0.041 C 
BRANCH   4   5
ATOM      5  CE  LYS A 131      25.558  23.311  17.596  1.00 26.91     0.338 C 
ATOM      6  NZ  LYS A 131      24.732  24.326  16.899  1.00 27.40     0.618 N 
ENDBRANCH   4   5
ENDBRANCH   3   4
ENDBRANCH   2   3
ENDBRANCH   1   2
END_RES LYS A 131
BEGIN_RES LYS A 135
REMARK  4 active torsions:
REMARK  status: ('A' for Active; 'I' for Inactive)
REMARK    5  A    between atoms: CA   and  CB  
REMARK    6  A    between atoms: CB   and  CG  
REMARK    7  A    between atoms: CG   and  CD  
REMARK    8  A    between atoms: CD   and  CE  
ROOT
ATOM      7  CA  LYS A 135      33.193  34.663   9.290  1.00 25.02     0.186 C 
ENDROOT
BRANCH   7   8
ATOM      8  CB  LYS A 135      32.060  35.360  10.034  1.00 26.63     0.034 C 
BRANCH   8   9
ATOM      9  CG  LYS A 135      32.513  36.096  11.269  1.00 29.45     0.005 C 
BRANCH   9  10
ATOM     10  CD  LYS A 135      31.866  37.470  11.342  1.00 32.00     0.041 C 
BRANCH  10  11
ATOM     11  CE  LYS A 135      31.195  37.814  10.026  1.00 34.25     0.338 C 
ATOM     12  NZ  LYS A 135      30.312  39.004  10.169  1.00 35.99     0.618 N 
ENDBRANCH  10  11
ENDBRANCH   9  10
ENDBRANCH   8   9
ENDBRANCH   7   8
END_RES LYS A 135
