REMARK VINA RESULT:    -4.994      4.058     11.451
REMARK INTER + INTRA:         -25.117
REMARK INTER:                 -13.511
REMARK INTRA:                 -11.606
REMARK UNBOUND:                -9.760
REMARK SMILES CC(=O)N[C@@H]1[C@@H](O)C[C@](OC[C@H]2O[C@@H](O[C@H]3[C@H](O)[C@@H](O)[C@H](OCCN=[N+]=[N-])O[C@@H]3CO)[C@H](O)[C@@H](O)[C@H]2O)(C(=O)O)O[C@H]1C(O)[C@H](O)CNC(=O)OCc1cn(CCCCCCCCCCC(=O)O)nn1
REMARK SMILES IDX 51 1 49 2 48 3 50 5 47 6 45 7 43 8 42 9 9 10 8 11 41 12 6 13
REMARK SMILES IDX 5 14 10 15 11 16 12 17 14 18 13 19 32 20 34 21 36 22 15 23
REMARK SMILES IDX 16 24 29 25 28 26 21 27 17 28 19 29 30 30 31 31 22 33 23 34
REMARK SMILES IDX 24 35 25 36 26 37 27 38 18 39 20 41 33 43 35 45 37 47 38 49
REMARK SMILES IDX 39 50 40 51 7 53 4 55 2 56 1 58 3 59 44 60 46 62 52 64 53 65
REMARK SMILES IDX 54 66 70 67 55 68 69 69 56 70 57 71 58 72 59 73 60 74 61 75
REMARK SMILES IDX 62 76 63 77 64 78 65 79 66 80 67 81 68 82
REMARK H PARENT 48 4 31 32 18 40 20 42 33 44 35 46 37 48 40 52 7 54 4 57 44 61
REMARK H PARENT 46 63 68 83
REMARK Flexibility Score: inf
ROOT
ATOM      1  O   UNL     1      25.220  33.746  16.744  1.00  0.00    -0.443 OA
ENDROOT
BRANCH   1   2
ATOM      2  C   UNL     1      25.406  32.480  16.146  1.00  0.00     0.407 C 
ATOM      3  N   UNL     1      26.591  31.737  16.374  1.00  0.00    -0.319 N 
ATOM      4  H   UNL     1      27.334  32.156  16.994  1.00  0.00     0.167 HD
ATOM      5  O   UNL     1      24.530  31.982  15.404  1.00  0.00    -0.225 OA
BRANCH   3   6
ATOM      6  C   UNL     1      26.817  30.447  15.797  1.00  0.00     0.154 C 
BRANCH   6   7
ATOM      7  C   UNL     1      26.824  29.300  16.802  1.00  0.00     0.165 C 
BRANCH   7   8
ATOM      8  C   UNL     1      25.719  29.585  17.758  1.00  0.00     0.176 C 
BRANCH   8   9
ATOM      9  C   UNL     1      25.875  29.008  19.145  1.00  0.00     0.178 C 
ATOM     10  C   UNL     1      27.180  29.293  21.049  1.00  0.00     0.272 C 
ATOM     11  C   UNL     1      27.094  27.792  21.225  1.00  0.00     0.113 C 
ATOM     12  O   UNL     1      26.991  29.563  19.707  1.00  0.00    -0.332 OA
ATOM     13  C   UNL     1      27.023  27.036  19.937  1.00  0.00     0.145 C 
ATOM     14  C   UNL     1      25.811  27.513  19.163  1.00  0.00     0.142 C 
BRANCH  10  15
ATOM     15  O   UNL     1      28.432  29.770  21.471  1.00  0.00    -0.338 OA
BRANCH  15  16
ATOM     16  C   UNL     1      29.361  28.840  21.794  1.00  0.00     0.199 C 
BRANCH  16  17
ATOM     17  C   UNL     1      30.435  28.896  20.687  1.00  0.00     0.179 C 
ATOM     18  C   UNL     1      31.245  31.117  20.583  1.00  0.00     0.282 C 
ATOM     19  O   UNL     1      30.519  30.088  20.084  1.00  0.00    -0.341 OA
ATOM     20  C   UNL     1      32.210  30.724  21.636  1.00  0.00     0.202 C 
ATOM     21  C   UNL     1      32.812  29.372  21.274  1.00  0.00     0.179 C 
ATOM     22  C   UNL     1      31.733  28.312  21.198  1.00  0.00     0.177 C 
BRANCH  18  23
ATOM     23  O   UNL     1      30.315  32.102  21.000  1.00  0.00    -0.341 OA
BRANCH  23  24
ATOM     24  C   UNL     1      30.265  33.070  20.005  1.00  0.00     0.184 C 
ATOM     25  C   UNL     1      30.489  34.471  20.469  1.00  0.00     0.178 C 
ATOM     26  O   UNL     1      30.250  35.359  19.461  1.00  0.00    -0.341 OA
ATOM     27  C   UNL     1      30.042  34.940  18.201  1.00  0.00     0.281 C 
ATOM     28  C   UNL     1      28.877  33.056  19.343  1.00  0.00     0.180 C 
ATOM     29  C   UNL     1      29.025  33.833  18.055  1.00  0.00     0.202 C 
BRANCH  25  30
ATOM     30  C   UNL     1      31.873  34.707  21.045  1.00  0.00     0.191 C 
BRANCH  30  31
ATOM     31  O   UNL     1      32.040  34.206  22.309  1.00  0.00    -0.394 OA
ATOM     32  H   UNL     1      31.408  33.450  22.433  1.00  0.00     0.210 HD
ENDBRANCH  30  31
ENDBRANCH  25  30
BRANCH  27  33
ATOM     33  O   UNL     1      31.234  34.506  17.635  1.00  0.00    -0.350 OA
BRANCH  33  34
ATOM     34  C   UNL     1      31.279  34.735  16.261  1.00  0.00     0.169 C 
BRANCH  34  35
ATOM     35  C   UNL     1      31.922  33.599  15.518  1.00  0.00     0.119 C 
BRANCH  35  36
ATOM     36  N   UNL     1      30.875  32.671  15.087  1.00  0.00    -0.092 NA
ATOM     37  N   UNL     1      30.508  31.734  15.829  1.00  0.00     0.001 N 
ATOM     38  N   UNL     1      30.359  30.899  16.748  1.00  0.00    -0.003 NA
ENDBRANCH  35  36
ENDBRANCH  34  35
ENDBRANCH  33  34
ENDBRANCH  27  33
BRANCH  28  39
ATOM     39  O   UNL     1      28.431  31.781  19.072  1.00  0.00    -0.387 OA
ATOM     40  H   UNL     1      28.138  31.654  18.135  1.00  0.00     0.211 HD
ENDBRANCH  28  39
BRANCH  29  41
ATOM     41  O   UNL     1      27.795  34.426  17.784  1.00  0.00    -0.385 OA
ATOM     42  H   UNL     1      27.132  33.683  17.636  1.00  0.00     0.211 HD
ENDBRANCH  29  41
ENDBRANCH  23  24
ENDBRANCH  18  23
BRANCH  20  43
ATOM     43  O   UNL     1      33.307  31.593  21.716  1.00  0.00    -0.385 OA
ATOM     44  H   UNL     1      34.078  31.025  22.013  1.00  0.00     0.211 HD
ENDBRANCH  20  43
BRANCH  21  45
ATOM     45  O   UNL     1      33.771  28.994  22.212  1.00  0.00    -0.387 OA
ATOM     46  H   UNL     1      34.239  29.825  22.483  1.00  0.00     0.211 HD
ENDBRANCH  21  45
BRANCH  22  47
ATOM     47  O   UNL     1      31.561  27.794  22.459  1.00  0.00    -0.387 OA
ATOM     48  H   UNL     1      30.930  27.032  22.402  1.00  0.00     0.211 HD
ENDBRANCH  22  47
ENDBRANCH  16  17
ENDBRANCH  15  16
ENDBRANCH  10  15
BRANCH  10  49
ATOM     49  C   UNL     1      26.208  30.003  21.883  1.00  0.00     0.364 C 
ATOM     50  O   UNL     1      26.152  31.242  21.949  1.00  0.00    -0.246 OA
BRANCH  49  51
ATOM     51  O   UNL     1      25.292  29.300  22.649  1.00  0.00    -0.477 OA
ATOM     52  H   UNL     1      24.388  28.998  22.279  1.00  0.00     0.296 HD
ENDBRANCH  49  51
ENDBRANCH  10  49
BRANCH  13  53
ATOM     53  O   UNL     1      28.172  27.041  19.177  1.00  0.00    -0.391 OA
ATOM     54  H   UNL     1      28.484  26.129  18.911  1.00  0.00     0.211 HD
ENDBRANCH  13  53
BRANCH  14  55
ATOM     55  N   UNL     1      24.658  26.961  19.793  1.00  0.00    -0.348 N 
ATOM     56  C   UNL     1      23.483  26.550  19.102  1.00  0.00     0.217 C 
ATOM     57  H   UNL     1      24.631  26.833  20.834  1.00  0.00     0.163 HD
ATOM     58  C   UNL     1      22.328  25.988  19.825  1.00  0.00     0.114 C 
ATOM     59  O   UNL     1      23.464  26.683  17.865  1.00  0.00    -0.275 OA
ENDBRANCH  14  55
ENDBRANCH   8   9
BRANCH   8  60
ATOM     60  O   UNL     1      24.523  29.302  17.156  1.00  0.00    -0.388 OA
ATOM     61  H   UNL     1      23.796  29.910  17.364  1.00  0.00     0.211 HD
ENDBRANCH   8  60
ENDBRANCH   7   8
BRANCH   7  62
ATOM     62  O   UNL     1      28.092  29.267  17.370  1.00  0.00    -0.388 OA
ATOM     63  H   UNL     1      28.078  28.924  18.296  1.00  0.00     0.211 HD
ENDBRANCH   7  62
ENDBRANCH   6   7
ENDBRANCH   3   6
ENDBRANCH   1   2
BRANCH   1  64
ATOM     64  C   UNL     1      24.400  34.677  16.023  1.00  0.00     0.294 C 
BRANCH  64  65
ATOM     65  C   UNL     1      25.301  35.479  15.169  1.00  0.00     0.120 A 
ATOM     66  C   UNL     1      24.942  36.063  13.967  1.00  0.00     0.138 A 
ATOM     67  N   UNL     1      26.585  35.793  15.387  1.00  0.00    -0.132 NA
ATOM     68  N   UNL     1      26.036  36.705  13.516  1.00  0.00    -0.252 N 
ATOM     69  N   UNL     1      27.032  36.525  14.405  1.00  0.00    -0.067 NA
BRANCH  68  70
ATOM     70  C   UNL     1      26.198  37.471  12.319  1.00  0.00     0.146 C 
BRANCH  70  71
ATOM     71  C   UNL     1      25.671  36.850  11.073  1.00  0.00     0.024 C 
BRANCH  71  72
ATOM     72  C   UNL     1      26.357  35.613  10.612  1.00  0.00     0.002 C 
BRANCH  72  73
ATOM     73  C   UNL     1      25.905  35.070   9.301  1.00  0.00     0.000 C 
BRANCH  73  74
ATOM     74  C   UNL     1      26.947  34.372   8.496  1.00  0.00     0.000 C 
BRANCH  74  75
ATOM     75  C   UNL     1      27.641  35.347   7.586  1.00  0.00     0.000 C 
BRANCH  75  76
ATOM     76  C   UNL     1      26.732  36.452   7.094  1.00  0.00     0.000 C 
BRANCH  76  77
ATOM     77  C   UNL     1      27.402  37.785   7.021  1.00  0.00     0.001 C 
BRANCH  77  78
ATOM     78  C   UNL     1      28.637  37.914   7.858  1.00  0.00     0.012 C 
BRANCH  78  79
ATOM     79  C   UNL     1      29.538  38.958   7.220  1.00  0.00     0.122 C 
BRANCH  79  80
ATOM     80  C   UNL     1      30.802  39.024   7.974  1.00  0.00     0.303 C 
ATOM     81  O   UNL     1      31.279  40.124   8.322  1.00  0.00    -0.252 OA
BRANCH  80  82
ATOM     82  O   UNL     1      31.500  37.875   8.318  1.00  0.00    -0.481 OA
ATOM     83  H   UNL     1      31.505  37.057   7.737  1.00  0.00     0.296 HD
ENDBRANCH  80  82
ENDBRANCH  79  80
ENDBRANCH  78  79
ENDBRANCH  77  78
ENDBRANCH  76  77
ENDBRANCH  75  76
ENDBRANCH  74  75
ENDBRANCH  73  74
ENDBRANCH  72  73
ENDBRANCH  71  72
ENDBRANCH  70  71
ENDBRANCH  68  70
ENDBRANCH  64  65
ENDBRANCH   1  64
TORSDOF 41
BEGIN_RES LYS A 131
REMARK  4 active torsions:
REMARK  status: ('A' for Active; 'I' for Inactive)
REMARK    1  A    between atoms: CA   and  CB  
REMARK    2  A    between atoms: CB   and  CG  
REMARK    3  A    between atoms: CG   and  CD  
REMARK    4  A    between atoms: CD   and  CE  
ROOT
ATOM      1  CA  LYS A 131      29.867  25.555  16.977  1.00 20.52     0.186 C 
ENDROOT
BRANCH   1   2
ATOM      2  CB  LYS A 131      28.345  25.722  17.026  1.00 20.94     0.034 C 
BRANCH   2   3
ATOM      3  CG  LYS A 131      27.601  24.403  16.886  1.00 22.96     0.005 C 
BRANCH   3   4
ATOM      4  CD  LYS A 131      26.162  24.517  17.306  1.00 24.33     0.041 C 
BRANCH   4   5
ATOM      5  CE  LYS A 131      25.929  23.681  18.560  1.00 26.91     0.338 C 
ATOM      6  NZ  LYS A 131      24.574  23.081  18.540  1.00 27.40     0.618 N 
ENDBRANCH   4   5
ENDBRANCH   3   4
ENDBRANCH   2   3
ENDBRANCH   1   2
END_RES LYS A 131
BEGIN_RES LYS A 135
REMARK  4 active torsions:
REMARK  status: ('A' for Active; 'I' for Inactive)
REMARK    5  A    between atoms: CA   and  CB  
REMARK    6  A    between atoms: CB   and  CG  
REMARK    7  A    between atoms: CG   and  CD  
REMARK    8  A    between atoms: CD   and  CE  
ROOT
ATOM      7  CA  LYS A 135      33.193  34.663   9.290  1.00 25.02     0.186 C 
ENDROOT
BRANCH   7   8
ATOM      8  CB  LYS A 135      32.060  35.360  10.034  1.00 26.63     0.034 C 
BRANCH   8   9
ATOM      9  CG  LYS A 135      30.695  34.815   9.700  1.00 29.45     0.005 C 
BRANCH   9  10
ATOM     10  CD  LYS A 135      29.786  34.863  10.918  1.00 32.00     0.041 C 
BRANCH  10  11
ATOM     11  CE  LYS A 135      30.605  34.915  12.193  1.00 34.25     0.338 C 
ATOM     12  NZ  LYS A 135      30.182  36.052  13.057  1.00 35.99     0.618 N 
ENDBRANCH  10  11
ENDBRANCH   9  10
ENDBRANCH   8   9
ENDBRANCH   7   8
END_RES LYS A 135
