REMARK VINA RESULT:    -4.808      8.704     15.487
REMARK INTER + INTRA:         -23.638
REMARK INTER:                 -11.279
REMARK INTRA:                 -12.359
REMARK UNBOUND:               -10.398
REMARK SMILES CC(=O)N[C@@H]1[C@@H](O)C[C@](OC[C@H]2O[C@@H](O[C@H]3[C@H](O)[C@@H](O)[C@H](OCCN=[N+]=[N-])O[C@@H]3CO)[C@H](O)[C@@H](O)[C@H]2O)(C(=O)O)O[C@H]1C(O)[C@H](O)CNC(=O)OCc1cn([C@@H](CCC(=O)O)C(=O)O)nn1
REMARK SMILES IDX 43 1 42 2 9 3 8 4 41 5 6 6 5 7 10 8 11 9 12 10 14 11 13 12
REMARK SMILES IDX 32 13 34 14 36 15 15 16 16 17 29 18 28 19 21 20 17 21 19 22
REMARK SMILES IDX 30 23 31 24 22 26 23 27 24 28 25 29 26 30 27 31 18 32 20 34
REMARK SMILES IDX 33 36 35 38 37 40 38 42 39 43 40 44 7 46 4 48 2 49 1 51 3 52
REMARK SMILES IDX 44 53 45 55 46 56 47 58 48 59 49 60 50 62 51 63 52 64 53 65
REMARK SMILES IDX 54 66 66 67 55 68 65 69 56 70 57 71 58 72 59 73 60 74 61 75
REMARK SMILES IDX 62 77 63 78 64 79
REMARK H PARENT 31 25 18 33 20 35 33 37 35 39 37 41 40 45 7 47 4 50 44 54
REMARK H PARENT 46 57 48 61 61 76 64 80
REMARK Flexibility Score: inf
ROOT
ATOM      1  C   UNL     1      24.741  41.129   6.061  1.00  0.00     0.176 C 
ENDROOT
BRANCH   1   2
ATOM      2  C   UNL     1      24.841  41.615   7.508  1.00  0.00     0.178 C 
ATOM      3  C   UNL     1      25.089  40.550   9.593  1.00  0.00     0.272 C 
ATOM      4  C   UNL     1      23.829  41.076  10.152  1.00  0.00     0.113 C 
ATOM      5  O   UNL     1      24.843  40.411   8.210  1.00  0.00    -0.332 OA
ATOM      6  C   UNL     1      22.944  41.682   9.097  1.00  0.00     0.145 C 
ATOM      7  C   UNL     1      23.617  42.360   7.959  1.00  0.00     0.142 C 
BRANCH   3   8
ATOM      8  O   UNL     1      25.364  39.279  10.056  1.00  0.00    -0.338 OA
BRANCH   8   9
ATOM      9  C   UNL     1      24.634  38.604  10.905  1.00  0.00     0.199 C 
BRANCH   9  10
ATOM     10  C   UNL     1      23.729  37.467  10.519  1.00  0.00     0.179 C 
ATOM     11  C   UNL     1      22.043  37.289   8.916  1.00  0.00     0.282 C 
ATOM     12  O   UNL     1      22.518  37.890  10.054  1.00  0.00    -0.341 OA
ATOM     13  C   UNL     1      23.040  37.518   7.801  1.00  0.00     0.202 C 
ATOM     14  C   UNL     1      24.312  36.811   8.144  1.00  0.00     0.179 C 
ATOM     15  C   UNL     1      24.450  36.497   9.591  1.00  0.00     0.177 C 
BRANCH  11  16
ATOM     16  O   UNL     1      20.838  37.900   8.563  1.00  0.00    -0.341 OA
BRANCH  16  17
ATOM     17  C   UNL     1      19.708  37.194   8.889  1.00  0.00     0.184 C 
ATOM     18  C   UNL     1      19.071  36.553   7.659  1.00  0.00     0.178 C 
ATOM     19  O   UNL     1      17.785  37.063   7.495  1.00  0.00    -0.341 OA
ATOM     20  C   UNL     1      17.857  38.429   7.101  1.00  0.00     0.281 C 
ATOM     21  C   UNL     1      18.703  38.184   9.443  1.00  0.00     0.180 C 
ATOM     22  C   UNL     1      18.377  39.166   8.298  1.00  0.00     0.202 C 
BRANCH  18  23
ATOM     23  C   UNL     1      18.938  35.057   7.883  1.00  0.00     0.191 C 
BRANCH  23  24
ATOM     24  O   UNL     1      18.953  34.351   6.694  1.00  0.00    -0.394 OA
ATOM     25  H   UNL     1      19.067  33.376   6.842  1.00  0.00     0.210 HD
ENDBRANCH  23  24
ENDBRANCH  18  23
BRANCH  20  26
ATOM     26  O   UNL     1      16.614  38.785   6.666  1.00  0.00    -0.350 OA
BRANCH  26  27
ATOM     27  C   UNL     1      16.509  39.070   5.333  1.00  0.00     0.169 C 
BRANCH  27  28
ATOM     28  C   UNL     1      16.426  40.550   5.020  1.00  0.00     0.119 C 
BRANCH  28  29
ATOM     29  N   UNL     1      17.689  41.083   4.550  1.00  0.00    -0.092 NA
ATOM     30  N   UNL     1      18.515  41.625   5.276  1.00  0.00     0.001 N 
ATOM     31  N   UNL     1      19.339  41.975   6.094  1.00  0.00    -0.003 NA
ENDBRANCH  28  29
ENDBRANCH  27  28
ENDBRANCH  26  27
ENDBRANCH  20  26
BRANCH  21  32
ATOM     32  O   UNL     1      17.543  37.572   9.903  1.00  0.00    -0.387 OA
ATOM     33  H   UNL     1      17.725  36.686  10.348  1.00  0.00     0.211 HD
ENDBRANCH  21  32
BRANCH  22  34
ATOM     34  O   UNL     1      19.642  39.691   7.936  1.00  0.00    -0.385 OA
ATOM     35  H   UNL     1      20.275  38.929   7.891  1.00  0.00     0.211 HD
ENDBRANCH  22  34
ENDBRANCH  16  17
ENDBRANCH  11  16
BRANCH  13  36
ATOM     36  O   UNL     1      22.531  37.057   6.586  1.00  0.00    -0.385 OA
ATOM     37  H   UNL     1      23.327  36.981   5.969  1.00  0.00     0.211 HD
ENDBRANCH  13  36
BRANCH  14  38
ATOM     38  O   UNL     1      25.440  37.499   7.686  1.00  0.00    -0.387 OA
ATOM     39  H   UNL     1      25.689  37.146   6.781  1.00  0.00     0.211 HD
ENDBRANCH  14  38
BRANCH  15  40
ATOM     40  O   UNL     1      25.814  36.542   9.884  1.00  0.00    -0.387 OA
ATOM     41  H   UNL     1      26.342  36.110   9.175  1.00  0.00     0.211 HD
ENDBRANCH  15  40
ENDBRANCH   9  10
ENDBRANCH   8   9
ENDBRANCH   3   8
BRANCH   3  42
ATOM     42  C   UNL     1      26.303  41.341   9.755  1.00  0.00     0.364 C 
ATOM     43  O   UNL     1      26.249  42.372  10.520  1.00  0.00    -0.246 OA
BRANCH  42  44
ATOM     44  O   UNL     1      27.546  41.141   9.185  1.00  0.00    -0.477 OA
ATOM     45  H   UNL     1      27.707  41.249   8.211  1.00  0.00     0.296 HD
ENDBRANCH  42  44
ENDBRANCH   3  42
BRANCH   6  46
ATOM     46  O   UNL     1      22.203  40.608   8.527  1.00  0.00    -0.391 OA
ATOM     47  H   UNL     1      22.562  40.365   7.637  1.00  0.00     0.211 HD
ENDBRANCH   6  46
BRANCH   7  48
ATOM     48  N   UNL     1      23.760  43.733   8.299  1.00  0.00    -0.348 N 
ATOM     49  C   UNL     1      23.458  44.805   7.424  1.00  0.00     0.217 C 
ATOM     50  H   UNL     1      24.082  44.026   9.242  1.00  0.00     0.163 HD
ATOM     51  C   UNL     1      23.637  46.238   7.850  1.00  0.00     0.114 C 
ATOM     52  O   UNL     1      23.039  44.587   6.289  1.00  0.00    -0.275 OA
ENDBRANCH   7  48
ENDBRANCH   1   2
BRANCH   1  53
ATOM     53  O   UNL     1      25.183  39.814   5.987  1.00  0.00    -0.388 OA
ATOM     54  H   UNL     1      25.201  39.410   6.896  1.00  0.00     0.211 HD
ENDBRANCH   1  53
BRANCH   1  55
ATOM     55  C   UNL     1      25.363  41.958   5.037  1.00  0.00     0.165 C 
BRANCH  55  56
ATOM     56  O   UNL     1      24.363  42.821   4.497  1.00  0.00    -0.388 OA
ATOM     57  H   UNL     1      24.700  43.745   4.567  1.00  0.00     0.211 HD
ENDBRANCH  55  56
BRANCH  55  58
ATOM     58  C   UNL     1      25.966  41.279   3.844  1.00  0.00     0.154 C 
BRANCH  58  59
ATOM     59  N   UNL     1      27.360  40.949   4.017  1.00  0.00    -0.319 N 
ATOM     60  C   UNL     1      28.425  41.872   3.797  1.00  0.00     0.407 C 
ATOM     61  H   UNL     1      27.618  39.992   4.305  1.00  0.00     0.167 HD
ATOM     62  O   UNL     1      28.195  43.026   3.439  1.00  0.00    -0.225 OA
BRANCH  60  63
ATOM     63  O   UNL     1      29.711  41.434   3.994  1.00  0.00    -0.443 OA
BRANCH  63  64
ATOM     64  C   UNL     1      30.395  41.547   5.207  1.00  0.00     0.294 C 
BRANCH  64  65
ATOM     65  C   UNL     1      30.174  40.324   6.019  1.00  0.00     0.120 A 
ATOM     66  C   UNL     1      30.493  40.085   7.339  1.00  0.00     0.139 A 
ATOM     67  N   UNL     1      29.612  39.171   5.570  1.00  0.00    -0.132 NA
ATOM     68  N   UNL     1      30.122  38.810   7.657  1.00  0.00    -0.238 N 
ATOM     69  N   UNL     1      29.590  38.291   6.549  1.00  0.00    -0.066 NA
BRANCH  68  70
ATOM     70  C   UNL     1      30.254  38.182   8.920  1.00  0.00     0.219 C 
BRANCH  70  71
ATOM     71  C   UNL     1      31.081  38.821   9.973  1.00  0.00     0.051 C 
BRANCH  71  72
ATOM     72  C   UNL     1      32.055  38.020  10.731  1.00  0.00     0.125 C 
BRANCH  72  73
ATOM     73  C   UNL     1      31.727  37.560  12.064  1.00  0.00     0.303 C 
ATOM     74  O   UNL     1      32.286  36.682  12.745  1.00  0.00    -0.252 OA
BRANCH  73  75
ATOM     75  O   UNL     1      30.618  38.162  12.741  1.00  0.00    -0.481 OA
ATOM     76  H   UNL     1      29.815  37.593  12.959  1.00  0.00     0.296 HD
ENDBRANCH  73  75
ENDBRANCH  72  73
ENDBRANCH  71  72
ENDBRANCH  70  71
BRANCH  70  77
ATOM     77  C   UNL     1      28.885  37.949   9.480  1.00  0.00     0.328 C 
ATOM     78  O   UNL     1      28.740  37.372  10.574  1.00  0.00    -0.250 OA
BRANCH  77  79
ATOM     79  O   UNL     1      27.745  38.359   8.814  1.00  0.00    -0.480 OA
ATOM     80  H   UNL     1      26.818  38.280   9.236  1.00  0.00     0.296 HD
ENDBRANCH  77  79
ENDBRANCH  70  77
ENDBRANCH  68  70
ENDBRANCH  64  65
ENDBRANCH  63  64
ENDBRANCH  60  63
ENDBRANCH  58  59
ENDBRANCH  55  58
ENDBRANCH   1  55
TORSDOF 36
BEGIN_RES LYS A 131
REMARK  4 active torsions:
REMARK  status: ('A' for Active; 'I' for Inactive)
REMARK    1  A    between atoms: CA   and  CB  
REMARK    2  A    between atoms: CB   and  CG  
REMARK    3  A    between atoms: CG   and  CD  
REMARK    4  A    between atoms: CD   and  CE  
ROOT
ATOM      1  CA  LYS A 131      29.867  25.555  16.977  1.00 20.52     0.186 C 
ENDROOT
BRANCH   1   2
ATOM      2  CB  LYS A 131      28.345  25.722  17.026  1.00 20.94     0.034 C 
BRANCH   2   3
ATOM      3  CG  LYS A 131      27.602  24.400  16.909  1.00 22.96     0.005 C 
BRANCH   3   4
ATOM      4  CD  LYS A 131      26.369  24.365  17.770  1.00 24.33     0.041 C 
BRANCH   4   5
ATOM      5  CE  LYS A 131      26.101  25.758  18.331  1.00 26.91     0.338 C 
ATOM      6  NZ  LYS A 131      25.800  25.684  19.781  1.00 27.40     0.618 N 
ENDBRANCH   4   5
ENDBRANCH   3   4
ENDBRANCH   2   3
ENDBRANCH   1   2
END_RES LYS A 131
BEGIN_RES LYS A 135
REMARK  4 active torsions:
REMARK  status: ('A' for Active; 'I' for Inactive)
REMARK    5  A    between atoms: CA   and  CB  
REMARK    6  A    between atoms: CB   and  CG  
REMARK    7  A    between atoms: CG   and  CD  
REMARK    8  A    between atoms: CD   and  CE  
ROOT
ATOM      7  CA  LYS A 135      33.193  34.663   9.290  1.00 25.02     0.186 C 
ENDROOT
BRANCH   7   8
ATOM      8  CB  LYS A 135      32.060  35.360  10.034  1.00 26.63     0.034 C 
BRANCH   8   9
ATOM      9  CG  LYS A 135      30.748  34.622   9.962  1.00 29.45     0.005 C 
BRANCH   9  10
ATOM     10  CD  LYS A 135      30.276  34.507   8.521  1.00 32.00     0.041 C 
BRANCH  10  11
ATOM     11  CE  LYS A 135      28.761  34.448   8.460  1.00 34.25     0.338 C 
ATOM     12  NZ  LYS A 135      28.242  35.210   7.291  1.00 35.99     0.618 N 
ENDBRANCH  10  11
ENDBRANCH   9  10
ENDBRANCH   8   9
ENDBRANCH   7   8
END_RES LYS A 135
