REMARK VINA RESULT:    -3.219      3.479      6.374
REMARK INTER + INTRA:         -21.727
REMARK INTER:                 -11.276
REMARK INTRA:                 -10.451
REMARK UNBOUND:               -13.239
REMARK SMILES CCOC(=O)Cn1cc(COC(=O)NC[C@@H](O)C(O)[C@@H]2O[C@@](OC[C@H]3O[C@@H](O[C@H]4[C@H](O)[C@@H](O)[C@H](OCCN=[N+]=[N-])O[C@@H]4CO)[C@H](O)[C@@H](O)[C@H]3O)(C(=O)O)C[C@H](O)[C@H]2NC(C)=O)nn1
REMARK SMILES IDX 18 1 20 2 22 3 54 4 21 5 55 6 57 7 23 8 24 9 25 10 27 11
REMARK SMILES IDX 26 12 45 13 47 14 49 15 28 16 29 17 42 18 41 19 34 20 30 21
REMARK SMILES IDX 32 22 43 23 44 24 35 26 36 27 37 28 38 29 39 30 40 31 31 32
REMARK SMILES IDX 33 34 46 36 48 38 50 40 51 42 52 43 53 44 56 46 58 48 59 49
REMARK SMILES IDX 60 51 61 52 19 53 16 55 17 56 15 58 14 59 12 60 13 62 11 63
REMARK SMILES IDX 10 64 9 65 8 66 62 67 7 68 63 69 6 70 4 71 5 72 3 73 2 74
REMARK SMILES IDX 1 75
REMARK H PARENT 44 25 31 33 33 35 46 37 48 39 50 41 53 45 56 47 58 50 19 54
REMARK H PARENT 17 57 14 61
REMARK Flexibility Score: inf
ROOT
ATOM      1  C   UNL     1      30.014  32.076  17.926  1.00  0.00     0.176 C 
ENDROOT
BRANCH   1   2
ATOM      2  C   UNL     1      30.695  31.487  19.129  1.00  0.00     0.178 C 
ATOM      3  C   UNL     1      30.334  29.961  20.865  1.00  0.00     0.272 C 
ATOM      4  C   UNL     1      31.557  30.607  21.418  1.00  0.00     0.113 C 
ATOM      5  O   UNL     1      30.120  30.303  19.512  1.00  0.00    -0.332 OA
ATOM      6  C   UNL     1      31.560  32.098  21.320  1.00  0.00     0.145 C 
ATOM      7  C   UNL     1      30.561  32.504  20.248  1.00  0.00     0.142 C 
BRANCH   3   8
ATOM      8  O   UNL     1      29.171  30.192  21.566  1.00  0.00    -0.338 OA
BRANCH   8   9
ATOM      9  C   UNL     1      28.953  29.493  22.703  1.00  0.00     0.199 C 
BRANCH   9  10
ATOM     10  C   UNL     1      27.604  28.761  22.567  1.00  0.00     0.179 C 
ATOM     11  C   UNL     1      26.036  28.045  21.016  1.00  0.00     0.282 C 
ATOM     12  O   UNL     1      27.099  28.868  21.310  1.00  0.00    -0.341 OA
ATOM     13  C   UNL     1      26.273  26.603  21.347  1.00  0.00     0.202 C 
ATOM     14  C   UNL     1      26.506  26.527  22.835  1.00  0.00     0.179 C 
ATOM     15  C   UNL     1      27.694  27.377  23.138  1.00  0.00     0.177 C 
BRANCH  11  16
ATOM     16  O   UNL     1      25.637  28.126  19.692  1.00  0.00    -0.341 OA
BRANCH  16  17
ATOM     17  C   UNL     1      26.306  29.051  18.932  1.00  0.00     0.184 C 
ATOM     18  C   UNL     1      25.425  30.183  18.449  1.00  0.00     0.178 C 
ATOM     19  O   UNL     1      25.213  30.118  17.079  1.00  0.00    -0.341 OA
ATOM     20  C   UNL     1      26.406  30.327  16.348  1.00  0.00     0.281 C 
ATOM     21  C   UNL     1      26.914  28.360  17.712  1.00  0.00     0.180 C 
ATOM     22  C   UNL     1      27.517  29.463  16.855  1.00  0.00     0.202 C 
BRANCH  18  23
ATOM     23  C   UNL     1      25.978  31.505  18.914  1.00  0.00     0.191 C 
BRANCH  23  24
ATOM     24  O   UNL     1      27.071  31.314  19.780  1.00  0.00    -0.394 OA
ATOM     25  H   UNL     1      27.919  31.335  19.293  1.00  0.00     0.210 HD
ENDBRANCH  23  24
ENDBRANCH  18  23
BRANCH  20  26
ATOM     26  O   UNL     1      26.735  31.657  16.330  1.00  0.00    -0.350 OA
BRANCH  26  27
ATOM     27  C   UNL     1      26.213  32.474  15.385  1.00  0.00     0.169 C 
BRANCH  27  28
ATOM     28  C   UNL     1      26.001  33.908  15.694  1.00  0.00     0.119 C 
BRANCH  28  29
ATOM     29  N   UNL     1      25.673  34.773  14.612  1.00  0.00    -0.092 NA
ATOM     30  N   UNL     1      24.521  34.803  14.132  1.00  0.00     0.001 N 
ATOM     31  N   UNL     1      23.291  34.821  13.946  1.00  0.00    -0.003 NA
ENDBRANCH  28  29
ENDBRANCH  27  28
ENDBRANCH  26  27
ENDBRANCH  20  26
BRANCH  21  32
ATOM     32  O   UNL     1      27.918  27.485  18.132  1.00  0.00    -0.387 OA
ATOM     33  H   UNL     1      27.542  26.555  18.043  1.00  0.00     0.211 HD
ENDBRANCH  21  32
BRANCH  22  34
ATOM     34  O   UNL     1      28.275  28.889  15.831  1.00  0.00    -0.385 OA
ATOM     35  H   UNL     1      28.949  28.243  16.154  1.00  0.00     0.211 HD
ENDBRANCH  22  34
ENDBRANCH  16  17
ENDBRANCH  11  16
BRANCH  13  36
ATOM     36  O   UNL     1      25.143  25.873  20.998  1.00  0.00    -0.385 OA
ATOM     37  H   UNL     1      24.373  26.398  20.732  1.00  0.00     0.211 HD
ENDBRANCH  13  36
BRANCH  14  38
ATOM     38  O   UNL     1      26.805  25.183  23.153  1.00  0.00    -0.387 OA
ATOM     39  H   UNL     1      25.971  24.663  23.262  1.00  0.00     0.211 HD
ENDBRANCH  14  38
BRANCH  15  40
ATOM     40  O   UNL     1      28.834  26.695  22.654  1.00  0.00    -0.387 OA
ATOM     41  H   UNL     1      29.004  27.103  21.761  1.00  0.00     0.211 HD
ENDBRANCH  15  40
ENDBRANCH   9  10
ENDBRANCH   8   9
ENDBRANCH   3   8
BRANCH   3  42
ATOM     42  C   UNL     1      30.585  28.500  20.814  1.00  0.00     0.364 C 
ATOM     43  O   UNL     1      31.544  28.017  21.456  1.00  0.00    -0.246 OA
BRANCH  42  44
ATOM     44  O   UNL     1      29.784  27.677  20.074  1.00  0.00    -0.477 OA
ATOM     45  H   UNL     1      28.932  27.266  20.447  1.00  0.00     0.296 HD
ENDBRANCH  42  44
ENDBRANCH   3  42
BRANCH   6  46
ATOM     46  O   UNL     1      31.348  32.760  22.505  1.00  0.00    -0.391 OA
ATOM     47  H   UNL     1      32.233  33.021  22.887  1.00  0.00     0.211 HD
ENDBRANCH   6  46
BRANCH   7  48
ATOM     48  N   UNL     1      30.835  33.853  19.773  1.00  0.00    -0.348 N 
ATOM     49  C   UNL     1      30.236  34.994  20.356  1.00  0.00     0.217 C 
ATOM     50  H   UNL     1      31.494  33.978  18.985  1.00  0.00     0.163 HD
ATOM     51  C   UNL     1      30.509  36.382  19.878  1.00  0.00     0.114 C 
ATOM     52  O   UNL     1      29.441  34.819  21.319  1.00  0.00    -0.275 OA
ENDBRANCH   7  48
ENDBRANCH   1   2
BRANCH   1  53
ATOM     53  O   UNL     1      28.940  32.856  18.305  1.00  0.00    -0.388 OA
ATOM     54  H   UNL     1      29.200  33.777  18.593  1.00  0.00     0.211 HD
ENDBRANCH   1  53
BRANCH   1  55
ATOM     55  C   UNL     1      30.945  32.914  17.067  1.00  0.00     0.165 C 
BRANCH  55  56
ATOM     56  O   UNL     1      30.531  34.219  16.939  1.00  0.00    -0.388 OA
ATOM     57  H   UNL     1      29.941  34.527  17.666  1.00  0.00     0.211 HD
ENDBRANCH  55  56
BRANCH  55  58
ATOM     58  C   UNL     1      31.089  32.249  15.738  1.00  0.00     0.154 C 
BRANCH  58  59
ATOM     59  N   UNL     1      31.376  33.127  14.660  1.00  0.00    -0.319 N 
ATOM     60  C   UNL     1      30.412  33.838  13.896  1.00  0.00     0.407 C 
ATOM     61  H   UNL     1      32.400  33.297  14.362  1.00  0.00     0.167 HD
ATOM     62  O   UNL     1      29.194  33.748  14.125  1.00  0.00    -0.225 OA
BRANCH  60  63
ATOM     63  O   UNL     1      30.846  34.673  12.852  1.00  0.00    -0.443 OA
BRANCH  63  64
ATOM     64  C   UNL     1      30.776  36.055  12.967  1.00  0.00     0.294 C 
BRANCH  64  65
ATOM     65  C   UNL     1      31.057  36.564  14.323  1.00  0.00     0.120 A 
ATOM     66  C   UNL     1      32.304  36.740  14.891  1.00  0.00     0.139 A 
ATOM     67  N   UNL     1      30.181  36.938  15.265  1.00  0.00    -0.132 NA
ATOM     68  N   UNL     1      32.159  37.212  16.152  1.00  0.00    -0.241 N 
ATOM     69  N   UNL     1      30.861  37.320  16.342  1.00  0.00    -0.066 NA
BRANCH  68  70
ATOM     70  C   UNL     1      33.262  37.511  17.058  1.00  0.00     0.268 C 
BRANCH  70  71
ATOM     71  C   UNL     1      33.845  36.194  17.499  1.00  0.00     0.327 C 
ATOM     72  O   UNL     1      33.162  35.326  18.076  1.00  0.00    -0.250 OA
BRANCH  71  73
ATOM     73  O   UNL     1      35.178  35.893  17.278  1.00  0.00    -0.465 OA
BRANCH  73  74
ATOM     74  C   UNL     1      36.198  36.054  18.221  1.00  0.00     0.229 C 
ATOM     75  C   UNL     1      37.408  35.201  17.929  1.00  0.00     0.049 C 
ENDBRANCH  73  74
ENDBRANCH  71  73
ENDBRANCH  70  71
ENDBRANCH  68  70
ENDBRANCH  64  65
ENDBRANCH  63  64
ENDBRANCH  60  63
ENDBRANCH  58  59
ENDBRANCH  55  58
ENDBRANCH   1  55
TORSDOF 33
BEGIN_RES LYS A 131
REMARK  4 active torsions:
REMARK  status: ('A' for Active; 'I' for Inactive)
REMARK    1  A    between atoms: CA   and  CB  
REMARK    2  A    between atoms: CB   and  CG  
REMARK    3  A    between atoms: CG   and  CD  
REMARK    4  A    between atoms: CD   and  CE  
ROOT
ATOM      1  CA  LYS A 131      29.867  25.555  16.977  1.00 20.52     0.186 C 
ENDROOT
BRANCH   1   2
ATOM      2  CB  LYS A 131      28.345  25.722  17.026  1.00 20.94     0.034 C 
BRANCH   2   3
ATOM      3  CG  LYS A 131      27.601  24.402  16.889  1.00 22.96     0.005 C 
BRANCH   3   4
ATOM      4  CD  LYS A 131      26.588  24.207  17.982  1.00 24.33     0.041 C 
BRANCH   4   5
ATOM      5  CE  LYS A 131      25.300  24.939  17.620  1.00 26.91     0.338 C 
ATOM      6  NZ  LYS A 131      24.399  24.052  16.847  1.00 27.40     0.618 N 
ENDBRANCH   4   5
ENDBRANCH   3   4
ENDBRANCH   2   3
ENDBRANCH   1   2
END_RES LYS A 131
BEGIN_RES LYS A 135
REMARK  4 active torsions:
REMARK  status: ('A' for Active; 'I' for Inactive)
REMARK    5  A    between atoms: CA   and  CB  
REMARK    6  A    between atoms: CB   and  CG  
REMARK    7  A    between atoms: CG   and  CD  
REMARK    8  A    between atoms: CD   and  CE  
ROOT
ATOM      7  CA  LYS A 135      33.193  34.663   9.290  1.00 25.02     0.186 C 
ENDROOT
BRANCH   7   8
ATOM      8  CB  LYS A 135      32.060  35.360  10.034  1.00 26.63     0.034 C 
BRANCH   8   9
ATOM      9  CG  LYS A 135      30.795  35.485   9.225  1.00 29.45     0.005 C 
BRANCH   9  10
ATOM     10  CD  LYS A 135      29.987  34.199   9.290  1.00 32.00     0.041 C 
BRANCH  10  11
ATOM     11  CE  LYS A 135      28.719  34.406  10.096  1.00 34.25     0.338 C 
ATOM     12  NZ  LYS A 135      27.550  33.766   9.431  1.00 35.99     0.618 N 
ENDBRANCH  10  11
ENDBRANCH   9  10
ENDBRANCH   8   9
ENDBRANCH   7   8
END_RES LYS A 135
