REMARK VINA RESULT:    -3.997      3.532      8.153
REMARK INTER + INTRA:         -22.458
REMARK INTER:                  -8.677
REMARK INTRA:                 -13.781
REMARK UNBOUND:               -12.269
REMARK SMILES CC(=O)N[C@@H]1[C@@H](O)C[C@](OC[C@H]2O[C@@H](O[C@H]3[C@H](O)[C@@H](O)[C@H](OCCN=[N+]=[N-])O[C@@H]3CO)[C@H](O)[C@@H](O)[C@H]2O)(C(=O)O)O[C@H]1C(O)[C@H](O)CNC(=O)OCc1cn(-c2cccc(S(N)(=O)=O)c2)nn1
REMARK SMILES IDX 9 1 8 2 6 3 5 4 42 5 41 6 10 7 11 8 12 9 14 10 13 11 32 12
REMARK SMILES IDX 34 13 36 14 15 15 16 16 29 17 28 18 21 19 17 20 19 21 30 22
REMARK SMILES IDX 31 23 22 25 23 26 24 27 25 28 26 29 27 30 18 31 20 33 33 35
REMARK SMILES IDX 35 37 37 39 38 41 39 42 40 43 7 45 43 47 44 48 45 50 46 51
REMARK SMILES IDX 47 53 48 54 49 55 50 57 51 58 52 59 53 60 54 61 67 62 55 63
REMARK SMILES IDX 66 64 56 65 65 66 57 67 60 68 58 69 59 70 61 71 63 72 64 73
REMARK SMILES IDX 62 74 4 77 2 78 1 80 3 81
REMARK H PARENT 31 24 18 32 20 34 33 36 35 38 37 40 40 44 7 46 44 49 46 52
REMARK H PARENT 48 56 62 75 62 76 4 79
REMARK Flexibility Score: inf
ROOT
ATOM      1  C   UNL     1      31.796  35.747  15.559  1.00  0.00     0.272 C 
ATOM      2  C   UNL     1      31.748  34.478  14.685  1.00  0.00     0.113 C 
ATOM      3  C   UNL     1      31.618  33.303  15.590  1.00  0.00     0.145 C 
ATOM      4  C   UNL     1      30.392  33.406  16.425  1.00  0.00     0.142 C 
ATOM      5  C   UNL     1      30.033  34.807  16.770  1.00  0.00     0.178 C 
ATOM      6  O   UNL     1      30.644  35.858  16.214  1.00  0.00    -0.332 OA
ENDROOT
BRANCH   1   7
ATOM      7  O   UNL     1      31.954  36.781  14.597  1.00  0.00    -0.338 OA
BRANCH   7   8
ATOM      8  C   UNL     1      31.325  36.409  13.449  1.00  0.00     0.199 C 
BRANCH   8   9
ATOM      9  C   UNL     1      30.478  37.514  12.856  1.00  0.00     0.179 C 
ATOM     10  C   UNL     1      28.993  37.850  11.218  1.00  0.00     0.282 C 
ATOM     11  O   UNL     1      29.283  37.024  12.333  1.00  0.00    -0.341 OA
ATOM     12  C   UNL     1      29.133  39.291  11.544  1.00  0.00     0.202 C 
ATOM     13  C   UNL     1      29.261  39.604  13.014  1.00  0.00     0.179 C 
ATOM     14  C   UNL     1      30.173  38.646  13.757  1.00  0.00     0.177 C 
BRANCH  10  15
ATOM     15  O   UNL     1      27.825  37.469  10.606  1.00  0.00    -0.341 OA
BRANCH  15  16
ATOM     16  C   UNL     1      26.988  36.689  11.368  1.00  0.00     0.184 C 
ATOM     17  C   UNL     1      26.501  35.527  10.537  1.00  0.00     0.178 C 
ATOM     18  O   UNL     1      25.136  35.297  10.751  1.00  0.00    -0.341 OA
ATOM     19  C   UNL     1      24.435  36.294  10.116  1.00  0.00     0.281 C 
ATOM     20  C   UNL     1      25.837  37.571  11.799  1.00  0.00     0.180 C 
ATOM     21  C   UNL     1      24.703  37.583  10.824  1.00  0.00     0.202 C 
BRANCH  17  22
ATOM     22  C   UNL     1      27.204  34.239  10.825  1.00  0.00     0.191 C 
BRANCH  22  23
ATOM     23  O   UNL     1      28.212  34.415  11.794  1.00  0.00    -0.394 OA
ATOM     24  H   UNL     1      28.427  35.370  11.915  1.00  0.00     0.210 HD
ENDBRANCH  22  23
ENDBRANCH  17  22
BRANCH  19  25
ATOM     25  O   UNL     1      23.059  36.064  10.115  1.00  0.00    -0.350 OA
BRANCH  25  26
ATOM     26  C   UNL     1      22.550  35.602   8.932  1.00  0.00     0.169 C 
BRANCH  26  27
ATOM     27  C   UNL     1      21.930  36.668   8.054  1.00  0.00     0.119 C 
BRANCH  27  28
ATOM     28  N   UNL     1      22.943  37.441   7.362  1.00  0.00    -0.092 NA
ATOM     29  N   UNL     1      23.033  38.660   7.472  1.00  0.00     0.001 N 
ATOM     30  N   UNL     1      23.202  39.867   7.503  1.00  0.00    -0.003 NA
ENDBRANCH  27  28
ENDBRANCH  26  27
ENDBRANCH  25  26
ENDBRANCH  19  25
BRANCH  20  31
ATOM     31  O   UNL     1      25.339  37.087  13.021  1.00  0.00    -0.387 OA
ATOM     32  H   UNL     1      25.897  37.365  13.789  1.00  0.00     0.211 HD
ENDBRANCH  20  31
BRANCH  21  33
ATOM     33  O   UNL     1      24.925  38.570   9.835  1.00  0.00    -0.385 OA
ATOM     34  H   UNL     1      24.835  38.126   8.960  1.00  0.00     0.211 HD
ENDBRANCH  21  33
ENDBRANCH  15  16
ENDBRANCH  10  15
BRANCH  12  35
ATOM     35  O   UNL     1      30.161  39.931  10.810  1.00  0.00    -0.385 OA
ATOM     36  H   UNL     1      30.985  39.763  11.370  1.00  0.00     0.211 HD
ENDBRANCH  12  35
BRANCH  13  37
ATOM     37  O   UNL     1      28.029  39.775  13.617  1.00  0.00    -0.387 OA
ATOM     38  H   UNL     1      27.463  38.992  13.324  1.00  0.00     0.211 HD
ENDBRANCH  13  37
BRANCH  14  39
ATOM     39  O   UNL     1      29.453  38.168  14.858  1.00  0.00    -0.387 OA
ATOM     40  H   UNL     1      29.991  37.549  15.412  1.00  0.00     0.211 HD
ENDBRANCH  14  39
ENDBRANCH   8   9
ENDBRANCH   7   8
ENDBRANCH   1   7
BRANCH   1  41
ATOM     41  C   UNL     1      33.036  35.629  16.366  1.00  0.00     0.364 C 
ATOM     42  O   UNL     1      34.161  35.631  15.745  1.00  0.00    -0.246 OA
BRANCH  41  43
ATOM     43  O   UNL     1      33.122  35.518  17.722  1.00  0.00    -0.477 OA
ATOM     44  H   UNL     1      33.997  35.667  18.242  1.00  0.00     0.296 HD
ENDBRANCH  41  43
ENDBRANCH   1  41
BRANCH   3  45
ATOM     45  O   UNL     1      31.554  32.168  14.733  1.00  0.00    -0.391 OA
ATOM     46  H   UNL     1      32.418  31.682  14.916  1.00  0.00     0.211 HD
ENDBRANCH   3  45
BRANCH   5  47
ATOM     47  C   UNL     1      28.501  34.946  16.596  1.00  0.00     0.176 C 
BRANCH  47  48
ATOM     48  O   UNL     1      27.878  34.141  17.531  1.00  0.00    -0.388 OA
ATOM     49  H   UNL     1      28.117  33.199  17.506  1.00  0.00     0.211 HD
ENDBRANCH  47  48
BRANCH  47  50
ATOM     50  C   UNL     1      28.117  34.729  15.184  1.00  0.00     0.165 C 
BRANCH  50  51
ATOM     51  O   UNL     1      27.921  35.963  14.569  1.00  0.00    -0.388 OA
ATOM     52  H   UNL     1      28.349  35.871  13.670  1.00  0.00     0.211 HD
ENDBRANCH  50  51
BRANCH  50  53
ATOM     53  C   UNL     1      26.822  33.944  15.045  1.00  0.00     0.154 C 
BRANCH  53  54
ATOM     54  N   UNL     1      25.723  34.867  15.198  1.00  0.00    -0.319 N 
ATOM     55  C   UNL     1      24.902  34.803  16.386  1.00  0.00     0.407 C 
ATOM     56  H   UNL     1      25.485  35.586  14.477  1.00  0.00     0.167 HD
ATOM     57  O   UNL     1      25.130  33.955  17.287  1.00  0.00    -0.225 OA
BRANCH  55  58
ATOM     58  O   UNL     1      23.871  35.716  16.468  1.00  0.00    -0.443 OA
BRANCH  58  59
ATOM     59  C   UNL     1      24.058  37.056  16.121  1.00  0.00     0.294 C 
BRANCH  59  60
ATOM     60  C   UNL     1      25.389  37.544  16.510  1.00  0.00     0.121 A 
ATOM     61  C   UNL     1      25.887  37.492  17.821  1.00  0.00     0.144 A 
ATOM     62  N   UNL     1      26.341  38.097  15.770  1.00  0.00    -0.131 NA
ATOM     63  N   UNL     1      27.107  38.015  17.797  1.00  0.00    -0.220 N 
ATOM     64  N   UNL     1      27.357  38.368  16.568  1.00  0.00    -0.062 NA
BRANCH  63  65
ATOM     65  C   UNL     1      27.948  38.128  18.953  1.00  0.00     0.068 A 
ATOM     66  C   UNL     1      28.536  36.972  19.474  1.00  0.00     0.050 A 
ATOM     67  C   UNL     1      28.177  39.337  19.539  1.00  0.00     0.028 A 
ATOM     68  C   UNL     1      29.350  37.027  20.577  1.00  0.00     0.084 A 
ATOM     69  C   UNL     1      28.981  39.404  20.631  1.00  0.00     0.004 A 
ATOM     70  C   UNL     1      29.579  38.262  21.169  1.00  0.00     0.022 A 
BRANCH  68  71
ATOM     71  S   UNL     1      30.115  35.629  21.277  1.00  0.00     0.238 S 
ATOM     72  O   UNL     1      29.049  34.651  21.684  1.00  0.00    -0.207 OA
ATOM     73  O   UNL     1      30.900  36.016  22.488  1.00  0.00    -0.207 OA
BRANCH  71  74
ATOM     74  N   UNL     1      31.158  34.913  20.083  1.00  0.00    -0.225 NA
ATOM     75  H   UNL     1      31.707  35.675  19.627  1.00  0.00     0.137 HD
ATOM     76  H   UNL     1      30.630  34.310  19.419  1.00  0.00     0.137 HD
ENDBRANCH  71  74
ENDBRANCH  68  71
ENDBRANCH  63  65
ENDBRANCH  59  60
ENDBRANCH  58  59
ENDBRANCH  55  58
ENDBRANCH  53  54
ENDBRANCH  50  53
ENDBRANCH  47  50
ENDBRANCH   5  47
BRANCH   4  77
ATOM     77  N   UNL     1      30.662  32.672  17.672  1.00  0.00    -0.348 N 
ATOM     78  C   UNL     1      29.890  31.556  18.090  1.00  0.00     0.217 C 
ATOM     79  H   UNL     1      31.451  32.979  18.279  1.00  0.00     0.163 HD
ATOM     80  C   UNL     1      30.213  30.855  19.358  1.00  0.00     0.114 C 
ATOM     81  O   UNL     1      28.931  31.188  17.350  1.00  0.00    -0.275 OA
ENDBRANCH   4  77
TORSDOF 32
BEGIN_RES LYS A 131
REMARK  4 active torsions:
REMARK  status: ('A' for Active; 'I' for Inactive)
REMARK    1  A    between atoms: CA   and  CB  
REMARK    2  A    between atoms: CB   and  CG  
REMARK    3  A    between atoms: CG   and  CD  
REMARK    4  A    between atoms: CD   and  CE  
ROOT
ATOM      1  CA  LYS A 131      29.867  25.555  16.977  1.00 20.52     0.186 C 
ENDROOT
BRANCH   1   2
ATOM      2  CB  LYS A 131      28.345  25.722  17.026  1.00 20.94     0.034 C 
BRANCH   2   3
ATOM      3  CG  LYS A 131      27.602  24.399  16.923  1.00 22.96     0.005 C 
BRANCH   3   4
ATOM      4  CD  LYS A 131      26.154  24.531  17.308  1.00 24.33     0.041 C 
BRANCH   4   5
ATOM      5  CE  LYS A 131      25.970  25.771  18.176  1.00 26.91     0.338 C 
ATOM      6  NZ  LYS A 131      24.788  26.546  17.728  1.00 27.40     0.618 N 
ENDBRANCH   4   5
ENDBRANCH   3   4
ENDBRANCH   2   3
ENDBRANCH   1   2
END_RES LYS A 131
BEGIN_RES LYS A 135
REMARK  4 active torsions:
REMARK  status: ('A' for Active; 'I' for Inactive)
REMARK    5  A    between atoms: CA   and  CB  
REMARK    6  A    between atoms: CB   and  CG  
REMARK    7  A    between atoms: CG   and  CD  
REMARK    8  A    between atoms: CD   and  CE  
ROOT
ATOM      7  CA  LYS A 135      33.193  34.663   9.290  1.00 25.02     0.186 C 
ENDROOT
BRANCH   7   8
ATOM      8  CB  LYS A 135      32.060  35.360  10.034  1.00 26.63     0.034 C 
BRANCH   8   9
ATOM      9  CG  LYS A 135      30.709  34.736   9.795  1.00 29.45     0.005 C 
BRANCH   9  10
ATOM     10  CD  LYS A 135      30.394  34.691   8.308  1.00 32.00     0.041 C 
BRANCH  10  11
ATOM     11  CE  LYS A 135      29.410  35.785   7.939  1.00 34.25     0.338 C 
ATOM     12  NZ  LYS A 135      28.193  35.218   7.296  1.00 35.99     0.618 N 
ENDBRANCH  10  11
ENDBRANCH   9  10
ENDBRANCH   8   9
ENDBRANCH   7   8
END_RES LYS A 135
