REMARK VINA RESULT:    -4.573      2.926      6.149
REMARK INTER + INTRA:         -22.933
REMARK INTER:                 -12.726
REMARK INTRA:                 -10.207
REMARK UNBOUND:               -10.207
REMARK SMILES CC(=O)N[C@@H]1[C@@H](O)C[C@](OC[C@H]2O[C@@H](O[C@H]3[C@H](O)[C@@H](O)[C@H](OCCN=[N+]=[N-])O[C@@H]3CO)[C@H](O)[C@@H](O)[C@H]2O)(C(=O)O)O[C@H]1C(O)[C@H](O)CNC(=O)OCc1cn(C[C@H](CC(=O)O)CC(C)C)nn1
REMARK SMILES IDX 43 1 42 2 9 3 8 4 41 5 6 6 5 7 10 8 11 9 12 10 14 11 13 12
REMARK SMILES IDX 32 13 34 14 36 15 15 16 16 17 29 18 28 19 21 20 17 21 19 22
REMARK SMILES IDX 30 23 31 24 22 26 23 27 24 28 25 29 26 30 27 31 18 32 20 34
REMARK SMILES IDX 33 36 35 38 37 40 38 42 39 43 40 44 7 46 4 48 2 49 1 51 3 52
REMARK SMILES IDX 44 53 45 55 46 56 47 58 48 59 49 60 50 62 51 63 52 64 53 65
REMARK SMILES IDX 54 66 67 67 55 68 66 69 56 70 57 71 58 72 59 73 60 74 61 75
REMARK SMILES IDX 62 77 63 78 64 79 65 80
REMARK H PARENT 31 25 18 33 20 35 33 37 35 39 37 41 40 45 7 47 4 50 44 54
REMARK H PARENT 46 57 48 61 61 76
REMARK Flexibility Score: inf
ROOT
ATOM      1  C   UNL     1      26.892  32.510  16.233  1.00  0.00     0.176 C 
ENDROOT
BRANCH   1   2
ATOM      2  C   UNL     1      27.649  31.963  17.410  1.00  0.00     0.178 C 
ATOM      3  C   UNL     1      29.951  32.601  17.735  1.00  0.00     0.272 C 
ATOM      4  C   UNL     1      30.414  31.330  17.117  1.00  0.00     0.113 C 
ATOM      5  O   UNL     1      28.660  32.841  17.641  1.00  0.00    -0.332 OA
ATOM      6  C   UNL     1      29.411  30.501  16.424  1.00  0.00     0.145 C 
ATOM      7  C   UNL     1      28.035  30.560  17.091  1.00  0.00     0.142 C 
BRANCH   3   8
ATOM      8  O   UNL     1      30.659  33.689  17.155  1.00  0.00    -0.338 OA
BRANCH   8   9
ATOM      9  C   UNL     1      31.632  33.331  16.274  1.00  0.00     0.199 C 
BRANCH   9  10
ATOM     10  C   UNL     1      31.471  34.119  14.955  1.00  0.00     0.179 C 
ATOM     11  C   UNL     1      30.074  35.645  13.903  1.00  0.00     0.282 C 
ATOM     12  O   UNL     1      30.553  35.140  15.102  1.00  0.00    -0.341 OA
ATOM     13  C   UNL     1      31.241  35.584  12.905  1.00  0.00     0.202 C 
ATOM     14  C   UNL     1      32.551  35.850  13.617  1.00  0.00     0.179 C 
ATOM     15  C   UNL     1      32.817  34.774  14.614  1.00  0.00     0.177 C 
BRANCH  11  16
ATOM     16  O   UNL     1      29.811  36.983  14.062  1.00  0.00    -0.341 OA
BRANCH  16  17
ATOM     17  C   UNL     1      28.492  37.340  14.160  1.00  0.00     0.184 C 
ATOM     18  C   UNL     1      27.620  36.335  14.854  1.00  0.00     0.178 C 
ATOM     19  O   UNL     1      26.656  35.763  14.079  1.00  0.00    -0.341 OA
ATOM     20  C   UNL     1      25.796  36.643  13.452  1.00  0.00     0.281 C 
ATOM     21  C   UNL     1      27.964  37.507  12.750  1.00  0.00     0.180 C 
ATOM     22  C   UNL     1      26.467  37.828  12.848  1.00  0.00     0.202 C 
BRANCH  18  23
ATOM     23  C   UNL     1      27.070  36.989  16.108  1.00  0.00     0.191 C 
BRANCH  23  24
ATOM     24  O   UNL     1      27.849  38.076  16.498  1.00  0.00    -0.394 OA
ATOM     25  H   UNL     1      27.883  38.180  17.488  1.00  0.00     0.210 HD
ENDBRANCH  23  24
ENDBRANCH  18  23
BRANCH  20  26
ATOM     26  O   UNL     1      24.780  36.950  14.344  1.00  0.00    -0.350 OA
BRANCH  26  27
ATOM     27  C   UNL     1      24.305  38.243  14.209  1.00  0.00     0.169 C 
BRANCH  27  28
ATOM     28  C   UNL     1      23.731  38.647  15.561  1.00  0.00     0.119 C 
BRANCH  28  29
ATOM     29  N   UNL     1      24.386  39.900  15.911  1.00  0.00    -0.092 NA
ATOM     30  N   UNL     1      25.454  40.156  15.407  1.00  0.00     0.001 N 
ATOM     31  N   UNL     1      26.588  40.593  15.170  1.00  0.00    -0.003 NA
ENDBRANCH  28  29
ENDBRANCH  27  28
ENDBRANCH  26  27
ENDBRANCH  20  26
BRANCH  21  32
ATOM     32  O   UNL     1      28.659  38.505  12.093  1.00  0.00    -0.387 OA
ATOM     33  H   UNL     1      29.600  38.491  12.455  1.00  0.00     0.211 HD
ENDBRANCH  21  32
BRANCH  22  34
ATOM     34  O   UNL     1      26.063  38.065  11.518  1.00  0.00    -0.385 OA
ATOM     35  H   UNL     1      25.489  37.315  11.252  1.00  0.00     0.211 HD
ENDBRANCH  22  34
ENDBRANCH  16  17
ENDBRANCH  11  16
BRANCH  13  36
ATOM     36  O   UNL     1      31.238  34.438  12.149  1.00  0.00    -0.385 OA
ATOM     37  H   UNL     1      32.114  34.043  12.000  1.00  0.00     0.211 HD
ENDBRANCH  13  36
BRANCH  14  38
ATOM     38  O   UNL     1      32.365  37.069  14.300  1.00  0.00    -0.387 OA
ATOM     39  H   UNL     1      32.166  37.803  13.699  1.00  0.00     0.211 HD
ENDBRANCH  14  38
BRANCH  15  40
ATOM     40  O   UNL     1      33.346  35.390  15.768  1.00  0.00    -0.387 OA
ATOM     41  H   UNL     1      32.638  35.745  16.329  1.00  0.00     0.211 HD
ENDBRANCH  15  40
ENDBRANCH   9  10
ENDBRANCH   8   9
ENDBRANCH   3   8
BRANCH   3  42
ATOM     42  C   UNL     1      30.410  32.655  19.180  1.00  0.00     0.364 C 
ATOM     43  O   UNL     1      30.221  31.692  19.934  1.00  0.00    -0.246 OA
BRANCH  42  44
ATOM     44  O   UNL     1      31.035  33.767  19.666  1.00  0.00    -0.477 OA
ATOM     45  H   UNL     1      31.133  34.630  19.133  1.00  0.00     0.296 HD
ENDBRANCH  42  44
ENDBRANCH   3  42
BRANCH   6  46
ATOM     46  O   UNL     1      29.270  30.695  15.067  1.00  0.00    -0.391 OA
ATOM     47  H   UNL     1      29.758  29.959  14.621  1.00  0.00     0.211 HD
ENDBRANCH   6  46
BRANCH   7  48
ATOM     48  N   UNL     1      28.111  29.654  18.206  1.00  0.00    -0.348 N 
ATOM     49  C   UNL     1      27.363  28.420  18.131  1.00  0.00     0.217 C 
ATOM     50  H   UNL     1      28.658  29.803  19.082  1.00  0.00     0.163 HD
ATOM     51  C   UNL     1      27.449  27.471  19.295  1.00  0.00     0.114 C 
ATOM     52  O   UNL     1      26.655  28.123  17.138  1.00  0.00    -0.275 OA
ENDBRANCH   7  48
ENDBRANCH   1   2
BRANCH   1  53
ATOM     53  O   UNL     1      27.798  33.264  15.429  1.00  0.00    -0.388 OA
ATOM     54  H   UNL     1      27.611  34.231  15.551  1.00  0.00     0.211 HD
ENDBRANCH   1  53
BRANCH   1  55
ATOM     55  C   UNL     1      25.781  33.493  16.526  1.00  0.00     0.165 C 
BRANCH  55  56
ATOM     56  O   UNL     1      25.512  33.188  17.931  1.00  0.00    -0.388 OA
ATOM     57  H   UNL     1      26.226  33.736  18.390  1.00  0.00     0.211 HD
ENDBRANCH  55  56
BRANCH  55  58
ATOM     58  C   UNL     1      24.495  33.130  15.868  1.00  0.00     0.154 C 
BRANCH  58  59
ATOM     59  N   UNL     1      24.238  33.902  14.705  1.00  0.00    -0.319 N 
ATOM     60  C   UNL     1      24.321  33.203  13.443  1.00  0.00     0.407 C 
ATOM     61  H   UNL     1      24.003  34.909  14.638  1.00  0.00     0.167 HD
ATOM     62  O   UNL     1      24.604  31.972  13.428  1.00  0.00    -0.225 OA
BRANCH  60  63
ATOM     63  O   UNL     1      24.112  33.810  12.225  1.00  0.00    -0.443 OA
BRANCH  63  64
ATOM     64  C   UNL     1      22.985  34.585  11.873  1.00  0.00     0.294 C 
BRANCH  64  65
ATOM     65  C   UNL     1      23.303  35.672  10.905  1.00  0.00     0.120 A 
ATOM     66  C   UNL     1      23.912  35.578   9.675  1.00  0.00     0.138 A 
ATOM     67  N   UNL     1      23.024  36.965  11.099  1.00  0.00    -0.132 NA
ATOM     68  N   UNL     1      23.993  36.836   9.142  1.00  0.00    -0.252 N 
ATOM     69  N   UNL     1      23.447  37.625  10.036  1.00  0.00    -0.067 NA
BRANCH  68  70
ATOM     70  C   UNL     1      24.569  37.207   7.902  1.00  0.00     0.150 C 
BRANCH  70  71
ATOM     71  C   UNL     1      25.854  37.917   7.979  1.00  0.00     0.022 C 
BRANCH  71  72
ATOM     72  C   UNL     1      26.114  38.964   6.961  1.00  0.00     0.128 C 
BRANCH  72  73
ATOM     73  C   UNL     1      25.617  40.316   7.251  1.00  0.00     0.303 C 
ATOM     74  O   UNL     1      25.012  40.530   8.334  1.00  0.00    -0.252 OA
BRANCH  73  75
ATOM     75  O   UNL     1      25.776  41.394   6.390  1.00  0.00    -0.481 OA
ATOM     76  H   UNL     1      25.564  42.330   6.703  1.00  0.00     0.296 HD
ENDBRANCH  73  75
ENDBRANCH  72  73
ENDBRANCH  71  72
BRANCH  71  77
ATOM     77  C   UNL     1      27.045  37.038   8.234  1.00  0.00     0.009 C 
BRANCH  77  78
ATOM     78  C   UNL     1      27.174  35.770   7.518  1.00  0.00    -0.017 C 
ATOM     79  C   UNL     1      28.180  35.655   6.429  1.00  0.00     0.007 C 
ATOM     80  C   UNL     1      27.311  34.553   8.414  1.00  0.00     0.007 C 
ENDBRANCH  77  78
ENDBRANCH  71  77
ENDBRANCH  70  71
ENDBRANCH  68  70
ENDBRANCH  64  65
ENDBRANCH  63  64
ENDBRANCH  60  63
ENDBRANCH  58  59
ENDBRANCH  55  58
ENDBRANCH   1  55
TORSDOF 36
BEGIN_RES LYS A 131
REMARK  4 active torsions:
REMARK  status: ('A' for Active; 'I' for Inactive)
REMARK    1  A    between atoms: CA   and  CB  
REMARK    2  A    between atoms: CB   and  CG  
REMARK    3  A    between atoms: CG   and  CD  
REMARK    4  A    between atoms: CD   and  CE  
ROOT
ATOM      1  CA  LYS A 131      29.867  25.555  16.977  1.00 20.52     0.186 C 
ENDROOT
BRANCH   1   2
ATOM      2  CB  LYS A 131      28.345  25.722  17.026  1.00 20.94     0.034 C 
BRANCH   2   3
ATOM      3  CG  LYS A 131      27.600  24.411  16.830  1.00 22.96     0.005 C 
BRANCH   3   4
ATOM      4  CD  LYS A 131      26.528  24.208  17.864  1.00 24.33     0.041 C 
BRANCH   4   5
ATOM      5  CE  LYS A 131      25.157  24.338  17.209  1.00 26.91     0.338 C 
ATOM      6  NZ  LYS A 131      24.454  25.542  17.711  1.00 27.40     0.618 N 
ENDBRANCH   4   5
ENDBRANCH   3   4
ENDBRANCH   2   3
ENDBRANCH   1   2
END_RES LYS A 131
BEGIN_RES LYS A 135
REMARK  4 active torsions:
REMARK  status: ('A' for Active; 'I' for Inactive)
REMARK    5  A    between atoms: CA   and  CB  
REMARK    6  A    between atoms: CB   and  CG  
REMARK    7  A    between atoms: CG   and  CD  
REMARK    8  A    between atoms: CD   and  CE  
ROOT
ATOM      7  CA  LYS A 135      33.193  34.663   9.290  1.00 25.02     0.186 C 
ENDROOT
BRANCH   7   8
ATOM      8  CB  LYS A 135      32.060  35.360  10.034  1.00 26.63     0.034 C 
BRANCH   8   9
ATOM      9  CG  LYS A 135      30.873  35.680   9.162  1.00 29.45     0.005 C 
BRANCH   9  10
ATOM     10  CD  LYS A 135      30.471  37.138   9.317  1.00 32.00     0.041 C 
BRANCH  10  11
ATOM     11  CE  LYS A 135      31.505  37.893  10.129  1.00 34.25     0.338 C 
ATOM     12  NZ  LYS A 135      32.104  39.003   9.337  1.00 35.99     0.618 N 
ENDBRANCH  10  11
ENDBRANCH   9  10
ENDBRANCH   8   9
ENDBRANCH   7   8
END_RES LYS A 135
