REMARK VINA RESULT:    -3.936      5.318     10.873
REMARK INTER + INTRA:         -22.230
REMARK INTER:                 -12.925
REMARK INTRA:                  -9.305
REMARK UNBOUND:               -12.543
REMARK SMILES CC(=O)N[C@@H]1[C@@H](O)C[C@](OC[C@H]2O[C@@H](O[C@H]3[C@H](O)[C@@H](O)[C@H](OCCN=[N+]=[N-])O[C@@H]3CO)[C@H](O)[C@@H](O)[C@H]2O)(C(=O)O)O[C@H]1C(O)[C@H](O)CNC(=O)OCc1cn(-c2ccncc2)nn1
REMARK SMILES IDX 9 1 8 2 6 3 5 4 42 5 41 6 10 7 11 8 12 9 14 10 13 11 32 12
REMARK SMILES IDX 34 13 36 14 15 15 16 16 29 17 28 18 21 19 17 20 19 21 30 22
REMARK SMILES IDX 31 23 22 25 23 26 24 27 25 28 26 29 27 30 18 31 20 33 33 35
REMARK SMILES IDX 35 37 37 39 38 41 39 42 40 43 7 45 43 47 44 48 45 50 46 51
REMARK SMILES IDX 47 53 48 54 49 55 50 57 51 58 52 59 53 60 54 61 63 62 55 63
REMARK SMILES IDX 62 64 56 65 57 66 61 67 58 68 60 69 59 70 4 71 2 72 1 74
REMARK SMILES IDX 3 75
REMARK H PARENT 31 24 18 32 20 34 33 36 35 38 37 40 40 44 7 46 44 49 46 52
REMARK H PARENT 48 56 4 73
REMARK Flexibility Score: inf
ROOT
ATOM      1  C   UNL     1      24.688  37.101   9.486  1.00  0.00     0.272 C 
ATOM      2  C   UNL     1      24.755  37.703  10.905  1.00  0.00     0.113 C 
ATOM      3  C   UNL     1      23.794  36.960  11.839  1.00  0.00     0.145 C 
ATOM      4  C   UNL     1      22.353  37.332  11.349  1.00  0.00     0.142 C 
ATOM      5  C   UNL     1      22.337  37.036   9.878  1.00  0.00     0.178 C 
ATOM      6  O   UNL     1      23.498  36.349   9.547  1.00  0.00    -0.332 OA
ENDROOT
BRANCH   1   7
ATOM      7  O   UNL     1      25.649  36.216   9.310  1.00  0.00    -0.338 OA
BRANCH   7   8
ATOM      8  C   UNL     1      25.895  35.058   8.880  1.00  0.00     0.199 C 
BRANCH   8   9
ATOM      9  C   UNL     1      27.247  34.688   8.350  1.00  0.00     0.179 C 
ATOM     10  C   UNL     1      29.082  35.837   7.437  1.00  0.00     0.282 C 
ATOM     11  O   UNL     1      27.817  35.943   7.966  1.00  0.00    -0.341 OA
ATOM     12  C   UNL     1      30.047  35.310   8.453  1.00  0.00     0.202 C 
ATOM     13  C   UNL     1      29.522  33.990   9.021  1.00  0.00     0.179 C 
ATOM     14  C   UNL     1      28.126  34.221   9.516  1.00  0.00     0.177 C 
BRANCH  10  15
ATOM     15  O   UNL     1      29.419  37.176   7.108  1.00  0.00    -0.341 OA
BRANCH  15  16
ATOM     16  C   UNL     1      28.431  38.062   7.379  1.00  0.00     0.184 C 
ATOM     17  C   UNL     1      28.102  38.972   6.266  1.00  0.00     0.178 C 
ATOM     18  O   UNL     1      26.992  39.776   6.601  1.00  0.00    -0.341 OA
ATOM     19  C   UNL     1      27.598  40.777   7.451  1.00  0.00     0.281 C 
ATOM     20  C   UNL     1      28.895  38.929   8.590  1.00  0.00     0.180 C 
ATOM     21  C   UNL     1      27.935  40.096   8.725  1.00  0.00     0.202 C 
BRANCH  17  22
ATOM     22  C   UNL     1      27.840  38.279   4.983  1.00  0.00     0.191 C 
BRANCH  22  23
ATOM     23  O   UNL     1      27.071  37.117   5.147  1.00  0.00    -0.394 OA
ATOM     24  H   UNL     1      27.246  36.546   4.342  1.00  0.00     0.210 HD
ENDBRANCH  22  23
ENDBRANCH  17  22
BRANCH  19  25
ATOM     25  O   UNL     1      26.624  41.721   7.619  1.00  0.00    -0.350 OA
BRANCH  25  26
ATOM     26  C   UNL     1      26.390  42.457   6.498  1.00  0.00     0.169 C 
BRANCH  26  27
ATOM     27  C   UNL     1      24.960  42.747   6.174  1.00  0.00     0.119 C 
BRANCH  27  28
ATOM     28  N   UNL     1      24.132  41.559   6.159  1.00  0.00    -0.092 NA
ATOM     29  N   UNL     1      23.024  41.485   6.671  1.00  0.00     0.001 N 
ATOM     30  N   UNL     1      22.054  41.429   7.433  1.00  0.00    -0.003 NA
ENDBRANCH  27  28
ENDBRANCH  26  27
ENDBRANCH  25  26
ENDBRANCH  19  25
BRANCH  20  31
ATOM     31  O   UNL     1      28.772  38.131   9.703  1.00  0.00    -0.387 OA
ATOM     32  H   UNL     1      29.654  38.029  10.182  1.00  0.00     0.211 HD
ENDBRANCH  20  31
BRANCH  21  33
ATOM     33  O   UNL     1      28.423  41.013   9.643  1.00  0.00    -0.385 OA
ATOM     34  H   UNL     1      28.088  40.773  10.546  1.00  0.00     0.211 HD
ENDBRANCH  21  33
ENDBRANCH  15  16
ENDBRANCH  10  15
BRANCH  12  35
ATOM     35  O   UNL     1      31.299  35.021   7.858  1.00  0.00    -0.385 OA
ATOM     36  H   UNL     1      31.491  35.787   7.268  1.00  0.00     0.211 HD
ENDBRANCH  12  35
BRANCH  13  37
ATOM     37  O   UNL     1      30.306  33.497  10.037  1.00  0.00    -0.387 OA
ATOM     38  H   UNL     1      29.982  33.831  10.931  1.00  0.00     0.211 HD
ENDBRANCH  13  37
BRANCH  14  39
ATOM     39  O   UNL     1      28.089  35.263  10.456  1.00  0.00    -0.387 OA
ATOM     40  H   UNL     1      29.029  35.532  10.687  1.00  0.00     0.211 HD
ENDBRANCH  14  39
ENDBRANCH   8   9
ENDBRANCH   7   8
ENDBRANCH   1   7
BRANCH   1  41
ATOM     41  C   UNL     1      24.624  38.158   8.472  1.00  0.00     0.364 C 
ATOM     42  O   UNL     1      24.525  39.388   8.787  1.00  0.00    -0.246 OA
BRANCH  41  43
ATOM     43  O   UNL     1      24.665  37.909   7.121  1.00  0.00    -0.477 OA
ATOM     44  H   UNL     1      24.623  37.018   6.676  1.00  0.00     0.296 HD
ENDBRANCH  41  43
ENDBRANCH   1  41
BRANCH   3  45
ATOM     45  O   UNL     1      23.940  35.610  11.673  1.00  0.00    -0.391 OA
ATOM     46  H   UNL     1      24.034  35.356  10.735  1.00  0.00     0.211 HD
ENDBRANCH   3  45
BRANCH   5  47
ATOM     47  C   UNL     1      21.246  36.036   9.470  1.00  0.00     0.176 C 
BRANCH  47  48
ATOM     48  O   UNL     1      21.877  34.779   9.874  1.00  0.00    -0.388 OA
ATOM     49  H   UNL     1      21.544  34.585  10.801  1.00  0.00     0.211 HD
ENDBRANCH  47  48
BRANCH  47  50
ATOM     50  C   UNL     1      20.941  35.919   8.041  1.00  0.00     0.165 C 
BRANCH  50  51
ATOM     51  O   UNL     1      21.731  36.599   7.145  1.00  0.00    -0.388 OA
ATOM     52  H   UNL     1      22.681  36.613   7.437  1.00  0.00     0.211 HD
ENDBRANCH  50  51
BRANCH  50  53
ATOM     53  C   UNL     1      19.513  35.756   7.690  1.00  0.00     0.154 C 
BRANCH  53  54
ATOM     54  N   UNL     1      18.602  35.619   8.795  1.00  0.00    -0.319 N 
ATOM     55  C   UNL     1      17.907  34.406   9.023  1.00  0.00     0.407 C 
ATOM     56  H   UNL     1      18.464  36.444   9.406  1.00  0.00     0.167 HD
ATOM     57  O   UNL     1      18.124  33.466   8.227  1.00  0.00    -0.225 OA
BRANCH  55  58
ATOM     58  O   UNL     1      17.027  34.205  10.048  1.00  0.00    -0.443 OA
BRANCH  58  59
ATOM     59  C   UNL     1      17.173  33.280  11.104  1.00  0.00     0.294 C 
BRANCH  59  60
ATOM     60  C   UNL     1      18.591  33.208  11.588  1.00  0.00     0.121 A 
ATOM     61  C   UNL     1      19.403  32.109  11.763  1.00  0.00     0.144 A 
ATOM     62  N   UNL     1      19.346  34.271  11.954  1.00  0.00    -0.131 NA
ATOM     63  N   UNL     1      20.599  32.521  12.219  1.00  0.00    -0.220 N 
ATOM     64  N   UNL     1      20.540  33.849  12.328  1.00  0.00    -0.062 NA
BRANCH  63  65
ATOM     65  C   UNL     1      21.700  31.675  12.521  1.00  0.00     0.069 A 
ATOM     66  C   UNL     1      22.927  32.126  12.956  1.00  0.00     0.048 A 
ATOM     67  C   UNL     1      21.529  30.316  12.376  1.00  0.00     0.048 A 
ATOM     68  C   UNL     1      23.972  31.264  13.245  1.00  0.00     0.113 A 
ATOM     69  C   UNL     1      22.579  29.461  12.666  1.00  0.00     0.113 A 
ATOM     70  N   UNL     1      23.758  29.937  13.087  1.00  0.00    -0.265 NA
ENDBRANCH  63  65
ENDBRANCH  59  60
ENDBRANCH  58  59
ENDBRANCH  55  58
ENDBRANCH  53  54
ENDBRANCH  50  53
ENDBRANCH  47  50
ENDBRANCH   5  47
BRANCH   4  71
ATOM     71  N   UNL     1      22.267  38.738  11.664  1.00  0.00    -0.348 N 
ATOM     72  C   UNL     1      21.642  39.269  12.813  1.00  0.00     0.217 C 
ATOM     73  H   UNL     1      22.688  39.422  11.009  1.00  0.00     0.163 HD
ATOM     74  C   UNL     1      21.615  40.723  13.029  1.00  0.00     0.114 C 
ATOM     75  O   UNL     1      21.113  38.508  13.647  1.00  0.00    -0.275 OA
ENDBRANCH   4  71
TORSDOF 30
BEGIN_RES LYS A 131
REMARK  4 active torsions:
REMARK  status: ('A' for Active; 'I' for Inactive)
REMARK    1  A    between atoms: CA   and  CB  
REMARK    2  A    between atoms: CB   and  CG  
REMARK    3  A    between atoms: CG   and  CD  
REMARK    4  A    between atoms: CD   and  CE  
ROOT
ATOM      1  CA  LYS A 131      29.867  25.555  16.977  1.00 20.52     0.186 C 
ENDROOT
BRANCH   1   2
ATOM      2  CB  LYS A 131      28.345  25.722  17.026  1.00 20.94     0.034 C 
BRANCH   2   3
ATOM      3  CG  LYS A 131      27.601  24.405  16.868  1.00 22.96     0.005 C 
BRANCH   3   4
ATOM      4  CD  LYS A 131      26.648  24.153  18.004  1.00 24.33     0.041 C 
BRANCH   4   5
ATOM      5  CE  LYS A 131      25.213  24.268  17.500  1.00 26.91     0.338 C 
ATOM      6  NZ  LYS A 131      24.699  25.643  17.707  1.00 27.40     0.618 N 
ENDBRANCH   4   5
ENDBRANCH   3   4
ENDBRANCH   2   3
ENDBRANCH   1   2
END_RES LYS A 131
BEGIN_RES LYS A 135
REMARK  4 active torsions:
REMARK  status: ('A' for Active; 'I' for Inactive)
REMARK    5  A    between atoms: CA   and  CB  
REMARK    6  A    between atoms: CB   and  CG  
REMARK    7  A    between atoms: CG   and  CD  
REMARK    8  A    between atoms: CD   and  CE  
ROOT
ATOM      7  CA  LYS A 135      33.193  34.663   9.290  1.00 25.02     0.186 C 
ENDROOT
BRANCH   7   8
ATOM      8  CB  LYS A 135      32.060  35.360  10.034  1.00 26.63     0.034 C 
BRANCH   8   9
ATOM      9  CG  LYS A 135      32.531  36.225  11.175  1.00 29.45     0.005 C 
BRANCH   9  10
ATOM     10  CD  LYS A 135      32.088  35.642  12.508  1.00 32.00     0.041 C 
BRANCH  10  11
ATOM     11  CE  LYS A 135      30.608  35.884  12.730  1.00 34.25     0.338 C 
ATOM     12  NZ  LYS A 135      29.949  34.681  13.311  1.00 35.99     0.618 N 
ENDBRANCH  10  11
ENDBRANCH   9  10
ENDBRANCH   8   9
ENDBRANCH   7   8
END_RES LYS A 135
