REMARK VINA RESULT:    -4.648      3.309      9.770
REMARK INTER + INTRA:         -23.263
REMARK INTER:                 -11.912
REMARK INTRA:                 -11.351
REMARK UNBOUND:               -10.737
REMARK SMILES CC(=O)N[C@@H]1[C@@H](O)C[C@](OC[C@H]2O[C@@H](O[C@H]3[C@H](O)[C@@H](O)[C@H](OCCN=[N+]=[N-])O[C@@H]3CO)[C@H](O)[C@@H](O)[C@H]2O)(C(=O)O)O[C@H]1C(O)[C@H](O)CNC(=O)OCc1cn(CCNC(=O)NCc2ccco2)nn1
REMARK SMILES IDX 43 1 42 2 9 3 8 4 41 5 6 6 5 7 10 8 11 9 12 10 14 11 13 12
REMARK SMILES IDX 32 13 34 14 36 15 15 16 16 17 29 18 28 19 21 20 17 21 19 22
REMARK SMILES IDX 30 23 31 24 22 26 23 27 24 28 25 29 26 30 27 31 18 32 20 34
REMARK SMILES IDX 33 36 35 38 37 40 38 42 39 43 40 44 7 46 4 48 2 49 1 51 3 52
REMARK SMILES IDX 44 53 45 55 46 56 47 58 48 59 49 60 50 62 51 63 52 64 53 65
REMARK SMILES IDX 54 66 69 67 55 68 68 69 56 70 57 71 58 72 59 73 60 75 61 76
REMARK SMILES IDX 62 78 63 79 64 80 67 81 65 82 66 83
REMARK H PARENT 31 25 18 33 20 35 33 37 35 39 37 41 40 45 7 47 4 50 44 54
REMARK H PARENT 46 57 48 61 58 74 61 77
REMARK Flexibility Score: inf
ROOT
ATOM      1  C   UNL     1      30.476  32.346  15.894  1.00  0.00     0.176 C 
ENDROOT
BRANCH   1   2
ATOM      2  C   UNL     1      30.062  31.256  16.831  1.00  0.00     0.178 C 
ATOM      3  C   UNL     1      27.692  31.092  16.730  1.00  0.00     0.272 C 
ATOM      4  C   UNL     1      27.790  32.327  17.684  1.00  0.00     0.113 C 
ATOM      5  O   UNL     1      28.922  30.610  16.462  1.00  0.00    -0.332 OA
ATOM      6  C   UNL     1      28.813  32.157  18.735  1.00  0.00     0.145 C 
ATOM      7  C   UNL     1      30.130  31.579  18.279  1.00  0.00     0.142 C 
BRANCH   3   8
ATOM      8  O   UNL     1      27.172  31.627  15.571  1.00  0.00    -0.338 OA
BRANCH   8   9
ATOM      9  C   UNL     1      27.014  32.940  15.429  1.00  0.00     0.199 C 
BRANCH   9  10
ATOM     10  C   UNL     1      25.915  33.631  14.782  1.00  0.00     0.179 C 
ATOM     11  C   UNL     1      24.330  33.733  13.128  1.00  0.00     0.282 C 
ATOM     12  O   UNL     1      25.180  32.905  13.861  1.00  0.00    -0.341 OA
ATOM     13  C   UNL     1      23.999  35.028  13.773  1.00  0.00     0.202 C 
ATOM     14  C   UNL     1      23.966  35.027  15.273  1.00  0.00     0.179 C 
ATOM     15  C   UNL     1      24.895  34.013  15.873  1.00  0.00     0.177 C 
BRANCH  11  16
ATOM     16  O   UNL     1      23.159  33.088  12.761  1.00  0.00    -0.341 OA
BRANCH  16  17
ATOM     17  C   UNL     1      22.844  32.009  13.612  1.00  0.00     0.184 C 
ATOM     18  C   UNL     1      22.996  30.750  12.809  1.00  0.00     0.178 C 
ATOM     19  O   UNL     1      22.079  29.770  13.184  1.00  0.00    -0.341 OA
ATOM     20  C   UNL     1      20.824  30.244  12.821  1.00  0.00     0.281 C 
ATOM     21  C   UNL     1      21.483  32.255  14.170  1.00  0.00     0.180 C 
ATOM     22  C   UNL     1      20.407  31.319  13.767  1.00  0.00     0.202 C 
BRANCH  18  23
ATOM     23  C   UNL     1      24.379  30.168  13.099  1.00  0.00     0.191 C 
BRANCH  23  24
ATOM     24  O   UNL     1      24.617  30.343  14.479  1.00  0.00    -0.394 OA
ATOM     25  H   UNL     1      25.231  29.590  14.722  1.00  0.00     0.210 HD
ENDBRANCH  23  24
ENDBRANCH  18  23
BRANCH  20  26
ATOM     26  O   UNL     1      19.942  29.173  12.983  1.00  0.00    -0.350 OA
BRANCH  26  27
ATOM     27  C   UNL     1      19.847  28.787  14.320  1.00  0.00     0.169 C 
BRANCH  27  28
ATOM     28  C   UNL     1      19.878  27.256  14.331  1.00  0.00     0.119 C 
BRANCH  28  29
ATOM     29  N   UNL     1      19.130  26.821  13.165  1.00  0.00    -0.092 NA
ATOM     30  N   UNL     1      18.430  25.798  13.202  1.00  0.00     0.001 N 
ATOM     31  N   UNL     1      17.515  24.972  13.355  1.00  0.00    -0.003 NA
ENDBRANCH  28  29
ENDBRANCH  27  28
ENDBRANCH  26  27
ENDBRANCH  20  26
BRANCH  21  32
ATOM     32  O   UNL     1      21.607  32.272  15.574  1.00  0.00    -0.387 OA
ATOM     33  H   UNL     1      20.966  31.680  16.009  1.00  0.00     0.211 HD
ENDBRANCH  21  32
BRANCH  22  34
ATOM     34  O   UNL     1      19.405  32.063  13.095  1.00  0.00    -0.385 OA
ATOM     35  H   UNL     1      19.650  32.008  12.121  1.00  0.00     0.211 HD
ENDBRANCH  22  34
ENDBRANCH  16  17
ENDBRANCH  11  16
BRANCH  13  36
ATOM     36  O   UNL     1      24.749  36.097  13.264  1.00  0.00    -0.385 OA
ATOM     37  H   UNL     1      25.669  36.099  13.610  1.00  0.00     0.211 HD
ENDBRANCH  13  36
BRANCH  14  38
ATOM     38  O   UNL     1      22.666  34.858  15.767  1.00  0.00    -0.387 OA
ATOM     39  H   UNL     1      22.070  35.237  15.063  1.00  0.00     0.211 HD
ENDBRANCH  14  38
BRANCH  15  40
ATOM     40  O   UNL     1      24.262  32.900  16.374  1.00  0.00    -0.387 OA
ATOM     41  H   UNL     1      23.774  33.162  17.176  1.00  0.00     0.211 HD
ENDBRANCH  15  40
ENDBRANCH   9  10
ENDBRANCH   8   9
ENDBRANCH   3   8
BRANCH   3  42
ATOM     42  C   UNL     1      26.734  30.220  17.405  1.00  0.00     0.364 C 
ATOM     43  O   UNL     1      25.514  30.320  17.206  1.00  0.00    -0.246 OA
BRANCH  42  44
ATOM     44  O   UNL     1      27.107  29.224  18.312  1.00  0.00    -0.477 OA
ATOM     45  H   UNL     1      26.716  28.286  18.206  1.00  0.00     0.296 HD
ENDBRANCH  42  44
ENDBRANCH   3  42
BRANCH   6  46
ATOM     46  O   UNL     1      29.051  33.423  19.302  1.00  0.00    -0.391 OA
ATOM     47  H   UNL     1      29.953  33.731  19.035  1.00  0.00     0.211 HD
ENDBRANCH   6  46
BRANCH   7  48
ATOM     48  N   UNL     1      30.421  30.392  19.083  1.00  0.00    -0.348 N 
ATOM     49  C   UNL     1      31.109  30.486  20.300  1.00  0.00     0.217 C 
ATOM     50  H   UNL     1      30.098  29.469  18.723  1.00  0.00     0.163 HD
ATOM     51  C   UNL     1      31.430  29.304  21.155  1.00  0.00     0.114 C 
ATOM     52  O   UNL     1      31.472  31.645  20.678  1.00  0.00    -0.275 OA
ENDBRANCH   7  48
ENDBRANCH   1   2
BRANCH   1  53
ATOM     53  O   UNL     1      31.464  31.800  14.999  1.00  0.00    -0.388 OA
ATOM     54  H   UNL     1      31.934  31.129  15.516  1.00  0.00     0.211 HD
ENDBRANCH   1  53
BRANCH   1  55
ATOM     55  C   UNL     1      31.198  33.511  16.504  1.00  0.00     0.165 C 
BRANCH  55  56
ATOM     56  O   UNL     1      30.423  34.526  17.014  1.00  0.00    -0.388 OA
ATOM     57  H   UNL     1      29.468  34.460  16.762  1.00  0.00     0.211 HD
ENDBRANCH  55  56
BRANCH  55  58
ATOM     58  C   UNL     1      32.255  34.071  15.547  1.00  0.00     0.154 C 
BRANCH  58  59
ATOM     59  N   UNL     1      31.665  34.427  14.279  1.00  0.00    -0.319 N 
ATOM     60  C   UNL     1      31.158  35.716  13.994  1.00  0.00     0.407 C 
ATOM     61  H   UNL     1      31.615  33.701  13.538  1.00  0.00     0.167 HD
ATOM     62  O   UNL     1      31.215  36.610  14.878  1.00  0.00    -0.225 OA
BRANCH  60  63
ATOM     63  O   UNL     1      30.593  36.030  12.762  1.00  0.00    -0.443 OA
BRANCH  63  64
ATOM     64  C   UNL     1      29.823  37.223  12.645  1.00  0.00     0.294 C 
BRANCH  64  65
ATOM     65  C   UNL     1      28.561  36.809  11.959  1.00  0.00     0.120 A 
ATOM     66  C   UNL     1      27.931  37.514  10.969  1.00  0.00     0.138 A 
ATOM     67  N   UNL     1      27.839  35.685  12.193  1.00  0.00    -0.132 NA
ATOM     68  N   UNL     1      26.859  36.810  10.635  1.00  0.00    -0.250 N 
ATOM     69  N   UNL     1      26.809  35.705  11.379  1.00  0.00    -0.067 NA
BRANCH  68  70
ATOM     70  C   UNL     1      25.888  37.205   9.616  1.00  0.00     0.167 C 
BRANCH  70  71
ATOM     71  C   UNL     1      25.506  35.938   8.850  1.00  0.00     0.141 C 
BRANCH  71  72
ATOM     72  N   UNL     1      24.526  35.250   9.639  1.00  0.00    -0.336 N 
ATOM     73  C   UNL     1      23.186  35.667   9.769  1.00  0.00     0.315 C 
ATOM     74  H   UNL     1      24.856  34.383  10.143  1.00  0.00     0.165 HD
ATOM     75  O   UNL     1      22.771  36.701   9.203  1.00  0.00    -0.249 OA
ATOM     76  N   UNL     1      22.293  34.876  10.569  1.00  0.00    -0.331 N 
ATOM     77  H   UNL     1      22.686  34.014  11.026  1.00  0.00     0.165 HD
BRANCH  76  78
ATOM     78  C   UNL     1      20.920  35.266  10.724  1.00  0.00     0.193 C 
BRANCH  78  79
ATOM     79  C   UNL     1      20.713  35.923  12.042  1.00  0.00     0.122 A 
ATOM     80  C   UNL     1      19.829  35.470  13.013  1.00  0.00     0.047 A 
ATOM     81  O   UNL     1      21.301  36.983  12.484  1.00  0.00    -0.467 OA
ATOM     82  C   UNL     1      19.940  36.340  14.058  1.00  0.00     0.042 A 
ATOM     83  C   UNL     1      20.871  37.274  13.692  1.00  0.00     0.195 A 
ENDBRANCH  78  79
ENDBRANCH  76  78
ENDBRANCH  71  72
ENDBRANCH  70  71
ENDBRANCH  68  70
ENDBRANCH  64  65
ENDBRANCH  63  64
ENDBRANCH  60  63
ENDBRANCH  58  59
ENDBRANCH  55  58
ENDBRANCH   1  55
TORSDOF 34
BEGIN_RES LYS A 131
REMARK  4 active torsions:
REMARK  status: ('A' for Active; 'I' for Inactive)
REMARK    1  A    between atoms: CA   and  CB  
REMARK    2  A    between atoms: CB   and  CG  
REMARK    3  A    between atoms: CG   and  CD  
REMARK    4  A    between atoms: CD   and  CE  
ROOT
ATOM      1  CA  LYS A 131      29.867  25.555  16.977  1.00 20.52     0.186 C 
ENDROOT
BRANCH   1   2
ATOM      2  CB  LYS A 131      28.345  25.722  17.026  1.00 20.94     0.034 C 
BRANCH   2   3
ATOM      3  CG  LYS A 131      27.599  24.481  16.561  1.00 22.96     0.005 C 
BRANCH   3   4
ATOM      4  CD  LYS A 131      27.004  23.714  17.710  1.00 24.33     0.041 C 
BRANCH   4   5
ATOM      5  CE  LYS A 131      25.529  23.445  17.432  1.00 26.91     0.338 C 
ATOM      6  NZ  LYS A 131      24.791  24.719  17.269  1.00 27.40     0.618 N 
ENDBRANCH   4   5
ENDBRANCH   3   4
ENDBRANCH   2   3
ENDBRANCH   1   2
END_RES LYS A 131
BEGIN_RES LYS A 135
REMARK  4 active torsions:
REMARK  status: ('A' for Active; 'I' for Inactive)
REMARK    5  A    between atoms: CA   and  CB  
REMARK    6  A    between atoms: CB   and  CG  
REMARK    7  A    between atoms: CG   and  CD  
REMARK    8  A    between atoms: CD   and  CE  
ROOT
ATOM      7  CA  LYS A 135      33.193  34.663   9.290  1.00 25.02     0.186 C 
ENDROOT
BRANCH   7   8
ATOM      8  CB  LYS A 135      32.060  35.360  10.034  1.00 26.63     0.034 C 
BRANCH   8   9
ATOM      9  CG  LYS A 135      30.768  35.404   9.260  1.00 29.45     0.005 C 
BRANCH   9  10
ATOM     10  CD  LYS A 135      29.876  34.232   9.637  1.00 32.00     0.041 C 
BRANCH  10  11
ATOM     11  CE  LYS A 135      28.700  34.129   8.684  1.00 34.25     0.338 C 
ATOM     12  NZ  LYS A 135      28.745  35.208   7.659  1.00 35.99     0.618 N 
ENDBRANCH  10  11
ENDBRANCH   9  10
ENDBRANCH   8   9
ENDBRANCH   7   8
END_RES LYS A 135
