REMARK VINA RESULT:    -4.310      6.187     12.793
REMARK INTER + INTRA:         -24.364
REMARK INTER:                 -13.478
REMARK INTRA:                 -10.885
REMARK UNBOUND:               -13.000
REMARK SMILES CC(=O)N[C@@H]1[C@@H](O)C[C@](OC[C@H]2O[C@@H](O[C@H]3[C@H](O)[C@@H](O)[C@H](OCCN=[N+]=[N-])O[C@@H]3CO)[C@H](O)[C@@H](O)[C@H]2O)(C(=O)O)O[C@H]1C(O)[C@H](O)CNC(=O)OCc1cn(C(C)CC(=O)c2ccccc2)nn1
REMARK SMILES IDX 43 1 42 2 9 3 8 4 41 5 6 6 5 7 10 8 11 9 12 10 14 11 13 12
REMARK SMILES IDX 32 13 34 14 36 15 15 16 16 17 29 18 28 19 21 20 17 21 19 22
REMARK SMILES IDX 30 23 31 24 22 26 23 27 24 28 25 29 26 30 27 31 18 32 20 34
REMARK SMILES IDX 33 36 35 38 37 40 38 42 39 43 40 44 7 46 4 48 2 49 1 51 3 52
REMARK SMILES IDX 44 53 45 55 46 56 47 58 48 59 49 60 50 62 51 63 52 64 53 65
REMARK SMILES IDX 54 66 68 67 55 68 67 69 56 70 57 71 58 72 59 73 60 74 61 75
REMARK SMILES IDX 62 76 66 77 63 78 65 79 64 80
REMARK H PARENT 31 25 18 33 20 35 33 37 35 39 37 41 40 45 7 47 4 50 44 54
REMARK H PARENT 46 57 48 61
REMARK Flexibility Score: inf
ROOT
ATOM      1  C   UNL     1      31.402  33.230  15.675  1.00  0.00     0.176 C 
ENDROOT
BRANCH   1   2
ATOM      2  C   UNL     1      30.359  34.142  15.200  1.00  0.00     0.178 C 
ATOM      3  C   UNL     1      28.105  33.523  15.520  1.00  0.00     0.272 C 
ATOM      4  C   UNL     1      27.640  34.205  14.278  1.00  0.00     0.113 C 
ATOM      5  O   UNL     1      29.252  34.292  15.939  1.00  0.00    -0.332 OA
ATOM      6  C   UNL     1      28.807  34.691  13.440  1.00  0.00     0.145 C 
ATOM      7  C   UNL     1      30.034  33.904  13.708  1.00  0.00     0.142 C 
BRANCH   3   8
ATOM      8  O   UNL     1      28.455  32.271  15.544  1.00  0.00    -0.338 OA
BRANCH   8   9
ATOM      9  C   UNL     1      27.921  31.102  15.480  1.00  0.00     0.199 C 
BRANCH   9  10
ATOM     10  C   UNL     1      27.339  30.292  16.592  1.00  0.00     0.179 C 
ATOM     11  C   UNL     1      27.778  30.035  18.904  1.00  0.00     0.282 C 
ATOM     12  O   UNL     1      28.147  30.366  17.655  1.00  0.00    -0.341 OA
ATOM     13  C   UNL     1      26.514  30.721  19.302  1.00  0.00     0.202 C 
ATOM     14  C   UNL     1      25.502  30.738  18.248  1.00  0.00     0.179 C 
ATOM     15  C   UNL     1      25.889  30.414  16.846  1.00  0.00     0.177 C 
BRANCH  11  16
ATOM     16  O   UNL     1      28.856  30.454  19.729  1.00  0.00    -0.341 OA
BRANCH  16  17
ATOM     17  C   UNL     1      29.600  29.359  20.097  1.00  0.00     0.184 C 
ATOM     18  C   UNL     1      29.264  28.908  21.488  1.00  0.00     0.178 C 
ATOM     19  O   UNL     1      29.614  29.856  22.436  1.00  0.00    -0.341 OA
ATOM     20  C   UNL     1      30.902  30.293  22.433  1.00  0.00     0.281 C 
ATOM     21  C   UNL     1      31.093  29.743  20.040  1.00  0.00     0.180 C 
ATOM     22  C   UNL     1      31.443  30.712  21.109  1.00  0.00     0.202 C 
BRANCH  18  23
ATOM     23  C   UNL     1      29.868  27.553  21.797  1.00  0.00     0.191 C 
BRANCH  23  24
ATOM     24  O   UNL     1      29.787  26.675  20.723  1.00  0.00    -0.394 OA
ATOM     25  H   UNL     1      30.678  26.614  20.286  1.00  0.00     0.210 HD
ENDBRANCH  23  24
ENDBRANCH  18  23
BRANCH  20  26
ATOM     26  O   UNL     1      31.791  29.485  23.095  1.00  0.00    -0.350 OA
BRANCH  26  27
ATOM     27  C   UNL     1      32.275  29.985  24.272  1.00  0.00     0.169 C 
BRANCH  27  28
ATOM     28  C   UNL     1      33.776  29.910  24.367  1.00  0.00     0.119 C 
BRANCH  28  29
ATOM     29  N   UNL     1      34.278  29.237  23.183  1.00  0.00    -0.092 NA
ATOM     30  N   UNL     1      35.456  28.892  23.137  1.00  0.00     0.001 N 
ATOM     31  N   UNL     1      36.575  28.377  23.187  1.00  0.00    -0.003 NA
ENDBRANCH  28  29
ENDBRANCH  27  28
ENDBRANCH  26  27
ENDBRANCH  20  26
BRANCH  21  32
ATOM     32  O   UNL     1      31.893  28.607  20.035  1.00  0.00    -0.387 OA
ATOM     33  H   UNL     1      31.562  27.912  19.416  1.00  0.00     0.211 HD
ENDBRANCH  21  32
BRANCH  22  34
ATOM     34  O   UNL     1      31.107  32.023  20.767  1.00  0.00    -0.385 OA
ATOM     35  H   UNL     1      31.749  32.285  20.059  1.00  0.00     0.211 HD
ENDBRANCH  22  34
ENDBRANCH  16  17
ENDBRANCH  11  16
BRANCH  13  36
ATOM     36  O   UNL     1      25.959  30.078  20.447  1.00  0.00    -0.385 OA
ATOM     37  H   UNL     1      24.983  30.257  20.386  1.00  0.00     0.211 HD
ENDBRANCH  13  36
BRANCH  14  38
ATOM     38  O   UNL     1      24.863  32.011  18.283  1.00  0.00    -0.387 OA
ATOM     39  H   UNL     1      24.274  32.098  19.068  1.00  0.00     0.211 HD
ENDBRANCH  14  38
BRANCH  15  40
ATOM     40  O   UNL     1      25.198  31.262  16.004  1.00  0.00    -0.387 OA
ATOM     41  H   UNL     1      25.660  32.018  15.634  1.00  0.00     0.211 HD
ENDBRANCH  15  40
ENDBRANCH   9  10
ENDBRANCH   8   9
ENDBRANCH   3   8
BRANCH   3  42
ATOM     42  C   UNL     1      27.096  33.858  16.617  1.00  0.00     0.364 C 
ATOM     43  O   UNL     1      25.944  34.187  16.309  1.00  0.00    -0.246 OA
BRANCH  42  44
ATOM     44  O   UNL     1      27.453  33.797  17.945  1.00  0.00    -0.477 OA
ATOM     45  H   UNL     1      26.812  33.333  18.578  1.00  0.00     0.296 HD
ENDBRANCH  42  44
ENDBRANCH   3  42
BRANCH   6  46
ATOM     46  O   UNL     1      28.473  34.749  12.092  1.00  0.00    -0.391 OA
ATOM     47  H   UNL     1      29.292  34.474  11.561  1.00  0.00     0.211 HD
ENDBRANCH   6  46
BRANCH   7  48
ATOM     48  N   UNL     1      31.161  34.447  12.955  1.00  0.00    -0.348 N 
ATOM     49  C   UNL     1      31.458  35.835  12.895  1.00  0.00     0.217 C 
ATOM     50  H   UNL     1      31.777  33.792  12.440  1.00  0.00     0.163 HD
ATOM     51  C   UNL     1      32.589  36.375  12.138  1.00  0.00     0.114 C 
ATOM     52  O   UNL     1      30.703  36.650  13.529  1.00  0.00    -0.275 OA
ENDBRANCH   7  48
ENDBRANCH   1   2
BRANCH   1  53
ATOM     53  O   UNL     1      31.375  31.949  15.071  1.00  0.00    -0.388 OA
ATOM     54  H   UNL     1      32.150  31.443  15.467  1.00  0.00     0.211 HD
ENDBRANCH   1  53
BRANCH   1  55
ATOM     55  C   UNL     1      31.493  32.982  17.165  1.00  0.00     0.165 C 
BRANCH  55  56
ATOM     56  O   UNL     1      30.361  32.496  17.734  1.00  0.00    -0.388 OA
ATOM     57  H   UNL     1      30.131  31.625  17.333  1.00  0.00     0.211 HD
ENDBRANCH  55  56
BRANCH  55  58
ATOM     58  C   UNL     1      31.862  34.330  17.802  1.00  0.00     0.154 C 
BRANCH  58  59
ATOM     59  N   UNL     1      31.986  34.194  19.236  1.00  0.00    -0.319 N 
ATOM     60  C   UNL     1      32.046  35.254  20.167  1.00  0.00     0.407 C 
ATOM     61  H   UNL     1      32.032  33.222  19.675  1.00  0.00     0.167 HD
ATOM     62  O   UNL     1      31.943  36.440  19.797  1.00  0.00    -0.225 OA
BRANCH  60  63
ATOM     63  O   UNL     1      32.225  35.011  21.544  1.00  0.00    -0.443 OA
BRANCH  63  64
ATOM     64  C   UNL     1      33.485  35.383  22.145  1.00  0.00     0.294 C 
BRANCH  64  65
ATOM     65  C   UNL     1      34.353  34.169  21.920  1.00  0.00     0.120 A 
ATOM     66  C   UNL     1      35.752  34.248  21.781  1.00  0.00     0.138 A 
ATOM     67  N   UNL     1      34.056  32.894  21.764  1.00  0.00    -0.132 NA
ATOM     68  N   UNL     1      36.233  33.019  21.543  1.00  0.00    -0.249 N 
ATOM     69  N   UNL     1      35.199  32.213  21.537  1.00  0.00    -0.067 NA
BRANCH  68  70
ATOM     70  C   UNL     1      37.651  32.731  21.319  1.00  0.00     0.114 C 
ATOM     71  C   UNL     1      38.044  31.555  22.157  1.00  0.00     0.034 C 
BRANCH  70  72
ATOM     72  C   UNL     1      37.941  32.612  19.859  1.00  0.00     0.108 C 
BRANCH  72  73
ATOM     73  C   UNL     1      38.483  33.916  19.394  1.00  0.00     0.164 C 
ATOM     74  O   UNL     1      39.166  34.630  20.132  1.00  0.00    -0.294 OA
BRANCH  73  75
ATOM     75  C   UNL     1      38.172  34.323  18.015  1.00  0.00     0.018 A 
ATOM     76  C   UNL     1      38.678  33.695  16.937  1.00  0.00     0.012 A 
ATOM     77  C   UNL     1      37.303  35.416  17.859  1.00  0.00     0.012 A 
ATOM     78  C   UNL     1      38.339  34.123  15.642  1.00  0.00     0.001 A 
ATOM     79  C   UNL     1      36.986  35.817  16.594  1.00  0.00     0.001 A 
ATOM     80  C   UNL     1      37.487  35.191  15.483  1.00  0.00     0.000 A 
ENDBRANCH  73  75
ENDBRANCH  72  73
ENDBRANCH  70  72
ENDBRANCH  68  70
ENDBRANCH  64  65
ENDBRANCH  63  64
ENDBRANCH  60  63
ENDBRANCH  58  59
ENDBRANCH  55  58
ENDBRANCH   1  55
TORSDOF 33
BEGIN_RES LYS A 131
REMARK  4 active torsions:
REMARK  status: ('A' for Active; 'I' for Inactive)
REMARK    1  A    between atoms: CA   and  CB  
REMARK    2  A    between atoms: CB   and  CG  
REMARK    3  A    between atoms: CG   and  CD  
REMARK    4  A    between atoms: CD   and  CE  
ROOT
ATOM      1  CA  LYS A 131      29.867  25.555  16.977  1.00 20.52     0.186 C 
ENDROOT
BRANCH   1   2
ATOM      2  CB  LYS A 131      28.345  25.722  17.026  1.00 20.94     0.034 C 
BRANCH   2   3
ATOM      3  CG  LYS A 131      27.601  24.401  16.901  1.00 22.96     0.005 C 
BRANCH   3   4
ATOM      4  CD  LYS A 131      26.153  24.528  17.283  1.00 24.33     0.041 C 
BRANCH   4   5
ATOM      5  CE  LYS A 131      25.971  24.109  18.738  1.00 26.91     0.338 C 
ATOM      6  NZ  LYS A 131      25.735  25.296  19.594  1.00 27.40     0.618 N 
ENDBRANCH   4   5
ENDBRANCH   3   4
ENDBRANCH   2   3
ENDBRANCH   1   2
END_RES LYS A 131
BEGIN_RES LYS A 135
REMARK  4 active torsions:
REMARK  status: ('A' for Active; 'I' for Inactive)
REMARK    5  A    between atoms: CA   and  CB  
REMARK    6  A    between atoms: CB   and  CG  
REMARK    7  A    between atoms: CG   and  CD  
REMARK    8  A    between atoms: CD   and  CE  
ROOT
ATOM      7  CA  LYS A 135      33.193  34.663   9.290  1.00 25.02     0.186 C 
ENDROOT
BRANCH   7   8
ATOM      8  CB  LYS A 135      32.060  35.360  10.034  1.00 26.63     0.034 C 
BRANCH   8   9
ATOM      9  CG  LYS A 135      30.817  35.544   9.203  1.00 29.45     0.005 C 
BRANCH   9  10
ATOM     10  CD  LYS A 135      30.092  34.219   9.021  1.00 32.00     0.041 C 
BRANCH  10  11
ATOM     11  CE  LYS A 135      28.704  34.444   8.452  1.00 34.25     0.338 C 
ATOM     12  NZ  LYS A 135      28.760  35.265   7.211  1.00 35.99     0.618 N 
ENDBRANCH  10  11
ENDBRANCH   9  10
ENDBRANCH   8   9
ENDBRANCH   7   8
END_RES LYS A 135
