REMARK VINA RESULT:    -4.375      2.539      5.081
REMARK INTER + INTRA:         -22.346
REMARK INTER:                  -9.921
REMARK INTRA:                 -12.426
REMARK UNBOUND:               -10.809
REMARK SMILES COc1ccc(Cn2cc(COC(=O)NC[C@@H](O)C(O)[C@@H]3O[C@@](OC[C@H]4O[C@@H](O[C@H]5[C@H](O)[C@@H](O)[C@H](OCCN=[N+]=[N-])O[C@@H]5CO)[C@H](O)[C@@H](O)[C@H]4O)(C(=O)O)C[C@H](O)[C@H]3NC(C)=O)nn2)cc1OC
REMARK SMILES IDX 23 1 55 2 56 3 58 4 21 5 22 6 24 7 25 8 26 9 28 10 27 11
REMARK SMILES IDX 46 12 48 13 50 14 29 15 30 16 43 17 42 18 35 19 31 20 33 21
REMARK SMILES IDX 44 22 45 23 36 25 37 26 38 27 39 28 40 29 41 30 32 31 34 33
REMARK SMILES IDX 47 35 49 37 51 39 52 41 53 42 54 43 57 45 19 47 20 48 17 50
REMARK SMILES IDX 18 51 16 53 15 54 13 55 14 57 12 58 11 59 10 60 9 61 63 62
REMARK SMILES IDX 8 63 64 64 7 65 6 66 65 67 5 68 66 69 4 70 3 71 67 72 68 73
REMARK SMILES IDX 2 74 1 75 59 76 60 77 61 79 62 80
REMARK H PARENT 45 24 32 32 34 34 47 36 49 38 51 40 54 44 57 46 20 49 18 52
REMARK H PARENT 15 56 59 78
REMARK Flexibility Score: inf
ROOT
ATOM      1  C   UNL     1      27.919  38.022  14.484  1.00  0.00     0.272 C 
ATOM      2  C   UNL     1      28.327  39.394  13.980  1.00  0.00     0.113 C 
ATOM      3  C   UNL     1      28.881  39.512  12.607  1.00  0.00     0.145 C 
ATOM      4  C   UNL     1      29.420  38.158  12.154  1.00  0.00     0.142 C 
ATOM      5  C   UNL     1      29.893  37.494  13.385  1.00  0.00     0.178 C 
ATOM      6  O   UNL     1      28.807  37.003  14.087  1.00  0.00    -0.332 OA
ENDROOT
BRANCH   1   7
ATOM      7  O   UNL     1      26.694  37.782  13.874  1.00  0.00    -0.338 OA
BRANCH   7   8
ATOM      8  C   UNL     1      25.676  37.337  14.660  1.00  0.00     0.199 C 
BRANCH   8   9
ATOM      9  C   UNL     1      25.066  36.082  14.100  1.00  0.00     0.179 C 
ATOM     10  C   UNL     1      24.618  34.863  12.235  1.00  0.00     0.282 C 
ATOM     11  O   UNL     1      25.543  35.822  12.802  1.00  0.00    -0.341 OA
ATOM     12  C   UNL     1      24.827  33.558  12.851  1.00  0.00     0.202 C 
ATOM     13  C   UNL     1      24.961  33.637  14.363  1.00  0.00     0.179 C 
ATOM     14  C   UNL     1      25.577  34.871  14.895  1.00  0.00     0.177 C 
BRANCH  10  15
ATOM     15  O   UNL     1      24.809  34.912  10.870  1.00  0.00    -0.341 OA
BRANCH  15  16
ATOM     16  C   UNL     1      23.805  35.670  10.267  1.00  0.00     0.184 C 
ATOM     17  C   UNL     1      24.146  37.101  10.132  1.00  0.00     0.178 C 
ATOM     18  O   UNL     1      23.211  37.687   9.283  1.00  0.00    -0.341 OA
ATOM     19  C   UNL     1      21.959  37.215   9.453  1.00  0.00     0.281 C 
ATOM     20  C   UNL     1      22.551  35.517  11.136  1.00  0.00     0.180 C 
ATOM     21  C   UNL     1      21.627  36.705  10.836  1.00  0.00     0.202 C 
BRANCH  17  22
ATOM     22  C   UNL     1      25.558  37.333   9.647  1.00  0.00     0.191 C 
BRANCH  22  23
ATOM     23  O   UNL     1      26.324  37.607  10.779  1.00  0.00    -0.394 OA
ATOM     24  H   UNL     1      26.799  36.769  11.058  1.00  0.00     0.210 HD
ENDBRANCH  22  23
ENDBRANCH  17  22
BRANCH  19  25
ATOM     25  O   UNL     1      21.788  36.084   8.576  1.00  0.00    -0.350 OA
BRANCH  25  26
ATOM     26  C   UNL     1      20.812  36.453   7.628  1.00  0.00     0.169 C 
BRANCH  26  27
ATOM     27  C   UNL     1      19.423  35.962   7.991  1.00  0.00     0.119 C 
BRANCH  27  28
ATOM     28  N   UNL     1      19.531  34.660   8.589  1.00  0.00    -0.092 NA
ATOM     29  N   UNL     1      18.620  34.164   9.257  1.00  0.00     0.001 N 
ATOM     30  N   UNL     1      17.631  34.018  10.003  1.00  0.00    -0.003 NA
ENDBRANCH  27  28
ENDBRANCH  26  27
ENDBRANCH  25  26
ENDBRANCH  19  25
BRANCH  20  31
ATOM     31  O   UNL     1      21.894  34.372  10.712  1.00  0.00    -0.387 OA
ATOM     32  H   UNL     1      22.579  33.750  10.321  1.00  0.00     0.211 HD
ENDBRANCH  20  31
BRANCH  21  33
ATOM     33  O   UNL     1      21.874  37.686  11.766  1.00  0.00    -0.385 OA
ATOM     34  H   UNL     1      21.145  38.364  11.807  1.00  0.00     0.211 HD
ENDBRANCH  21  33
ENDBRANCH  15  16
ENDBRANCH  10  15
BRANCH  12  35
ATOM     35  O   UNL     1      23.769  32.697  12.608  1.00  0.00    -0.385 OA
ATOM     36  H   UNL     1      23.762  31.923  13.242  1.00  0.00     0.211 HD
ENDBRANCH  12  35
BRANCH  13  37
ATOM     37  O   UNL     1      25.677  32.486  14.784  1.00  0.00    -0.387 OA
ATOM     38  H   UNL     1      25.089  32.009  15.427  1.00  0.00     0.211 HD
ENDBRANCH  13  37
BRANCH  14  39
ATOM     39  O   UNL     1      26.977  34.873  14.711  1.00  0.00    -0.387 OA
ATOM     40  H   UNL     1      27.362  35.797  14.894  1.00  0.00     0.211 HD
ENDBRANCH  14  39
ENDBRANCH   8   9
ENDBRANCH   7   8
ENDBRANCH   1   7
BRANCH   1  41
ATOM     41  C   UNL     1      27.893  38.064  15.969  1.00  0.00     0.364 C 
ATOM     42  O   UNL     1      27.750  39.124  16.584  1.00  0.00    -0.246 OA
BRANCH  41  43
ATOM     43  O   UNL     1      28.031  36.911  16.787  1.00  0.00    -0.477 OA
ATOM     44  H   UNL     1      27.143  36.563  17.218  1.00  0.00     0.296 HD
ENDBRANCH  41  43
ENDBRANCH   1  41
BRANCH   3  45
ATOM     45  O   UNL     1      27.928  39.922  11.705  1.00  0.00    -0.391 OA
ATOM     46  H   UNL     1      27.478  40.754  12.032  1.00  0.00     0.211 HD
ENDBRANCH   3  45
BRANCH   5  47
ATOM     47  C   UNL     1      31.027  36.597  13.195  1.00  0.00     0.176 C 
BRANCH  47  48
ATOM     48  O   UNL     1      32.275  37.089  13.559  1.00  0.00    -0.388 OA
ATOM     49  H   UNL     1      32.272  37.930  14.028  1.00  0.00     0.211 HD
ENDBRANCH  47  48
BRANCH  47  50
ATOM     50  C   UNL     1      30.921  35.438  14.326  1.00  0.00     0.165 C 
BRANCH  50  51
ATOM     51  O   UNL     1      32.022  35.525  15.086  1.00  0.00    -0.388 OA
ATOM     52  H   UNL     1      32.074  36.374  15.615  1.00  0.00     0.211 HD
ENDBRANCH  50  51
BRANCH  50  53
ATOM     53  C   UNL     1      30.455  34.206  13.736  1.00  0.00     0.154 C 
BRANCH  53  54
ATOM     54  N   UNL     1      29.661  33.230  14.404  1.00  0.00    -0.319 N 
ATOM     55  C   UNL     1      30.355  32.315  15.233  1.00  0.00     0.407 C 
ATOM     56  H   UNL     1      28.653  33.113  14.336  1.00  0.00     0.167 HD
ATOM     57  O   UNL     1      31.623  32.378  15.348  1.00  0.00    -0.225 OA
BRANCH  55  58
ATOM     58  O   UNL     1      29.767  31.297  15.978  1.00  0.00    -0.443 OA
BRANCH  58  59
ATOM     59  C   UNL     1      29.595  31.564  17.412  1.00  0.00     0.294 C 
BRANCH  59  60
ATOM     60  C   UNL     1      28.119  31.742  17.532  1.00  0.00     0.120 A 
ATOM     61  C   UNL     1      27.219  30.742  17.971  1.00  0.00     0.138 A 
ATOM     62  N   UNL     1      27.412  32.847  17.332  1.00  0.00    -0.132 NA
ATOM     63  N   UNL     1      26.005  31.342  18.008  1.00  0.00    -0.248 N 
ATOM     64  N   UNL     1      26.126  32.567  17.633  1.00  0.00    -0.067 NA
BRANCH  63  65
ATOM     65  C   UNL     1      24.763  30.674  18.481  1.00  0.00     0.181 C 
BRANCH  65  66
ATOM     66  C   UNL     1      23.947  30.531  17.195  1.00  0.00    -0.023 A 
ATOM     67  C   UNL     1      22.894  31.368  16.897  1.00  0.00     0.056 A 
ATOM     68  C   UNL     1      24.379  29.620  16.286  1.00  0.00     0.010 A 
ATOM     69  C   UNL     1      22.329  31.198  15.601  1.00  0.00     0.161 A 
ATOM     70  C   UNL     1      23.797  29.466  14.990  1.00  0.00     0.051 A 
ATOM     71  C   UNL     1      22.755  30.307  14.703  1.00  0.00     0.160 A 
BRANCH  69  72
ATOM     72  O   UNL     1      21.253  32.011  15.240  1.00  0.00    -0.493 OA
ATOM     73  C   UNL     1      21.379  33.434  15.145  1.00  0.00     0.278 C 
ENDBRANCH  69  72
BRANCH  71  74
ATOM     74  O   UNL     1      22.129  30.250  13.426  1.00  0.00    -0.493 OA
ATOM     75  C   UNL     1      22.560  29.226  12.505  1.00  0.00     0.278 C 
ENDBRANCH  71  74
ENDBRANCH  65  66
ENDBRANCH  63  65
ENDBRANCH  59  60
ENDBRANCH  58  59
ENDBRANCH  55  58
ENDBRANCH  53  54
ENDBRANCH  50  53
ENDBRANCH  47  50
ENDBRANCH   5  47
BRANCH   4  76
ATOM     76  N   UNL     1      30.429  38.382  11.153  1.00  0.00    -0.348 N 
ATOM     77  C   UNL     1      30.100  38.248   9.800  1.00  0.00     0.217 C 
ATOM     78  H   UNL     1      31.422  38.668  11.379  1.00  0.00     0.163 HD
ATOM     79  C   UNL     1      31.033  38.420   8.645  1.00  0.00     0.114 C 
ATOM     80  O   UNL     1      28.902  37.946   9.403  1.00  0.00    -0.275 OA
ENDBRANCH   4  76
TORSDOF 33
BEGIN_RES LYS A 131
REMARK  4 active torsions:
REMARK  status: ('A' for Active; 'I' for Inactive)
REMARK    1  A    between atoms: CA   and  CB  
REMARK    2  A    between atoms: CB   and  CG  
REMARK    3  A    between atoms: CG   and  CD  
REMARK    4  A    between atoms: CD   and  CE  
ROOT
ATOM      1  CA  LYS A 131      29.867  25.555  16.977  1.00 20.52     0.186 C 
ENDROOT
BRANCH   1   2
ATOM      2  CB  LYS A 131      28.345  25.722  17.026  1.00 20.94     0.034 C 
BRANCH   2   3
ATOM      3  CG  LYS A 131      27.599  24.466  16.602  1.00 22.96     0.005 C 
BRANCH   3   4
ATOM      4  CD  LYS A 131      26.915  23.795  17.761  1.00 24.33     0.041 C 
BRANCH   4   5
ATOM      5  CE  LYS A 131      25.435  23.610  17.440  1.00 26.91     0.338 C 
ATOM      6  NZ  LYS A 131      24.754  24.923  17.354  1.00 27.40     0.618 N 
ENDBRANCH   4   5
ENDBRANCH   3   4
ENDBRANCH   2   3
ENDBRANCH   1   2
END_RES LYS A 131
BEGIN_RES LYS A 135
REMARK  4 active torsions:
REMARK  status: ('A' for Active; 'I' for Inactive)
REMARK    5  A    between atoms: CA   and  CB  
REMARK    6  A    between atoms: CB   and  CG  
REMARK    7  A    between atoms: CG   and  CD  
REMARK    8  A    between atoms: CD   and  CE  
ROOT
ATOM      7  CA  LYS A 135      33.193  34.663   9.290  1.00 25.02     0.186 C 
ENDROOT
BRANCH   7   8
ATOM      8  CB  LYS A 135      32.060  35.360  10.034  1.00 26.63     0.034 C 
BRANCH   8   9
ATOM      9  CG  LYS A 135      30.732  34.660   9.902  1.00 29.45     0.005 C 
BRANCH   9  10
ATOM     10  CD  LYS A 135      30.338  34.529   8.438  1.00 32.00     0.041 C 
BRANCH  10  11
ATOM     11  CE  LYS A 135      28.830  34.583   8.285  1.00 34.25     0.338 C 
ATOM     12  NZ  LYS A 135      28.152  33.871   9.404  1.00 35.99     0.618 N 
ENDBRANCH  10  11
ENDBRANCH   9  10
ENDBRANCH   8   9
ENDBRANCH   7   8
END_RES LYS A 135
