REMARK VINA RESULT:    -3.851      2.946      8.626
REMARK INTER + INTRA:         -22.082
REMARK INTER:                 -11.778
REMARK INTRA:                 -10.304
REMARK UNBOUND:               -11.702
REMARK SMILES CC(=O)N[C@@H]1[C@@H](O)C[C@](OC[C@H]2O[C@@H](O[C@H]3[C@H](O)[C@@H](O)[C@H](OCCN=[N+]=[N-])O[C@@H]3CO)[C@H](O)[C@@H](O)[C@H]2O)(C(=O)O)O[C@H]1C(O)[C@H](O)CNC(=O)OCc1cn([C@@H](CC(=O)O)C(=O)O)nn1
REMARK SMILES IDX 43 1 42 2 9 3 8 4 41 5 6 6 5 7 10 8 11 9 12 10 14 11 13 12
REMARK SMILES IDX 32 13 34 14 36 15 15 16 16 17 29 18 28 19 21 20 17 21 19 22
REMARK SMILES IDX 30 23 31 24 22 26 23 27 24 28 25 29 26 30 27 31 18 32 20 34
REMARK SMILES IDX 33 36 35 38 37 40 38 42 39 43 40 44 7 46 4 48 2 49 1 51 3 52
REMARK SMILES IDX 44 53 45 55 46 56 47 58 48 59 49 60 50 62 51 63 52 64 53 65
REMARK SMILES IDX 54 66 65 67 55 68 64 69 56 70 57 71 58 72 59 73 60 74 61 76
REMARK SMILES IDX 62 77 63 78
REMARK H PARENT 31 25 18 33 20 35 33 37 35 39 37 41 40 45 7 47 4 50 44 54
REMARK H PARENT 46 57 48 61 60 75 63 79
REMARK Flexibility Score: inf
ROOT
ATOM      1  C   UNL     1      27.384  37.780   6.119  1.00  0.00     0.176 C 
ENDROOT
BRANCH   1   2
ATOM      2  C   UNL     1      26.601  38.241   7.336  1.00  0.00     0.178 C 
ATOM      3  C   UNL     1      24.593  37.806   8.479  1.00  0.00     0.272 C 
ATOM      4  C   UNL     1      25.013  39.185   9.005  1.00  0.00     0.113 C 
ATOM      5  O   UNL     1      25.422  37.562   7.361  1.00  0.00    -0.332 OA
ATOM      6  C   UNL     1      25.104  40.076   7.775  1.00  0.00     0.145 C 
ATOM      7  C   UNL     1      26.496  39.750   7.210  1.00  0.00     0.142 C 
BRANCH   3   8
ATOM      8  O   UNL     1      23.377  37.776   8.183  1.00  0.00    -0.338 OA
BRANCH   8   9
ATOM      9  C   UNL     1      22.171  37.737   7.882  1.00  0.00     0.199 C 
BRANCH   9  10
ATOM     10  C   UNL     1      21.547  36.365   7.621  1.00  0.00     0.179 C 
ATOM     11  C   UNL     1      21.114  35.596   9.747  1.00  0.00     0.282 C 
ATOM     12  O   UNL     1      21.780  35.426   8.567  1.00  0.00    -0.341 OA
ATOM     13  C   UNL     1      19.649  35.704   9.572  1.00  0.00     0.202 C 
ATOM     14  C   UNL     1      19.369  35.365   8.099  1.00  0.00     0.179 C 
ATOM     15  C   UNL     1      20.071  36.455   7.312  1.00  0.00     0.177 C 
BRANCH  11  16
ATOM     16  O   UNL     1      21.697  36.469  10.652  1.00  0.00    -0.341 OA
BRANCH  16  17
ATOM     17  C   UNL     1      21.762  35.976  11.934  1.00  0.00     0.184 C 
ATOM     18  C   UNL     1      22.016  37.044  12.936  1.00  0.00     0.178 C 
ATOM     19  O   UNL     1      22.021  36.537  14.229  1.00  0.00    -0.341 OA
ATOM     20  C   UNL     1      22.604  35.271  14.340  1.00  0.00     0.281 C 
ATOM     21  C   UNL     1      22.920  34.982  11.943  1.00  0.00     0.180 C 
ATOM     22  C   UNL     1      23.650  35.085  13.244  1.00  0.00     0.202 C 
BRANCH  18  23
ATOM     23  C   UNL     1      20.838  38.015  12.880  1.00  0.00     0.191 C 
BRANCH  23  24
ATOM     24  O   UNL     1      21.054  38.921  11.822  1.00  0.00    -0.394 OA
ATOM     25  H   UNL     1      22.046  39.067  11.815  1.00  0.00     0.210 HD
ENDBRANCH  23  24
ENDBRANCH  18  23
BRANCH  20  26
ATOM     26  O   UNL     1      21.609  34.335  14.128  1.00  0.00    -0.350 OA
BRANCH  26  27
ATOM     27  C   UNL     1      21.072  33.748  15.231  1.00  0.00     0.169 C 
BRANCH  27  28
ATOM     28  C   UNL     1      21.629  32.371  15.431  1.00  0.00     0.119 C 
BRANCH  28  29
ATOM     29  N   UNL     1      21.913  31.801  14.112  1.00  0.00    -0.092 NA
ATOM     30  N   UNL     1      23.089  31.460  13.872  1.00  0.00     0.001 N 
ATOM     31  N   UNL     1      24.146  31.411  13.215  1.00  0.00    -0.003 NA
ENDBRANCH  28  29
ENDBRANCH  27  28
ENDBRANCH  26  27
ENDBRANCH  20  26
BRANCH  21  32
ATOM     32  O   UNL     1      22.434  33.691  11.778  1.00  0.00    -0.387 OA
ATOM     33  H   UNL     1      23.071  33.149  11.228  1.00  0.00     0.211 HD
ENDBRANCH  21  32
BRANCH  22  34
ATOM     34  O   UNL     1      24.595  36.111  13.286  1.00  0.00    -0.385 OA
ATOM     35  H   UNL     1      24.160  36.874  12.788  1.00  0.00     0.211 HD
ENDBRANCH  22  34
ENDBRANCH  16  17
ENDBRANCH  11  16
BRANCH  13  36
ATOM     36  O   UNL     1      18.924  34.767  10.312  1.00  0.00    -0.385 OA
ATOM     37  H   UNL     1      18.268  34.340   9.688  1.00  0.00     0.211 HD
ENDBRANCH  13  36
BRANCH  14  38
ATOM     38  O   UNL     1      18.029  35.305   7.810  1.00  0.00    -0.387 OA
ATOM     39  H   UNL     1      17.832  34.675   7.062  1.00  0.00     0.211 HD
ENDBRANCH  14  38
BRANCH  15  40
ATOM     40  O   UNL     1      19.536  37.677   7.650  1.00  0.00    -0.387 OA
ATOM     41  H   UNL     1      18.607  37.646   7.936  1.00  0.00     0.211 HD
ENDBRANCH  15  40
ENDBRANCH   9  10
ENDBRANCH   8   9
ENDBRANCH   3   8
BRANCH   3  42
ATOM     42  C   UNL     1      25.041  36.851   9.583  1.00  0.00     0.364 C 
ATOM     43  O   UNL     1      25.107  35.634   9.357  1.00  0.00    -0.246 OA
BRANCH  42  44
ATOM     44  O   UNL     1      25.376  37.318  10.839  1.00  0.00    -0.477 OA
ATOM     45  H   UNL     1      26.133  38.000  10.990  1.00  0.00     0.296 HD
ENDBRANCH  42  44
ENDBRANCH   3  42
BRANCH   6  46
ATOM     46  O   UNL     1      24.233  39.596   6.772  1.00  0.00    -0.391 OA
ATOM     47  H   UNL     1      24.706  39.238   6.003  1.00  0.00     0.211 HD
ENDBRANCH   6  46
BRANCH   7  48
ATOM     48  N   UNL     1      27.440  40.463   8.039  1.00  0.00    -0.348 N 
ATOM     49  C   UNL     1      28.580  41.092   7.450  1.00  0.00     0.217 C 
ATOM     50  H   UNL     1      27.335  40.547   9.075  1.00  0.00     0.163 HD
ATOM     51  C   UNL     1      29.524  41.815   8.367  1.00  0.00     0.114 C 
ATOM     52  O   UNL     1      28.798  41.049   6.211  1.00  0.00    -0.275 OA
ENDBRANCH   7  48
ENDBRANCH   1   2
BRANCH   1  53
ATOM     53  O   UNL     1      26.736  36.747   5.452  1.00  0.00    -0.388 OA
ATOM     54  H   UNL     1      26.053  36.303   6.030  1.00  0.00     0.211 HD
ENDBRANCH   1  53
BRANCH   1  55
ATOM     55  C   UNL     1      28.808  37.443   6.357  1.00  0.00     0.165 C 
BRANCH  55  56
ATOM     56  O   UNL     1      29.734  38.181   5.655  1.00  0.00    -0.388 OA
ATOM     57  H   UNL     1      30.549  38.416   6.173  1.00  0.00     0.211 HD
ENDBRANCH  55  56
BRANCH  55  58
ATOM     58  C   UNL     1      29.036  35.971   6.312  1.00  0.00     0.154 C 
BRANCH  58  59
ATOM     59  N   UNL     1      28.600  35.225   7.452  1.00  0.00    -0.319 N 
ATOM     60  C   UNL     1      29.553  34.537   8.241  1.00  0.00     0.407 C 
ATOM     61  H   UNL     1      27.607  35.179   7.716  1.00  0.00     0.167 HD
ATOM     62  O   UNL     1      30.785  34.625   7.903  1.00  0.00    -0.225 OA
BRANCH  60  63
ATOM     63  O   UNL     1      29.282  33.763   9.355  1.00  0.00    -0.443 OA
BRANCH  63  64
ATOM     64  C   UNL     1      27.969  33.793   9.937  1.00  0.00     0.294 C 
BRANCH  64  65
ATOM     65  C   UNL     1      27.929  34.868  10.956  1.00  0.00     0.120 A 
ATOM     66  C   UNL     1      28.608  36.064  11.011  1.00  0.00     0.139 A 
ATOM     67  N   UNL     1      27.174  34.846  12.105  1.00  0.00    -0.132 NA
ATOM     68  N   UNL     1      28.260  36.718  12.158  1.00  0.00    -0.237 N 
ATOM     69  N   UNL     1      27.406  35.948  12.766  1.00  0.00    -0.066 NA
BRANCH  68  70
ATOM     70  C   UNL     1      28.761  37.999  12.600  1.00  0.00     0.229 C 
BRANCH  70  71
ATOM     71  C   UNL     1      28.910  38.894  11.382  1.00  0.00     0.161 C 
BRANCH  71  72
ATOM     72  C   UNL     1      30.290  39.395  11.243  1.00  0.00     0.306 C 
ATOM     73  O   UNL     1      30.952  39.194  10.193  1.00  0.00    -0.252 OA
BRANCH  72  74
ATOM     74  O   UNL     1      30.884  40.098  12.268  1.00  0.00    -0.481 OA
ATOM     75  H   UNL     1      30.313  40.360  13.081  1.00  0.00     0.296 HD
ENDBRANCH  72  74
ENDBRANCH  71  72
ENDBRANCH  70  71
BRANCH  70  76
ATOM     76  C   UNL     1      27.792  38.598  13.534  1.00  0.00     0.329 C 
ATOM     77  O   UNL     1      28.217  39.176  14.562  1.00  0.00    -0.250 OA
BRANCH  76  78
ATOM     78  O   UNL     1      26.419  38.555  13.333  1.00  0.00    -0.480 OA
ATOM     79  H   UNL     1      25.871  37.902  13.886  1.00  0.00     0.296 HD
ENDBRANCH  76  78
ENDBRANCH  70  76
ENDBRANCH  68  70
ENDBRANCH  64  65
ENDBRANCH  63  64
ENDBRANCH  60  63
ENDBRANCH  58  59
ENDBRANCH  55  58
ENDBRANCH   1  55
TORSDOF 35
BEGIN_RES LYS A 131
REMARK  4 active torsions:
REMARK  status: ('A' for Active; 'I' for Inactive)
REMARK    1  A    between atoms: CA   and  CB  
REMARK    2  A    between atoms: CB   and  CG  
REMARK    3  A    between atoms: CG   and  CD  
REMARK    4  A    between atoms: CD   and  CE  
ROOT
ATOM      1  CA  LYS A 131      29.867  25.555  16.977  1.00 20.52     0.186 C 
ENDROOT
BRANCH   1   2
ATOM      2  CB  LYS A 131      28.345  25.722  17.026  1.00 20.94     0.034 C 
BRANCH   2   3
ATOM      3  CG  LYS A 131      27.602  24.398  16.929  1.00 22.96     0.005 C 
BRANCH   3   4
ATOM      4  CD  LYS A 131      26.626  24.213  18.057  1.00 24.33     0.041 C 
BRANCH   4   5
ATOM      5  CE  LYS A 131      26.281  25.570  18.661  1.00 26.91     0.338 C 
ATOM      6  NZ  LYS A 131      24.916  25.986  18.258  1.00 27.40     0.618 N 
ENDBRANCH   4   5
ENDBRANCH   3   4
ENDBRANCH   2   3
ENDBRANCH   1   2
END_RES LYS A 131
BEGIN_RES LYS A 135
REMARK  4 active torsions:
REMARK  status: ('A' for Active; 'I' for Inactive)
REMARK    5  A    between atoms: CA   and  CB  
REMARK    6  A    between atoms: CB   and  CG  
REMARK    7  A    between atoms: CG   and  CD  
REMARK    8  A    between atoms: CD   and  CE  
ROOT
ATOM      7  CA  LYS A 135      33.193  34.663   9.290  1.00 25.02     0.186 C 
ENDROOT
BRANCH   7   8
ATOM      8  CB  LYS A 135      32.060  35.360  10.034  1.00 26.63     0.034 C 
BRANCH   8   9
ATOM      9  CG  LYS A 135      32.158  35.237  11.533  1.00 29.45     0.005 C 
BRANCH   9  10
ATOM     10  CD  LYS A 135      32.304  36.607  12.175  1.00 32.00     0.041 C 
BRANCH  10  11
ATOM     11  CE  LYS A 135      31.924  36.551  13.643  1.00 34.25     0.338 C 
ATOM     12  NZ  LYS A 135      30.983  35.428  13.910  1.00 35.99     0.618 N 
ENDBRANCH  10  11
ENDBRANCH   9  10
ENDBRANCH   8   9
ENDBRANCH   7   8
END_RES LYS A 135
