REMARK VINA RESULT:    -4.686      2.829      5.404
REMARK INTER + INTRA:         -23.944
REMARK INTER:                 -12.830
REMARK INTRA:                 -11.114
REMARK UNBOUND:               -12.409
REMARK SMILES CC(=O)N[C@@H]1[C@@H](O)C[C@](OC[C@H]2O[C@@H](O[C@H]3[C@H](O)[C@@H](O)[C@H](OCCN=[N+]=[N-])O[C@@H]3CO)[C@H](O)[C@@H](O)[C@H]2O)(C(=O)O)O[C@H]1C(O)[C@H](O)CNC(=O)OCc1cn(C2c3ccccc3-c3ccccc32)nn1
REMARK SMILES IDX 9 1 8 2 6 3 5 4 42 5 41 6 10 7 11 8 12 9 14 10 13 11 32 12
REMARK SMILES IDX 34 13 36 14 15 15 16 16 29 17 28 18 21 19 17 20 19 21 30 22
REMARK SMILES IDX 31 23 22 25 23 26 24 27 25 28 26 29 27 30 18 31 20 33 33 35
REMARK SMILES IDX 35 37 37 39 38 41 39 42 40 43 7 45 43 47 44 48 45 50 46 51
REMARK SMILES IDX 47 53 48 54 49 55 50 57 51 58 52 59 53 60 54 61 70 62 55 63
REMARK SMILES IDX 69 64 56 65 57 66 68 67 58 68 62 69 63 70 67 71 59 72 61 73
REMARK SMILES IDX 64 74 66 75 60 76 65 77 4 78 2 79 1 81 3 82
REMARK H PARENT 31 24 18 32 20 34 33 36 35 38 37 40 40 44 7 46 44 49 46 52
REMARK H PARENT 48 56 4 80
REMARK Flexibility Score: inf
ROOT
ATOM      1  C   UNL     1      24.009  37.160   9.091  1.00  0.00     0.272 C 
ATOM      2  C   UNL     1      23.054  37.930   8.272  1.00  0.00     0.113 C 
ATOM      3  C   UNL     1      23.600  39.225   7.803  1.00  0.00     0.145 C 
ATOM      4  C   UNL     1      24.759  39.732   8.617  1.00  0.00     0.142 C 
ATOM      5  C   UNL     1      24.629  39.223  10.011  1.00  0.00     0.178 C 
ATOM      6  O   UNL     1      24.533  37.878  10.176  1.00  0.00    -0.332 OA
ENDROOT
BRANCH   1   7
ATOM      7  O   UNL     1      25.057  36.649   8.372  1.00  0.00    -0.338 OA
BRANCH   7   8
ATOM      8  C   UNL     1      26.082  36.090   9.085  1.00  0.00     0.199 C 
BRANCH   8   9
ATOM      9  C   UNL     1      26.820  35.084   8.230  1.00  0.00     0.179 C 
ATOM     10  C   UNL     1      28.510  36.604   7.656  1.00  0.00     0.282 C 
ATOM     11  O   UNL     1      27.503  35.772   7.254  1.00  0.00    -0.341 OA
ATOM     12  C   UNL     1      29.375  35.956   8.667  1.00  0.00     0.202 C 
ATOM     13  C   UNL     1      29.172  34.441   8.477  1.00  0.00     0.179 C 
ATOM     14  C   UNL     1      27.749  34.213   9.030  1.00  0.00     0.177 C 
BRANCH  10  15
ATOM     15  O   UNL     1      28.059  37.871   7.914  1.00  0.00    -0.341 OA
BRANCH  15  16
ATOM     16  C   UNL     1      28.620  38.887   7.188  1.00  0.00     0.184 C 
ATOM     17  C   UNL     1      28.870  38.468   5.788  1.00  0.00     0.178 C 
ATOM     18  O   UNL     1      30.068  38.950   5.271  1.00  0.00    -0.341 OA
ATOM     19  C   UNL     1      30.420  40.173   5.740  1.00  0.00     0.281 C 
ATOM     20  C   UNL     1      29.904  39.232   7.938  1.00  0.00     0.180 C 
ATOM     21  C   UNL     1      30.902  40.001   7.177  1.00  0.00     0.202 C 
BRANCH  17  22
ATOM     22  C   UNL     1      27.770  38.919   4.853  1.00  0.00     0.191 C 
BRANCH  22  23
ATOM     23  O   UNL     1      26.579  39.171   5.576  1.00  0.00    -0.394 OA
ATOM     24  H   UNL     1      26.007  38.346   5.573  1.00  0.00     0.210 HD
ENDBRANCH  22  23
ENDBRANCH  17  22
BRANCH  19  25
ATOM     25  O   UNL     1      29.431  41.137   5.770  1.00  0.00    -0.350 OA
BRANCH  25  26
ATOM     26  C   UNL     1      29.886  42.411   5.953  1.00  0.00     0.169 C 
BRANCH  26  27
ATOM     27  C   UNL     1      29.132  43.261   6.917  1.00  0.00     0.119 C 
BRANCH  27  28
ATOM     28  N   UNL     1      29.621  43.158   8.277  1.00  0.00    -0.092 NA
ATOM     29  N   UNL     1      28.788  42.849   9.138  1.00  0.00     0.001 N 
ATOM     30  N   UNL     1      27.997  42.647  10.067  1.00  0.00    -0.003 NA
ENDBRANCH  27  28
ENDBRANCH  26  27
ENDBRANCH  25  26
ENDBRANCH  19  25
BRANCH  20  31
ATOM     31  O   UNL     1      29.569  39.979   9.099  1.00  0.00    -0.387 OA
ATOM     32  H   UNL     1      30.378  40.412   9.471  1.00  0.00     0.211 HD
ENDBRANCH  20  31
BRANCH  21  33
ATOM     33  O   UNL     1      32.114  39.300   7.113  1.00  0.00    -0.385 OA
ATOM     34  H   UNL     1      32.875  39.879   6.847  1.00  0.00     0.211 HD
ENDBRANCH  21  33
ENDBRANCH  15  16
ENDBRANCH  10  15
BRANCH  12  35
ATOM     35  O   UNL     1      30.737  36.165   8.453  1.00  0.00    -0.385 OA
ATOM     36  H   UNL     1      31.241  35.501   8.979  1.00  0.00     0.211 HD
ENDBRANCH  12  35
BRANCH  13  37
ATOM     37  O   UNL     1      30.029  33.711   9.266  1.00  0.00    -0.387 OA
ATOM     38  H   UNL     1      29.995  34.072  10.185  1.00  0.00     0.211 HD
ENDBRANCH  13  37
BRANCH  14  39
ATOM     39  O   UNL     1      27.783  34.659  10.337  1.00  0.00    -0.387 OA
ATOM     40  H   UNL     1      28.674  34.991  10.609  1.00  0.00     0.211 HD
ENDBRANCH  14  39
ENDBRANCH   8   9
ENDBRANCH   7   8
ENDBRANCH   1   7
BRANCH   1  41
ATOM     41  C   UNL     1      23.284  36.016   9.799  1.00  0.00     0.364 C 
ATOM     42  O   UNL     1      23.191  36.071  11.029  1.00  0.00    -0.246 OA
BRANCH  41  43
ATOM     43  O   UNL     1      22.751  34.960   9.102  1.00  0.00    -0.477 OA
ATOM     44  H   UNL     1      21.740  34.880   8.940  1.00  0.00     0.296 HD
ENDBRANCH  41  43
ENDBRANCH   1  41
BRANCH   3  45
ATOM     45  O   UNL     1      23.948  39.263   6.452  1.00  0.00    -0.391 OA
ATOM     46  H   UNL     1      23.655  38.485   5.957  1.00  0.00     0.211 HD
ENDBRANCH   3  45
BRANCH   5  47
ATOM     47  C   UNL     1      25.817  39.730  10.826  1.00  0.00     0.176 C 
BRANCH  47  48
ATOM     48  O   UNL     1      26.888  39.932   9.994  1.00  0.00    -0.388 OA
ATOM     49  H   UNL     1      27.748  39.978  10.511  1.00  0.00     0.211 HD
ENDBRANCH  47  48
BRANCH  47  50
ATOM     50  C   UNL     1      26.113  38.726  11.899  1.00  0.00     0.165 C 
BRANCH  50  51
ATOM     51  O   UNL     1      25.808  39.278  13.156  1.00  0.00    -0.388 OA
ATOM     52  H   UNL     1      26.220  38.750  13.875  1.00  0.00     0.211 HD
ENDBRANCH  50  51
BRANCH  50  53
ATOM     53  C   UNL     1      27.633  38.528  11.912  1.00  0.00     0.154 C 
BRANCH  53  54
ATOM     54  N   UNL     1      27.893  37.124  12.015  1.00  0.00    -0.319 N 
ATOM     55  C   UNL     1      27.981  36.499  13.276  1.00  0.00     0.407 C 
ATOM     56  H   UNL     1      28.019  36.553  11.145  1.00  0.00     0.167 HD
ATOM     57  O   UNL     1      27.844  37.153  14.342  1.00  0.00    -0.225 OA
BRANCH  55  58
ATOM     58  O   UNL     1      28.217  35.145  13.404  1.00  0.00    -0.443 OA
BRANCH  58  59
ATOM     59  C   UNL     1      27.642  34.354  14.434  1.00  0.00     0.294 C 
BRANCH  59  60
ATOM     60  C   UNL     1      26.297  33.931  13.969  1.00  0.00     0.120 A 
ATOM     61  C   UNL     1      25.252  33.414  14.723  1.00  0.00     0.139 A 
ATOM     62  N   UNL     1      25.837  33.974  12.709  1.00  0.00    -0.132 NA
ATOM     63  N   UNL     1      24.209  33.166  13.916  1.00  0.00    -0.240 N 
ATOM     64  N   UNL     1      24.596  33.517  12.699  1.00  0.00    -0.066 NA
BRANCH  63  65
ATOM     65  C   UNL     1      22.908  32.620  14.306  1.00  0.00     0.170 C 
ATOM     66  C   UNL     1      22.789  31.274  13.738  1.00  0.00    -0.011 A 
ATOM     67  C   UNL     1      21.818  33.376  13.664  1.00  0.00    -0.011 A 
ATOM     68  C   UNL     1      23.521  30.111  13.944  1.00  0.00     0.007 A 
ATOM     69  C   UNL     1      21.750  31.209  12.849  1.00  0.00    -0.012 A 
ATOM     70  C   UNL     1      21.144  32.538  12.808  1.00  0.00    -0.012 A 
ATOM     71  C   UNL     1      21.393  34.686  13.775  1.00  0.00     0.007 A 
ATOM     72  C   UNL     1      23.202  28.950  13.276  1.00  0.00     0.000 A 
ATOM     73  C   UNL     1      21.431  30.039  12.176  1.00  0.00     0.009 A 
ATOM     74  C   UNL     1      20.069  32.986  12.074  1.00  0.00     0.009 A 
ATOM     75  C   UNL     1      20.321  35.155  13.050  1.00  0.00     0.000 A 
ATOM     76  C   UNL     1      22.150  28.884  12.374  1.00  0.00     0.001 A 
ATOM     77  C   UNL     1      19.656  34.301  12.196  1.00  0.00     0.001 A 
ENDBRANCH  63  65
ENDBRANCH  59  60
ENDBRANCH  58  59
ENDBRANCH  55  58
ENDBRANCH  53  54
ENDBRANCH  50  53
ENDBRANCH  47  50
ENDBRANCH   5  47
BRANCH   4  78
ATOM     78  N   UNL     1      24.594  41.196   8.700  1.00  0.00    -0.348 N 
ATOM     79  C   UNL     1      25.286  42.073   7.826  1.00  0.00     0.217 C 
ATOM     80  H   UNL     1      23.956  41.564   9.419  1.00  0.00     0.163 HD
ATOM     81  C   UNL     1      25.107  43.556   7.922  1.00  0.00     0.114 C 
ATOM     82  O   UNL     1      26.055  41.565   6.964  1.00  0.00    -0.275 OA
ENDBRANCH   4  78
TORSDOF 30
BEGIN_RES LYS A 131
REMARK  4 active torsions:
REMARK  status: ('A' for Active; 'I' for Inactive)
REMARK    1  A    between atoms: CA   and  CB  
REMARK    2  A    between atoms: CB   and  CG  
REMARK    3  A    between atoms: CG   and  CD  
REMARK    4  A    between atoms: CD   and  CE  
ROOT
ATOM      1  CA  LYS A 131      29.867  25.555  16.977  1.00 20.52     0.186 C 
ENDROOT
BRANCH   1   2
ATOM      2  CB  LYS A 131      28.345  25.722  17.026  1.00 20.94     0.034 C 
BRANCH   2   3
ATOM      3  CG  LYS A 131      27.601  24.403  16.887  1.00 22.96     0.005 C 
BRANCH   3   4
ATOM      4  CD  LYS A 131      26.237  24.453  17.517  1.00 24.33     0.041 C 
BRANCH   4   5
ATOM      5  CE  LYS A 131      25.639  23.050  17.548  1.00 26.91     0.338 C 
ATOM      6  NZ  LYS A 131      24.211  23.086  17.152  1.00 27.40     0.618 N 
ENDBRANCH   4   5
ENDBRANCH   3   4
ENDBRANCH   2   3
ENDBRANCH   1   2
END_RES LYS A 131
BEGIN_RES LYS A 135
REMARK  4 active torsions:
REMARK  status: ('A' for Active; 'I' for Inactive)
REMARK    5  A    between atoms: CA   and  CB  
REMARK    6  A    between atoms: CB   and  CG  
REMARK    7  A    between atoms: CG   and  CD  
REMARK    8  A    between atoms: CD   and  CE  
ROOT
ATOM      7  CA  LYS A 135      33.193  34.663   9.290  1.00 25.02     0.186 C 
ENDROOT
BRANCH   7   8
ATOM      8  CB  LYS A 135      32.060  35.360  10.034  1.00 26.63     0.034 C 
BRANCH   8   9
ATOM      9  CG  LYS A 135      32.512  36.093  11.270  1.00 29.45     0.005 C 
BRANCH   9  10
ATOM     10  CD  LYS A 135      31.349  36.301  12.227  1.00 32.00     0.041 C 
BRANCH  10  11
ATOM     11  CE  LYS A 135      31.350  37.718  12.768  1.00 34.25     0.338 C 
ATOM     12  NZ  LYS A 135      31.494  38.712  11.669  1.00 35.99     0.618 N 
ENDBRANCH  10  11
ENDBRANCH   9  10
ENDBRANCH   8   9
ENDBRANCH   7   8
END_RES LYS A 135
