REMARK VINA RESULT:    -4.945      0.000      0.000
REMARK INTER + INTRA:         -23.968
REMARK INTER:                 -10.595
REMARK INTRA:                 -13.373
REMARK UNBOUND:               -10.207
REMARK SMILES CC(=O)N[C@@H]1[C@@H](O)C[C@](OC[C@H]2O[C@@H](O[C@H]3[C@H](O)[C@@H](O)[C@H](OCCN=[N+]=[N-])O[C@@H]3CO)[C@H](O)[C@@H](O)[C@H]2O)(C(=O)O)O[C@H]1C(O)[C@H](O)CNC(=O)OCc1cn(C[C@H](CC(=O)O)CC(C)C)nn1
REMARK SMILES IDX 43 1 42 2 9 3 8 4 41 5 6 6 5 7 10 8 11 9 12 10 14 11 13 12
REMARK SMILES IDX 32 13 34 14 36 15 15 16 16 17 29 18 28 19 21 20 17 21 19 22
REMARK SMILES IDX 30 23 31 24 22 26 23 27 24 28 25 29 26 30 27 31 18 32 20 34
REMARK SMILES IDX 33 36 35 38 37 40 38 42 39 43 40 44 7 46 4 48 2 49 1 51 3 52
REMARK SMILES IDX 44 53 45 55 46 56 47 58 48 59 49 60 50 62 51 63 52 64 53 65
REMARK SMILES IDX 54 66 67 67 55 68 66 69 56 70 57 71 58 72 59 73 60 74 61 75
REMARK SMILES IDX 62 77 63 78 64 79 65 80
REMARK H PARENT 31 25 18 33 20 35 33 37 35 39 37 41 40 45 7 47 4 50 44 54
REMARK H PARENT 46 57 48 61 61 76
REMARK Flexibility Score: inf
ROOT
ATOM      1  C   UNL     1      29.278  31.829  17.393  1.00  0.00     0.176 C 
ENDROOT
BRANCH   1   2
ATOM      2  C   UNL     1      29.425  30.634  18.293  1.00  0.00     0.178 C 
ATOM      3  C   UNL     1      27.497  29.798  19.472  1.00  0.00     0.272 C 
ATOM      4  C   UNL     1      27.913  30.513  20.707  1.00  0.00     0.113 C 
ATOM      5  O   UNL     1      28.186  30.087  18.388  1.00  0.00    -0.332 OA
ATOM      6  C   UNL     1      29.003  31.500  20.593  1.00  0.00     0.145 C 
ATOM      7  C   UNL     1      30.058  31.095  19.561  1.00  0.00     0.142 C 
BRANCH   3   8
ATOM      8  O   UNL     1      26.122  30.060  19.220  1.00  0.00    -0.338 OA
BRANCH   8   9
ATOM      9  C   UNL     1      25.584  29.346  18.196  1.00  0.00     0.199 C 
BRANCH   9  10
ATOM     10  C   UNL     1      24.813  30.285  17.241  1.00  0.00     0.179 C 
ATOM     11  C   UNL     1      24.173  32.501  16.989  1.00  0.00     0.282 C 
ATOM     12  O   UNL     1      25.086  31.607  17.527  1.00  0.00    -0.341 OA
ATOM     13  C   UNL     1      23.731  31.917  15.638  1.00  0.00     0.202 C 
ATOM     14  C   UNL     1      24.888  31.196  14.979  1.00  0.00     0.179 C 
ATOM     15  C   UNL     1      25.300  30.027  15.809  1.00  0.00     0.177 C 
BRANCH  11  16
ATOM     16  O   UNL     1      24.828  33.666  16.676  1.00  0.00    -0.341 OA
BRANCH  16  17
ATOM     17  C   UNL     1      25.609  34.214  17.659  1.00  0.00     0.184 C 
ATOM     18  C   UNL     1      24.850  34.931  18.736  1.00  0.00     0.178 C 
ATOM     19  O   UNL     1      25.076  36.273  18.818  1.00  0.00    -0.341 OA
ATOM     20  C   UNL     1      26.397  36.645  18.972  1.00  0.00     0.281 C 
ATOM     21  C   UNL     1      26.526  35.221  16.998  1.00  0.00     0.180 C 
ATOM     22  C   UNL     1      27.349  35.898  18.103  1.00  0.00     0.202 C 
BRANCH  18  23
ATOM     23  C   UNL     1      25.101  34.201  20.044  1.00  0.00     0.191 C 
BRANCH  23  24
ATOM     24  O   UNL     1      25.878  33.063  19.847  1.00  0.00    -0.394 OA
ATOM     25  H   UNL     1      26.709  33.257  19.334  1.00  0.00     0.210 HD
ENDBRANCH  23  24
ENDBRANCH  18  23
BRANCH  20  26
ATOM     26  O   UNL     1      26.694  36.597  20.325  1.00  0.00    -0.350 OA
BRANCH  26  27
ATOM     27  C   UNL     1      27.618  37.552  20.716  1.00  0.00     0.169 C 
BRANCH  27  28
ATOM     28  C   UNL     1      28.384  36.969  21.895  1.00  0.00     0.119 C 
BRANCH  28  29
ATOM     29  N   UNL     1      29.747  36.770  21.423  1.00  0.00    -0.092 NA
ATOM     30  N   UNL     1      29.929  36.061  20.462  1.00  0.00     0.001 N 
ATOM     31  N   UNL     1      30.411  35.288  19.622  1.00  0.00    -0.003 NA
ENDBRANCH  28  29
ENDBRANCH  27  28
ENDBRANCH  26  27
ENDBRANCH  20  26
BRANCH  21  32
ATOM     32  O   UNL     1      27.336  34.595  16.069  1.00  0.00    -0.387 OA
ATOM     33  H   UNL     1      26.726  34.084  15.449  1.00  0.00     0.211 HD
ENDBRANCH  21  32
BRANCH  22  34
ATOM     34  O   UNL     1      28.242  36.746  17.416  1.00  0.00    -0.385 OA
ATOM     35  H   UNL     1      28.069  36.632  16.457  1.00  0.00     0.211 HD
ENDBRANCH  22  34
ENDBRANCH  16  17
ENDBRANCH  11  16
BRANCH  13  36
ATOM     36  O   UNL     1      22.584  31.169  15.729  1.00  0.00    -0.385 OA
ATOM     37  H   UNL     1      22.726  30.219  15.890  1.00  0.00     0.211 HD
ENDBRANCH  13  36
BRANCH  14  38
ATOM     38  O   UNL     1      25.945  32.129  14.950  1.00  0.00    -0.387 OA
ATOM     39  H   UNL     1      26.221  32.346  14.046  1.00  0.00     0.211 HD
ENDBRANCH  14  38
BRANCH  15  40
ATOM     40  O   UNL     1      26.710  29.975  15.794  1.00  0.00    -0.387 OA
ATOM     41  H   UNL     1      27.026  29.243  15.241  1.00  0.00     0.211 HD
ENDBRANCH  15  40
ENDBRANCH   9  10
ENDBRANCH   8   9
ENDBRANCH   3   8
BRANCH   3  42
ATOM     42  C   UNL     1      27.495  28.303  19.732  1.00  0.00     0.364 C 
ATOM     43  O   UNL     1      26.880  27.835  20.698  1.00  0.00    -0.246 OA
BRANCH  42  44
ATOM     44  O   UNL     1      28.172  27.456  18.902  1.00  0.00    -0.477 OA
ATOM     45  H   UNL     1      27.736  26.979  18.115  1.00  0.00     0.296 HD
ENDBRANCH  42  44
ENDBRANCH   3  42
BRANCH   6  46
ATOM     46  O   UNL     1      28.638  32.812  20.382  1.00  0.00    -0.391 OA
ATOM     47  H   UNL     1      29.450  33.289  20.077  1.00  0.00     0.211 HD
ENDBRANCH   6  46
BRANCH   7  48
ATOM     48  N   UNL     1      30.902  30.142  20.230  1.00  0.00    -0.348 N 
ATOM     49  C   UNL     1      31.955  30.647  21.082  1.00  0.00     0.217 C 
ATOM     50  H   UNL     1      30.833  29.104  20.159  1.00  0.00     0.163 HD
ATOM     51  C   UNL     1      32.833  29.649  21.786  1.00  0.00     0.114 C 
ATOM     52  O   UNL     1      32.155  31.876  21.246  1.00  0.00    -0.275 OA
ENDBRANCH   7  48
ENDBRANCH   1   2
BRANCH   1  53
ATOM     53  O   UNL     1      27.895  32.171  17.327  1.00  0.00    -0.388 OA
ATOM     54  H   UNL     1      27.803  33.068  16.913  1.00  0.00     0.211 HD
ENDBRANCH   1  53
BRANCH   1  55
ATOM     55  C   UNL     1      29.666  31.649  15.942  1.00  0.00     0.165 C 
BRANCH  55  56
ATOM     56  O   UNL     1      29.525  30.201  15.801  1.00  0.00    -0.388 OA
ATOM     57  H   UNL     1      29.801  30.071  14.837  1.00  0.00     0.211 HD
ENDBRANCH  55  56
BRANCH  55  58
ATOM     58  C   UNL     1      31.121  31.855  15.700  1.00  0.00     0.154 C 
BRANCH  58  59
ATOM     59  N   UNL     1      31.386  32.996  14.899  1.00  0.00    -0.319 N 
ATOM     60  C   UNL     1      31.848  34.174  15.597  1.00  0.00     0.407 C 
ATOM     61  H   UNL     1      31.288  33.101  13.873  1.00  0.00     0.167 HD
ATOM     62  O   UNL     1      31.996  34.138  16.851  1.00  0.00    -0.225 OA
BRANCH  60  63
ATOM     63  O   UNL     1      32.138  35.364  14.968  1.00  0.00    -0.443 OA
BRANCH  63  64
ATOM     64  C   UNL     1      31.741  35.723  13.661  1.00  0.00     0.294 C 
BRANCH  64  65
ATOM     65  C   UNL     1      30.342  36.235  13.595  1.00  0.00     0.120 A 
ATOM     66  C   UNL     1      29.668  36.758  12.516  1.00  0.00     0.138 A 
ATOM     67  N   UNL     1      29.495  36.257  14.628  1.00  0.00    -0.132 NA
ATOM     68  N   UNL     1      28.405  37.093  12.925  1.00  0.00    -0.252 N 
ATOM     69  N   UNL     1      28.358  36.772  14.196  1.00  0.00    -0.067 NA
BRANCH  68  70
ATOM     70  C   UNL     1      27.381  37.687  12.147  1.00  0.00     0.150 C 
BRANCH  70  71
ATOM     71  C   UNL     1      26.439  36.756  11.508  1.00  0.00     0.022 C 
BRANCH  71  72
ATOM     72  C   UNL     1      25.488  36.039  12.392  1.00  0.00     0.128 C 
BRANCH  72  73
ATOM     73  C   UNL     1      25.827  34.658  12.759  1.00  0.00     0.303 C 
ATOM     74  O   UNL     1      25.020  33.732  12.483  1.00  0.00    -0.252 OA
BRANCH  73  75
ATOM     75  O   UNL     1      27.004  34.301  13.403  1.00  0.00    -0.481 OA
ATOM     76  H   UNL     1      26.979  33.928  14.341  1.00  0.00     0.296 HD
ENDBRANCH  73  75
ENDBRANCH  72  73
ENDBRANCH  71  72
BRANCH  71  77
ATOM     77  C   UNL     1      27.044  35.872  10.455  1.00  0.00     0.009 C 
BRANCH  77  78
ATOM     78  C   UNL     1      26.320  35.634   9.209  1.00  0.00    -0.017 C 
ATOM     79  C   UNL     1      26.041  36.780   8.305  1.00  0.00     0.007 C 
ATOM     80  C   UNL     1      26.872  34.497   8.368  1.00  0.00     0.007 C 
ENDBRANCH  77  78
ENDBRANCH  71  77
ENDBRANCH  70  71
ENDBRANCH  68  70
ENDBRANCH  64  65
ENDBRANCH  63  64
ENDBRANCH  60  63
ENDBRANCH  58  59
ENDBRANCH  55  58
ENDBRANCH   1  55
TORSDOF 36
BEGIN_RES LYS A 131
REMARK  4 active torsions:
REMARK  status: ('A' for Active; 'I' for Inactive)
REMARK    1  A    between atoms: CA   and  CB  
REMARK    2  A    between atoms: CB   and  CG  
REMARK    3  A    between atoms: CG   and  CD  
REMARK    4  A    between atoms: CD   and  CE  
ROOT
ATOM      1  CA  LYS A 131      29.867  25.555  16.977  1.00 20.52     0.186 C 
ENDROOT
BRANCH   1   2
ATOM      2  CB  LYS A 131      28.345  25.722  17.026  1.00 20.94     0.034 C 
BRANCH   2   3
ATOM      3  CG  LYS A 131      27.600  24.413  16.814  1.00 22.96     0.005 C 
BRANCH   3   4
ATOM      4  CD  LYS A 131      26.167  24.498  17.262  1.00 24.33     0.041 C 
BRANCH   4   5
ATOM      5  CE  LYS A 131      26.117  24.689  18.775  1.00 26.91     0.338 C 
ATOM      6  NZ  LYS A 131      25.458  23.530  19.422  1.00 27.40     0.618 N 
ENDBRANCH   4   5
ENDBRANCH   3   4
ENDBRANCH   2   3
ENDBRANCH   1   2
END_RES LYS A 131
BEGIN_RES LYS A 135
REMARK  4 active torsions:
REMARK  status: ('A' for Active; 'I' for Inactive)
REMARK    5  A    between atoms: CA   and  CB  
REMARK    6  A    between atoms: CB   and  CG  
REMARK    7  A    between atoms: CG   and  CD  
REMARK    8  A    between atoms: CD   and  CE  
ROOT
ATOM      7  CA  LYS A 135      33.193  34.663   9.290  1.00 25.02     0.186 C 
ENDROOT
BRANCH   7   8
ATOM      8  CB  LYS A 135      32.060  35.360  10.034  1.00 26.63     0.034 C 
BRANCH   8   9
ATOM      9  CG  LYS A 135      30.691  35.018   9.505  1.00 29.45     0.005 C 
BRANCH   9  10
ATOM     10  CD  LYS A 135      30.258  36.022   8.448  1.00 32.00     0.041 C 
BRANCH  10  11
ATOM     11  CE  LYS A 135      30.578  37.436   8.894  1.00 34.25     0.338 C 
ATOM     12  NZ  LYS A 135      29.335  38.233   9.083  1.00 35.99     0.618 N 
ENDBRANCH  10  11
ENDBRANCH   9  10
ENDBRANCH   8   9
ENDBRANCH   7   8
END_RES LYS A 135
