REMARK VINA RESULT:    -4.241      3.588      7.156
REMARK INTER + INTRA:         -23.080
REMARK INTER:                 -10.155
REMARK INTRA:                 -12.926
REMARK UNBOUND:               -12.269
REMARK SMILES CC(=O)N[C@@H]1[C@@H](O)C[C@](OC[C@H]2O[C@@H](O[C@H]3[C@H](O)[C@@H](O)[C@H](OCCN=[N+]=[N-])O[C@@H]3CO)[C@H](O)[C@@H](O)[C@H]2O)(C(=O)O)O[C@H]1C(O)[C@H](O)CNC(=O)OCc1cn(-c2cccc(S(N)(=O)=O)c2)nn1
REMARK SMILES IDX 9 1 8 2 6 3 5 4 42 5 41 6 10 7 11 8 12 9 14 10 13 11 32 12
REMARK SMILES IDX 34 13 36 14 15 15 16 16 29 17 28 18 21 19 17 20 19 21 30 22
REMARK SMILES IDX 31 23 22 25 23 26 24 27 25 28 26 29 27 30 18 31 20 33 33 35
REMARK SMILES IDX 35 37 37 39 38 41 39 42 40 43 7 45 43 47 44 48 45 50 46 51
REMARK SMILES IDX 47 53 48 54 49 55 50 57 51 58 52 59 53 60 54 61 67 62 55 63
REMARK SMILES IDX 66 64 56 65 65 66 57 67 60 68 58 69 59 70 61 71 63 72 64 73
REMARK SMILES IDX 62 74 4 77 2 78 1 80 3 81
REMARK H PARENT 31 24 18 32 20 34 33 36 35 38 37 40 40 44 7 46 44 49 46 52
REMARK H PARENT 48 56 62 75 62 76 4 79
REMARK Flexibility Score: inf
ROOT
ATOM      1  C   UNL     1      29.977  33.388  19.070  1.00  0.00     0.272 C 
ATOM      2  C   UNL     1      29.511  34.734  18.481  1.00  0.00     0.113 C 
ATOM      3  C   UNL     1      30.722  35.521  18.120  1.00  0.00     0.145 C 
ATOM      4  C   UNL     1      31.561  34.786  17.136  1.00  0.00     0.142 C 
ATOM      5  C   UNL     1      31.508  33.309  17.307  1.00  0.00     0.178 C 
ATOM      6  O   UNL     1      30.637  32.717  18.131  1.00  0.00    -0.332 OA
ENDROOT
BRANCH   1   7
ATOM      7  O   UNL     1      28.750  32.754  19.404  1.00  0.00    -0.338 OA
BRANCH   7   8
ATOM      8  C   UNL     1      27.907  32.847  18.340  1.00  0.00     0.199 C 
BRANCH   8   9
ATOM      9  C   UNL     1      27.193  31.548  18.037  1.00  0.00     0.179 C 
ATOM     10  C   UNL     1      25.794  30.666  16.530  1.00  0.00     0.282 C 
ATOM     11  O   UNL     1      27.023  31.360  16.667  1.00  0.00    -0.341 OA
ATOM     12  C   UNL     1      25.702  29.514  17.462  1.00  0.00     0.202 C 
ATOM     13  C   UNL     1      26.995  29.134  18.138  1.00  0.00     0.179 C 
ATOM     14  C   UNL     1      27.802  30.329  18.611  1.00  0.00     0.177 C 
BRANCH  10  15
ATOM     15  O   UNL     1      25.507  30.415  15.213  1.00  0.00    -0.341 OA
BRANCH  15  16
ATOM     16  C   UNL     1      24.285  30.873  14.777  1.00  0.00     0.184 C 
ATOM     17  C   UNL     1      24.268  30.883  13.268  1.00  0.00     0.178 C 
ATOM     18  O   UNL     1      23.662  32.049  12.784  1.00  0.00    -0.341 OA
ATOM     19  C   UNL     1      24.538  33.091  12.972  1.00  0.00     0.281 C 
ATOM     20  C   UNL     1      24.117  32.270  15.334  1.00  0.00     0.180 C 
ATOM     21  C   UNL     1      24.672  33.333  14.441  1.00  0.00     0.202 C 
BRANCH  17  22
ATOM     22  C   UNL     1      23.532  29.731  12.663  1.00  0.00     0.191 C 
BRANCH  22  23
ATOM     23  O   UNL     1      22.222  30.100  12.297  1.00  0.00    -0.394 OA
ATOM     24  H   UNL     1      21.801  30.657  12.994  1.00  0.00     0.210 HD
ENDBRANCH  22  23
ENDBRANCH  17  22
BRANCH  19  25
ATOM     25  O   UNL     1      24.108  34.270  12.364  1.00  0.00    -0.350 OA
BRANCH  25  26
ATOM     26  C   UNL     1      25.055  34.914  11.615  1.00  0.00     0.169 C 
BRANCH  26  27
ATOM     27  C   UNL     1      24.521  35.588  10.368  1.00  0.00     0.119 C 
BRANCH  27  28
ATOM     28  N   UNL     1      25.139  36.883  10.160  1.00  0.00    -0.092 NA
ATOM     29  N   UNL     1      25.914  37.104   9.234  1.00  0.00     0.001 N 
ATOM     30  N   UNL     1      26.701  37.424   8.360  1.00  0.00    -0.003 NA
ENDBRANCH  27  28
ENDBRANCH  26  27
ENDBRANCH  25  26
ENDBRANCH  19  25
BRANCH  20  31
ATOM     31  O   UNL     1      22.743  32.523  15.490  1.00  0.00    -0.387 OA
ATOM     32  H   UNL     1      22.521  32.832  16.403  1.00  0.00     0.211 HD
ENDBRANCH  20  31
BRANCH  21  33
ATOM     33  O   UNL     1      26.047  33.526  14.714  1.00  0.00    -0.385 OA
ATOM     34  H   UNL     1      26.535  33.344  13.878  1.00  0.00     0.211 HD
ENDBRANCH  21  33
ENDBRANCH  15  16
ENDBRANCH  10  15
BRANCH  12  35
ATOM     35  O   UNL     1      24.665  29.652  18.417  1.00  0.00    -0.385 OA
ATOM     36  H   UNL     1      23.848  29.826  17.850  1.00  0.00     0.211 HD
ENDBRANCH  12  35
BRANCH  13  37
ATOM     37  O   UNL     1      27.727  28.234  17.388  1.00  0.00    -0.387 OA
ATOM     38  H   UNL     1      27.093  27.869  16.691  1.00  0.00     0.211 HD
ENDBRANCH  13  37
BRANCH  14  39
ATOM     39  O   UNL     1      29.094  30.180  18.092  1.00  0.00    -0.387 OA
ATOM     40  H   UNL     1      29.789  30.385  18.765  1.00  0.00     0.211 HD
ENDBRANCH  14  39
ENDBRANCH   8   9
ENDBRANCH   7   8
ENDBRANCH   1   7
BRANCH   1  41
ATOM     41  C   UNL     1      30.710  33.730  20.314  1.00  0.00     0.364 C 
ATOM     42  O   UNL     1      30.070  34.349  21.241  1.00  0.00    -0.246 OA
BRANCH  41  43
ATOM     43  O   UNL     1      32.016  33.457  20.596  1.00  0.00    -0.477 OA
ATOM     44  H   UNL     1      32.316  32.608  21.092  1.00  0.00     0.296 HD
ENDBRANCH  41  43
ENDBRANCH   1  41
BRANCH   3  45
ATOM     45  O   UNL     1      30.233  36.736  17.561  1.00  0.00    -0.391 OA
ATOM     46  H   UNL     1      29.899  37.249  18.362  1.00  0.00     0.211 HD
ENDBRANCH   3  45
BRANCH   5  47
ATOM     47  C   UNL     1      31.390  32.687  15.894  1.00  0.00     0.176 C 
BRANCH  47  48
ATOM     48  O   UNL     1      32.139  33.447  15.016  1.00  0.00    -0.388 OA
ATOM     49  H   UNL     1      31.904  33.365  14.077  1.00  0.00     0.211 HD
ENDBRANCH  47  48
BRANCH  47  50
ATOM     50  C   UNL     1      29.969  32.479  15.535  1.00  0.00     0.165 C 
BRANCH  50  51
ATOM     51  O   UNL     1      29.759  31.128  15.269  1.00  0.00    -0.388 OA
ATOM     52  H   UNL     1      30.336  30.647  15.928  1.00  0.00     0.211 HD
ENDBRANCH  50  51
BRANCH  50  53
ATOM     53  C   UNL     1      29.564  33.253  14.291  1.00  0.00     0.154 C 
BRANCH  53  54
ATOM     54  N   UNL     1      29.105  34.558  14.707  1.00  0.00    -0.319 N 
ATOM     55  C   UNL     1      29.704  35.739  14.127  1.00  0.00     0.407 C 
ATOM     56  H   UNL     1      28.354  34.691  15.421  1.00  0.00     0.167 HD
ATOM     57  O   UNL     1      30.618  35.647  13.267  1.00  0.00    -0.225 OA
BRANCH  55  58
ATOM     58  O   UNL     1      29.216  36.952  14.566  1.00  0.00    -0.443 OA
BRANCH  58  59
ATOM     59  C   UNL     1      27.988  37.445  14.120  1.00  0.00     0.294 C 
BRANCH  59  60
ATOM     60  C   UNL     1      26.872  36.984  14.959  1.00  0.00     0.121 A 
ATOM     61  C   UNL     1      27.010  36.607  16.303  1.00  0.00     0.144 A 
ATOM     62  N   UNL     1      25.588  36.834  14.658  1.00  0.00    -0.131 NA
ATOM     63  N   UNL     1      25.806  36.252  16.736  1.00  0.00    -0.220 N 
ATOM     64  N   UNL     1      24.976  36.395  15.742  1.00  0.00    -0.062 NA
BRANCH  63  65
ATOM     65  C   UNL     1      25.538  35.812  18.075  1.00  0.00     0.068 A 
ATOM     66  C   UNL     1      24.801  34.640  18.263  1.00  0.00     0.050 A 
ATOM     67  C   UNL     1      25.991  36.516  19.149  1.00  0.00     0.028 A 
ATOM     68  C   UNL     1      24.519  34.175  19.523  1.00  0.00     0.084 A 
ATOM     69  C   UNL     1      25.719  36.066  20.401  1.00  0.00     0.004 A 
ATOM     70  C   UNL     1      24.984  34.898  20.613  1.00  0.00     0.022 A 
BRANCH  68  71
ATOM     71  S   UNL     1      23.608  32.724  19.830  1.00  0.00     0.238 S 
ATOM     72  O   UNL     1      24.526  31.700  20.436  1.00  0.00    -0.207 OA
ATOM     73  O   UNL     1      23.053  32.178  18.555  1.00  0.00    -0.207 OA
BRANCH  71  74
ATOM     74  N   UNL     1      22.321  33.102  20.938  1.00  0.00    -0.225 NA
ATOM     75  H   UNL     1      21.482  33.384  20.383  1.00  0.00     0.137 HD
ATOM     76  H   UNL     1      22.616  33.801  21.650  1.00  0.00     0.137 HD
ENDBRANCH  71  74
ENDBRANCH  68  71
ENDBRANCH  63  65
ENDBRANCH  59  60
ENDBRANCH  58  59
ENDBRANCH  55  58
ENDBRANCH  53  54
ENDBRANCH  50  53
ENDBRANCH  47  50
ENDBRANCH   5  47
BRANCH   4  77
ATOM     77  N   UNL     1      32.949  35.230  17.344  1.00  0.00    -0.348 N 
ATOM     78  C   UNL     1      33.642  36.047  16.411  1.00  0.00     0.217 C 
ATOM     79  H   UNL     1      33.450  34.936  18.208  1.00  0.00     0.163 HD
ATOM     80  C   UNL     1      35.042  36.464  16.678  1.00  0.00     0.114 C 
ATOM     81  O   UNL     1      33.030  36.398  15.361  1.00  0.00    -0.275 OA
ENDBRANCH   4  77
TORSDOF 32
BEGIN_RES LYS A 131
REMARK  4 active torsions:
REMARK  status: ('A' for Active; 'I' for Inactive)
REMARK    1  A    between atoms: CA   and  CB  
REMARK    2  A    between atoms: CB   and  CG  
REMARK    3  A    between atoms: CG   and  CD  
REMARK    4  A    between atoms: CD   and  CE  
ROOT
ATOM      1  CA  LYS A 131      29.867  25.555  16.977  1.00 20.52     0.186 C 
ENDROOT
BRANCH   1   2
ATOM      2  CB  LYS A 131      28.345  25.722  17.026  1.00 20.94     0.034 C 
BRANCH   2   3
ATOM      3  CG  LYS A 131      27.601  24.401  16.905  1.00 22.96     0.005 C 
BRANCH   3   4
ATOM      4  CD  LYS A 131      26.159  24.523  17.311  1.00 24.33     0.041 C 
BRANCH   4   5
ATOM      5  CE  LYS A 131      26.061  25.319  18.608  1.00 26.91     0.338 C 
ATOM      6  NZ  LYS A 131      24.838  26.157  18.612  1.00 27.40     0.618 N 
ENDBRANCH   4   5
ENDBRANCH   3   4
ENDBRANCH   2   3
ENDBRANCH   1   2
END_RES LYS A 131
BEGIN_RES LYS A 135
REMARK  4 active torsions:
REMARK  status: ('A' for Active; 'I' for Inactive)
REMARK    5  A    between atoms: CA   and  CB  
REMARK    6  A    between atoms: CB   and  CG  
REMARK    7  A    between atoms: CG   and  CD  
REMARK    8  A    between atoms: CD   and  CE  
ROOT
ATOM      7  CA  LYS A 135      33.193  34.663   9.290  1.00 25.02     0.186 C 
ENDROOT
BRANCH   7   8
ATOM      8  CB  LYS A 135      32.060  35.360  10.034  1.00 26.63     0.034 C 
BRANCH   8   9
ATOM      9  CG  LYS A 135      30.783  35.449   9.240  1.00 29.45     0.005 C 
BRANCH   9  10
ATOM     10  CD  LYS A 135      30.006  34.144   9.325  1.00 32.00     0.041 C 
BRANCH  10  11
ATOM     11  CE  LYS A 135      28.664  34.366   9.996  1.00 34.25     0.338 C 
ATOM     12  NZ  LYS A 135      27.543  33.964   9.102  1.00 35.99     0.618 N 
ENDBRANCH  10  11
ENDBRANCH   9  10
ENDBRANCH   8   9
ENDBRANCH   7   8
END_RES LYS A 135
