REMARK VINA RESULT:    -3.409      7.694     14.181
REMARK INTER + INTRA:         -22.089
REMARK INTER:                  -7.811
REMARK INTRA:                 -14.278
REMARK UNBOUND:               -13.100
REMARK SMILES CC(=O)N[C@@H]1[C@@H](O)C[C@](OC[C@H]2O[C@@H](O[C@H]3[C@H](O)[C@@H](O)[C@H](OCCN=[N+]=[N-])O[C@@H]3CO)[C@H](O)[C@@H](O)[C@H]2O)(C(=O)O)O[C@H]1C(O)[C@H](O)CNC(=O)OCc1cn(CCNS(C)(=O)=O)nn1
REMARK SMILES IDX 43 1 42 2 9 3 8 4 41 5 6 6 5 7 10 8 11 9 12 10 14 11 13 12
REMARK SMILES IDX 32 13 34 14 36 15 15 16 16 17 29 18 28 19 21 20 17 21 19 22
REMARK SMILES IDX 30 23 31 24 22 26 23 27 24 28 25 29 26 30 27 31 18 32 20 34
REMARK SMILES IDX 33 36 35 38 37 40 38 42 39 43 40 44 7 46 4 48 2 49 1 51 3 52
REMARK SMILES IDX 44 53 45 55 46 56 47 58 48 59 49 60 50 62 51 63 52 64 53 65
REMARK SMILES IDX 54 66 64 67 55 68 63 69 56 70 57 71 58 72 59 74 61 75 62 76
REMARK SMILES IDX 60 77
REMARK H PARENT 31 25 18 33 20 35 33 37 35 39 37 41 40 45 7 47 4 50 44 54
REMARK H PARENT 46 57 48 61 58 73
REMARK Flexibility Score: inf
ROOT
ATOM      1  C   UNL     1      23.476  37.005   7.913  1.00  0.00     0.176 C 
ENDROOT
BRANCH   1   2
ATOM      2  C   UNL     1      24.879  37.321   8.465  1.00  0.00     0.178 C 
ATOM      3  C   UNL     1      27.000  37.785   7.589  1.00  0.00     0.272 C 
ATOM      4  C   UNL     1      27.644  36.591   8.170  1.00  0.00     0.113 C 
ATOM      5  O   UNL     1      25.639  37.598   7.380  1.00  0.00    -0.332 OA
ATOM      6  C   UNL     1      26.731  35.662   8.922  1.00  0.00     0.145 C 
ATOM      7  C   UNL     1      25.378  36.183   9.266  1.00  0.00     0.142 C 
BRANCH   3   8
ATOM      8  O   UNL     1      27.480  38.197   6.341  1.00  0.00    -0.338 OA
BRANCH   8   9
ATOM      9  C   UNL     1      28.777  37.776   6.103  1.00  0.00     0.199 C 
BRANCH   9  10
ATOM     10  C   UNL     1      29.641  38.937   5.754  1.00  0.00     0.179 C 
ATOM     11  C   UNL     1      29.699  41.135   5.056  1.00  0.00     0.282 C 
ATOM     12  O   UNL     1      28.914  40.105   5.602  1.00  0.00    -0.341 OA
ATOM     13  C   UNL     1      30.823  41.508   5.959  1.00  0.00     0.202 C 
ATOM     14  C   UNL     1      31.707  40.287   6.102  1.00  0.00     0.179 C 
ATOM     15  C   UNL     1      30.896  39.115   6.541  1.00  0.00     0.177 C 
BRANCH  11  16
ATOM     16  O   UNL     1      28.863  42.183   4.812  1.00  0.00    -0.341 OA
BRANCH  16  17
ATOM     17  C   UNL     1      27.678  42.177   5.465  1.00  0.00     0.184 C 
ATOM     18  C   UNL     1      26.410  42.335   4.725  1.00  0.00     0.178 C 
ATOM     19  O   UNL     1      25.455  42.862   5.594  1.00  0.00    -0.341 OA
ATOM     20  C   UNL     1      25.645  44.193   5.831  1.00  0.00     0.281 C 
ATOM     21  C   UNL     1      27.682  43.192   6.641  1.00  0.00     0.180 C 
ATOM     22  C   UNL     1      27.124  44.458   6.026  1.00  0.00     0.202 C 
BRANCH  18  23
ATOM     23  C   UNL     1      25.849  40.973   4.329  1.00  0.00     0.191 C 
BRANCH  23  24
ATOM     24  O   UNL     1      25.744  40.152   5.475  1.00  0.00    -0.394 OA
ATOM     25  H   UNL     1      25.488  39.233   5.242  1.00  0.00     0.210 HD
ENDBRANCH  23  24
ENDBRANCH  18  23
BRANCH  20  26
ATOM     26  O   UNL     1      24.902  44.633   6.936  1.00  0.00    -0.350 OA
BRANCH  26  27
ATOM     27  C   UNL     1      23.584  44.253   6.922  1.00  0.00     0.169 C 
BRANCH  27  28
ATOM     28  C   UNL     1      23.275  43.565   8.214  1.00  0.00     0.119 C 
BRANCH  28  29
ATOM     29  N   UNL     1      22.756  42.218   8.008  1.00  0.00    -0.092 NA
ATOM     30  N   UNL     1      21.602  42.167   7.549  1.00  0.00     0.001 N 
ATOM     31  N   UNL     1      20.492  41.803   7.176  1.00  0.00    -0.003 NA
ENDBRANCH  28  29
ENDBRANCH  27  28
ENDBRANCH  26  27
ENDBRANCH  20  26
BRANCH  21  32
ATOM     32  O   UNL     1      26.787  42.770   7.629  1.00  0.00    -0.387 OA
ATOM     33  H   UNL     1      25.961  42.435   7.191  1.00  0.00     0.211 HD
ENDBRANCH  21  32
BRANCH  22  34
ATOM     34  O   UNL     1      27.754  44.844   4.864  1.00  0.00    -0.385 OA
ATOM     35  H   UNL     1      28.202  44.104   4.381  1.00  0.00     0.211 HD
ENDBRANCH  22  34
ENDBRANCH  16  17
ENDBRANCH  11  16
BRANCH  13  36
ATOM     36  O   UNL     1      31.641  42.484   5.369  1.00  0.00    -0.385 OA
ATOM     37  H   UNL     1      31.981  42.198   4.483  1.00  0.00     0.211 HD
ENDBRANCH  13  36
BRANCH  14  38
ATOM     38  O   UNL     1      32.822  40.536   6.863  1.00  0.00    -0.387 OA
ATOM     39  H   UNL     1      32.820  41.467   7.251  1.00  0.00     0.211 HD
ENDBRANCH  14  38
BRANCH  15  40
ATOM     40  O   UNL     1      30.557  39.285   7.880  1.00  0.00    -0.387 OA
ATOM     41  H   UNL     1      31.017  38.644   8.481  1.00  0.00     0.211 HD
ENDBRANCH  15  40
ENDBRANCH   9  10
ENDBRANCH   8   9
ENDBRANCH   3   8
BRANCH   3  42
ATOM     42  C   UNL     1      27.186  38.971   8.459  1.00  0.00     0.364 C 
ATOM     43  O   UNL     1      28.016  38.972   9.427  1.00  0.00    -0.246 OA
BRANCH  42  44
ATOM     44  O   UNL     1      26.497  40.158   8.311  1.00  0.00    -0.477 OA
ATOM     45  H   UNL     1      26.892  41.067   8.539  1.00  0.00     0.296 HD
ENDBRANCH  42  44
ENDBRANCH   3  42
BRANCH   6  46
ATOM     46  O   UNL     1      26.611  34.443   8.271  1.00  0.00    -0.391 OA
ATOM     47  H   UNL     1      27.394  34.154   7.763  1.00  0.00     0.211 HD
ENDBRANCH   6  46
BRANCH   7  48
ATOM     48  N   UNL     1      25.389  36.550  10.692  1.00  0.00    -0.348 N 
ATOM     49  C   UNL     1      25.069  35.709  11.762  1.00  0.00     0.217 C 
ATOM     50  H   UNL     1      25.701  37.549  10.960  1.00  0.00     0.163 HD
ATOM     51  C   UNL     1      25.103  36.206  13.183  1.00  0.00     0.114 C 
ATOM     52  O   UNL     1      24.737  34.505  11.589  1.00  0.00    -0.275 OA
ENDBRANCH   7  48
ENDBRANCH   1   2
BRANCH   1  53
ATOM     53  O   UNL     1      22.777  36.256   8.877  1.00  0.00    -0.388 OA
ATOM     54  H   UNL     1      22.445  36.886   9.542  1.00  0.00     0.211 HD
ENDBRANCH   1  53
BRANCH   1  55
ATOM     55  C   UNL     1      22.727  38.262   7.664  1.00  0.00     0.165 C 
BRANCH  55  56
ATOM     56  O   UNL     1      23.474  39.340   7.256  1.00  0.00    -0.388 OA
ATOM     57  H   UNL     1      22.960  39.998   6.718  1.00  0.00     0.211 HD
ENDBRANCH  55  56
BRANCH  55  58
ATOM     58  C   UNL     1      21.740  38.650   8.721  1.00  0.00     0.154 C 
BRANCH  58  59
ATOM     59  N   UNL     1      22.309  39.542   9.696  1.00  0.00    -0.319 N 
ATOM     60  C   UNL     1      22.624  38.996  10.999  1.00  0.00     0.407 C 
ATOM     61  H   UNL     1      22.506  40.541   9.529  1.00  0.00     0.167 HD
ATOM     62  O   UNL     1      22.395  37.771  11.167  1.00  0.00    -0.225 OA
BRANCH  60  63
ATOM     63  O   UNL     1      23.143  39.790  11.988  1.00  0.00    -0.443 OA
BRANCH  63  64
ATOM     64  C   UNL     1      24.496  39.670  12.361  1.00  0.00     0.294 C 
BRANCH  64  65
ATOM     65  C   UNL     1      25.325  40.682  11.680  1.00  0.00     0.120 A 
ATOM     66  C   UNL     1      26.639  41.018  11.958  1.00  0.00     0.138 A 
ATOM     67  N   UNL     1      24.979  41.438  10.648  1.00  0.00    -0.132 NA
ATOM     68  N   UNL     1      27.052  41.953  11.101  1.00  0.00    -0.251 N 
ATOM     69  N   UNL     1      26.018  42.207  10.296  1.00  0.00    -0.067 NA
BRANCH  68  70
ATOM     70  C   UNL     1      28.364  42.577  11.063  1.00  0.00     0.162 C 
BRANCH  70  71
ATOM     71  C   UNL     1      29.430  41.557  11.457  1.00  0.00     0.122 C 
BRANCH  71  72
ATOM     72  N   UNL     1      30.129  41.078  10.299  1.00  0.00    -0.214 NA
ATOM     73  H   UNL     1      29.628  41.413   9.434  1.00  0.00     0.141 HD
BRANCH  72  74
ATOM     74  S   UNL     1      31.743  41.665  10.199  1.00  0.00     0.208 S 
ATOM     75  O   UNL     1      32.279  41.950  11.592  1.00  0.00    -0.213 OA
ATOM     76  O   UNL     1      32.565  40.545   9.590  1.00  0.00    -0.213 OA
ATOM     77  C   UNL     1      31.834  43.107   9.184  1.00  0.00     0.176 C 
ENDBRANCH  72  74
ENDBRANCH  71  72
ENDBRANCH  70  71
ENDBRANCH  68  70
ENDBRANCH  64  65
ENDBRANCH  63  64
ENDBRANCH  60  63
ENDBRANCH  58  59
ENDBRANCH  55  58
ENDBRANCH   1  55
TORSDOF 33
BEGIN_RES LYS A 131
REMARK  4 active torsions:
REMARK  status: ('A' for Active; 'I' for Inactive)
REMARK    1  A    between atoms: CA   and  CB  
REMARK    2  A    between atoms: CB   and  CG  
REMARK    3  A    between atoms: CG   and  CD  
REMARK    4  A    between atoms: CD   and  CE  
ROOT
ATOM      1  CA  LYS A 131      29.867  25.555  16.977  1.00 20.52     0.186 C 
ENDROOT
BRANCH   1   2
ATOM      2  CB  LYS A 131      28.345  25.722  17.026  1.00 20.94     0.034 C 
BRANCH   2   3
ATOM      3  CG  LYS A 131      27.602  24.398  16.940  1.00 22.96     0.005 C 
BRANCH   3   4
ATOM      4  CD  LYS A 131      26.639  24.213  18.080  1.00 24.33     0.041 C 
BRANCH   4   5
ATOM      5  CE  LYS A 131      26.347  25.565  18.723  1.00 26.91     0.338 C 
ATOM      6  NZ  LYS A 131      24.887  25.817  18.761  1.00 27.40     0.618 N 
ENDBRANCH   4   5
ENDBRANCH   3   4
ENDBRANCH   2   3
ENDBRANCH   1   2
END_RES LYS A 131
BEGIN_RES LYS A 135
REMARK  4 active torsions:
REMARK  status: ('A' for Active; 'I' for Inactive)
REMARK    5  A    between atoms: CA   and  CB  
REMARK    6  A    between atoms: CB   and  CG  
REMARK    7  A    between atoms: CG   and  CD  
REMARK    8  A    between atoms: CD   and  CE  
ROOT
ATOM      7  CA  LYS A 135      33.193  34.663   9.290  1.00 25.02     0.186 C 
ENDROOT
BRANCH   7   8
ATOM      8  CB  LYS A 135      32.060  35.360  10.034  1.00 26.63     0.034 C 
BRANCH   8   9
ATOM      9  CG  LYS A 135      30.692  34.845   9.667  1.00 29.45     0.005 C 
BRANCH   9  10
ATOM     10  CD  LYS A 135      29.744  34.950  10.852  1.00 32.00     0.041 C 
BRANCH  10  11
ATOM     11  CE  LYS A 135      29.892  36.296  11.535  1.00 34.25     0.338 C 
ATOM     12  NZ  LYS A 135      28.586  36.773  12.069  1.00 35.99     0.618 N 
ENDBRANCH  10  11
ENDBRANCH   9  10
ENDBRANCH   8   9
ENDBRANCH   7   8
END_RES LYS A 135
