REMARK VINA RESULT:    -5.538      4.039      9.465
REMARK INTER + INTRA:         -23.238
REMARK INTER:                 -13.892
REMARK INTRA:                  -9.346
REMARK UNBOUND:                -8.960
REMARK SMILES CC(=O)N[C@@H]1[C@@H](O)C[C@](OC[C@H]2O[C@@H](O[C@H]3[C@H](O)[C@@H](O)[C@H](OCCN=[N+]=[N-])O[C@@H]3CO)[C@H](O)[C@@H](O)[C@H]2O)(C(=O)O)O[C@H]1C(O)[C@H](O)CNC(=O)OCc1cn(Cc2cccc(C#N)c2)nn1
REMARK SMILES IDX 9 1 8 2 6 3 5 4 42 5 41 6 10 7 11 8 12 9 14 10 13 11 32 12
REMARK SMILES IDX 34 13 36 14 15 15 16 16 29 17 28 18 21 19 17 20 19 21 30 22
REMARK SMILES IDX 31 23 22 25 23 26 24 27 25 28 26 29 27 30 18 31 20 33 33 35
REMARK SMILES IDX 35 37 37 39 38 41 39 42 40 43 7 45 43 47 44 48 45 50 46 51
REMARK SMILES IDX 47 53 48 54 49 55 50 57 51 58 52 59 53 60 54 61 66 62 55 63
REMARK SMILES IDX 65 64 56 65 57 66 58 67 64 68 59 69 61 70 60 71 62 72 63 73
REMARK SMILES IDX 4 74 2 75 1 77 3 78
REMARK H PARENT 31 24 18 32 20 34 33 36 35 38 37 40 40 44 7 46 44 49 46 52
REMARK H PARENT 48 56 4 76
REMARK Flexibility Score: inf
ROOT
ATOM      1  C   UNL     1      30.224  36.273  14.646  1.00  0.00     0.272 C 
ATOM      2  C   UNL     1      31.683  36.474  14.315  1.00  0.00     0.113 C 
ATOM      3  C   UNL     1      32.582  35.324  14.488  1.00  0.00     0.145 C 
ATOM      4  C   UNL     1      32.129  34.407  15.630  1.00  0.00     0.142 C 
ATOM      5  C   UNL     1      30.697  34.114  15.597  1.00  0.00     0.178 C 
ATOM      6  O   UNL     1      29.855  35.037  15.069  1.00  0.00    -0.332 OA
ENDROOT
BRANCH   1   7
ATOM      7  O   UNL     1      29.502  36.583  13.585  1.00  0.00    -0.338 OA
BRANCH   7   8
ATOM      8  C   UNL     1      28.540  36.339  12.833  1.00  0.00     0.199 C 
BRANCH   8   9
ATOM      9  C   UNL     1      27.074  36.358  13.164  1.00  0.00     0.179 C 
ATOM     10  C   UNL     1      25.046  35.998  12.250  1.00  0.00     0.282 C 
ATOM     11  O   UNL     1      26.386  35.604  12.140  1.00  0.00    -0.341 OA
ATOM     12  C   UNL     1      24.419  35.478  13.499  1.00  0.00     0.202 C 
ATOM     13  C   UNL     1      25.333  35.601  14.703  1.00  0.00     0.179 C 
ATOM     14  C   UNL     1      26.781  35.460  14.382  1.00  0.00     0.177 C 
BRANCH  10  15
ATOM     15  O   UNL     1      24.345  35.536  11.139  1.00  0.00    -0.341 OA
BRANCH  15  16
ATOM     16  C   UNL     1      24.028  36.535  10.257  1.00  0.00     0.184 C 
ATOM     17  C   UNL     1      22.643  36.428   9.733  1.00  0.00     0.178 C 
ATOM     18  O   UNL     1      22.332  37.374   8.782  1.00  0.00    -0.341 OA
ATOM     19  C   UNL     1      23.222  37.496   7.739  1.00  0.00     0.281 C 
ATOM     20  C   UNL     1      24.932  36.271   9.009  1.00  0.00     0.180 C 
ATOM     21  C   UNL     1      24.668  37.467   8.118  1.00  0.00     0.202 C 
BRANCH  17  22
ATOM     22  C   UNL     1      21.637  36.585  10.850  1.00  0.00     0.191 C 
BRANCH  22  23
ATOM     23  O   UNL     1      21.508  35.378  11.543  1.00  0.00    -0.394 OA
ATOM     24  H   UNL     1      20.729  34.863  11.275  1.00  0.00     0.210 HD
ENDBRANCH  22  23
ENDBRANCH  17  22
BRANCH  19  25
ATOM     25  O   UNL     1      22.993  38.765   7.167  1.00  0.00    -0.350 OA
BRANCH  25  26
ATOM     26  C   UNL     1      23.431  39.746   8.017  1.00  0.00     0.169 C 
BRANCH  26  27
ATOM     27  C   UNL     1      23.521  41.092   7.355  1.00  0.00     0.119 C 
BRANCH  27  28
ATOM     28  N   UNL     1      24.388  41.101   6.200  1.00  0.00    -0.092 NA
ATOM     29  N   UNL     1      25.493  40.546   6.283  1.00  0.00     0.001 N 
ATOM     30  N   UNL     1      26.663  40.102   6.265  1.00  0.00    -0.003 NA
ENDBRANCH  27  28
ENDBRANCH  26  27
ENDBRANCH  25  26
ENDBRANCH  19  25
BRANCH  20  31
ATOM     31  O   UNL     1      26.225  36.176   9.448  1.00  0.00    -0.387 OA
ATOM     32  H   UNL     1      26.541  35.228   9.486  1.00  0.00     0.211 HD
ENDBRANCH  20  31
BRANCH  21  33
ATOM     33  O   UNL     1      25.430  37.303   6.964  1.00  0.00    -0.385 OA
ATOM     34  H   UNL     1      24.825  36.892   6.279  1.00  0.00     0.211 HD
ENDBRANCH  21  33
ENDBRANCH  15  16
ENDBRANCH  10  15
BRANCH  12  35
ATOM     35  O   UNL     1      23.312  36.304  13.803  1.00  0.00    -0.385 OA
ATOM     36  H   UNL     1      22.816  35.837  14.520  1.00  0.00     0.211 HD
ENDBRANCH  12  35
BRANCH  13  37
ATOM     37  O   UNL     1      24.989  34.539  15.553  1.00  0.00    -0.387 OA
ATOM     38  H   UNL     1      25.673  34.343  16.222  1.00  0.00     0.211 HD
ENDBRANCH  13  37
BRANCH  14  39
ATOM     39  O   UNL     1      26.984  34.131  13.977  1.00  0.00    -0.387 OA
ATOM     40  H   UNL     1      26.324  33.840  13.318  1.00  0.00     0.211 HD
ENDBRANCH  14  39
ENDBRANCH   8   9
ENDBRANCH   7   8
ENDBRANCH   1   7
BRANCH   1  41
ATOM     41  C   UNL     1      29.941  37.184  15.812  1.00  0.00     0.364 C 
ATOM     42  O   UNL     1      28.773  37.672  15.989  1.00  0.00    -0.246 OA
BRANCH  41  43
ATOM     43  O   UNL     1      30.910  37.522  16.717  1.00  0.00    -0.477 OA
ATOM     44  H   UNL     1      31.636  36.814  16.913  1.00  0.00     0.296 HD
ENDBRANCH  41  43
ENDBRANCH   1  41
BRANCH   3  45
ATOM     45  O   UNL     1      32.643  34.582  13.318  1.00  0.00    -0.391 OA
ATOM     46  H   UNL     1      32.608  33.608  13.469  1.00  0.00     0.211 HD
ENDBRANCH   3  45
BRANCH   5  47
ATOM     47  C   UNL     1      30.315  32.847  14.860  1.00  0.00     0.176 C 
BRANCH  47  48
ATOM     48  O   UNL     1      31.472  32.009  14.994  1.00  0.00    -0.388 OA
ATOM     49  H   UNL     1      32.257  32.585  14.844  1.00  0.00     0.211 HD
ENDBRANCH  47  48
BRANCH  47  50
ATOM     50  C   UNL     1      29.196  32.037  15.369  1.00  0.00     0.165 C 
BRANCH  50  51
ATOM     51  O   UNL     1      28.556  32.954  16.310  1.00  0.00    -0.388 OA
ATOM     52  H   UNL     1      29.294  33.450  16.777  1.00  0.00     0.211 HD
ENDBRANCH  50  51
BRANCH  50  53
ATOM     53  C   UNL     1      29.500  30.852  16.210  1.00  0.00     0.154 C 
BRANCH  53  54
ATOM     54  N   UNL     1      28.416  29.976  16.517  1.00  0.00    -0.319 N 
ATOM     55  C   UNL     1      27.705  30.130  17.754  1.00  0.00     0.407 C 
ATOM     56  H   UNL     1      28.099  29.225  15.893  1.00  0.00     0.167 HD
ATOM     57  O   UNL     1      28.081  31.049  18.518  1.00  0.00    -0.225 OA
BRANCH  55  58
ATOM     58  O   UNL     1      26.658  29.335  18.121  1.00  0.00    -0.443 OA
BRANCH  58  59
ATOM     59  C   UNL     1      25.289  29.717  17.870  1.00  0.00     0.294 C 
BRANCH  59  60
ATOM     60  C   UNL     1      25.201  30.332  16.515  1.00  0.00     0.120 A 
ATOM     61  C   UNL     1      24.775  29.725  15.356  1.00  0.00     0.138 A 
ATOM     62  N   UNL     1      25.522  31.585  16.174  1.00  0.00    -0.132 NA
ATOM     63  N   UNL     1      24.844  30.618  14.329  1.00  0.00    -0.248 N 
ATOM     64  N   UNL     1      25.302  31.741  14.861  1.00  0.00    -0.067 NA
BRANCH  63  65
ATOM     65  C   UNL     1      24.498  30.365  12.960  1.00  0.00     0.181 C 
BRANCH  65  66
ATOM     66  C   UNL     1      23.048  30.599  12.769  1.00  0.00    -0.025 A 
ATOM     67  C   UNL     1      22.466  31.835  12.877  1.00  0.00     0.006 A 
ATOM     68  C   UNL     1      22.222  29.522  12.469  1.00  0.00     0.025 A 
ATOM     69  C   UNL     1      21.123  32.041  12.704  1.00  0.00     0.002 A 
ATOM     70  C   UNL     1      20.876  29.729  12.296  1.00  0.00     0.052 A 
ATOM     71  C   UNL     1      20.276  30.983  12.405  1.00  0.00     0.019 A 
BRANCH  70  72
ATOM     72  C   UNL     1      20.028  28.609  11.980  1.00  0.00     0.099 C 
ATOM     73  N   UNL     1      19.347  27.691  11.735  1.00  0.00    -0.192 NA
ENDBRANCH  70  72
ENDBRANCH  65  66
ENDBRANCH  63  65
ENDBRANCH  59  60
ENDBRANCH  58  59
ENDBRANCH  55  58
ENDBRANCH  53  54
ENDBRANCH  50  53
ENDBRANCH  47  50
ENDBRANCH   5  47
BRANCH   4  74
ATOM     74  N   UNL     1      32.651  34.943  16.886  1.00  0.00    -0.348 N 
ATOM     75  C   UNL     1      32.117  34.482  18.108  1.00  0.00     0.217 C 
ATOM     76  H   UNL     1      33.405  35.653  16.953  1.00  0.00     0.163 HD
ATOM     77  C   UNL     1      32.587  34.972  19.435  1.00  0.00     0.114 C 
ATOM     78  O   UNL     1      31.214  33.630  18.080  1.00  0.00    -0.275 OA
ENDBRANCH   4  74
TORSDOF 32
BEGIN_RES LYS A 131
REMARK  4 active torsions:
REMARK  status: ('A' for Active; 'I' for Inactive)
REMARK    1  A    between atoms: CA   and  CB  
REMARK    2  A    between atoms: CB   and  CG  
REMARK    3  A    between atoms: CG   and  CD  
REMARK    4  A    between atoms: CD   and  CE  
ROOT
ATOM      1  CA  LYS A 131      29.867  25.555  16.977  1.00 20.52     0.186 C 
ENDROOT
BRANCH   1   2
ATOM      2  CB  LYS A 131      28.345  25.722  17.026  1.00 20.94     0.034 C 
BRANCH   2   3
ATOM      3  CG  LYS A 131      27.602  24.400  16.917  1.00 22.96     0.005 C 
BRANCH   3   4
ATOM      4  CD  LYS A 131      26.149  24.535  17.281  1.00 24.33     0.041 C 
BRANCH   4   5
ATOM      5  CE  LYS A 131      25.977  24.313  18.780  1.00 26.91     0.338 C 
ATOM      6  NZ  LYS A 131      25.709  25.599  19.467  1.00 27.40     0.618 N 
ENDBRANCH   4   5
ENDBRANCH   3   4
ENDBRANCH   2   3
ENDBRANCH   1   2
END_RES LYS A 131
BEGIN_RES LYS A 135
REMARK  4 active torsions:
REMARK  status: ('A' for Active; 'I' for Inactive)
REMARK    5  A    between atoms: CA   and  CB  
REMARK    6  A    between atoms: CB   and  CG  
REMARK    7  A    between atoms: CG   and  CD  
REMARK    8  A    between atoms: CD   and  CE  
ROOT
ATOM      7  CA  LYS A 135      33.193  34.663   9.290  1.00 25.02     0.186 C 
ENDROOT
BRANCH   7   8
ATOM      8  CB  LYS A 135      32.060  35.360  10.034  1.00 26.63     0.034 C 
BRANCH   8   9
ATOM      9  CG  LYS A 135      30.722  34.689   9.859  1.00 29.45     0.005 C 
BRANCH   9  10
ATOM     10  CD  LYS A 135      30.262  34.780   8.412  1.00 32.00     0.041 C 
BRANCH  10  11
ATOM     11  CE  LYS A 135      28.790  34.432   8.299  1.00 34.25     0.338 C 
ATOM     12  NZ  LYS A 135      28.315  33.707   9.510  1.00 35.99     0.618 N 
ENDBRANCH  10  11
ENDBRANCH   9  10
ENDBRANCH   8   9
ENDBRANCH   7   8
END_RES LYS A 135
