REMARK VINA RESULT:    -4.619      2.856      7.359
REMARK INTER + INTRA:         -22.529
REMARK INTER:                 -13.238
REMARK INTRA:                  -9.292
REMARK UNBOUND:               -10.485
REMARK SMILES CC(=O)N[C@@H]1[C@@H](O)C[C@](OC[C@H]2O[C@@H](O[C@H]3[C@H](O)[C@@H](O)[C@H](OCCN=[N+]=[N-])O[C@@H]3CO)[C@H](O)[C@@H](O)[C@H]2O)(C(=O)O)O[C@H]1C(O)[C@H](O)CNC(=O)OCc1cn(CC(O)c2ccccc2)nn1
REMARK SMILES IDX 9 1 8 2 6 3 5 4 42 5 41 6 10 7 11 8 12 9 14 10 13 11 32 12
REMARK SMILES IDX 34 13 36 14 15 15 16 16 29 17 28 18 21 19 17 20 19 21 30 22
REMARK SMILES IDX 31 23 22 25 23 26 24 27 25 28 26 29 27 30 18 31 20 33 33 35
REMARK SMILES IDX 35 37 37 39 38 41 39 42 40 43 7 45 43 47 44 48 45 50 46 51
REMARK SMILES IDX 47 53 48 54 49 55 50 57 51 58 52 59 53 60 54 61 66 62 55 63
REMARK SMILES IDX 65 64 56 65 57 66 58 67 59 69 60 70 64 71 61 72 63 73 62 74
REMARK SMILES IDX 4 75 2 76 1 78 3 79
REMARK H PARENT 31 24 18 32 20 34 33 36 35 38 37 40 40 44 7 46 44 49 46 52
REMARK H PARENT 48 56 58 68 4 77
REMARK Flexibility Score: inf
ROOT
ATOM      1  C   UNL     1      30.584  42.310   8.172  1.00  0.00     0.272 C 
ATOM      2  C   UNL     1      31.774  43.186   8.059  1.00  0.00     0.113 C 
ATOM      3  C   UNL     1      33.039  42.546   7.605  1.00  0.00     0.145 C 
ATOM      4  C   UNL     1      32.899  41.060   7.699  1.00  0.00     0.142 C 
ATOM      5  C   UNL     1      32.129  40.753   8.971  1.00  0.00     0.178 C 
ATOM      6  O   UNL     1      30.848  41.210   8.995  1.00  0.00    -0.332 OA
ENDROOT
BRANCH   1   7
ATOM      7  O   UNL     1      30.045  41.821   7.020  1.00  0.00    -0.338 OA
BRANCH   7   8
ATOM      8  C   UNL     1      28.751  41.403   7.040  1.00  0.00     0.199 C 
BRANCH   8   9
ATOM      9  C   UNL     1      28.659  39.904   7.207  1.00  0.00     0.179 C 
ATOM     10  C   UNL     1      27.049  38.265   7.083  1.00  0.00     0.282 C 
ATOM     11  O   UNL     1      27.367  39.525   7.515  1.00  0.00    -0.341 OA
ATOM     12  C   UNL     1      27.060  38.085   5.582  1.00  0.00     0.202 C 
ATOM     13  C   UNL     1      28.145  38.972   5.013  1.00  0.00     0.179 C 
ATOM     14  C   UNL     1      29.215  39.103   6.078  1.00  0.00     0.177 C 
BRANCH  10  15
ATOM     15  O   UNL     1      25.775  37.881   7.490  1.00  0.00    -0.341 OA
BRANCH  15  16
ATOM     16  C   UNL     1      25.626  37.661   8.832  1.00  0.00     0.184 C 
ATOM     17  C   UNL     1      24.897  36.331   8.979  1.00  0.00     0.178 C 
ATOM     18  O   UNL     1      23.552  36.522   9.220  1.00  0.00    -0.341 OA
ATOM     19  C   UNL     1      23.065  37.418   8.251  1.00  0.00     0.281 C 
ATOM     20  C   UNL     1      24.792  38.814   9.376  1.00  0.00     0.180 C 
ATOM     21  C   UNL     1      23.411  38.819   8.742  1.00  0.00     0.202 C 
BRANCH  17  22
ATOM     22  C   UNL     1      25.547  35.474  10.051  1.00  0.00     0.191 C 
BRANCH  22  23
ATOM     23  O   UNL     1      26.553  36.170  10.716  1.00  0.00    -0.394 OA
ATOM     24  H   UNL     1      27.204  36.576  10.085  1.00  0.00     0.210 HD
ENDBRANCH  22  23
ENDBRANCH  17  22
BRANCH  19  25
ATOM     25  O   UNL     1      21.712  37.203   8.156  1.00  0.00    -0.350 OA
BRANCH  25  26
ATOM     26  C   UNL     1      21.335  35.911   7.878  1.00  0.00     0.169 C 
BRANCH  26  27
ATOM     27  C   UNL     1      20.042  35.491   8.518  1.00  0.00     0.119 C 
BRANCH  27  28
ATOM     28  N   UNL     1      19.180  34.844   7.522  1.00  0.00    -0.092 NA
ATOM     29  N   UNL     1      18.459  33.941   7.973  1.00  0.00     0.001 N 
ATOM     30  N   UNL     1      17.553  33.141   8.211  1.00  0.00    -0.003 NA
ENDBRANCH  27  28
ENDBRANCH  26  27
ENDBRANCH  25  26
ENDBRANCH  19  25
BRANCH  20  31
ATOM     31  O   UNL     1      24.691  38.723  10.758  1.00  0.00    -0.387 OA
ATOM     32  H   UNL     1      23.832  39.134  11.059  1.00  0.00     0.211 HD
ENDBRANCH  20  31
BRANCH  21  33
ATOM     33  O   UNL     1      23.327  39.769   7.741  1.00  0.00    -0.385 OA
ATOM     34  H   UNL     1      23.768  39.400   6.937  1.00  0.00     0.211 HD
ENDBRANCH  21  33
ENDBRANCH  15  16
ENDBRANCH  10  15
BRANCH  12  35
ATOM     35  O   UNL     1      27.362  36.749   5.296  1.00  0.00    -0.385 OA
ATOM     36  H   UNL     1      26.914  36.524   4.436  1.00  0.00     0.211 HD
ENDBRANCH  12  35
BRANCH  13  37
ATOM     37  O   UNL     1      27.545  40.201   4.752  1.00  0.00    -0.387 OA
ATOM     38  H   UNL     1      27.618  40.493   3.827  1.00  0.00     0.211 HD
ENDBRANCH  13  37
BRANCH  14  39
ATOM     39  O   UNL     1      30.423  39.558   5.607  1.00  0.00    -0.387 OA
ATOM     40  H   UNL     1      30.942  40.082   6.270  1.00  0.00     0.211 HD
ENDBRANCH  14  39
ENDBRANCH   8   9
ENDBRANCH   7   8
ENDBRANCH   1   7
BRANCH   1  41
ATOM     41  C   UNL     1      29.563  43.114   8.964  1.00  0.00     0.364 C 
ATOM     42  O   UNL     1      29.166  44.184   8.535  1.00  0.00    -0.246 OA
BRANCH  41  43
ATOM     43  O   UNL     1      29.144  42.553  10.157  1.00  0.00    -0.477 OA
ATOM     44  H   UNL     1      28.710  43.166  10.815  1.00  0.00     0.296 HD
ENDBRANCH  41  43
ENDBRANCH   1  41
BRANCH   3  45
ATOM     45  O   UNL     1      33.424  42.990   6.339  1.00  0.00    -0.391 OA
ATOM     46  H   UNL     1      33.529  42.169   5.782  1.00  0.00     0.211 HD
ENDBRANCH   3  45
BRANCH   5  47
ATOM     47  C   UNL     1      32.277  39.270   9.197  1.00  0.00     0.176 C 
BRANCH  47  48
ATOM     48  O   UNL     1      32.094  38.612   7.970  1.00  0.00    -0.388 OA
ATOM     49  H   UNL     1      31.174  38.842   7.662  1.00  0.00     0.211 HD
ENDBRANCH  47  48
BRANCH  47  50
ATOM     50  C   UNL     1      31.360  38.757  10.256  1.00  0.00     0.165 C 
BRANCH  50  51
ATOM     51  O   UNL     1      32.002  37.987  11.188  1.00  0.00    -0.388 OA
ATOM     52  H   UNL     1      32.504  37.237  10.833  1.00  0.00     0.211 HD
ENDBRANCH  50  51
BRANCH  50  53
ATOM     53  C   UNL     1      30.055  38.206   9.743  1.00  0.00     0.154 C 
BRANCH  53  54
ATOM     54  N   UNL     1      29.048  37.967  10.735  1.00  0.00    -0.319 N 
ATOM     55  C   UNL     1      28.142  38.953  11.225  1.00  0.00     0.407 C 
ATOM     56  H   UNL     1      28.945  36.986  11.148  1.00  0.00     0.167 HD
ATOM     57  O   UNL     1      28.175  40.118  10.791  1.00  0.00    -0.225 OA
BRANCH  55  58
ATOM     58  O   UNL     1      27.207  38.646  12.189  1.00  0.00    -0.443 OA
BRANCH  58  59
ATOM     59  C   UNL     1      27.525  38.512  13.574  1.00  0.00     0.294 C 
BRANCH  59  60
ATOM     60  C   UNL     1      28.507  37.395  13.753  1.00  0.00     0.120 A 
ATOM     61  C   UNL     1      29.709  37.378  14.412  1.00  0.00     0.138 A 
ATOM     62  N   UNL     1      28.320  36.150  13.264  1.00  0.00    -0.132 NA
ATOM     63  N   UNL     1      30.240  36.123  14.318  1.00  0.00    -0.249 N 
ATOM     64  N   UNL     1      29.361  35.439  13.621  1.00  0.00    -0.067 NA
BRANCH  63  65
ATOM     65  C   UNL     1      31.506  35.689  14.888  1.00  0.00     0.182 C 
BRANCH  65  66
ATOM     66  C   UNL     1      31.674  34.192  14.701  1.00  0.00     0.166 C 
BRANCH  66  67
ATOM     67  O   UNL     1      33.057  34.015  14.455  1.00  0.00    -0.386 OA
ATOM     68  H   UNL     1      33.547  34.854  14.680  1.00  0.00     0.211 HD
ENDBRANCH  66  67
BRANCH  66  69
ATOM     69  C   UNL     1      31.257  33.391  15.855  1.00  0.00    -0.018 A 
ATOM     70  C   UNL     1      31.281  33.858  17.133  1.00  0.00     0.006 A 
ATOM     71  C   UNL     1      30.840  32.084  15.562  1.00  0.00     0.006 A 
ATOM     72  C   UNL     1      30.880  33.009  18.153  1.00  0.00     0.000 A 
ATOM     73  C   UNL     1      30.450  31.266  16.587  1.00  0.00     0.000 A 
ATOM     74  C   UNL     1      30.468  31.724  17.890  1.00  0.00     0.000 A 
ENDBRANCH  66  69
ENDBRANCH  65  66
ENDBRANCH  63  65
ENDBRANCH  59  60
ENDBRANCH  58  59
ENDBRANCH  55  58
ENDBRANCH  53  54
ENDBRANCH  50  53
ENDBRANCH  47  50
ENDBRANCH   5  47
BRANCH   4  75
ATOM     75  N   UNL     1      34.218  40.439   7.900  1.00  0.00    -0.348 N 
ATOM     76  C   UNL     1      35.031  40.019   6.817  1.00  0.00     0.217 C 
ATOM     77  H   UNL     1      34.585  40.291   8.864  1.00  0.00     0.163 HD
ATOM     78  C   UNL     1      36.366  39.388   6.980  1.00  0.00     0.114 C 
ATOM     79  O   UNL     1      34.592  40.195   5.647  1.00  0.00    -0.275 OA
ENDBRANCH   4  75
TORSDOF 33
BEGIN_RES LYS A 131
REMARK  4 active torsions:
REMARK  status: ('A' for Active; 'I' for Inactive)
REMARK    1  A    between atoms: CA   and  CB  
REMARK    2  A    between atoms: CB   and  CG  
REMARK    3  A    between atoms: CG   and  CD  
REMARK    4  A    between atoms: CD   and  CE  
ROOT
ATOM      1  CA  LYS A 131      29.867  25.555  16.977  1.00 20.52     0.186 C 
ENDROOT
BRANCH   1   2
ATOM      2  CB  LYS A 131      28.345  25.722  17.026  1.00 20.94     0.034 C 
BRANCH   2   3
ATOM      3  CG  LYS A 131      27.601  24.401  16.905  1.00 22.96     0.005 C 
BRANCH   3   4
ATOM      4  CD  LYS A 131      26.646  24.182  18.046  1.00 24.33     0.041 C 
BRANCH   4   5
ATOM      5  CE  LYS A 131      26.156  25.530  18.565  1.00 26.91     0.338 C 
ATOM      6  NZ  LYS A 131      24.684  25.632  18.435  1.00 27.40     0.618 N 
ENDBRANCH   4   5
ENDBRANCH   3   4
ENDBRANCH   2   3
ENDBRANCH   1   2
END_RES LYS A 131
BEGIN_RES LYS A 135
REMARK  4 active torsions:
REMARK  status: ('A' for Active; 'I' for Inactive)
REMARK    5  A    between atoms: CA   and  CB  
REMARK    6  A    between atoms: CB   and  CG  
REMARK    7  A    between atoms: CG   and  CD  
REMARK    8  A    between atoms: CD   and  CE  
ROOT
ATOM      7  CA  LYS A 135      33.193  34.663   9.290  1.00 25.02     0.186 C 
ENDROOT
BRANCH   7   8
ATOM      8  CB  LYS A 135      32.060  35.360  10.034  1.00 26.63     0.034 C 
BRANCH   8   9
ATOM      9  CG  LYS A 135      30.706  34.751   9.777  1.00 29.45     0.005 C 
BRANCH   9  10
ATOM     10  CD  LYS A 135      30.569  34.343   8.318  1.00 32.00     0.041 C 
BRANCH  10  11
ATOM     11  CE  LYS A 135      29.565  35.232   7.610  1.00 34.25     0.338 C 
ATOM     12  NZ  LYS A 135      28.168  34.821   7.924  1.00 35.99     0.618 N 
ENDBRANCH  10  11
ENDBRANCH   9  10
ENDBRANCH   8   9
ENDBRANCH   7   8
END_RES LYS A 135
