REMARK VINA RESULT:    -5.239      2.835      9.861
REMARK INTER + INTRA:         -25.011
REMARK INTER:                 -13.662
REMARK INTRA:                 -11.349
REMARK UNBOUND:               -11.349
REMARK SMILES CC(=O)N[C@@H]1[C@@H](O)C[C@](OC[C@H]2O[C@@H](O[C@H]3[C@H](O)[C@@H](O)[C@H](OCCN=[N+]=[N-])O[C@@H]3CO)[C@H](O)[C@@H](O)[C@H]2O)(C(=O)O)O[C@H]1C(O)[C@H](O)CNC(=O)OCc1cn(-c2ccc(-c3c4ccc(=O)cc-4oc4cc(O)ccc34)c(C(=O)[O-])c2)nn1
REMARK SMILES IDX 9 1 8 2 6 3 5 4 42 5 41 6 10 7 11 8 12 9 14 10 13 11 32 12
REMARK SMILES IDX 34 13 36 14 15 15 16 16 29 17 28 18 21 19 17 20 19 21 30 22
REMARK SMILES IDX 31 23 22 25 23 26 24 27 25 28 26 29 27 30 18 31 20 33 33 35
REMARK SMILES IDX 35 37 37 39 38 41 39 42 40 43 7 45 43 47 44 48 45 50 46 51
REMARK SMILES IDX 47 53 48 54 49 55 50 57 51 58 52 59 53 60 54 61 82 62 55 63
REMARK SMILES IDX 81 64 56 65 80 66 57 67 76 68 58 69 59 70 77 71 78 72 79 73
REMARK SMILES IDX 60 74 75 75 61 76 74 77 69 78 67 79 62 80 73 81 70 82 68 83
REMARK SMILES IDX 66 84 63 85 71 86 64 87 65 88 72 89 4 91 2 92 1 94 3 95
REMARK H PARENT 31 24 18 32 20 34 33 36 35 38 37 40 40 44 7 46 44 49 46 52
REMARK H PARENT 48 56 72 90 4 93
REMARK Flexibility Score: inf
ROOT
ATOM      1  C   UNL     1      28.154  32.890  15.821  1.00  0.00     0.272 C 
ATOM      2  C   UNL     1      29.309  31.967  15.523  1.00  0.00     0.113 C 
ATOM      3  C   UNL     1      29.246  30.672  16.283  1.00  0.00     0.145 C 
ATOM      4  C   UNL     1      28.259  30.844  17.410  1.00  0.00     0.142 C 
ATOM      5  C   UNL     1      28.541  32.187  18.029  1.00  0.00     0.178 C 
ATOM      6  O   UNL     1      28.077  33.182  17.205  1.00  0.00    -0.332 OA
ENDROOT
BRANCH   1   7
ATOM      7  O   UNL     1      26.928  32.480  15.376  1.00  0.00    -0.338 OA
BRANCH   7   8
ATOM      8  C   UNL     1      25.885  33.198  15.846  1.00  0.00     0.199 C 
BRANCH   8   9
ATOM      9  C   UNL     1      24.540  32.573  15.449  1.00  0.00     0.179 C 
ATOM     10  C   UNL     1      22.708  32.923  14.092  1.00  0.00     0.282 C 
ATOM     11  O   UNL     1      23.704  33.453  14.865  1.00  0.00    -0.341 OA
ATOM     12  C   UNL     1      22.260  31.567  14.474  1.00  0.00     0.202 C 
ATOM     13  C   UNL     1      23.402  30.592  14.636  1.00  0.00     0.179 C 
ATOM     14  C   UNL     1      24.728  31.337  14.649  1.00  0.00     0.177 C 
BRANCH  10  15
ATOM     15  O   UNL     1      23.089  33.109  12.764  1.00  0.00    -0.341 OA
BRANCH  15  16
ATOM     16  C   UNL     1      23.361  34.400  12.447  1.00  0.00     0.184 C 
ATOM     17  C   UNL     1      22.460  34.937  11.378  1.00  0.00     0.178 C 
ATOM     18  O   UNL     1      22.476  36.339  11.390  1.00  0.00    -0.341 OA
ATOM     19  C   UNL     1      23.769  36.826  11.547  1.00  0.00     0.281 C 
ATOM     20  C   UNL     1      24.780  34.593  11.883  1.00  0.00     0.180 C 
ATOM     21  C   UNL     1      24.804  35.871  11.072  1.00  0.00     0.202 C 
BRANCH  17  22
ATOM     22  C   UNL     1      21.051  34.479  11.602  1.00  0.00     0.191 C 
BRANCH  22  23
ATOM     23  O   UNL     1      20.382  34.467  10.377  1.00  0.00    -0.394 OA
ATOM     24  H   UNL     1      20.605  33.617   9.938  1.00  0.00     0.210 HD
ENDBRANCH  22  23
ENDBRANCH  17  22
BRANCH  19  25
ATOM     25  O   UNL     1      23.997  37.232  12.844  1.00  0.00    -0.350 OA
BRANCH  25  26
ATOM     26  C   UNL     1      24.909  38.273  12.964  1.00  0.00     0.169 C 
BRANCH  26  27
ATOM     27  C   UNL     1      25.310  38.325  14.427  1.00  0.00     0.119 C 
BRANCH  27  28
ATOM     28  N   UNL     1      25.434  37.010  14.997  1.00  0.00    -0.092 NA
ATOM     29  N   UNL     1      26.168  36.856  15.981  1.00  0.00     0.001 N 
ATOM     30  N   UNL     1      26.625  36.532  17.078  1.00  0.00    -0.003 NA
ENDBRANCH  27  28
ENDBRANCH  26  27
ENDBRANCH  25  26
ENDBRANCH  19  25
BRANCH  20  31
ATOM     31  O   UNL     1      25.614  34.779  12.983  1.00  0.00    -0.387 OA
ATOM     32  H   UNL     1      25.524  34.085  13.672  1.00  0.00     0.211 HD
ENDBRANCH  20  31
BRANCH  21  33
ATOM     33  O   UNL     1      24.738  35.644   9.696  1.00  0.00    -0.385 OA
ATOM     34  H   UNL     1      24.116  36.352   9.343  1.00  0.00     0.211 HD
ENDBRANCH  21  33
ENDBRANCH  15  16
ENDBRANCH  10  15
BRANCH  12  35
ATOM     35  O   UNL     1      21.510  31.613  15.677  1.00  0.00    -0.385 OA
ATOM     36  H   UNL     1      22.070  31.217  16.410  1.00  0.00     0.211 HD
ENDBRANCH  12  35
BRANCH  13  37
ATOM     37  O   UNL     1      23.367  29.574  13.697  1.00  0.00    -0.387 OA
ATOM     38  H   UNL     1      22.766  29.855  12.969  1.00  0.00     0.211 HD
ENDBRANCH  13  37
BRANCH  14  39
ATOM     39  O   UNL     1      25.106  31.549  13.330  1.00  0.00    -0.387 OA
ATOM     40  H   UNL     1      25.646  32.393  13.338  1.00  0.00     0.211 HD
ENDBRANCH  14  39
ENDBRANCH   8   9
ENDBRANCH   7   8
ENDBRANCH   1   7
BRANCH   1  41
ATOM     41  C   UNL     1      28.569  34.224  15.229  1.00  0.00     0.364 C 
ATOM     42  O   UNL     1      28.359  34.547  14.046  1.00  0.00    -0.246 OA
BRANCH  41  43
ATOM     43  O   UNL     1      29.224  35.160  16.024  1.00  0.00    -0.477 OA
ATOM     44  H   UNL     1      28.743  35.982  16.363  1.00  0.00     0.296 HD
ENDBRANCH  41  43
ENDBRANCH   1  41
BRANCH   3  45
ATOM     45  O   UNL     1      28.942  29.643  15.413  1.00  0.00    -0.391 OA
ATOM     46  H   UNL     1      29.723  29.513  14.820  1.00  0.00     0.211 HD
ENDBRANCH   3  45
BRANCH   5  47
ATOM     47  C   UNL     1      27.781  32.341  19.350  1.00  0.00     0.176 C 
BRANCH  47  48
ATOM     48  O   UNL     1      26.405  32.468  19.038  1.00  0.00    -0.388 OA
ATOM     49  H   UNL     1      26.073  33.371  19.171  1.00  0.00     0.211 HD
ENDBRANCH  47  48
BRANCH  47  50
ATOM     50  C   UNL     1      28.161  33.609  20.042  1.00  0.00     0.165 C 
BRANCH  50  51
ATOM     51  O   UNL     1      27.674  34.705  19.329  1.00  0.00    -0.388 OA
ATOM     52  H   UNL     1      28.429  35.321  19.143  1.00  0.00     0.211 HD
ENDBRANCH  50  51
BRANCH  50  53
ATOM     53  C   UNL     1      29.608  33.767  20.349  1.00  0.00     0.154 C 
BRANCH  53  54
ATOM     54  N   UNL     1      30.195  34.890  19.652  1.00  0.00    -0.319 N 
ATOM     55  C   UNL     1      31.188  34.778  18.651  1.00  0.00     0.407 C 
ATOM     56  H   UNL     1      29.895  35.889  19.865  1.00  0.00     0.167 HD
ATOM     57  O   UNL     1      31.613  33.655  18.317  1.00  0.00    -0.225 OA
BRANCH  55  58
ATOM     58  O   UNL     1      31.731  35.881  18.003  1.00  0.00    -0.443 OA
BRANCH  58  59
ATOM     59  C   UNL     1      32.912  35.789  17.198  1.00  0.00     0.294 C 
BRANCH  59  60
ATOM     60  C   UNL     1      32.441  35.728  15.791  1.00  0.00     0.121 A 
ATOM     61  C   UNL     1      32.173  36.784  14.964  1.00  0.00     0.144 A 
ATOM     62  N   UNL     1      32.186  34.608  15.056  1.00  0.00    -0.131 NA
ATOM     63  N   UNL     1      31.768  36.314  13.765  1.00  0.00    -0.220 N 
ATOM     64  N   UNL     1      31.788  34.987  13.857  1.00  0.00    -0.062 NA
BRANCH  63  65
ATOM     65  C   UNL     1      31.404  37.106  12.645  1.00  0.00     0.067 A 
ATOM     66  C   UNL     1      30.218  37.800  12.595  1.00  0.00     0.039 A 
ATOM     67  C   UNL     1      32.267  37.182  11.581  1.00  0.00     0.029 A 
ATOM     68  C   UNL     1      29.914  38.557  11.488  1.00  0.00     0.007 A 
ATOM     69  C   UNL     1      31.959  37.942  10.472  1.00  0.00     0.012 A 
ATOM     70  C   UNL     1      30.779  38.644  10.401  1.00  0.00    -0.008 A 
BRANCH  68  71
ATOM     71  C   UNL     1      28.660  39.310  11.402  1.00  0.00     0.072 C 
ATOM     72  O   UNL     1      27.607  38.798  10.952  1.00  0.00    -0.545 OA
ATOM     73  O   UNL     1      28.631  40.616  11.826  1.00  0.00    -0.545 OA
ENDBRANCH  68  71
BRANCH  70  74
ATOM     74  C   UNL     1      30.447  39.450   9.239  1.00  0.00     0.004 A 
ATOM     75  C   UNL     1      29.703  38.887   8.232  1.00  0.00     0.026 A 
ATOM     76  C   UNL     1      30.854  40.753   9.114  1.00  0.00     0.026 A 
ATOM     77  C   UNL     1      29.253  37.589   8.272  1.00  0.00     0.016 A 
ATOM     78  C   UNL     1      29.396  39.671   7.125  1.00  0.00     0.139 A 
ATOM     79  C   UNL     1      30.501  41.547   7.916  1.00  0.00     0.139 A 
ATOM     80  C   UNL     1      31.598  41.382  10.079  1.00  0.00     0.016 A 
ATOM     81  C   UNL     1      28.504  37.032   7.251  1.00  0.00     0.047 A 
ATOM     82  C   UNL     1      28.653  39.111   6.116  1.00  0.00     0.093 A 
ATOM     83  O   UNL     1      29.792  40.924   7.012  1.00  0.00    -0.456 OA
ATOM     84  C   UNL     1      30.911  42.850   7.795  1.00  0.00     0.099 A 
ATOM     85  C   UNL     1      32.004  42.698   9.942  1.00  0.00     0.053 A 
ATOM     86  C   UNL     1      28.195  37.801   6.151  1.00  0.00     0.119 A 
ATOM     87  C   UNL     1      31.655  43.408   8.807  1.00  0.00     0.182 A 
ATOM     88  O   UNL     1      32.054  44.602   8.743  1.00  0.00    -0.290 OA
BRANCH  86  89
ATOM     89  O   UNL     1      27.444  37.235   5.132  1.00  0.00    -0.508 OA
ATOM     90  H   UNL     1      27.694  37.500   4.183  1.00  0.00     0.293 HD
ENDBRANCH  86  89
ENDBRANCH  70  74
ENDBRANCH  63  65
ENDBRANCH  59  60
ENDBRANCH  58  59
ENDBRANCH  55  58
ENDBRANCH  53  54
ENDBRANCH  50  53
ENDBRANCH  47  50
ENDBRANCH   5  47
BRANCH   4  91
ATOM     91  N   UNL     1      28.330  29.771  18.379  1.00  0.00    -0.348 N 
ATOM     92  C   UNL     1      27.442  28.685  18.250  1.00  0.00     0.217 C 
ATOM     93  H   UNL     1      29.008  29.760  19.172  1.00  0.00     0.163 HD
ATOM     94  C   UNL     1      27.424  27.533  19.185  1.00  0.00     0.114 C 
ATOM     95  O   UNL     1      26.586  28.638  17.299  1.00  0.00    -0.275 OA
ENDBRANCH   4  91
TORSDOF 33
BEGIN_RES LYS A 131
REMARK  4 active torsions:
REMARK  status: ('A' for Active; 'I' for Inactive)
REMARK    1  A    between atoms: CA   and  CB  
REMARK    2  A    between atoms: CB   and  CG  
REMARK    3  A    between atoms: CG   and  CD  
REMARK    4  A    between atoms: CD   and  CE  
ROOT
ATOM      1  CA  LYS A 131      29.867  25.555  16.977  1.00 20.52     0.186 C 
ENDROOT
BRANCH   1   2
ATOM      2  CB  LYS A 131      28.345  25.722  17.026  1.00 20.94     0.034 C 
BRANCH   2   3
ATOM      3  CG  LYS A 131      27.600  24.414  16.811  1.00 22.96     0.005 C 
BRANCH   3   4
ATOM      4  CD  LYS A 131      26.503  24.214  17.819  1.00 24.33     0.041 C 
BRANCH   4   5
ATOM      5  CE  LYS A 131      25.166  24.611  17.203  1.00 26.91     0.338 C 
ATOM      6  NZ  LYS A 131      24.134  23.589  17.498  1.00 27.40     0.618 N 
ENDBRANCH   4   5
ENDBRANCH   3   4
ENDBRANCH   2   3
ENDBRANCH   1   2
END_RES LYS A 131
BEGIN_RES LYS A 135
REMARK  4 active torsions:
REMARK  status: ('A' for Active; 'I' for Inactive)
REMARK    5  A    between atoms: CA   and  CB  
REMARK    6  A    between atoms: CB   and  CG  
REMARK    7  A    between atoms: CG   and  CD  
REMARK    8  A    between atoms: CD   and  CE  
ROOT
ATOM      7  CA  LYS A 135      33.193  34.663   9.290  1.00 25.02     0.186 C 
ENDROOT
BRANCH   7   8
ATOM      8  CB  LYS A 135      32.060  35.360  10.034  1.00 26.63     0.034 C 
BRANCH   8   9
ATOM      9  CG  LYS A 135      30.689  34.907   9.605  1.00 29.45     0.005 C 
BRANCH   9  10
ATOM     10  CD  LYS A 135      29.834  34.561  10.814  1.00 32.00     0.041 C 
BRANCH  10  11
ATOM     11  CE  LYS A 135      28.369  34.820  10.523  1.00 34.25     0.338 C 
ATOM     12  NZ  LYS A 135      27.812  33.786   9.608  1.00 35.99     0.618 N 
ENDBRANCH  10  11
ENDBRANCH   9  10
ENDBRANCH   8   9
ENDBRANCH   7   8
END_RES LYS A 135
