REMARK VINA RESULT:    -5.215      1.313      2.605
REMARK INTER + INTRA:         -22.564
REMARK INTER:                 -11.015
REMARK INTRA:                 -11.548
REMARK UNBOUND:                -9.116
REMARK SMILES CC(=O)N[C@@H]1[C@@H](O)C[C@](OC[C@H]2O[C@@H](O[C@H]3[C@H](O)[C@@H](O)[C@H](OCCN=[N+]=[N-])O[C@@H]3CO)[C@H](O)[C@@H](O)[C@H]2O)(C(=O)O)O[C@H]1C(O)[C@H](O)CNC(=O)OCc1cn(CCC2OCCO2)nn1
REMARK SMILES IDX 9 1 8 2 6 3 5 4 42 5 41 6 10 7 11 8 12 9 14 10 13 11 32 12
REMARK SMILES IDX 34 13 36 14 15 15 16 16 29 17 28 18 21 19 17 20 19 21 30 22
REMARK SMILES IDX 31 23 22 25 23 26 24 27 25 28 26 29 27 30 18 31 20 33 33 35
REMARK SMILES IDX 35 37 37 39 38 41 39 42 40 43 7 45 43 47 44 48 45 50 46 51
REMARK SMILES IDX 47 53 48 54 49 55 50 57 51 58 52 59 53 60 54 61 64 62 55 63
REMARK SMILES IDX 63 64 56 65 57 66 58 67 59 68 62 69 60 70 61 71 4 72 2 73
REMARK SMILES IDX 1 75 3 76
REMARK H PARENT 31 24 18 32 20 34 33 36 35 38 37 40 40 44 7 46 44 49 46 52
REMARK H PARENT 48 56 4 74
REMARK Flexibility Score: inf
ROOT
ATOM      1  C   UNL     1      29.515  32.497  17.378  1.00  0.00     0.272 C 
ATOM      2  C   UNL     1      30.031  31.121  17.941  1.00  0.00     0.113 C 
ATOM      3  C   UNL     1      29.241  30.692  19.103  1.00  0.00     0.145 C 
ATOM      4  C   UNL     1      27.782  30.565  18.712  1.00  0.00     0.142 C 
ATOM      5  C   UNL     1      27.444  31.382  17.512  1.00  0.00     0.178 C 
ATOM      6  O   UNL     1      28.144  32.518  17.309  1.00  0.00    -0.332 OA
ENDROOT
BRANCH   1   7
ATOM      7  O   UNL     1      30.049  32.525  16.157  1.00  0.00    -0.338 OA
BRANCH   7   8
ATOM      8  C   UNL     1      31.293  32.743  15.796  1.00  0.00     0.199 C 
BRANCH   8   9
ATOM      9  C   UNL     1      31.670  33.861  14.877  1.00  0.00     0.179 C 
ATOM     10  C   UNL     1      30.735  35.272  13.260  1.00  0.00     0.282 C 
ATOM     11  O   UNL     1      30.680  34.075  13.945  1.00  0.00    -0.341 OA
ATOM     12  C   UNL     1      31.999  36.037  13.392  1.00  0.00     0.202 C 
ATOM     13  C   UNL     1      32.501  36.149  14.806  1.00  0.00     0.179 C 
ATOM     14  C   UNL     1      31.757  35.188  15.671  1.00  0.00     0.177 C 
BRANCH  10  15
ATOM     15  O   UNL     1      29.567  35.985  13.530  1.00  0.00    -0.341 OA
BRANCH  15  16
ATOM     16  C   UNL     1      28.468  35.552  12.801  1.00  0.00     0.184 C 
ATOM     17  C   UNL     1      27.789  36.627  12.009  1.00  0.00     0.178 C 
ATOM     18  O   UNL     1      26.765  36.030  11.270  1.00  0.00    -0.341 OA
ATOM     19  C   UNL     1      25.729  35.548  12.056  1.00  0.00     0.281 C 
ATOM     20  C   UNL     1      27.380  35.040  13.788  1.00  0.00     0.180 C 
ATOM     21  C   UNL     1      26.318  34.416  12.893  1.00  0.00     0.202 C 
BRANCH  17  22
ATOM     22  C   UNL     1      28.759  37.185  10.982  1.00  0.00     0.191 C 
BRANCH  22  23
ATOM     23  O   UNL     1      27.951  37.874  10.044  1.00  0.00    -0.394 OA
ATOM     24  H   UNL     1      28.447  38.565   9.556  1.00  0.00     0.210 HD
ENDBRANCH  22  23
ENDBRANCH  17  22
BRANCH  19  25
ATOM     25  O   UNL     1      24.732  35.090  11.242  1.00  0.00    -0.350 OA
BRANCH  25  26
ATOM     26  C   UNL     1      23.749  35.985  10.930  1.00  0.00     0.169 C 
BRANCH  26  27
ATOM     27  C   UNL     1      23.199  35.863   9.525  1.00  0.00     0.119 C 
BRANCH  27  28
ATOM     28  N   UNL     1      23.793  36.871   8.666  1.00  0.00    -0.092 NA
ATOM     29  N   UNL     1      24.977  36.859   8.341  1.00  0.00     0.001 N 
ATOM     30  N   UNL     1      26.098  36.833   7.840  1.00  0.00    -0.003 NA
ENDBRANCH  27  28
ENDBRANCH  26  27
ENDBRANCH  25  26
ENDBRANCH  19  25
BRANCH  20  31
ATOM     31  O   UNL     1      27.942  34.085  14.599  1.00  0.00    -0.387 OA
ATOM     32  H   UNL     1      28.027  34.457  15.519  1.00  0.00     0.211 HD
ENDBRANCH  20  31
BRANCH  21  33
ATOM     33  O   UNL     1      25.378  33.832  13.715  1.00  0.00    -0.385 OA
ATOM     34  H   UNL     1      24.558  34.387  13.692  1.00  0.00     0.211 HD
ENDBRANCH  21  33
ENDBRANCH  15  16
ENDBRANCH  10  15
BRANCH  12  35
ATOM     35  O   UNL     1      32.984  35.458  12.553  1.00  0.00    -0.385 OA
ATOM     36  H   UNL     1      32.791  35.819  11.647  1.00  0.00     0.211 HD
ENDBRANCH  12  35
BRANCH  13  37
ATOM     37  O   UNL     1      32.445  37.460  15.277  1.00  0.00    -0.387 OA
ATOM     38  H   UNL     1      32.502  38.065  14.491  1.00  0.00     0.211 HD
ENDBRANCH  13  37
BRANCH  14  39
ATOM     39  O   UNL     1      30.480  35.591  16.000  1.00  0.00    -0.387 OA
ATOM     40  H   UNL     1      30.262  36.514  15.715  1.00  0.00     0.211 HD
ENDBRANCH  14  39
ENDBRANCH   8   9
ENDBRANCH   7   8
ENDBRANCH   1   7
BRANCH   1  41
ATOM     41  C   UNL     1      29.929  33.447  18.410  1.00  0.00     0.364 C 
ATOM     42  O   UNL     1      29.176  34.477  18.659  1.00  0.00    -0.246 OA
BRANCH  41  43
ATOM     43  O   UNL     1      31.052  33.414  19.204  1.00  0.00    -0.477 OA
ATOM     44  H   UNL     1      31.341  34.243  19.703  1.00  0.00     0.296 HD
ENDBRANCH  41  43
ENDBRANCH   1  41
BRANCH   3  45
ATOM     45  O   UNL     1      29.747  29.415  19.482  1.00  0.00    -0.391 OA
ATOM     46  H   UNL     1      29.383  28.766  18.805  1.00  0.00     0.211 HD
ENDBRANCH   3  45
BRANCH   5  47
ATOM     47  C   UNL     1      27.305  30.499  16.308  1.00  0.00     0.176 C 
BRANCH  47  48
ATOM     48  O   UNL     1      26.850  29.210  16.624  1.00  0.00    -0.388 OA
ATOM     49  H   UNL     1      27.620  28.576  16.721  1.00  0.00     0.211 HD
ENDBRANCH  47  48
BRANCH  47  50
ATOM     50  C   UNL     1      26.180  31.046  15.384  1.00  0.00     0.165 C 
BRANCH  50  51
ATOM     51  O   UNL     1      25.763  32.259  15.880  1.00  0.00    -0.388 OA
ATOM     52  H   UNL     1      26.305  33.017  15.593  1.00  0.00     0.211 HD
ENDBRANCH  50  51
BRANCH  50  53
ATOM     53  C   UNL     1      25.167  29.989  15.218  1.00  0.00     0.154 C 
BRANCH  53  54
ATOM     54  N   UNL     1      24.402  30.151  14.022  1.00  0.00    -0.319 N 
ATOM     55  C   UNL     1      23.339  29.333  13.642  1.00  0.00     0.407 C 
ATOM     56  H   UNL     1      24.672  30.951  13.396  1.00  0.00     0.167 HD
ATOM     57  O   UNL     1      22.985  28.369  14.338  1.00  0.00    -0.225 OA
BRANCH  55  58
ATOM     58  O   UNL     1      22.602  29.529  12.465  1.00  0.00    -0.443 OA
BRANCH  58  59
ATOM     59  C   UNL     1      21.513  30.434  12.429  1.00  0.00     0.294 C 
BRANCH  59  60
ATOM     60  C   UNL     1      21.824  31.731  13.073  1.00  0.00     0.120 A 
ATOM     61  C   UNL     1      21.315  32.157  14.304  1.00  0.00     0.138 A 
ATOM     62  N   UNL     1      22.610  32.739  12.662  1.00  0.00    -0.132 NA
ATOM     63  N   UNL     1      21.809  33.393  14.586  1.00  0.00    -0.252 N 
ATOM     64  N   UNL     1      22.585  33.717  13.578  1.00  0.00    -0.067 NA
BRANCH  63  65
ATOM     65  C   UNL     1      21.474  34.113  15.806  1.00  0.00     0.151 C 
BRANCH  65  66
ATOM     66  C   UNL     1      22.364  35.339  15.961  1.00  0.00     0.086 C 
BRANCH  66  67
ATOM     67  C   UNL     1      23.507  35.073  16.899  1.00  0.00     0.251 C 
ATOM     68  O   UNL     1      24.710  35.164  16.197  1.00  0.00    -0.350 OA
ATOM     69  O   UNL     1      23.605  35.993  17.924  1.00  0.00    -0.350 OA
ATOM     70  C   UNL     1      25.679  35.330  17.180  1.00  0.00     0.192 C 
ATOM     71  C   UNL     1      24.887  35.674  18.430  1.00  0.00     0.192 C 
ENDBRANCH  66  67
ENDBRANCH  65  66
ENDBRANCH  63  65
ENDBRANCH  59  60
ENDBRANCH  58  59
ENDBRANCH  55  58
ENDBRANCH  53  54
ENDBRANCH  50  53
ENDBRANCH  47  50
ENDBRANCH   5  47
BRANCH   4  72
ATOM     72  N   UNL     1      26.917  30.843  19.856  1.00  0.00    -0.348 N 
ATOM     73  C   UNL     1      26.459  29.857  20.735  1.00  0.00     0.217 C 
ATOM     74  H   UNL     1      26.640  31.858  19.999  1.00  0.00     0.163 HD
ATOM     75  C   UNL     1      25.572  30.223  21.887  1.00  0.00     0.114 C 
ATOM     76  O   UNL     1      26.818  28.668  20.519  1.00  0.00    -0.275 OA
ENDBRANCH   4  72
TORSDOF 32
BEGIN_RES LYS A 131
REMARK  4 active torsions:
REMARK  status: ('A' for Active; 'I' for Inactive)
REMARK    1  A    between atoms: CA   and  CB  
REMARK    2  A    between atoms: CB   and  CG  
REMARK    3  A    between atoms: CG   and  CD  
REMARK    4  A    between atoms: CD   and  CE  
ROOT
ATOM      1  CA  LYS A 131      29.867  25.555  16.977  1.00 20.52     0.186 C 
ENDROOT
BRANCH   1   2
ATOM      2  CB  LYS A 131      28.345  25.722  17.026  1.00 20.94     0.034 C 
BRANCH   2   3
ATOM      3  CG  LYS A 131      27.602  24.399  16.920  1.00 22.96     0.005 C 
BRANCH   3   4
ATOM      4  CD  LYS A 131      26.206  24.488  17.473  1.00 24.33     0.041 C 
BRANCH   4   5
ATOM      5  CE  LYS A 131      26.076  25.746  18.326  1.00 26.91     0.338 C 
ATOM      6  NZ  LYS A 131      25.533  25.411  19.664  1.00 27.40     0.618 N 
ENDBRANCH   4   5
ENDBRANCH   3   4
ENDBRANCH   2   3
ENDBRANCH   1   2
END_RES LYS A 131
BEGIN_RES LYS A 135
REMARK  4 active torsions:
REMARK  status: ('A' for Active; 'I' for Inactive)
REMARK    5  A    between atoms: CA   and  CB  
REMARK    6  A    between atoms: CB   and  CG  
REMARK    7  A    between atoms: CG   and  CD  
REMARK    8  A    between atoms: CD   and  CE  
ROOT
ATOM      7  CA  LYS A 135      33.193  34.663   9.290  1.00 25.02     0.186 C 
ENDROOT
BRANCH   7   8
ATOM      8  CB  LYS A 135      32.060  35.360  10.034  1.00 26.63     0.034 C 
BRANCH   8   9
ATOM      9  CG  LYS A 135      30.732  34.661   9.900  1.00 29.45     0.005 C 
BRANCH   9  10
ATOM     10  CD  LYS A 135      30.338  34.532   8.437  1.00 32.00     0.041 C 
BRANCH  10  11
ATOM     11  CE  LYS A 135      28.829  34.537   8.289  1.00 34.25     0.338 C 
ATOM     12  NZ  LYS A 135      28.178  33.787   9.399  1.00 35.99     0.618 N 
ENDBRANCH  10  11
ENDBRANCH   9  10
ENDBRANCH   8   9
ENDBRANCH   7   8
END_RES LYS A 135
