REMARK VINA RESULT:    -4.049      4.622      9.026
REMARK INTER + INTRA:         -23.986
REMARK INTER:                 -11.060
REMARK INTRA:                 -12.927
REMARK UNBOUND:               -13.073
REMARK SMILES CC(=O)N[C@@H]1[C@@H](O)C[C@](OC[C@H]2O[C@@H](O[C@H]3[C@H](O)[C@@H](O)[C@H](OCCN=[N+]=[N-])O[C@@H]3CO)[C@H](O)[C@@H](O)[C@H]2O)(C(=O)O)O[C@H]1C(O)[C@H](O)CNC(=O)OCc1cn(C[C@@H](C)CN2CCN(c3ccc(Cl)cc3)CC2)nn1
REMARK SMILES IDX 43 1 42 2 9 3 8 4 41 5 6 6 5 7 10 8 11 9 12 10 14 11 13 12
REMARK SMILES IDX 32 13 34 14 36 15 15 16 16 17 29 18 28 19 21 20 17 21 19 22
REMARK SMILES IDX 30 23 31 24 22 26 23 27 24 28 25 29 26 30 27 31 18 32 20 34
REMARK SMILES IDX 33 36 35 38 37 40 38 42 39 43 40 44 7 46 4 48 2 49 1 51 3 52
REMARK SMILES IDX 44 53 45 55 46 56 47 58 48 59 49 60 50 62 51 63 52 64 53 65
REMARK SMILES IDX 54 66 74 67 55 68 73 69 56 70 57 71 58 72 59 73 60 74 61 75
REMARK SMILES IDX 72 76 62 77 71 78 63 79 64 80 65 81 70 82 66 83 69 84 67 85
REMARK SMILES IDX 68 86
REMARK H PARENT 31 25 18 33 20 35 33 37 35 39 37 41 40 45 7 47 4 50 44 54
REMARK H PARENT 46 57 48 61
REMARK Flexibility Score: inf
ROOT
ATOM      1  C   UNL     1      30.132  33.687  16.462  1.00  0.00     0.176 C 
ENDROOT
BRANCH   1   2
ATOM      2  C   UNL     1      30.148  34.798  15.423  1.00  0.00     0.178 C 
ATOM      3  C   UNL     1      29.167  35.539  13.406  1.00  0.00     0.272 C 
ATOM      4  C   UNL     1      30.388  36.298  13.232  1.00  0.00     0.113 C 
ATOM      5  O   UNL     1      29.375  34.489  14.353  1.00  0.00    -0.332 OA
ATOM      6  C   UNL     1      31.633  35.529  13.631  1.00  0.00     0.145 C 
ATOM      7  C   UNL     1      31.531  35.281  15.142  1.00  0.00     0.142 C 
BRANCH   3   8
ATOM      8  O   UNL     1      28.570  34.929  12.385  1.00  0.00    -0.338 OA
BRANCH   8   9
ATOM      9  C   UNL     1      27.551  35.319  11.665  1.00  0.00     0.199 C 
BRANCH   9  10
ATOM     10  C   UNL     1      26.302  34.504  11.494  1.00  0.00     0.179 C 
ATOM     11  C   UNL     1      24.336  34.298  12.735  1.00  0.00     0.282 C 
ATOM     12  O   UNL     1      25.696  34.153  12.666  1.00  0.00    -0.341 OA
ATOM     13  C   UNL     1      23.988  35.770  12.619  1.00  0.00     0.202 C 
ATOM     14  C   UNL     1      24.516  36.275  11.316  1.00  0.00     0.179 C 
ATOM     15  C   UNL     1      25.345  35.280  10.577  1.00  0.00     0.177 C 
BRANCH  11  16
ATOM     16  O   UNL     1      23.965  33.879  14.036  1.00  0.00    -0.341 OA
BRANCH  16  17
ATOM     17  C   UNL     1      24.465  32.624  14.274  1.00  0.00     0.184 C 
ATOM     18  C   UNL     1      23.378  31.601  14.532  1.00  0.00     0.178 C 
ATOM     19  O   UNL     1      23.322  31.135  15.810  1.00  0.00    -0.341 OA
ATOM     20  C   UNL     1      24.489  30.592  16.319  1.00  0.00     0.281 C 
ATOM     21  C   UNL     1      25.486  32.625  15.407  1.00  0.00     0.180 C 
ATOM     22  C   UNL     1      25.752  31.178  15.751  1.00  0.00     0.202 C 
BRANCH  18  23
ATOM     23  C   UNL     1      23.373  30.498  13.485  1.00  0.00     0.191 C 
BRANCH  23  24
ATOM     24  O   UNL     1      24.552  30.438  12.786  1.00  0.00    -0.394 OA
ATOM     25  H   UNL     1      25.279  30.249  13.455  1.00  0.00     0.210 HD
ENDBRANCH  23  24
ENDBRANCH  18  23
BRANCH  20  26
ATOM     26  O   UNL     1      24.522  29.208  16.209  1.00  0.00    -0.350 OA
BRANCH  26  27
ATOM     27  C   UNL     1      24.092  28.514  17.303  1.00  0.00     0.169 C 
BRANCH  27  28
ATOM     28  C   UNL     1      25.145  28.439  18.372  1.00  0.00     0.119 C 
BRANCH  28  29
ATOM     29  N   UNL     1      24.924  27.249  19.178  1.00  0.00    -0.092 NA
ATOM     30  N   UNL     1      23.980  27.228  19.990  1.00  0.00     0.001 N 
ATOM     31  N   UNL     1      23.025  27.337  20.746  1.00  0.00    -0.003 NA
ENDBRANCH  28  29
ENDBRANCH  27  28
ENDBRANCH  26  27
ENDBRANCH  20  26
BRANCH  21  32
ATOM     32  O   UNL     1      26.690  33.185  14.985  1.00  0.00    -0.387 OA
ATOM     33  H   UNL     1      27.358  32.439  15.023  1.00  0.00     0.211 HD
ENDBRANCH  21  32
BRANCH  22  34
ATOM     34  O   UNL     1      26.737  31.145  16.768  1.00  0.00    -0.385 OA
ATOM     35  H   UNL     1      26.430  31.513  17.612  1.00  0.00     0.211 HD
ENDBRANCH  22  34
ENDBRANCH  16  17
ENDBRANCH  11  16
BRANCH  13  36
ATOM     36  O   UNL     1      22.616  35.898  12.747  1.00  0.00    -0.385 OA
ATOM     37  H   UNL     1      22.206  35.190  12.169  1.00  0.00     0.211 HD
ENDBRANCH  13  36
BRANCH  14  38
ATOM     38  O   UNL     1      25.193  37.496  11.436  1.00  0.00    -0.387 OA
ATOM     39  H   UNL     1      26.099  37.366  11.799  1.00  0.00     0.211 HD
ENDBRANCH  14  38
BRANCH  15  40
ATOM     40  O   UNL     1      26.078  35.884   9.585  1.00  0.00    -0.387 OA
ATOM     41  H   UNL     1      25.646  36.697   9.237  1.00  0.00     0.211 HD
ENDBRANCH  15  40
ENDBRANCH   9  10
ENDBRANCH   8   9
ENDBRANCH   3   8
BRANCH   3  42
ATOM     42  C   UNL     1      28.140  36.369  14.151  1.00  0.00     0.364 C 
ATOM     43  O   UNL     1      28.297  37.633  14.273  1.00  0.00    -0.246 OA
BRANCH  42  44
ATOM     44  O   UNL     1      27.011  35.856  14.737  1.00  0.00    -0.477 OA
ATOM     45  H   UNL     1      26.710  36.150  15.658  1.00  0.00     0.296 HD
ENDBRANCH  42  44
ENDBRANCH   3  42
BRANCH   6  46
ATOM     46  O   UNL     1      31.604  34.318  12.941  1.00  0.00    -0.391 OA
ATOM     47  H   UNL     1      31.398  34.449  11.984  1.00  0.00     0.211 HD
ENDBRANCH   6  46
BRANCH   7  48
ATOM     48  N   UNL     1      31.830  36.536  15.801  1.00  0.00    -0.348 N 
ATOM     49  C   UNL     1      33.131  36.780  16.311  1.00  0.00     0.217 C 
ATOM     50  H   UNL     1      31.109  37.299  15.927  1.00  0.00     0.163 HD
ATOM     51  C   UNL     1      33.401  38.097  16.989  1.00  0.00     0.114 C 
ATOM     52  O   UNL     1      34.076  35.945  16.224  1.00  0.00    -0.275 OA
ENDBRANCH   7  48
ENDBRANCH   1   2
BRANCH   1  53
ATOM     53  O   UNL     1      28.800  33.328  16.662  1.00  0.00    -0.388 OA
ATOM     54  H   UNL     1      28.389  33.861  17.381  1.00  0.00     0.211 HD
ENDBRANCH   1  53
BRANCH   1  55
ATOM     55  C   UNL     1      30.851  32.439  16.033  1.00  0.00     0.165 C 
BRANCH  55  56
ATOM     56  O   UNL     1      30.944  32.248  14.680  1.00  0.00    -0.388 OA
ATOM     57  H   UNL     1      31.777  31.827  14.410  1.00  0.00     0.211 HD
ENDBRANCH  55  56
BRANCH  55  58
ATOM     58  C   UNL     1      30.404  31.195  16.723  1.00  0.00     0.154 C 
BRANCH  58  59
ATOM     59  N   UNL     1      30.288  31.478  18.156  1.00  0.00    -0.319 N 
ATOM     60  C   UNL     1      29.330  30.819  18.962  1.00  0.00     0.407 C 
ATOM     61  H   UNL     1      30.926  32.179  18.583  1.00  0.00     0.167 HD
ATOM     62  O   UNL     1      28.572  29.983  18.413  1.00  0.00    -0.225 OA
BRANCH  60  63
ATOM     63  O   UNL     1      29.241  31.098  20.319  1.00  0.00    -0.443 OA
BRANCH  63  64
ATOM     64  C   UNL     1      28.065  31.756  20.789  1.00  0.00     0.294 C 
BRANCH  64  65
ATOM     65  C   UNL     1      27.829  33.045  20.101  1.00  0.00     0.120 A 
ATOM     66  C   UNL     1      28.418  34.257  20.379  1.00  0.00     0.138 A 
ATOM     67  N   UNL     1      26.986  33.286  19.068  1.00  0.00    -0.132 NA
ATOM     68  N   UNL     1      27.919  35.148  19.527  1.00  0.00    -0.252 N 
ATOM     69  N   UNL     1      27.053  34.556  18.736  1.00  0.00    -0.067 NA
BRANCH  68  70
ATOM     70  C   UNL     1      28.285  36.565  19.504  1.00  0.00     0.150 C 
BRANCH  70  71
ATOM     71  C   UNL     1      29.567  36.778  18.693  1.00  0.00     0.022 C 
ATOM     72  C   UNL     1      29.263  37.906  17.732  1.00  0.00     0.011 C 
BRANCH  71  73
ATOM     73  C   UNL     1      30.683  37.131  19.626  1.00  0.00     0.089 C 
BRANCH  73  74
ATOM     74  N   UNL     1      31.824  36.314  19.648  1.00  0.00    -0.299 NA
ATOM     75  C   UNL     1      31.763  34.966  19.268  1.00  0.00     0.106 C 
ATOM     76  C   UNL     1      32.805  36.667  20.623  1.00  0.00     0.106 C 
ATOM     77  C   UNL     1      32.363  34.031  20.319  1.00  0.00     0.132 C 
ATOM     78  C   UNL     1      34.065  35.853  20.389  1.00  0.00     0.132 C 
ATOM     79  N   UNL     1      33.720  34.478  20.633  1.00  0.00    -0.369 N 
BRANCH  79  80
ATOM     80  C   UNL     1      34.636  33.561  21.163  1.00  0.00     0.037 A 
ATOM     81  C   UNL     1      36.012  33.748  21.066  1.00  0.00     0.027 A 
ATOM     82  C   UNL     1      34.242  32.408  21.830  1.00  0.00     0.027 A 
ATOM     83  C   UNL     1      36.932  32.867  21.584  1.00  0.00     0.022 A 
ATOM     84  C   UNL     1      35.163  31.521  22.351  1.00  0.00     0.022 A 
ATOM     85  C   UNL     1      36.519  31.736  22.237  1.00  0.00     0.041 A 
ATOM     86  Cl  UNL     1      37.678  30.626  22.891  1.00  0.00    -0.084 Cl
ENDBRANCH  79  80
ENDBRANCH  73  74
ENDBRANCH  71  73
ENDBRANCH  70  71
ENDBRANCH  68  70
ENDBRANCH  64  65
ENDBRANCH  63  64
ENDBRANCH  60  63
ENDBRANCH  58  59
ENDBRANCH  55  58
ENDBRANCH   1  55
TORSDOF 34
BEGIN_RES LYS A 131
REMARK  4 active torsions:
REMARK  status: ('A' for Active; 'I' for Inactive)
REMARK    1  A    between atoms: CA   and  CB  
REMARK    2  A    between atoms: CB   and  CG  
REMARK    3  A    between atoms: CG   and  CD  
REMARK    4  A    between atoms: CD   and  CE  
ROOT
ATOM      1  CA  LYS A 131      29.867  25.555  16.977  1.00 20.52     0.186 C 
ENDROOT
BRANCH   1   2
ATOM      2  CB  LYS A 131      28.345  25.722  17.026  1.00 20.94     0.034 C 
BRANCH   2   3
ATOM      3  CG  LYS A 131      27.601  24.403  16.887  1.00 22.96     0.005 C 
BRANCH   3   4
ATOM      4  CD  LYS A 131      26.522  24.250  17.923  1.00 24.33     0.041 C 
BRANCH   4   5
ATOM      5  CE  LYS A 131      25.159  24.218  17.237  1.00 26.91     0.338 C 
ATOM      6  NZ  LYS A 131      24.122  23.714  18.167  1.00 27.40     0.618 N 
ENDBRANCH   4   5
ENDBRANCH   3   4
ENDBRANCH   2   3
ENDBRANCH   1   2
END_RES LYS A 131
BEGIN_RES LYS A 135
REMARK  4 active torsions:
REMARK  status: ('A' for Active; 'I' for Inactive)
REMARK    5  A    between atoms: CA   and  CB  
REMARK    6  A    between atoms: CB   and  CG  
REMARK    7  A    between atoms: CG   and  CD  
REMARK    8  A    between atoms: CD   and  CE  
ROOT
ATOM      7  CA  LYS A 135      33.193  34.663   9.290  1.00 25.02     0.186 C 
ENDROOT
BRANCH   7   8
ATOM      8  CB  LYS A 135      32.060  35.360  10.034  1.00 26.63     0.034 C 
BRANCH   8   9
ATOM      9  CG  LYS A 135      30.695  34.816   9.700  1.00 29.45     0.005 C 
BRANCH   9  10
ATOM     10  CD  LYS A 135      30.596  34.489   8.218  1.00 32.00     0.041 C 
BRANCH  10  11
ATOM     11  CE  LYS A 135      29.323  35.068   7.629  1.00 34.25     0.338 C 
ATOM     12  NZ  LYS A 135      29.151  36.495   8.022  1.00 35.99     0.618 N 
ENDBRANCH  10  11
ENDBRANCH   9  10
ENDBRANCH   8   9
ENDBRANCH   7   8
END_RES LYS A 135
