REMARK VINA RESULT:    -4.639      3.215      8.938
REMARK INTER + INTRA:         -22.893
REMARK INTER:                 -11.149
REMARK INTRA:                 -11.745
REMARK UNBOUND:               -11.068
REMARK SMILES CC(=O)N[C@@H]1[C@@H](O)C[C@](OC[C@H]2O[C@@H](O[C@H]3[C@H](O)[C@@H](O)[C@H](OCCN=[N+]=[N-])O[C@@H]3CO)[C@H](O)[C@@H](O)[C@H]2O)(C(=O)O)O[C@H]1C(O)[C@H](O)CNC(=O)OCc1cn(Cc2cc(Br)cc(Br)c2O)nn1
REMARK SMILES IDX 9 1 8 2 6 3 5 4 42 5 41 6 10 7 11 8 12 9 14 10 13 11 32 12
REMARK SMILES IDX 34 13 36 14 15 15 16 16 29 17 28 18 21 19 17 20 19 21 30 22
REMARK SMILES IDX 31 23 22 25 23 26 24 27 25 28 26 29 27 30 18 31 20 33 33 35
REMARK SMILES IDX 35 37 37 39 38 41 39 42 40 43 7 45 43 47 44 48 45 50 46 51
REMARK SMILES IDX 47 53 48 54 49 55 50 57 51 58 52 59 53 60 54 61 67 62 55 63
REMARK SMILES IDX 66 64 56 65 57 66 58 67 64 68 59 69 62 70 60 71 61 72 63 73
REMARK SMILES IDX 65 74 4 76 2 77 1 79 3 80
REMARK H PARENT 31 24 18 32 20 34 33 36 35 38 37 40 40 44 7 46 44 49 46 52
REMARK H PARENT 48 56 65 75 4 78
REMARK Flexibility Score: inf
ROOT
ATOM      1  C   UNL     1      24.323  36.363   9.889  1.00  0.00     0.272 C 
ATOM      2  C   UNL     1      25.388  36.129   8.714  1.00  0.00     0.113 C 
ATOM      3  C   UNL     1      25.245  37.176   7.687  1.00  0.00     0.145 C 
ATOM      4  C   UNL     1      25.373  38.541   8.310  1.00  0.00     0.142 C 
ATOM      5  C   UNL     1      25.133  38.598   9.789  1.00  0.00     0.178 C 
ATOM      6  O   UNL     1      24.589  37.570  10.430  1.00  0.00    -0.332 OA
ENDROOT
BRANCH   1   7
ATOM      7  O   UNL     1      24.688  35.362  10.724  1.00  0.00    -0.338 OA
BRANCH   7   8
ATOM      8  C   UNL     1      25.718  35.364  11.548  1.00  0.00     0.199 C 
BRANCH   8   9
ATOM      9  C   UNL     1      25.614  35.902  12.933  1.00  0.00     0.179 C 
ATOM     10  C   UNL     1      25.156  33.896  14.028  1.00  0.00     0.282 C 
ATOM     11  O   UNL     1      24.807  35.176  13.740  1.00  0.00    -0.341 OA
ATOM     12  C   UNL     1      26.612  33.749  14.329  1.00  0.00     0.202 C 
ATOM     13  C   UNL     1      27.231  35.085  14.638  1.00  0.00     0.179 C 
ATOM     14  C   UNL     1      26.992  36.107  13.567  1.00  0.00     0.177 C 
BRANCH  10  15
ATOM     15  O   UNL     1      24.696  33.011  13.040  1.00  0.00    -0.341 OA
BRANCH  15  16
ATOM     16  C   UNL     1      23.470  32.448  13.312  1.00  0.00     0.184 C 
ATOM     17  C   UNL     1      23.470  30.960  13.046  1.00  0.00     0.178 C 
ATOM     18  O   UNL     1      22.232  30.385  13.051  1.00  0.00    -0.341 OA
ATOM     19  C   UNL     1      21.205  31.142  13.584  1.00  0.00     0.281 C 
ATOM     20  C   UNL     1      22.386  32.995  12.378  1.00  0.00     0.180 C 
ATOM     21  C   UNL     1      21.077  32.497  12.942  1.00  0.00     0.202 C 
BRANCH  17  22
ATOM     22  C   UNL     1      24.404  30.203  13.967  1.00  0.00     0.191 C 
BRANCH  22  23
ATOM     23  O   UNL     1      24.471  30.788  15.212  1.00  0.00    -0.394 OA
ATOM     24  H   UNL     1      24.891  30.149  15.834  1.00  0.00     0.210 HD
ENDBRANCH  22  23
ENDBRANCH  17  22
BRANCH  19  25
ATOM     25  O   UNL     1      21.369  31.214  14.958  1.00  0.00    -0.350 OA
BRANCH  25  26
ATOM     26  C   UNL     1      20.501  32.114  15.516  1.00  0.00     0.169 C 
BRANCH  26  27
ATOM     27  C   UNL     1      20.993  32.837  16.722  1.00  0.00     0.119 C 
BRANCH  27  28
ATOM     28  N   UNL     1      22.247  33.527  16.495  1.00  0.00    -0.092 NA
ATOM     29  N   UNL     1      23.266  33.257  17.098  1.00  0.00     0.001 N 
ATOM     30  N   UNL     1      24.407  32.935  17.423  1.00  0.00    -0.003 NA
ENDBRANCH  27  28
ENDBRANCH  26  27
ENDBRANCH  25  26
ENDBRANCH  19  25
BRANCH  20  31
ATOM     31  O   UNL     1      22.429  34.354  12.223  1.00  0.00    -0.387 OA
ATOM     32  H   UNL     1      22.060  34.745  13.079  1.00  0.00     0.211 HD
ENDBRANCH  20  31
BRANCH  21  33
ATOM     33  O   UNL     1      20.083  32.454  11.970  1.00  0.00    -0.385 OA
ATOM     34  H   UNL     1      20.234  33.136  11.293  1.00  0.00     0.211 HD
ENDBRANCH  21  33
ENDBRANCH  15  16
ENDBRANCH  10  15
BRANCH  12  35
ATOM     35  O   UNL     1      26.728  32.892  15.451  1.00  0.00    -0.385 OA
ATOM     36  H   UNL     1      27.699  32.819  15.612  1.00  0.00     0.211 HD
ENDBRANCH  12  35
BRANCH  13  37
ATOM     37  O   UNL     1      28.589  34.975  14.934  1.00  0.00    -0.387 OA
ATOM     38  H   UNL     1      28.677  35.204  15.893  1.00  0.00     0.211 HD
ENDBRANCH  13  37
BRANCH  14  39
ATOM     39  O   UNL     1      27.965  35.996  12.590  1.00  0.00    -0.387 OA
ATOM     40  H   UNL     1      27.845  35.159  12.066  1.00  0.00     0.211 HD
ENDBRANCH  14  39
ENDBRANCH   8   9
ENDBRANCH   7   8
ENDBRANCH   1   7
BRANCH   1  41
ATOM     41  C   UNL     1      23.019  36.270   9.241  1.00  0.00     0.364 C 
ATOM     42  O   UNL     1      22.253  37.301   9.139  1.00  0.00    -0.246 OA
BRANCH  41  43
ATOM     43  O   UNL     1      22.499  35.128   8.691  1.00  0.00    -0.477 OA
ATOM     44  H   UNL     1      21.616  35.141   8.202  1.00  0.00     0.296 HD
ENDBRANCH  41  43
ENDBRANCH   1  41
BRANCH   3  45
ATOM     45  O   UNL     1      26.221  36.972   6.694  1.00  0.00    -0.391 OA
ATOM     46  H   UNL     1      26.380  37.811   6.206  1.00  0.00     0.211 HD
ENDBRANCH   3  45
BRANCH   5  47
ATOM     47  C   UNL     1      26.389  39.149  10.436  1.00  0.00     0.176 C 
BRANCH  47  48
ATOM     48  O   UNL     1      26.995  40.082   9.557  1.00  0.00    -0.388 OA
ATOM     49  H   UNL     1      27.964  40.098   9.683  1.00  0.00     0.211 HD
ENDBRANCH  47  48
BRANCH  47  50
ATOM     50  C   UNL     1      26.230  39.696  11.794  1.00  0.00     0.165 C 
BRANCH  50  51
ATOM     51  O   UNL     1      24.950  40.142  12.040  1.00  0.00    -0.388 OA
ATOM     52  H   UNL     1      24.798  41.082  11.768  1.00  0.00     0.211 HD
ENDBRANCH  50  51
BRANCH  50  53
ATOM     53  C   UNL     1      27.233  40.687  12.273  1.00  0.00     0.154 C 
BRANCH  53  54
ATOM     54  N   UNL     1      28.391  40.168  12.915  1.00  0.00    -0.319 N 
ATOM     55  C   UNL     1      29.601  40.096  12.144  1.00  0.00     0.407 C 
ATOM     56  H   UNL     1      28.418  39.820  13.886  1.00  0.00     0.167 HD
ATOM     57  O   UNL     1      29.583  40.498  10.930  1.00  0.00    -0.225 OA
BRANCH  55  58
ATOM     58  O   UNL     1      30.744  39.608  12.708  1.00  0.00    -0.443 OA
BRANCH  58  59
ATOM     59  C   UNL     1      30.792  39.102  14.018  1.00  0.00     0.294 C 
BRANCH  59  60
ATOM     60  C   UNL     1      31.131  37.661  14.008  1.00  0.00     0.120 A 
ATOM     61  C   UNL     1      32.046  36.963  14.787  1.00  0.00     0.138 A 
ATOM     62  N   UNL     1      30.589  36.722  13.217  1.00  0.00    -0.132 NA
ATOM     63  N   UNL     1      32.037  35.663  14.457  1.00  0.00    -0.248 N 
ATOM     64  N   UNL     1      31.127  35.549  13.486  1.00  0.00    -0.067 NA
BRANCH  63  65
ATOM     65  C   UNL     1      32.825  34.550  14.998  1.00  0.00     0.185 C 
BRANCH  65  66
ATOM     66  C   UNL     1      32.017  33.909  16.061  1.00  0.00     0.018 A 
ATOM     67  C   UNL     1      32.080  34.417  17.344  1.00  0.00     0.025 A 
ATOM     68  C   UNL     1      31.197  32.814  15.814  1.00  0.00     0.134 A 
ATOM     69  C   UNL     1      31.350  33.868  18.387  1.00  0.00     0.019 A 
ATOM     70  C   UNL     1      30.455  32.242  16.835  1.00  0.00     0.061 A 
ATOM     71  Br  UNL     1      31.469  34.601  20.139  1.00  0.00    -0.051 Br
ATOM     72  C   UNL     1      30.547  32.786  18.116  1.00  0.00     0.035 A 
ATOM     73  Br  UNL     1      29.347  30.756  16.474  1.00  0.00    -0.047 Br
BRANCH  68  74
ATOM     74  O   UNL     1      31.179  32.353  14.512  1.00  0.00    -0.506 OA
ATOM     75  H   UNL     1      31.903  31.729  14.198  1.00  0.00     0.293 HD
ENDBRANCH  68  74
ENDBRANCH  65  66
ENDBRANCH  63  65
ENDBRANCH  59  60
ENDBRANCH  58  59
ENDBRANCH  55  58
ENDBRANCH  53  54
ENDBRANCH  50  53
ENDBRANCH  47  50
ENDBRANCH   5  47
BRANCH   4  76
ATOM     76  N   UNL     1      24.606  39.501   7.546  1.00  0.00    -0.348 N 
ATOM     77  C   UNL     1      25.276  40.331   6.611  1.00  0.00     0.217 C 
ATOM     78  H   UNL     1      23.571  39.619   7.650  1.00  0.00     0.163 HD
ATOM     79  C   UNL     1      24.482  41.323   5.821  1.00  0.00     0.114 C 
ATOM     80  O   UNL     1      26.539  40.224   6.454  1.00  0.00    -0.275 OA
ENDBRANCH   4  76
TORSDOF 32
BEGIN_RES LYS A 131
REMARK  4 active torsions:
REMARK  status: ('A' for Active; 'I' for Inactive)
REMARK    1  A    between atoms: CA   and  CB  
REMARK    2  A    between atoms: CB   and  CG  
REMARK    3  A    between atoms: CG   and  CD  
REMARK    4  A    between atoms: CD   and  CE  
ROOT
ATOM      1  CA  LYS A 131      29.867  25.555  16.977  1.00 20.52     0.186 C 
ENDROOT
BRANCH   1   2
ATOM      2  CB  LYS A 131      28.345  25.722  17.026  1.00 20.94     0.034 C 
BRANCH   2   3
ATOM      3  CG  LYS A 131      27.602  24.399  16.919  1.00 22.96     0.005 C 
BRANCH   3   4
ATOM      4  CD  LYS A 131      26.143  24.541  17.255  1.00 24.33     0.041 C 
BRANCH   4   5
ATOM      5  CE  LYS A 131      25.763  23.514  18.317  1.00 26.91     0.338 C 
ATOM      6  NZ  LYS A 131      25.116  22.336  17.691  1.00 27.40     0.618 N 
ENDBRANCH   4   5
ENDBRANCH   3   4
ENDBRANCH   2   3
ENDBRANCH   1   2
END_RES LYS A 131
BEGIN_RES LYS A 135
REMARK  4 active torsions:
REMARK  status: ('A' for Active; 'I' for Inactive)
REMARK    5  A    between atoms: CA   and  CB  
REMARK    6  A    between atoms: CB   and  CG  
REMARK    7  A    between atoms: CG   and  CD  
REMARK    8  A    between atoms: CD   and  CE  
ROOT
ATOM      7  CA  LYS A 135      33.193  34.663   9.290  1.00 25.02     0.186 C 
ENDROOT
BRANCH   7   8
ATOM      8  CB  LYS A 135      32.060  35.360  10.034  1.00 26.63     0.034 C 
BRANCH   8   9
ATOM      9  CG  LYS A 135      30.715  34.714   9.824  1.00 29.45     0.005 C 
BRANCH   9  10
ATOM     10  CD  LYS A 135      30.461  34.471   8.345  1.00 32.00     0.041 C 
BRANCH  10  11
ATOM     11  CE  LYS A 135      29.152  35.107   7.917  1.00 34.25     0.338 C 
ATOM     12  NZ  LYS A 135      29.179  35.470   6.473  1.00 35.99     0.618 N 
ENDBRANCH  10  11
ENDBRANCH   9  10
ENDBRANCH   8   9
ENDBRANCH   7   8
END_RES LYS A 135
