REMARK VINA RESULT:    -4.563      6.311     11.137
REMARK INTER + INTRA:         -22.711
REMARK INTER:                 -12.739
REMARK INTRA:                  -9.972
REMARK UNBOUND:               -11.213
REMARK SMILES CC(=O)N[C@@H]1[C@@H](O)C[C@](OC[C@H]2O[C@@H](O[C@H]3[C@H](O)[C@@H](O)[C@H](OCCN=[N+]=[N-])O[C@@H]3CO)[C@H](O)[C@@H](O)[C@H]2O)(C(=O)O)O[C@H]1C(O)[C@H](O)CNC(=O)OCc1cn(CC2=CC[C@H]3C[C@@H]2C3(C)C)nn1
REMARK SMILES IDX 9 1 8 2 6 3 5 4 42 5 41 6 10 7 11 8 12 9 14 10 13 11 32 12
REMARK SMILES IDX 34 13 36 14 15 15 16 16 29 17 28 18 21 19 17 20 19 21 30 22
REMARK SMILES IDX 31 23 22 25 23 26 24 27 25 28 26 29 27 30 18 31 20 33 33 35
REMARK SMILES IDX 35 37 37 39 38 41 39 42 40 43 7 45 43 47 44 48 45 50 46 51
REMARK SMILES IDX 47 53 48 54 49 55 50 57 51 58 52 59 53 60 54 61 67 62 55 63
REMARK SMILES IDX 66 64 56 65 57 66 58 67 62 68 59 69 61 70 63 71 60 72 64 73
REMARK SMILES IDX 65 74 4 75 2 76 1 78 3 79
REMARK H PARENT 31 24 18 32 20 34 33 36 35 38 37 40 40 44 7 46 44 49 46 52
REMARK H PARENT 48 56 4 77
REMARK Flexibility Score: inf
ROOT
ATOM      1  C   UNL     1      29.829  31.122  21.771  1.00  0.00     0.272 C 
ATOM      2  C   UNL     1      29.142  30.689  23.025  1.00  0.00     0.113 C 
ATOM      3  C   UNL     1      30.165  30.547  24.166  1.00  0.00     0.145 C 
ATOM      4  C   UNL     1      31.163  29.494  23.846  1.00  0.00     0.142 C 
ATOM      5  C   UNL     1      31.034  29.199  22.365  1.00  0.00     0.178 C 
ATOM      6  O   UNL     1      31.012  30.322  21.620  1.00  0.00    -0.332 OA
ENDROOT
BRANCH   1   7
ATOM      7  O   UNL     1      30.273  32.368  21.723  1.00  0.00    -0.338 OA
BRANCH   7   8
ATOM      8  C   UNL     1      31.232  32.892  21.003  1.00  0.00     0.199 C 
BRANCH   8   9
ATOM      9  C   UNL     1      31.088  33.892  19.935  1.00  0.00     0.179 C 
ATOM     10  C   UNL     1      31.725  34.184  17.731  1.00  0.00     0.282 C 
ATOM     11  O   UNL     1      31.496  33.244  18.728  1.00  0.00    -0.341 OA
ATOM     12  C   UNL     1      30.749  35.270  17.640  1.00  0.00     0.202 C 
ATOM     13  C   UNL     1      29.694  35.391  18.667  1.00  0.00     0.179 C 
ATOM     14  C   UNL     1      29.617  34.203  19.593  1.00  0.00     0.177 C 
BRANCH  10  15
ATOM     15  O   UNL     1      31.711  33.433  16.539  1.00  0.00    -0.341 OA
BRANCH  15  16
ATOM     16  C   UNL     1      31.196  34.143  15.469  1.00  0.00     0.184 C 
ATOM     17  C   UNL     1      30.324  33.254  14.630  1.00  0.00     0.178 C 
ATOM     18  O   UNL     1      30.059  33.750  13.365  1.00  0.00    -0.341 OA
ATOM     19  C   UNL     1      30.426  35.043  13.131  1.00  0.00     0.281 C 
ATOM     20  C   UNL     1      32.387  34.538  14.590  1.00  0.00     0.180 C 
ATOM     21  C   UNL     1      31.881  35.323  13.418  1.00  0.00     0.202 C 
BRANCH  17  22
ATOM     22  C   UNL     1      28.995  33.063  15.371  1.00  0.00     0.191 C 
BRANCH  22  23
ATOM     23  O   UNL     1      29.164  32.037  16.289  1.00  0.00    -0.394 OA
ATOM     24  H   UNL     1      29.864  31.412  15.928  1.00  0.00     0.210 HD
ENDBRANCH  22  23
ENDBRANCH  17  22
BRANCH  19  25
ATOM     25  O   UNL     1      29.642  35.950  13.857  1.00  0.00    -0.350 OA
BRANCH  25  26
ATOM     26  C   UNL     1      28.621  36.495  13.077  1.00  0.00     0.169 C 
BRANCH  26  27
ATOM     27  C   UNL     1      28.888  38.002  13.050  1.00  0.00     0.119 C 
BRANCH  27  28
ATOM     28  N   UNL     1      29.438  38.368  11.762  1.00  0.00    -0.092 NA
ATOM     29  N   UNL     1      30.614  38.215  11.488  1.00  0.00     0.001 N 
ATOM     30  N   UNL     1      31.836  38.174  11.301  1.00  0.00    -0.003 NA
ENDBRANCH  27  28
ENDBRANCH  26  27
ENDBRANCH  25  26
ENDBRANCH  19  25
BRANCH  20  31
ATOM     31  O   UNL     1      33.264  35.358  15.323  1.00  0.00    -0.387 OA
ATOM     32  H   UNL     1      33.475  36.172  14.816  1.00  0.00     0.211 HD
ENDBRANCH  20  31
BRANCH  21  33
ATOM     33  O   UNL     1      32.649  35.130  12.271  1.00  0.00    -0.385 OA
ATOM     34  H   UNL     1      32.034  35.147  11.483  1.00  0.00     0.211 HD
ENDBRANCH  21  33
ENDBRANCH  15  16
ENDBRANCH  10  15
BRANCH  12  35
ATOM     35  O   UNL     1      31.477  36.490  17.631  1.00  0.00    -0.385 OA
ATOM     36  H   UNL     1      31.142  37.113  18.325  1.00  0.00     0.211 HD
ENDBRANCH  12  35
BRANCH  13  37
ATOM     37  O   UNL     1      28.452  35.715  18.112  1.00  0.00    -0.387 OA
ATOM     38  H   UNL     1      27.941  36.298  18.738  1.00  0.00     0.211 HD
ENDBRANCH  13  37
BRANCH  14  39
ATOM     39  O   UNL     1      29.133  33.113  18.841  1.00  0.00    -0.387 OA
ATOM     40  H   UNL     1      28.687  33.440  18.020  1.00  0.00     0.211 HD
ENDBRANCH  14  39
ENDBRANCH   8   9
ENDBRANCH   7   8
ENDBRANCH   1   7
BRANCH   1  41
ATOM     41  C   UNL     1      29.045  30.693  20.583  1.00  0.00     0.364 C 
ATOM     42  O   UNL     1      27.775  30.858  20.563  1.00  0.00    -0.246 OA
BRANCH  41  43
ATOM     43  O   UNL     1      29.594  30.116  19.488  1.00  0.00    -0.477 OA
ATOM     44  H   UNL     1      29.787  29.141  19.330  1.00  0.00     0.296 HD
ENDBRANCH  41  43
ENDBRANCH   1  41
BRANCH   3  45
ATOM     45  O   UNL     1      30.845  31.774  24.155  1.00  0.00    -0.391 OA
ATOM     46  H   UNL     1      30.835  32.132  25.077  1.00  0.00     0.211 HD
ENDBRANCH   3  45
BRANCH   5  47
ATOM     47  C   UNL     1      32.212  28.348  21.886  1.00  0.00     0.176 C 
BRANCH  47  48
ATOM     48  O   UNL     1      32.999  29.059  21.018  1.00  0.00    -0.388 OA
ATOM     49  H   UNL     1      33.247  28.572  20.183  1.00  0.00     0.211 HD
ENDBRANCH  47  48
BRANCH  47  50
ATOM     50  C   UNL     1      31.727  27.072  21.264  1.00  0.00     0.165 C 
BRANCH  50  51
ATOM     51  O   UNL     1      31.943  27.228  19.865  1.00  0.00    -0.388 OA
ATOM     52  H   UNL     1      32.523  26.436  19.638  1.00  0.00     0.211 HD
ENDBRANCH  50  51
BRANCH  50  53
ATOM     53  C   UNL     1      30.252  26.891  21.430  1.00  0.00     0.154 C 
BRANCH  53  54
ATOM     54  N   UNL     1      29.485  27.037  20.235  1.00  0.00    -0.319 N 
ATOM     55  C   UNL     1      28.101  27.325  20.304  1.00  0.00     0.407 C 
ATOM     56  H   UNL     1      29.963  26.937  19.305  1.00  0.00     0.167 HD
ATOM     57  O   UNL     1      27.545  27.451  21.403  1.00  0.00    -0.225 OA
BRANCH  55  58
ATOM     58  O   UNL     1      27.350  27.472  19.154  1.00  0.00    -0.443 OA
BRANCH  58  59
ATOM     59  C   UNL     1      26.209  28.246  18.998  1.00  0.00     0.294 C 
BRANCH  59  60
ATOM     60  C   UNL     1      26.161  29.034  17.732  1.00  0.00     0.120 A 
ATOM     61  C   UNL     1      25.164  29.060  16.786  1.00  0.00     0.138 A 
ATOM     62  N   UNL     1      27.117  29.895  17.283  1.00  0.00    -0.132 NA
ATOM     63  N   UNL     1      25.517  29.905  15.815  1.00  0.00    -0.248 N 
ATOM     64  N   UNL     1      26.698  30.394  16.139  1.00  0.00    -0.067 NA
BRANCH  63  65
ATOM     65  C   UNL     1      24.744  30.242  14.605  1.00  0.00     0.177 C 
BRANCH  65  66
ATOM     66  C   UNL     1      24.423  31.702  14.740  1.00  0.00    -0.049 C 
ATOM     67  C   UNL     1      23.494  32.123  15.623  1.00  0.00    -0.025 C 
ATOM     68  C   UNL     1      25.093  32.736  13.938  1.00  0.00     0.023 C 
ATOM     69  C   UNL     1      23.093  33.547  15.617  1.00  0.00     0.031 C 
ATOM     70  C   UNL     1      25.413  33.892  14.895  1.00  0.00     0.013 C 
ATOM     71  C   UNL     1      24.066  33.628  13.311  1.00  0.00    -0.026 C 
ATOM     72  C   UNL     1      23.960  34.330  14.672  1.00  0.00    -0.000 C 
ATOM     73  C   UNL     1      24.612  34.601  12.293  1.00  0.00     0.012 C 
ATOM     74  C   UNL     1      22.807  32.994  12.824  1.00  0.00     0.012 C 
ENDBRANCH  65  66
ENDBRANCH  63  65
ENDBRANCH  59  60
ENDBRANCH  58  59
ENDBRANCH  55  58
ENDBRANCH  53  54
ENDBRANCH  50  53
ENDBRANCH  47  50
ENDBRANCH   5  47
BRANCH   4  75
ATOM     75  N   UNL     1      31.052  28.263  24.547  1.00  0.00    -0.348 N 
ATOM     76  C   UNL     1      32.006  27.693  25.403  1.00  0.00     0.217 C 
ATOM     77  H   UNL     1      30.146  27.730  24.397  1.00  0.00     0.163 HD
ATOM     78  C   UNL     1      31.759  26.392  26.076  1.00  0.00     0.114 C 
ATOM     79  O   UNL     1      33.063  28.328  25.569  1.00  0.00    -0.275 OA
ENDBRANCH   4  75
TORSDOF 31
BEGIN_RES LYS A 131
REMARK  4 active torsions:
REMARK  status: ('A' for Active; 'I' for Inactive)
REMARK    1  A    between atoms: CA   and  CB  
REMARK    2  A    between atoms: CB   and  CG  
REMARK    3  A    between atoms: CG   and  CD  
REMARK    4  A    between atoms: CD   and  CE  
ROOT
ATOM      1  CA  LYS A 131      29.867  25.555  16.977  1.00 20.52     0.186 C 
ENDROOT
BRANCH   1   2
ATOM      2  CB  LYS A 131      28.345  25.722  17.026  1.00 20.94     0.034 C 
BRANCH   2   3
ATOM      3  CG  LYS A 131      27.601  24.403  16.888  1.00 22.96     0.005 C 
BRANCH   3   4
ATOM      4  CD  LYS A 131      26.600  24.199  17.992  1.00 24.33     0.041 C 
BRANCH   4   5
ATOM      5  CE  LYS A 131      25.198  24.117  17.398  1.00 26.91     0.338 C 
ATOM      6  NZ  LYS A 131      24.563  25.456  17.381  1.00 27.40     0.618 N 
ENDBRANCH   4   5
ENDBRANCH   3   4
ENDBRANCH   2   3
ENDBRANCH   1   2
END_RES LYS A 131
BEGIN_RES LYS A 135
REMARK  4 active torsions:
REMARK  status: ('A' for Active; 'I' for Inactive)
REMARK    5  A    between atoms: CA   and  CB  
REMARK    6  A    between atoms: CB   and  CG  
REMARK    7  A    between atoms: CG   and  CD  
REMARK    8  A    between atoms: CD   and  CE  
ROOT
ATOM      7  CA  LYS A 135      33.193  34.663   9.290  1.00 25.02     0.186 C 
ENDROOT
BRANCH   7   8
ATOM      8  CB  LYS A 135      32.060  35.360  10.034  1.00 26.63     0.034 C 
BRANCH   8   9
ATOM      9  CG  LYS A 135      30.775  35.426   9.250  1.00 29.45     0.005 C 
BRANCH   9  10
ATOM     10  CD  LYS A 135      30.181  34.037   9.075  1.00 32.00     0.041 C 
BRANCH  10  11
ATOM     11  CE  LYS A 135      28.672  34.080   9.225  1.00 34.25     0.338 C 
ATOM     12  NZ  LYS A 135      28.218  35.420   9.690  1.00 35.99     0.618 N 
ENDBRANCH  10  11
ENDBRANCH   9  10
ENDBRANCH   8   9
ENDBRANCH   7   8
END_RES LYS A 135
