REMARK VINA RESULT:    -4.691      3.980      8.634
REMARK INTER + INTRA:         -23.318
REMARK INTER:                  -9.288
REMARK INTRA:                 -14.029
REMARK UNBOUND:               -10.398
REMARK SMILES CC(=O)N[C@@H]1[C@@H](O)C[C@](OC[C@H]2O[C@@H](O[C@H]3[C@H](O)[C@@H](O)[C@H](OCCN=[N+]=[N-])O[C@@H]3CO)[C@H](O)[C@@H](O)[C@H]2O)(C(=O)O)O[C@H]1C(O)[C@H](O)CNC(=O)OCc1cn([C@@H](CCC(=O)O)C(=O)O)nn1
REMARK SMILES IDX 43 1 42 2 9 3 8 4 41 5 6 6 5 7 10 8 11 9 12 10 14 11 13 12
REMARK SMILES IDX 32 13 34 14 36 15 15 16 16 17 29 18 28 19 21 20 17 21 19 22
REMARK SMILES IDX 30 23 31 24 22 26 23 27 24 28 25 29 26 30 27 31 18 32 20 34
REMARK SMILES IDX 33 36 35 38 37 40 38 42 39 43 40 44 7 46 4 48 2 49 1 51 3 52
REMARK SMILES IDX 44 53 45 55 46 56 47 58 48 59 49 60 50 62 51 63 52 64 53 65
REMARK SMILES IDX 54 66 66 67 55 68 65 69 56 70 57 71 58 72 59 73 60 74 61 75
REMARK SMILES IDX 62 77 63 78 64 79
REMARK H PARENT 31 25 18 33 20 35 33 37 35 39 37 41 40 45 7 47 4 50 44 54
REMARK H PARENT 46 57 48 61 61 76 64 80
REMARK Flexibility Score: inf
ROOT
ATOM      1  C   UNL     1      24.854  31.287  18.794  1.00  0.00     0.176 C 
ENDROOT
BRANCH   1   2
ATOM      2  C   UNL     1      25.057  29.772  18.784  1.00  0.00     0.178 C 
ATOM      3  C   UNL     1      26.631  28.311  19.750  1.00  0.00     0.272 C 
ATOM      4  C   UNL     1      27.100  27.764  18.462  1.00  0.00     0.113 C 
ATOM      5  O   UNL     1      26.266  29.645  19.467  1.00  0.00    -0.332 OA
ATOM      6  C   UNL     1      26.631  28.581  17.289  1.00  0.00     0.145 C 
ATOM      7  C   UNL     1      25.297  29.225  17.405  1.00  0.00     0.142 C 
BRANCH   3   8
ATOM      8  O   UNL     1      27.652  28.389  20.675  1.00  0.00    -0.338 OA
BRANCH   8   9
ATOM      9  C   UNL     1      28.929  28.307  20.409  1.00  0.00     0.199 C 
BRANCH   9  10
ATOM     10  C   UNL     1      29.844  29.495  20.295  1.00  0.00     0.179 C 
ATOM     11  C   UNL     1      29.630  31.525  19.166  1.00  0.00     0.282 C 
ATOM     12  O   UNL     1      29.704  30.158  19.110  1.00  0.00    -0.341 OA
ATOM     13  C   UNL     1      28.440  31.907  20.020  1.00  0.00     0.202 C 
ATOM     14  C   UNL     1      28.688  31.447  21.420  1.00  0.00     0.179 C 
ATOM     15  C   UNL     1      29.725  30.386  21.526  1.00  0.00     0.177 C 
BRANCH  11  16
ATOM     16  O   UNL     1      29.421  32.011  17.874  1.00  0.00    -0.341 OA
BRANCH  16  17
ATOM     17  C   UNL     1      30.546  32.453  17.226  1.00  0.00     0.184 C 
ATOM     18  C   UNL     1      30.608  33.977  17.181  1.00  0.00     0.178 C 
ATOM     19  O   UNL     1      30.603  34.392  15.852  1.00  0.00    -0.341 OA
ATOM     20  C   UNL     1      29.327  34.140  15.274  1.00  0.00     0.281 C 
ATOM     21  C   UNL     1      30.459  31.970  15.792  1.00  0.00     0.180 C 
ATOM     22  C   UNL     1      29.218  32.649  15.176  1.00  0.00     0.202 C 
BRANCH  18  23
ATOM     23  C   UNL     1      31.915  34.446  17.796  1.00  0.00     0.191 C 
BRANCH  23  24
ATOM     24  O   UNL     1      32.619  35.277  16.945  1.00  0.00    -0.394 OA
ATOM     25  H   UNL     1      32.785  36.169  17.348  1.00  0.00     0.210 HD
ENDBRANCH  23  24
ENDBRANCH  18  23
BRANCH  20  26
ATOM     26  O   UNL     1      29.279  34.829  14.097  1.00  0.00    -0.350 OA
BRANCH  26  27
ATOM     27  C   UNL     1      30.012  35.981  14.051  1.00  0.00     0.169 C 
BRANCH  27  28
ATOM     28  C   UNL     1      30.813  36.157  12.777  1.00  0.00     0.119 C 
BRANCH  28  29
ATOM     29  N   UNL     1      32.229  36.323  13.036  1.00  0.00    -0.092 NA
ATOM     30  N   UNL     1      32.908  35.517  13.664  1.00  0.00     0.001 N 
ATOM     31  N   UNL     1      33.526  34.585  14.131  1.00  0.00    -0.003 NA
ENDBRANCH  28  29
ENDBRANCH  27  28
ENDBRANCH  26  27
ENDBRANCH  20  26
BRANCH  21  32
ATOM     32  O   UNL     1      31.595  32.273  15.053  1.00  0.00    -0.387 OA
ATOM     33  H   UNL     1      31.562  33.199  14.656  1.00  0.00     0.211 HD
ENDBRANCH  21  32
BRANCH  22  34
ATOM     34  O   UNL     1      28.161  32.260  16.035  1.00  0.00    -0.385 OA
ATOM     35  H   UNL     1      28.208  32.837  16.840  1.00  0.00     0.211 HD
ENDBRANCH  22  34
ENDBRANCH  16  17
ENDBRANCH  11  16
BRANCH  13  36
ATOM     36  O   UNL     1      28.232  33.287  19.983  1.00  0.00    -0.385 OA
ATOM     37  H   UNL     1      28.989  33.662  19.429  1.00  0.00     0.211 HD
ENDBRANCH  13  36
BRANCH  14  38
ATOM     38  O   UNL     1      27.513  31.045  22.062  1.00  0.00    -0.387 OA
ATOM     39  H   UNL     1      27.222  30.164  21.682  1.00  0.00     0.211 HD
ENDBRANCH  14  38
BRANCH  15  40
ATOM     40  O   UNL     1      29.371  29.585  22.614  1.00  0.00    -0.387 OA
ATOM     41  H   UNL     1      28.395  29.483  22.674  1.00  0.00     0.211 HD
ENDBRANCH  15  40
ENDBRANCH   9  10
ENDBRANCH   8   9
ENDBRANCH   3   8
BRANCH   3  42
ATOM     42  C   UNL     1      25.501  27.666  20.406  1.00  0.00     0.364 C 
ATOM     43  O   UNL     1      25.221  28.024  21.608  1.00  0.00    -0.246 OA
BRANCH  42  44
ATOM     44  O   UNL     1      24.658  26.690  19.911  1.00  0.00    -0.477 OA
ATOM     45  H   UNL     1      24.998  25.868  19.470  1.00  0.00     0.296 HD
ENDBRANCH  42  44
ENDBRANCH   3  42
BRANCH   6  46
ATOM     46  O   UNL     1      27.565  29.644  17.139  1.00  0.00    -0.391 OA
ATOM     47  H   UNL     1      28.324  29.370  16.563  1.00  0.00     0.211 HD
ENDBRANCH   6  46
BRANCH   7  48
ATOM     48  N   UNL     1      24.336  28.326  16.868  1.00  0.00    -0.348 N 
ATOM     49  C   UNL     1      23.494  28.624  15.769  1.00  0.00     0.217 C 
ATOM     50  H   UNL     1      24.216  27.369  17.254  1.00  0.00     0.163 HD
ATOM     51  C   UNL     1      22.494  27.623  15.254  1.00  0.00     0.114 C 
ATOM     52  O   UNL     1      23.563  29.715  15.207  1.00  0.00    -0.275 OA
ENDBRANCH   7  48
ENDBRANCH   1   2
BRANCH   1  53
ATOM     53  O   UNL     1      25.715  31.873  17.875  1.00  0.00    -0.388 OA
ATOM     54  H   UNL     1      25.482  32.832  17.755  1.00  0.00     0.211 HD
ENDBRANCH   1  53
BRANCH   1  55
ATOM     55  C   UNL     1      24.919  31.957  20.086  1.00  0.00     0.165 C 
BRANCH  55  56
ATOM     56  O   UNL     1      24.555  31.015  21.095  1.00  0.00    -0.388 OA
ATOM     57  H   UNL     1      25.215  30.283  21.068  1.00  0.00     0.211 HD
ENDBRANCH  55  56
BRANCH  55  58
ATOM     58  C   UNL     1      24.020  33.134  20.322  1.00  0.00     0.154 C 
BRANCH  58  59
ATOM     59  N   UNL     1      24.411  34.311  19.583  1.00  0.00    -0.319 N 
ATOM     60  C   UNL     1      25.400  35.235  20.033  1.00  0.00     0.407 C 
ATOM     61  H   UNL     1      23.951  34.514  18.682  1.00  0.00     0.167 HD
ATOM     62  O   UNL     1      25.982  35.065  21.103  1.00  0.00    -0.225 OA
BRANCH  60  63
ATOM     63  O   UNL     1      25.681  36.318  19.238  1.00  0.00    -0.443 OA
BRANCH  63  64
ATOM     64  C   UNL     1      26.756  36.372  18.346  1.00  0.00     0.294 C 
BRANCH  64  65
ATOM     65  C   UNL     1      26.371  35.735  17.063  1.00  0.00     0.120 A 
ATOM     66  C   UNL     1      26.104  36.320  15.843  1.00  0.00     0.139 A 
ATOM     67  N   UNL     1      26.187  34.401  16.869  1.00  0.00    -0.132 NA
ATOM     68  N   UNL     1      25.769  35.344  14.950  1.00  0.00    -0.238 N 
ATOM     69  N   UNL     1      25.833  34.191  15.619  1.00  0.00    -0.066 NA
BRANCH  68  70
ATOM     70  C   UNL     1      25.447  35.525  13.583  1.00  0.00     0.219 C 
BRANCH  70  71
ATOM     71  C   UNL     1      25.563  34.381  12.645  1.00  0.00     0.051 C 
BRANCH  71  72
ATOM     72  C   UNL     1      26.287  34.542  11.374  1.00  0.00     0.125 C 
BRANCH  72  73
ATOM     73  C   UNL     1      26.482  35.864  10.818  1.00  0.00     0.303 C 
ATOM     74  O   UNL     1      25.715  36.526  10.096  1.00  0.00    -0.252 OA
BRANCH  73  75
ATOM     75  O   UNL     1      27.703  36.553  11.106  1.00  0.00    -0.481 OA
ATOM     76  H   UNL     1      27.716  37.229  11.853  1.00  0.00     0.296 HD
ENDBRANCH  73  75
ENDBRANCH  72  73
ENDBRANCH  71  72
ENDBRANCH  70  71
BRANCH  70  77
ATOM     77  C   UNL     1      24.053  36.064  13.491  1.00  0.00     0.328 C 
ATOM     78  O   UNL     1      23.843  37.194  13.010  1.00  0.00    -0.250 OA
BRANCH  77  79
ATOM     79  O   UNL     1      22.960  35.339  13.930  1.00  0.00    -0.480 OA
ATOM     80  H   UNL     1      22.081  35.324  13.410  1.00  0.00     0.296 HD
ENDBRANCH  77  79
ENDBRANCH  70  77
ENDBRANCH  68  70
ENDBRANCH  64  65
ENDBRANCH  63  64
ENDBRANCH  60  63
ENDBRANCH  58  59
ENDBRANCH  55  58
ENDBRANCH   1  55
TORSDOF 36
BEGIN_RES LYS A 131
REMARK  4 active torsions:
REMARK  status: ('A' for Active; 'I' for Inactive)
REMARK    1  A    between atoms: CA   and  CB  
REMARK    2  A    between atoms: CB   and  CG  
REMARK    3  A    between atoms: CG   and  CD  
REMARK    4  A    between atoms: CD   and  CE  
ROOT
ATOM      1  CA  LYS A 131      29.867  25.555  16.977  1.00 20.52     0.186 C 
ENDROOT
BRANCH   1   2
ATOM      2  CB  LYS A 131      28.345  25.722  17.026  1.00 20.94     0.034 C 
BRANCH   2   3
ATOM      3  CG  LYS A 131      27.599  24.421  16.771  1.00 22.96     0.005 C 
BRANCH   3   4
ATOM      4  CD  LYS A 131      26.918  23.906  18.008  1.00 24.33     0.041 C 
BRANCH   4   5
ATOM      5  CE  LYS A 131      25.527  23.395  17.648  1.00 26.91     0.338 C 
ATOM      6  NZ  LYS A 131      24.779  24.421  16.884  1.00 27.40     0.618 N 
ENDBRANCH   4   5
ENDBRANCH   3   4
ENDBRANCH   2   3
ENDBRANCH   1   2
END_RES LYS A 131
BEGIN_RES LYS A 135
REMARK  4 active torsions:
REMARK  status: ('A' for Active; 'I' for Inactive)
REMARK    5  A    between atoms: CA   and  CB  
REMARK    6  A    between atoms: CB   and  CG  
REMARK    7  A    between atoms: CG   and  CD  
REMARK    8  A    between atoms: CD   and  CE  
ROOT
ATOM      7  CA  LYS A 135      33.193  34.663   9.290  1.00 25.02     0.186 C 
ENDROOT
BRANCH   7   8
ATOM      8  CB  LYS A 135      32.060  35.360  10.034  1.00 26.63     0.034 C 
BRANCH   8   9
ATOM      9  CG  LYS A 135      30.790  35.472   9.230  1.00 29.45     0.005 C 
BRANCH   9  10
ATOM     10  CD  LYS A 135      30.266  34.093   8.860  1.00 32.00     0.041 C 
BRANCH  10  11
ATOM     11  CE  LYS A 135      28.760  34.124   8.686  1.00 34.25     0.338 C 
ATOM     12  NZ  LYS A 135      28.354  35.184   7.721  1.00 35.99     0.618 N 
ENDBRANCH  10  11
ENDBRANCH   9  10
ENDBRANCH   8   9
ENDBRANCH   7   8
END_RES LYS A 135
