REMARK VINA RESULT:    -4.922      2.450      5.864
REMARK INTER + INTRA:         -21.827
REMARK INTER:                 -10.357
REMARK INTRA:                 -11.471
REMARK UNBOUND:                -9.712
REMARK SMILES CC(=O)N[C@@H]1[C@@H](O)C[C@](OC[C@H]2O[C@@H](O[C@H]3[C@H](O)[C@@H](O)[C@H](OCCN=[N+]=[N-])O[C@@H]3CO)[C@H](O)[C@@H](O)[C@H]2O)(C(=O)O)O[C@H]1C(O)[C@H](O)CNC(=O)OCc1cn(C2CCCCC2)nn1
REMARK SMILES IDX 9 1 8 2 6 3 5 4 42 5 41 6 10 7 11 8 12 9 14 10 13 11 32 12
REMARK SMILES IDX 34 13 36 14 15 15 16 16 29 17 28 18 21 19 17 20 19 21 30 22
REMARK SMILES IDX 31 23 22 25 23 26 24 27 25 28 26 29 27 30 18 31 20 33 33 35
REMARK SMILES IDX 35 37 37 39 38 41 39 42 40 43 7 45 43 47 44 48 45 50 46 51
REMARK SMILES IDX 47 53 48 54 49 55 50 57 51 58 52 59 53 60 54 61 63 62 55 63
REMARK SMILES IDX 62 64 56 65 57 66 61 67 58 68 60 69 59 70 4 71 2 72 1 74
REMARK SMILES IDX 3 75
REMARK H PARENT 31 24 18 32 20 34 33 36 35 38 37 40 40 44 7 46 44 49 46 52
REMARK H PARENT 48 56 4 73
REMARK Flexibility Score: inf
ROOT
ATOM      1  C   UNL     1      30.603  33.562  15.748  1.00  0.00     0.272 C 
ATOM      2  C   UNL     1      31.211  32.112  15.676  1.00  0.00     0.113 C 
ATOM      3  C   UNL     1      30.193  31.124  16.157  1.00  0.00     0.145 C 
ATOM      4  C   UNL     1      29.714  31.471  17.542  1.00  0.00     0.142 C 
ATOM      5  C   UNL     1      29.564  32.935  17.772  1.00  0.00     0.178 C 
ATOM      6  O   UNL     1      30.127  33.822  16.978  1.00  0.00    -0.332 OA
ENDROOT
BRANCH   1   7
ATOM      7  O   UNL     1      29.671  33.543  14.806  1.00  0.00    -0.338 OA
BRANCH   7   8
ATOM      8  C   UNL     1      29.302  34.346  13.866  1.00  0.00     0.199 C 
BRANCH   8   9
ATOM      9  C   UNL     1      28.987  35.812  14.116  1.00  0.00     0.179 C 
ATOM     10  C   UNL     1      27.513  37.049  12.776  1.00  0.00     0.282 C 
ATOM     11  O   UNL     1      28.779  36.509  12.969  1.00  0.00    -0.341 OA
ATOM     12  C   UNL     1      27.140  37.876  13.948  1.00  0.00     0.202 C 
ATOM     13  C   UNL     1      27.322  37.176  15.273  1.00  0.00     0.179 C 
ATOM     14  C   UNL     1      27.781  35.786  15.049  1.00  0.00     0.177 C 
BRANCH  10  15
ATOM     15  O   UNL     1      26.700  36.052  12.379  1.00  0.00    -0.341 OA
BRANCH  15  16
ATOM     16  C   UNL     1      26.007  36.151  11.217  1.00  0.00     0.184 C 
ATOM     17  C   UNL     1      25.041  34.987  11.150  1.00  0.00     0.178 C 
ATOM     18  O   UNL     1      24.094  35.143  10.156  1.00  0.00    -0.341 OA
ATOM     19  C   UNL     1      24.491  35.932   9.110  1.00  0.00     0.281 C 
ATOM     20  C   UNL     1      26.864  36.018   9.976  1.00  0.00     0.180 C 
ATOM     21  C   UNL     1      25.937  35.785   8.806  1.00  0.00     0.202 C 
BRANCH  17  22
ATOM     22  C   UNL     1      24.443  34.623  12.479  1.00  0.00     0.191 C 
BRANCH  22  23
ATOM     23  O   UNL     1      25.119  33.497  12.950  1.00  0.00    -0.394 OA
ATOM     24  H   UNL     1      25.680  33.081  12.253  1.00  0.00     0.210 HD
ENDBRANCH  22  23
ENDBRANCH  17  22
BRANCH  19  25
ATOM     25  O   UNL     1      24.031  37.209   9.297  1.00  0.00    -0.350 OA
BRANCH  25  26
ATOM     26  C   UNL     1      24.121  38.022   8.178  1.00  0.00     0.169 C 
BRANCH  26  27
ATOM     27  C   UNL     1      24.722  39.374   8.453  1.00  0.00     0.119 C 
BRANCH  27  28
ATOM     28  N   UNL     1      26.157  39.276   8.279  1.00  0.00    -0.092 NA
ATOM     29  N   UNL     1      26.578  39.431   7.125  1.00  0.00     0.001 N 
ATOM     30  N   UNL     1      27.055  39.041   6.044  1.00  0.00    -0.003 NA
ENDBRANCH  27  28
ENDBRANCH  26  27
ENDBRANCH  25  26
ENDBRANCH  19  25
BRANCH  20  31
ATOM     31  O   UNL     1      27.629  37.128   9.709  1.00  0.00    -0.387 OA
ATOM     32  H   UNL     1      27.100  37.900   9.389  1.00  0.00     0.211 HD
ENDBRANCH  20  31
BRANCH  21  33
ATOM     33  O   UNL     1      26.137  34.438   8.416  1.00  0.00    -0.385 OA
ATOM     34  H   UNL     1      26.342  33.876   9.203  1.00  0.00     0.211 HD
ENDBRANCH  21  33
ENDBRANCH  15  16
ENDBRANCH  10  15
BRANCH  12  35
ATOM     35  O   UNL     1      28.047  38.968  13.960  1.00  0.00    -0.385 OA
ATOM     36  H   UNL     1      27.586  39.821  13.802  1.00  0.00     0.211 HD
ENDBRANCH  12  35
BRANCH  13  37
ATOM     37  O   UNL     1      26.122  37.173  16.012  1.00  0.00    -0.387 OA
ATOM     38  H   UNL     1      25.378  37.238  15.393  1.00  0.00     0.211 HD
ENDBRANCH  13  37
BRANCH  14  39
ATOM     39  O   UNL     1      26.831  34.867  14.697  1.00  0.00    -0.387 OA
ATOM     40  H   UNL     1      26.743  34.217  15.433  1.00  0.00     0.211 HD
ENDBRANCH  14  39
ENDBRANCH   8   9
ENDBRANCH   7   8
ENDBRANCH   1   7
BRANCH   1  41
ATOM     41  C   UNL     1      31.813  34.432  15.543  1.00  0.00     0.364 C 
ATOM     42  O   UNL     1      32.747  34.162  14.798  1.00  0.00    -0.246 OA
BRANCH  41  43
ATOM     43  O   UNL     1      31.914  35.653  16.239  1.00  0.00    -0.477 OA
ATOM     44  H   UNL     1      31.693  36.521  15.778  1.00  0.00     0.296 HD
ENDBRANCH  41  43
ENDBRANCH   1  41
BRANCH   3  45
ATOM     45  O   UNL     1      29.144  30.990  15.256  1.00  0.00    -0.391 OA
ATOM     46  H   UNL     1      29.298  31.645  14.516  1.00  0.00     0.211 HD
ENDBRANCH   3  45
BRANCH   5  47
ATOM     47  C   UNL     1      28.051  33.302  17.860  1.00  0.00     0.176 C 
BRANCH  47  48
ATOM     48  O   UNL     1      27.317  32.118  18.067  1.00  0.00    -0.388 OA
ATOM     49  H   UNL     1      27.372  31.815  18.995  1.00  0.00     0.211 HD
ENDBRANCH  47  48
BRANCH  47  50
ATOM     50  C   UNL     1      27.790  34.317  18.920  1.00  0.00     0.165 C 
BRANCH  50  51
ATOM     51  O   UNL     1      27.820  33.625  20.153  1.00  0.00    -0.388 OA
ATOM     52  H   UNL     1      27.056  33.855  20.716  1.00  0.00     0.211 HD
ENDBRANCH  50  51
BRANCH  50  53
ATOM     53  C   UNL     1      26.490  35.028  18.866  1.00  0.00     0.154 C 
BRANCH  53  54
ATOM     54  N   UNL     1      25.732  34.860  17.654  1.00  0.00    -0.319 N 
ATOM     55  C   UNL     1      24.438  34.275  17.618  1.00  0.00     0.407 C 
ATOM     56  H   UNL     1      26.140  35.182  16.759  1.00  0.00     0.167 HD
ATOM     57  O   UNL     1      23.900  33.875  18.681  1.00  0.00    -0.225 OA
BRANCH  55  58
ATOM     58  O   UNL     1      23.741  34.127  16.452  1.00  0.00    -0.443 OA
BRANCH  58  59
ATOM     59  C   UNL     1      23.259  32.923  15.904  1.00  0.00     0.294 C 
BRANCH  59  60
ATOM     60  C   UNL     1      24.340  31.915  15.940  1.00  0.00     0.120 A 
ATOM     61  C   UNL     1      24.234  30.737  16.624  1.00  0.00     0.138 A 
ATOM     62  N   UNL     1      25.549  31.934  15.369  1.00  0.00    -0.132 NA
ATOM     63  N   UNL     1      25.387  30.047  16.460  1.00  0.00    -0.249 N 
ATOM     64  N   UNL     1      26.169  30.801  15.691  1.00  0.00    -0.067 NA
BRANCH  63  65
ATOM     65  C   UNL     1      25.691  28.747  17.025  1.00  0.00     0.109 C 
ATOM     66  C   UNL     1      24.950  28.692  18.357  1.00  0.00     0.027 C 
ATOM     67  C   UNL     1      27.173  28.625  17.299  1.00  0.00     0.027 C 
ATOM     68  C   UNL     1      25.147  27.308  18.977  1.00  0.00     0.002 C 
ATOM     69  C   UNL     1      27.468  28.196  18.721  1.00  0.00     0.002 C 
ATOM     70  C   UNL     1      26.610  27.029  19.107  1.00  0.00     0.000 C 
ENDBRANCH  63  65
ENDBRANCH  59  60
ENDBRANCH  58  59
ENDBRANCH  55  58
ENDBRANCH  53  54
ENDBRANCH  50  53
ENDBRANCH  47  50
ENDBRANCH   5  47
BRANCH   4  71
ATOM     71  N   UNL     1      30.473  30.791  18.558  1.00  0.00    -0.348 N 
ATOM     72  C   UNL     1      30.023  30.555  19.868  1.00  0.00     0.217 C 
ATOM     73  H   UNL     1      31.456  30.418  18.356  1.00  0.00     0.163 HD
ATOM     74  C   UNL     1      30.864  29.825  20.876  1.00  0.00     0.114 C 
ATOM     75  O   UNL     1      28.917  30.938  20.249  1.00  0.00    -0.275 OA
ENDBRANCH   4  71
TORSDOF 30
BEGIN_RES LYS A 131
REMARK  4 active torsions:
REMARK  status: ('A' for Active; 'I' for Inactive)
REMARK    1  A    between atoms: CA   and  CB  
REMARK    2  A    between atoms: CB   and  CG  
REMARK    3  A    between atoms: CG   and  CD  
REMARK    4  A    between atoms: CD   and  CE  
ROOT
ATOM      1  CA  LYS A 131      29.867  25.555  16.977  1.00 20.52     0.186 C 
ENDROOT
BRANCH   1   2
ATOM      2  CB  LYS A 131      28.345  25.722  17.026  1.00 20.94     0.034 C 
BRANCH   2   3
ATOM      3  CG  LYS A 131      27.599  24.459  16.623  1.00 22.96     0.005 C 
BRANCH   3   4
ATOM      4  CD  LYS A 131      27.009  23.747  17.808  1.00 24.33     0.041 C 
BRANCH   4   5
ATOM      5  CE  LYS A 131      25.632  23.204  17.443  1.00 26.91     0.338 C 
ATOM      6  NZ  LYS A 131      24.768  24.290  16.921  1.00 27.40     0.618 N 
ENDBRANCH   4   5
ENDBRANCH   3   4
ENDBRANCH   2   3
ENDBRANCH   1   2
END_RES LYS A 131
BEGIN_RES LYS A 135
REMARK  4 active torsions:
REMARK  status: ('A' for Active; 'I' for Inactive)
REMARK    5  A    between atoms: CA   and  CB  
REMARK    6  A    between atoms: CB   and  CG  
REMARK    7  A    between atoms: CG   and  CD  
REMARK    8  A    between atoms: CD   and  CE  
ROOT
ATOM      7  CA  LYS A 135      33.193  34.663   9.290  1.00 25.02     0.186 C 
ENDROOT
BRANCH   7   8
ATOM      8  CB  LYS A 135      32.060  35.360  10.034  1.00 26.63     0.034 C 
BRANCH   8   9
ATOM      9  CG  LYS A 135      30.688  34.947   9.566  1.00 29.45     0.005 C 
BRANCH   9  10
ATOM     10  CD  LYS A 135      30.288  35.726   8.323  1.00 32.00     0.041 C 
BRANCH  10  11
ATOM     11  CE  LYS A 135      29.350  34.905   7.459  1.00 34.25     0.338 C 
ATOM     12  NZ  LYS A 135      28.708  35.749   6.413  1.00 35.99     0.618 N 
ENDBRANCH  10  11
ENDBRANCH   9  10
ENDBRANCH   8   9
ENDBRANCH   7   8
END_RES LYS A 135
