REMARK VINA RESULT:    -4.021      5.311     10.066
REMARK INTER + INTRA:         -23.316
REMARK INTER:                 -10.318
REMARK INTRA:                 -12.999
REMARK UNBOUND:               -13.184
REMARK SMILES CC(=O)N[C@@H]1[C@@H](O)C[C@](OC[C@H]2O[C@@H](O[C@H]3[C@H](O)[C@@H](O)[C@H](OCCN=[N+]=[N-])O[C@@H]3CO)[C@H](O)[C@@H](O)[C@H]2O)(C(=O)O)O[C@H]1C(O)[C@H](O)CNC(=O)OCc1cn(-c2cc(Cl)ccc2C(=O)N(C)C)nn1
REMARK SMILES IDX 9 1 8 2 6 3 5 4 42 5 41 6 10 7 11 8 12 9 14 10 13 11 32 12
REMARK SMILES IDX 34 13 36 14 15 15 16 16 29 17 28 18 21 19 17 20 19 21 30 22
REMARK SMILES IDX 31 23 22 25 23 26 24 27 25 28 26 29 27 30 18 31 20 33 33 35
REMARK SMILES IDX 35 37 37 39 38 41 39 42 40 43 7 45 43 47 44 48 45 50 46 51
REMARK SMILES IDX 47 53 48 54 49 55 50 57 51 58 52 59 53 60 54 61 69 62 55 63
REMARK SMILES IDX 68 64 56 65 57 66 62 67 58 68 61 69 59 70 60 71 63 72 64 73
REMARK SMILES IDX 65 74 66 75 67 76 4 77 2 78 1 80 3 81
REMARK H PARENT 31 24 18 32 20 34 33 36 35 38 37 40 40 44 7 46 44 49 46 52
REMARK H PARENT 48 56 4 79
REMARK Flexibility Score: inf
ROOT
ATOM      1  C   UNL     1      23.671  37.802   8.861  1.00  0.00     0.272 C 
ATOM      2  C   UNL     1      24.565  36.661   8.552  1.00  0.00     0.113 C 
ATOM      3  C   UNL     1      24.955  35.946   9.821  1.00  0.00     0.145 C 
ATOM      4  C   UNL     1      25.659  36.961  10.690  1.00  0.00     0.142 C 
ATOM      5  C   UNL     1      24.824  38.150  10.920  1.00  0.00     0.178 C 
ATOM      6  O   UNL     1      23.854  38.475  10.027  1.00  0.00    -0.332 OA
ENDROOT
BRANCH   1   7
ATOM      7  O   UNL     1      22.336  37.434   8.815  1.00  0.00    -0.338 OA
BRANCH   7   8
ATOM      8  C   UNL     1      21.963  36.440   7.981  1.00  0.00     0.199 C 
BRANCH   8   9
ATOM      9  C   UNL     1      20.799  35.655   8.606  1.00  0.00     0.179 C 
ATOM     10  C   UNL     1      19.035  36.126  10.015  1.00  0.00     0.282 C 
ATOM     11  O   UNL     1      20.454  36.258   9.780  1.00  0.00    -0.341 OA
ATOM     12  C   UNL     1      18.672  34.696   9.689  1.00  0.00     0.202 C 
ATOM     13  C   UNL     1      18.758  34.431   8.201  1.00  0.00     0.179 C 
ATOM     14  C   UNL     1      19.760  35.399   7.597  1.00  0.00     0.177 C 
BRANCH  10  15
ATOM     15  O   UNL     1      18.457  37.063   9.270  1.00  0.00    -0.341 OA
BRANCH  15  16
ATOM     16  C   UNL     1      17.918  38.215   9.815  1.00  0.00     0.184 C 
ATOM     17  C   UNL     1      19.018  39.226   9.835  1.00  0.00     0.178 C 
ATOM     18  O   UNL     1      18.558  40.430  10.396  1.00  0.00    -0.341 OA
ATOM     19  C   UNL     1      18.537  40.099  11.795  1.00  0.00     0.281 C 
ATOM     20  C   UNL     1      17.415  37.954  11.211  1.00  0.00     0.180 C 
ATOM     21  C   UNL     1      17.378  39.204  12.035  1.00  0.00     0.202 C 
BRANCH  17  22
ATOM     22  C   UNL     1      19.555  39.485   8.443  1.00  0.00     0.191 C 
BRANCH  22  23
ATOM     23  O   UNL     1      18.564  39.196   7.529  1.00  0.00    -0.394 OA
ATOM     24  H   UNL     1      18.011  40.000   7.363  1.00  0.00     0.210 HD
ENDBRANCH  22  23
ENDBRANCH  17  22
BRANCH  19  25
ATOM     25  O   UNL     1      18.512  41.245  12.490  1.00  0.00    -0.350 OA
BRANCH  25  26
ATOM     26  C   UNL     1      19.659  41.536  13.209  1.00  0.00     0.169 C 
BRANCH  26  27
ATOM     27  C   UNL     1      20.752  42.175  12.378  1.00  0.00     0.119 C 
BRANCH  27  28
ATOM     28  N   UNL     1      21.875  41.276  12.223  1.00  0.00    -0.092 NA
ATOM     29  N   UNL     1      22.704  41.460  11.338  1.00  0.00     0.001 N 
ATOM     30  N   UNL     1      23.485  41.856  10.449  1.00  0.00    -0.003 NA
ENDBRANCH  27  28
ENDBRANCH  26  27
ENDBRANCH  25  26
ENDBRANCH  19  25
BRANCH  20  31
ATOM     31  O   UNL     1      16.115  37.435  11.201  1.00  0.00    -0.387 OA
ATOM     32  H   UNL     1      15.709  37.491  12.116  1.00  0.00     0.211 HD
ENDBRANCH  20  31
BRANCH  21  33
ATOM     33  O   UNL     1      17.325  38.852  13.382  1.00  0.00    -0.385 OA
ATOM     34  H   UNL     1      17.200  37.891  13.533  1.00  0.00     0.211 HD
ENDBRANCH  21  33
ENDBRANCH  15  16
ENDBRANCH  10  15
BRANCH  12  35
ATOM     35  O   UNL     1      19.653  33.889  10.301  1.00  0.00    -0.385 OA
ATOM     36  H   UNL     1      19.283  32.979  10.532  1.00  0.00     0.211 HD
ENDBRANCH  12  35
BRANCH  13  37
ATOM     37  O   UNL     1      17.571  34.553   7.529  1.00  0.00    -0.387 OA
ATOM     38  H   UNL     1      17.654  34.996   6.651  1.00  0.00     0.211 HD
ENDBRANCH  13  37
BRANCH  14  39
ATOM     39  O   UNL     1      19.204  36.467   6.952  1.00  0.00    -0.387 OA
ATOM     40  H   UNL     1      18.701  37.086   7.525  1.00  0.00     0.211 HD
ENDBRANCH  14  39
ENDBRANCH   8   9
ENDBRANCH   7   8
ENDBRANCH   1   7
BRANCH   1  41
ATOM     41  C   UNL     1      23.799  38.823   7.714  1.00  0.00     0.364 C 
ATOM     42  O   UNL     1      22.931  39.724   7.688  1.00  0.00    -0.246 OA
BRANCH  41  43
ATOM     43  O   UNL     1      24.778  38.777   6.773  1.00  0.00    -0.477 OA
ATOM     44  H   UNL     1      25.702  39.135   6.874  1.00  0.00     0.296 HD
ENDBRANCH  41  43
ENDBRANCH   1  41
BRANCH   3  45
ATOM     45  O   UNL     1      23.857  35.363  10.385  1.00  0.00    -0.391 OA
ATOM     46  H   UNL     1      22.988  35.625  10.064  1.00  0.00     0.211 HD
ENDBRANCH   3  45
BRANCH   5  47
ATOM     47  C   UNL     1      24.178  38.238  12.297  1.00  0.00     0.176 C 
BRANCH  47  48
ATOM     48  O   UNL     1      22.812  38.182  12.293  1.00  0.00    -0.388 OA
ATOM     49  H   UNL     1      22.383  38.362  13.171  1.00  0.00     0.211 HD
ENDBRANCH  47  48
BRANCH  47  50
ATOM     50  C   UNL     1      24.738  37.336  13.334  1.00  0.00     0.165 C 
BRANCH  50  51
ATOM     51  O   UNL     1      24.066  36.092  13.387  1.00  0.00    -0.388 OA
ATOM     52  H   UNL     1      24.255  35.551  12.584  1.00  0.00     0.211 HD
ENDBRANCH  50  51
BRANCH  50  53
ATOM     53  C   UNL     1      24.371  37.973  14.694  1.00  0.00     0.154 C 
BRANCH  53  54
ATOM     54  N   UNL     1      22.982  37.756  14.986  1.00  0.00    -0.319 N 
ATOM     55  C   UNL     1      22.565  36.732  15.860  1.00  0.00     0.407 C 
ATOM     56  H   UNL     1      22.222  38.360  14.553  1.00  0.00     0.167 HD
ATOM     57  O   UNL     1      23.398  35.991  16.429  1.00  0.00    -0.225 OA
BRANCH  55  58
ATOM     58  O   UNL     1      21.207  36.510  16.118  1.00  0.00    -0.443 OA
BRANCH  58  59
ATOM     59  C   UNL     1      20.293  36.246  15.090  1.00  0.00     0.294 C 
BRANCH  59  60
ATOM     60  C   UNL     1      20.869  35.296  14.089  1.00  0.00     0.121 A 
ATOM     61  C   UNL     1      21.193  33.953  14.370  1.00  0.00     0.144 A 
ATOM     62  N   UNL     1      21.180  35.474  12.815  1.00  0.00    -0.131 NA
ATOM     63  N   UNL     1      21.676  33.393  13.270  1.00  0.00    -0.219 N 
ATOM     64  N   UNL     1      21.655  34.353  12.335  1.00  0.00    -0.062 NA
BRANCH  63  65
ATOM     65  C   UNL     1      22.144  32.087  12.989  1.00  0.00     0.081 A 
ATOM     66  C   UNL     1      21.226  31.097  12.615  1.00  0.00     0.049 A 
ATOM     67  C   UNL     1      23.445  31.686  13.083  1.00  0.00     0.065 A 
ATOM     68  C   UNL     1      21.617  29.823  12.367  1.00  0.00     0.043 A 
ATOM     69  C   UNL     1      23.852  30.364  12.827  1.00  0.00     0.017 A 
ATOM     70  Cl  UNL     1      20.413  28.629  11.902  1.00  0.00    -0.084 Cl
ATOM     71  C   UNL     1      22.922  29.422  12.464  1.00  0.00     0.021 A 
BRANCH  67  72
ATOM     72  C   UNL     1      24.518  32.629  13.414  1.00  0.00     0.255 C 
ATOM     73  O   UNL     1      25.017  33.313  12.497  1.00  0.00    -0.269 OA
ATOM     74  N   UNL     1      24.968  32.753  14.732  1.00  0.00    -0.345 N 
ATOM     75  C   UNL     1      24.376  31.944  15.794  1.00  0.00     0.146 C 
ATOM     76  C   UNL     1      26.028  33.691  15.090  1.00  0.00     0.146 C 
ENDBRANCH  67  72
ENDBRANCH  63  65
ENDBRANCH  59  60
ENDBRANCH  58  59
ENDBRANCH  55  58
ENDBRANCH  53  54
ENDBRANCH  50  53
ENDBRANCH  47  50
ENDBRANCH   5  47
BRANCH   4  77
ATOM     77  N   UNL     1      26.926  37.266  10.021  1.00  0.00    -0.348 N 
ATOM     78  C   UNL     1      28.112  37.544  10.732  1.00  0.00     0.217 C 
ATOM     79  H   UNL     1      26.968  37.285   8.983  1.00  0.00     0.163 HD
ATOM     80  C   UNL     1      29.398  37.855  10.062  1.00  0.00     0.114 C 
ATOM     81  O   UNL     1      28.080  37.527  11.992  1.00  0.00    -0.275 OA
ENDBRANCH   4  77
TORSDOF 31
BEGIN_RES LYS A 131
REMARK  4 active torsions:
REMARK  status: ('A' for Active; 'I' for Inactive)
REMARK    1  A    between atoms: CA   and  CB  
REMARK    2  A    between atoms: CB   and  CG  
REMARK    3  A    between atoms: CG   and  CD  
REMARK    4  A    between atoms: CD   and  CE  
ROOT
ATOM      1  CA  LYS A 131      29.867  25.555  16.977  1.00 20.52     0.186 C 
ENDROOT
BRANCH   1   2
ATOM      2  CB  LYS A 131      28.345  25.722  17.026  1.00 20.94     0.034 C 
BRANCH   2   3
ATOM      3  CG  LYS A 131      27.599  24.475  16.577  1.00 22.96     0.005 C 
BRANCH   3   4
ATOM      4  CD  LYS A 131      27.133  23.644  17.740  1.00 24.33     0.041 C 
BRANCH   4   5
ATOM      5  CE  LYS A 131      25.670  23.264  17.540  1.00 26.91     0.338 C 
ATOM      6  NZ  LYS A 131      24.918  24.390  16.938  1.00 27.40     0.618 N 
ENDBRANCH   4   5
ENDBRANCH   3   4
ENDBRANCH   2   3
ENDBRANCH   1   2
END_RES LYS A 131
BEGIN_RES LYS A 135
REMARK  4 active torsions:
REMARK  status: ('A' for Active; 'I' for Inactive)
REMARK    5  A    between atoms: CA   and  CB  
REMARK    6  A    between atoms: CB   and  CG  
REMARK    7  A    between atoms: CG   and  CD  
REMARK    8  A    between atoms: CD   and  CE  
ROOT
ATOM      7  CA  LYS A 135      33.193  34.663   9.290  1.00 25.02     0.186 C 
ENDROOT
BRANCH   7   8
ATOM      8  CB  LYS A 135      32.060  35.360  10.034  1.00 26.63     0.034 C 
BRANCH   8   9
ATOM      9  CG  LYS A 135      30.739  34.643   9.928  1.00 29.45     0.005 C 
BRANCH   9  10
ATOM     10  CD  LYS A 135      30.309  34.521   8.474  1.00 32.00     0.041 C 
BRANCH  10  11
ATOM     11  CE  LYS A 135      28.797  34.523   8.363  1.00 34.25     0.338 C 
ATOM     12  NZ  LYS A 135      28.173  33.818   9.517  1.00 35.99     0.618 N 
ENDBRANCH  10  11
ENDBRANCH   9  10
ENDBRANCH   8   9
ENDBRANCH   7   8
END_RES LYS A 135
