REMARK VINA RESULT:    -4.095      6.323     12.897
REMARK INTER + INTRA:         -22.008
REMARK INTER:                 -11.327
REMARK INTRA:                 -10.681
REMARK UNBOUND:               -10.971
REMARK SMILES C=CCCCCn1cc(COC(=O)NC[C@@H](O)C(O)[C@@H]2O[C@@](OC[C@H]3O[C@@H](O[C@H]4[C@H](O)[C@@H](O)[C@H](OCCN=[N+]=[N-])O[C@@H]4CO)[C@H](O)[C@@H](O)[C@H]3O)(C(=O)O)C[C@H](O)[C@H]2NC(C)=O)nn1
REMARK SMILES IDX 18 1 20 2 22 3 54 4 21 5 55 6 57 7 23 8 24 9 25 10 27 11
REMARK SMILES IDX 26 12 45 13 47 14 49 15 28 16 29 17 42 18 41 19 34 20 30 21
REMARK SMILES IDX 32 22 43 23 44 24 35 26 36 27 37 28 38 29 39 30 40 31 31 32
REMARK SMILES IDX 33 34 46 36 48 38 50 40 51 42 52 43 53 44 56 46 58 48 59 49
REMARK SMILES IDX 60 51 61 52 19 53 16 55 17 56 15 58 14 59 12 60 13 62 11 63
REMARK SMILES IDX 10 64 9 65 8 66 62 67 7 68 63 69 6 70 5 71 4 72 3 73 2 74
REMARK SMILES IDX 1 75
REMARK H PARENT 44 25 31 33 33 35 46 37 48 39 50 41 53 45 56 47 58 50 19 54
REMARK H PARENT 17 57 14 61
REMARK Flexibility Score: inf
ROOT
ATOM      1  C   UNL     1      27.756  36.835  12.914  1.00  0.00     0.176 C 
ENDROOT
BRANCH   1   2
ATOM      2  C   UNL     1      29.227  36.794  13.336  1.00  0.00     0.178 C 
ATOM      3  C   UNL     1      31.272  37.710  12.816  1.00  0.00     0.272 C 
ATOM      4  C   UNL     1      31.926  36.409  13.034  1.00  0.00     0.113 C 
ATOM      5  O   UNL     1      29.927  37.420  12.367  1.00  0.00    -0.332 OA
ATOM      6  C   UNL     1      31.250  35.501  13.967  1.00  0.00     0.145 C 
ATOM      7  C   UNL     1      29.732  35.577  13.949  1.00  0.00     0.142 C 
BRANCH   3   8
ATOM      8  O   UNL     1      31.737  38.396  11.704  1.00  0.00    -0.338 OA
BRANCH   8   9
ATOM      9  C   UNL     1      31.890  37.839  10.520  1.00  0.00     0.199 C 
BRANCH   9  10
ATOM     10  C   UNL     1      31.451  38.510   9.276  1.00  0.00     0.179 C 
ATOM     11  C   UNL     1      29.559  38.672   7.904  1.00  0.00     0.282 C 
ATOM     12  O   UNL     1      30.280  37.897   8.770  1.00  0.00    -0.341 OA
ATOM     13  C   UNL     1      30.306  39.815   7.336  1.00  0.00     0.202 C 
ATOM     14  C   UNL     1      30.974  40.697   8.355  1.00  0.00     0.179 C 
ATOM     15  C   UNL     1      31.070  39.939   9.644  1.00  0.00     0.177 C 
BRANCH  11  16
ATOM     16  O   UNL     1      28.338  38.915   8.473  1.00  0.00    -0.341 OA
BRANCH  16  17
ATOM     17  C   UNL     1      27.459  39.674   7.760  1.00  0.00     0.184 C 
ATOM     18  C   UNL     1      26.410  40.225   8.698  1.00  0.00     0.178 C 
ATOM     19  O   UNL     1      25.140  40.210   8.099  1.00  0.00    -0.341 OA
ATOM     20  C   UNL     1      24.682  38.897   8.145  1.00  0.00     0.281 C 
ATOM     21  C   UNL     1      26.683  38.818   6.732  1.00  0.00     0.180 C 
ATOM     22  C   UNL     1      25.642  37.984   7.443  1.00  0.00     0.202 C 
BRANCH  18  23
ATOM     23  C   UNL     1      26.742  41.617   9.207  1.00  0.00     0.191 C 
BRANCH  23  24
ATOM     24  O   UNL     1      27.696  41.563  10.208  1.00  0.00    -0.394 OA
ATOM     25  H   UNL     1      27.292  41.156  11.011  1.00  0.00     0.210 HD
ENDBRANCH  23  24
ENDBRANCH  18  23
BRANCH  20  26
ATOM     26  O   UNL     1      23.439  38.886   7.510  1.00  0.00    -0.350 OA
BRANCH  26  27
ATOM     27  C   UNL     1      22.383  39.178   8.352  1.00  0.00     0.169 C 
BRANCH  27  28
ATOM     28  C   UNL     1      22.567  38.352   9.612  1.00  0.00     0.119 C 
BRANCH  28  29
ATOM     29  N   UNL     1      22.099  37.002   9.442  1.00  0.00    -0.092 NA
ATOM     30  N   UNL     1      22.863  36.091   9.148  1.00  0.00     0.001 N 
ATOM     31  N   UNL     1      23.752  35.247   9.035  1.00  0.00    -0.003 NA
ENDBRANCH  28  29
ENDBRANCH  27  28
ENDBRANCH  26  27
ENDBRANCH  20  26
BRANCH  21  32
ATOM     32  O   UNL     1      26.005  39.725   5.920  1.00  0.00    -0.387 OA
ATOM     33  H   UNL     1      25.095  39.454   5.686  1.00  0.00     0.211 HD
ENDBRANCH  21  32
BRANCH  22  34
ATOM     34  O   UNL     1      26.250  37.061   8.289  1.00  0.00    -0.385 OA
ATOM     35  H   UNL     1      25.836  36.175   8.102  1.00  0.00     0.211 HD
ENDBRANCH  22  34
ENDBRANCH  16  17
ENDBRANCH  11  16
BRANCH  13  36
ATOM     36  O   UNL     1      31.306  39.295   6.501  1.00  0.00    -0.385 OA
ATOM     37  H   UNL     1      31.709  39.976   5.933  1.00  0.00     0.211 HD
ENDBRANCH  13  36
BRANCH  14  38
ATOM     38  O   UNL     1      30.304  41.910   8.524  1.00  0.00    -0.387 OA
ATOM     39  H   UNL     1      29.441  41.827   8.072  1.00  0.00     0.211 HD
ENDBRANCH  14  38
BRANCH  15  40
ATOM     40  O   UNL     1      29.868  39.959  10.362  1.00  0.00    -0.387 OA
ATOM     41  H   UNL     1      29.582  39.075  10.658  1.00  0.00     0.211 HD
ENDBRANCH  15  40
ENDBRANCH   9  10
ENDBRANCH   8   9
ENDBRANCH   3   8
BRANCH   3  42
ATOM     42  C   UNL     1      31.092  38.467  14.047  1.00  0.00     0.364 C 
ATOM     43  O   UNL     1      30.190  39.327  14.152  1.00  0.00    -0.246 OA
BRANCH  42  44
ATOM     44  O   UNL     1      31.892  38.293  15.137  1.00  0.00    -0.477 OA
ATOM     45  H   UNL     1      32.260  39.066  15.663  1.00  0.00     0.296 HD
ENDBRANCH  42  44
ENDBRANCH   3  42
BRANCH   6  46
ATOM     46  O   UNL     1      31.664  34.175  13.689  1.00  0.00    -0.391 OA
ATOM     47  H   UNL     1      31.845  33.666  14.519  1.00  0.00     0.211 HD
ENDBRANCH   6  46
BRANCH   7  48
ATOM     48  N   UNL     1      29.240  35.477  15.337  1.00  0.00    -0.348 N 
ATOM     49  C   UNL     1      28.941  34.246  15.964  1.00  0.00     0.217 C 
ATOM     50  H   UNL     1      29.082  36.335  15.932  1.00  0.00     0.163 HD
ATOM     51  C   UNL     1      28.430  34.209  17.385  1.00  0.00     0.114 C 
ATOM     52  O   UNL     1      29.107  33.180  15.319  1.00  0.00    -0.275 OA
ENDBRANCH   7  48
ENDBRANCH   1   2
BRANCH   1  53
ATOM     53  O   UNL     1      27.074  37.349  14.139  1.00  0.00    -0.388 OA
ATOM     54  H   UNL     1      27.623  36.874  14.842  1.00  0.00     0.211 HD
ENDBRANCH   1  53
BRANCH   1  55
ATOM     55  C   UNL     1      27.402  37.874  11.949  1.00  0.00     0.165 C 
BRANCH  55  56
ATOM     56  O   UNL     1      27.855  39.176  12.262  1.00  0.00    -0.388 OA
ATOM     57  H   UNL     1      28.822  39.074  12.438  1.00  0.00     0.211 HD
ENDBRANCH  55  56
BRANCH  55  58
ATOM     58  C   UNL     1      26.032  37.949  11.420  1.00  0.00     0.154 C 
BRANCH  58  59
ATOM     59  N   UNL     1      25.258  36.773  11.528  1.00  0.00    -0.319 N 
ATOM     60  C   UNL     1      24.323  36.357  12.484  1.00  0.00     0.407 C 
ATOM     61  H   UNL     1      25.408  36.053  10.724  1.00  0.00     0.167 HD
ATOM     62  O   UNL     1      24.046  37.066  13.465  1.00  0.00    -0.225 OA
BRANCH  60  63
ATOM     63  O   UNL     1      23.663  35.125  12.371  1.00  0.00    -0.443 OA
BRANCH  63  64
ATOM     64  C   UNL     1      22.240  35.114  12.498  1.00  0.00     0.294 C 
BRANCH  64  65
ATOM     65  C   UNL     1      21.787  33.893  13.212  1.00  0.00     0.120 A 
ATOM     66  C   UNL     1      21.158  32.808  12.603  1.00  0.00     0.138 A 
ATOM     67  N   UNL     1      21.873  33.584  14.514  1.00  0.00    -0.132 NA
ATOM     68  N   UNL     1      20.899  31.909  13.558  1.00  0.00    -0.252 N 
ATOM     69  N   UNL     1      21.328  32.377  14.702  1.00  0.00    -0.067 NA
BRANCH  68  70
ATOM     70  C   UNL     1      20.239  30.621  13.302  1.00  0.00     0.146 C 
BRANCH  70  71
ATOM     71  C   UNL     1      21.042  29.857  12.284  1.00  0.00     0.024 C 
BRANCH  71  72
ATOM     72  C   UNL     1      21.982  28.927  13.021  1.00  0.00     0.006 C 
BRANCH  72  73
ATOM     73  C   UNL     1      23.410  29.215  12.618  1.00  0.00     0.027 C 
BRANCH  73  74
ATOM     74  C   UNL     1      24.077  30.103  13.596  1.00  0.00    -0.035 C 
ATOM     75  C   UNL     1      24.517  31.291  13.229  1.00  0.00     0.004 C 
ENDBRANCH  73  74
ENDBRANCH  72  73
ENDBRANCH  71  72
ENDBRANCH  70  71
ENDBRANCH  68  70
ENDBRANCH  64  65
ENDBRANCH  63  64
ENDBRANCH  60  63
ENDBRANCH  58  59
ENDBRANCH  55  58
ENDBRANCH   1  55
TORSDOF 34
BEGIN_RES LYS A 131
REMARK  4 active torsions:
REMARK  status: ('A' for Active; 'I' for Inactive)
REMARK    1  A    between atoms: CA   and  CB  
REMARK    2  A    between atoms: CB   and  CG  
REMARK    3  A    between atoms: CG   and  CD  
REMARK    4  A    between atoms: CD   and  CE  
ROOT
ATOM      1  CA  LYS A 131      29.867  25.555  16.977  1.00 20.52     0.186 C 
ENDROOT
BRANCH   1   2
ATOM      2  CB  LYS A 131      28.345  25.722  17.026  1.00 20.94     0.034 C 
BRANCH   2   3
ATOM      3  CG  LYS A 131      27.599  24.481  16.560  1.00 22.96     0.005 C 
BRANCH   3   4
ATOM      4  CD  LYS A 131      26.853  23.814  17.682  1.00 24.33     0.041 C 
BRANCH   4   5
ATOM      5  CE  LYS A 131      25.634  24.652  18.052  1.00 26.91     0.338 C 
ATOM      6  NZ  LYS A 131      25.673  25.020  19.487  1.00 27.40     0.618 N 
ENDBRANCH   4   5
ENDBRANCH   3   4
ENDBRANCH   2   3
ENDBRANCH   1   2
END_RES LYS A 131
BEGIN_RES LYS A 135
REMARK  4 active torsions:
REMARK  status: ('A' for Active; 'I' for Inactive)
REMARK    5  A    between atoms: CA   and  CB  
REMARK    6  A    between atoms: CB   and  CG  
REMARK    7  A    between atoms: CG   and  CD  
REMARK    8  A    between atoms: CD   and  CE  
ROOT
ATOM      7  CA  LYS A 135      33.193  34.663   9.290  1.00 25.02     0.186 C 
ENDROOT
BRANCH   7   8
ATOM      8  CB  LYS A 135      32.060  35.360  10.034  1.00 26.63     0.034 C 
BRANCH   8   9
ATOM      9  CG  LYS A 135      30.776  34.571  10.053  1.00 29.45     0.005 C 
BRANCH   9  10
ATOM     10  CD  LYS A 135      30.188  34.469   8.654  1.00 32.00     0.041 C 
BRANCH  10  11
ATOM     11  CE  LYS A 135      28.687  34.266   8.720  1.00 34.25     0.338 C 
ATOM     12  NZ  LYS A 135      28.132  34.784  10.001  1.00 35.99     0.618 N 
ENDBRANCH  10  11
ENDBRANCH   9  10
ENDBRANCH   8   9
ENDBRANCH   7   8
END_RES LYS A 135
