REMARK VINA RESULT:    -4.364      0.000      0.000
REMARK INTER + INTRA:         -23.874
REMARK INTER:                 -12.983
REMARK INTRA:                 -10.891
REMARK UNBOUND:               -11.857
REMARK SMILES CC[N+](C)(CC)CCCn1cc(COC(=O)NC[C@@H](O)C(O)[C@@H]2O[C@@](OC[C@H]3O[C@@H](O[C@H]4[C@H](O)[C@@H](O)[C@H](OCCN=[N+]=[N-])O[C@@H]4CO)[C@H](O)[C@@H](O)[C@H]3O)(C(=O)O)C[C@H](O)[C@H]2NC(C)=O)nn1
REMARK SMILES IDX 21 1 23 2 25 3 57 4 24 5 58 6 60 7 26 8 27 9 28 10 30 11
REMARK SMILES IDX 29 12 48 13 50 14 52 15 31 16 32 17 45 18 44 19 37 20 33 21
REMARK SMILES IDX 35 22 46 23 47 24 38 26 39 27 40 28 41 29 42 30 43 31 34 32
REMARK SMILES IDX 36 34 49 36 51 38 53 40 54 42 55 43 56 44 59 46 61 48 62 49
REMARK SMILES IDX 63 51 64 52 22 53 19 55 20 56 18 58 17 59 15 60 16 62 14 63
REMARK SMILES IDX 13 64 12 65 11 66 65 67 10 68 66 69 9 70 8 71 7 72 3 73 4 74
REMARK SMILES IDX 2 75 1 76 5 77 6 78
REMARK H PARENT 47 25 34 33 36 35 49 37 51 39 53 41 56 45 59 47 61 50 22 54
REMARK H PARENT 20 57 17 61
REMARK Flexibility Score: inf
ROOT
ATOM      1  C   UNL     1      31.737  29.042  20.929  1.00  0.00     0.176 C 
ENDROOT
BRANCH   1   2
ATOM      2  C   UNL     1      30.757  29.892  21.732  1.00  0.00     0.178 C 
ATOM      3  C   UNL     1      29.176  31.611  21.397  1.00  0.00     0.272 C 
ATOM      4  C   UNL     1      29.589  32.033  22.768  1.00  0.00     0.113 C 
ATOM      5  O   UNL     1      30.270  30.861  20.883  1.00  0.00    -0.332 OA
ATOM      6  C   UNL     1      31.077  31.934  22.981  1.00  0.00     0.145 C 
ATOM      7  C   UNL     1      31.461  30.458  22.922  1.00  0.00     0.142 C 
BRANCH   3   8
ATOM      8  O   UNL     1      29.067  32.650  20.497  1.00  0.00    -0.338 OA
BRANCH   8   9
ATOM      9  C   UNL     1      29.826  32.674  19.389  1.00  0.00     0.199 C 
BRANCH   9  10
ATOM     10  C   UNL     1      28.953  32.864  18.121  1.00  0.00     0.179 C 
ATOM     11  C   UNL     1      30.556  33.526  16.522  1.00  0.00     0.282 C 
ATOM     12  O   UNL     1      29.427  33.797  17.284  1.00  0.00    -0.341 OA
ATOM     13  C   UNL     1      30.693  32.104  16.130  1.00  0.00     0.202 C 
ATOM     14  C   UNL     1      29.245  31.580  16.022  1.00  0.00     0.179 C 
ATOM     15  C   UNL     1      28.769  31.499  17.456  1.00  0.00     0.177 C 
BRANCH  11  16
ATOM     16  O   UNL     1      31.688  34.122  17.098  1.00  0.00    -0.341 OA
BRANCH  16  17
ATOM     17  C   UNL     1      31.884  35.403  16.673  1.00  0.00     0.184 C 
ATOM     18  C   UNL     1      33.087  35.754  15.912  1.00  0.00     0.178 C 
ATOM     19  O   UNL     1      32.933  37.011  15.357  1.00  0.00    -0.341 OA
ATOM     20  C   UNL     1      32.023  37.860  15.874  1.00  0.00     0.281 C 
ATOM     21  C   UNL     1      31.862  36.376  17.876  1.00  0.00     0.180 C 
ATOM     22  C   UNL     1      31.765  37.786  17.358  1.00  0.00     0.202 C 
BRANCH  18  23
ATOM     23  C   UNL     1      33.479  34.806  14.795  1.00  0.00     0.191 C 
BRANCH  23  24
ATOM     24  O   UNL     1      32.418  34.452  13.974  1.00  0.00    -0.394 OA
ATOM     25  H   UNL     1      31.937  35.314  13.753  1.00  0.00     0.210 HD
ENDBRANCH  23  24
ENDBRANCH  18  23
BRANCH  20  26
ATOM     26  O   UNL     1      30.855  37.859  15.133  1.00  0.00    -0.350 OA
BRANCH  26  27
ATOM     27  C   UNL     1      30.959  38.295  13.853  1.00  0.00     0.169 C 
BRANCH  27  28
ATOM     28  C   UNL     1      30.244  37.417  12.847  1.00  0.00     0.119 C 
BRANCH  28  29
ATOM     29  N   UNL     1      29.307  36.551  13.543  1.00  0.00    -0.092 NA
ATOM     30  N   UNL     1      29.327  35.326  13.445  1.00  0.00     0.001 N 
ATOM     31  N   UNL     1      29.345  34.095  13.381  1.00  0.00    -0.003 NA
ENDBRANCH  28  29
ENDBRANCH  27  28
ENDBRANCH  26  27
ENDBRANCH  20  26
BRANCH  21  32
ATOM     32  O   UNL     1      30.829  35.975  18.690  1.00  0.00    -0.387 OA
ATOM     33  H   UNL     1      29.940  36.248  18.412  1.00  0.00     0.211 HD
ENDBRANCH  21  32
BRANCH  22  34
ATOM     34  O   UNL     1      32.616  38.593  18.096  1.00  0.00    -0.385 OA
ATOM     35  H   UNL     1      33.512  38.716  17.685  1.00  0.00     0.211 HD
ENDBRANCH  22  34
ENDBRANCH  16  17
ENDBRANCH  11  16
BRANCH  13  36
ATOM     36  O   UNL     1      31.258  31.920  14.858  1.00  0.00    -0.385 OA
ATOM     37  H   UNL     1      32.232  31.897  14.978  1.00  0.00     0.211 HD
ENDBRANCH  13  36
BRANCH  14  38
ATOM     38  O   UNL     1      29.253  30.314  15.437  1.00  0.00    -0.387 OA
ATOM     39  H   UNL     1      28.674  30.362  14.649  1.00  0.00     0.211 HD
ENDBRANCH  14  38
BRANCH  15  40
ATOM     40  O   UNL     1      29.637  30.617  18.097  1.00  0.00    -0.387 OA
ATOM     41  H   UNL     1      29.253  30.115  18.832  1.00  0.00     0.211 HD
ENDBRANCH  15  40
ENDBRANCH   9  10
ENDBRANCH   8   9
ENDBRANCH   3   8
BRANCH   3  42
ATOM     42  C   UNL     1      27.959  30.783  21.347  1.00  0.00     0.364 C 
ATOM     43  O   UNL     1      27.296  30.646  20.295  1.00  0.00    -0.246 OA
BRANCH  42  44
ATOM     44  O   UNL     1      27.505  30.128  22.465  1.00  0.00    -0.477 OA
ATOM     45  H   UNL     1      28.106  29.576  23.075  1.00  0.00     0.296 HD
ENDBRANCH  42  44
ENDBRANCH   3  42
BRANCH   6  46
ATOM     46  O   UNL     1      31.812  32.635  22.056  1.00  0.00    -0.391 OA
ATOM     47  H   UNL     1      32.795  32.431  22.123  1.00  0.00     0.211 HD
ENDBRANCH   6  46
BRANCH   7  48
ATOM     48  N   UNL     1      30.873  29.874  24.140  1.00  0.00    -0.348 N 
ATOM     49  C   UNL     1      31.520  28.820  24.843  1.00  0.00     0.217 C 
ATOM     50  H   UNL     1      29.967  30.188  24.544  1.00  0.00     0.163 HD
ATOM     51  C   UNL     1      30.967  28.204  26.075  1.00  0.00     0.114 C 
ATOM     52  O   UNL     1      32.604  28.399  24.404  1.00  0.00    -0.275 OA
ENDBRANCH   7  48
ENDBRANCH   1   2
BRANCH   1  53
ATOM     53  O   UNL     1      31.504  29.288  19.532  1.00  0.00    -0.388 OA
ATOM     54  H   UNL     1      31.871  28.501  19.049  1.00  0.00     0.211 HD
ENDBRANCH   1  53
BRANCH   1  55
ATOM     55  C   UNL     1      31.486  27.585  21.144  1.00  0.00     0.165 C 
BRANCH  55  56
ATOM     56  O   UNL     1      31.999  26.985  19.920  1.00  0.00    -0.388 OA
ATOM     57  H   UNL     1      31.473  26.140  19.772  1.00  0.00     0.211 HD
ENDBRANCH  55  56
BRANCH  55  58
ATOM     58  C   UNL     1      30.079  27.140  21.296  1.00  0.00     0.154 C 
BRANCH  58  59
ATOM     59  N   UNL     1      29.180  27.099  20.233  1.00  0.00    -0.319 N 
ATOM     60  C   UNL     1      27.769  27.199  20.268  1.00  0.00     0.407 C 
ATOM     61  H   UNL     1      29.606  26.970  19.225  1.00  0.00     0.167 HD
ATOM     62  O   UNL     1      27.113  27.346  21.310  1.00  0.00    -0.225 OA
BRANCH  60  63
ATOM     63  O   UNL     1      27.029  27.120  19.062  1.00  0.00    -0.443 OA
BRANCH  63  64
ATOM     64  C   UNL     1      27.395  28.041  18.018  1.00  0.00     0.294 C 
BRANCH  64  65
ATOM     65  C   UNL     1      26.063  28.394  17.399  1.00  0.00     0.120 A 
ATOM     66  C   UNL     1      25.822  29.373  16.465  1.00  0.00     0.138 A 
ATOM     67  N   UNL     1      24.877  27.806  17.589  1.00  0.00    -0.132 NA
ATOM     68  N   UNL     1      24.494  29.340  16.120  1.00  0.00    -0.252 N 
ATOM     69  N   UNL     1      23.956  28.368  16.834  1.00  0.00    -0.067 NA
BRANCH  68  70
ATOM     70  C   UNL     1      23.856  30.186  15.129  1.00  0.00     0.152 C 
BRANCH  70  71
ATOM     71  C   UNL     1      24.818  30.929  14.307  1.00  0.00     0.085 C 
BRANCH  71  72
ATOM     72  C   UNL     1      24.481  32.260  13.775  1.00  0.00     0.265 C 
BRANCH  72  73
ATOM     73  N   UNL     1      24.848  33.416  14.522  1.00  0.00    -0.326 N 
ATOM     74  C   UNL     1      26.188  33.280  15.026  1.00  0.00     0.334 C 
BRANCH  73  75
ATOM     75  C   UNL     1      23.940  33.799  15.565  1.00  0.00     0.260 C 
ATOM     76  C   UNL     1      22.517  33.957  15.082  1.00  0.00     0.071 C 
ENDBRANCH  73  75
BRANCH  73  77
ATOM     77  C   UNL     1      24.913  34.521  13.550  1.00  0.00     0.260 C 
ATOM     78  C   UNL     1      25.759  34.232  12.361  1.00  0.00     0.071 C 
ENDBRANCH  73  77
ENDBRANCH  72  73
ENDBRANCH  71  72
ENDBRANCH  70  71
ENDBRANCH  68  70
ENDBRANCH  64  65
ENDBRANCH  63  64
ENDBRANCH  60  63
ENDBRANCH  58  59
ENDBRANCH  55  58
ENDBRANCH   1  55
TORSDOF 35
BEGIN_RES LYS A 131
REMARK  4 active torsions:
REMARK  status: ('A' for Active; 'I' for Inactive)
REMARK    1  A    between atoms: CA   and  CB  
REMARK    2  A    between atoms: CB   and  CG  
REMARK    3  A    between atoms: CG   and  CD  
REMARK    4  A    between atoms: CD   and  CE  
ROOT
ATOM      1  CA  LYS A 131      29.867  25.555  16.977  1.00 20.52     0.186 C 
ENDROOT
BRANCH   1   2
ATOM      2  CB  LYS A 131      28.345  25.722  17.026  1.00 20.94     0.034 C 
BRANCH   2   3
ATOM      3  CG  LYS A 131      27.599  24.472  16.584  1.00 22.96     0.005 C 
BRANCH   3   4
ATOM      4  CD  LYS A 131      27.158  23.634  17.752  1.00 24.33     0.041 C 
BRANCH   4   5
ATOM      5  CE  LYS A 131      25.797  24.118  18.241  1.00 26.91     0.338 C 
ATOM      6  NZ  LYS A 131      25.491  23.548  19.574  1.00 27.40     0.618 N 
ENDBRANCH   4   5
ENDBRANCH   3   4
ENDBRANCH   2   3
ENDBRANCH   1   2
END_RES LYS A 131
BEGIN_RES LYS A 135
REMARK  4 active torsions:
REMARK  status: ('A' for Active; 'I' for Inactive)
REMARK    5  A    between atoms: CA   and  CB  
REMARK    6  A    between atoms: CB   and  CG  
REMARK    7  A    between atoms: CG   and  CD  
REMARK    8  A    between atoms: CD   and  CE  
ROOT
ATOM      7  CA  LYS A 135      33.193  34.663   9.290  1.00 25.02     0.186 C 
ENDROOT
BRANCH   7   8
ATOM      8  CB  LYS A 135      32.060  35.360  10.034  1.00 26.63     0.034 C 
BRANCH   8   9
ATOM      9  CG  LYS A 135      30.842  35.608   9.182  1.00 29.45     0.005 C 
BRANCH   9  10
ATOM     10  CD  LYS A 135      30.143  34.298   8.851  1.00 32.00     0.041 C 
BRANCH  10  11
ATOM     11  CE  LYS A 135      28.907  34.122   9.711  1.00 34.25     0.338 C 
ATOM     12  NZ  LYS A 135      28.272  35.435  10.013  1.00 35.99     0.618 N 
ENDBRANCH  10  11
ENDBRANCH   9  10
ENDBRANCH   8   9
ENDBRANCH   7   8
END_RES LYS A 135
