REMARK VINA RESULT:    -4.723      3.377      7.381
REMARK INTER + INTRA:         -23.937
REMARK INTER:                 -12.867
REMARK INTRA:                 -11.071
REMARK UNBOUND:               -11.071
REMARK SMILES CC(=O)N[C@@H]1[C@@H](O)C[C@](OC[C@H]2O[C@@H](O[C@H]3[C@H](O)[C@@H](O)[C@H](OCCN=[N+]=[N-])O[C@@H]3CO)[C@H](O)[C@@H](O)[C@H]2O)(C(=O)O)O[C@H]1C(O)[C@H](O)CNC(=O)OCc1cn(CC(O)CCc2ccccc2)nn1
REMARK SMILES IDX 43 1 42 2 9 3 8 4 41 5 6 6 5 7 10 8 11 9 12 10 14 11 13 12
REMARK SMILES IDX 32 13 34 14 36 15 15 16 16 17 29 18 28 19 21 20 17 21 19 22
REMARK SMILES IDX 30 23 31 24 22 26 23 27 24 28 25 29 26 30 27 31 18 32 20 34
REMARK SMILES IDX 33 36 35 38 37 40 38 42 39 43 40 44 7 46 4 48 2 49 1 51 3 52
REMARK SMILES IDX 44 53 45 55 46 56 47 58 48 59 49 60 50 62 51 63 52 64 53 65
REMARK SMILES IDX 54 66 68 67 55 68 67 69 56 70 57 71 58 72 59 74 60 75 61 76
REMARK SMILES IDX 62 77 66 78 63 79 65 80 64 81
REMARK H PARENT 31 25 18 33 20 35 33 37 35 39 37 41 40 45 7 47 4 50 44 54
REMARK H PARENT 46 57 48 61 58 73
REMARK Flexibility Score: inf
ROOT
ATOM      1  C   UNL     1      27.988  37.625   7.129  1.00  0.00     0.176 C 
ENDROOT
BRANCH   1   2
ATOM      2  C   UNL     1      26.949  38.749   6.956  1.00  0.00     0.178 C 
ATOM      3  C   UNL     1      27.287  41.071   7.301  1.00  0.00     0.272 C 
ATOM      4  C   UNL     1      26.999  40.816   8.744  1.00  0.00     0.113 C 
ATOM      5  O   UNL     1      27.591  39.887   6.685  1.00  0.00    -0.332 OA
ATOM      6  C   UNL     1      25.854  39.882   8.908  1.00  0.00     0.145 C 
ATOM      7  C   UNL     1      25.966  38.652   8.059  1.00  0.00     0.142 C 
BRANCH   3   8
ATOM      8  O   UNL     1      28.325  42.014   7.160  1.00  0.00    -0.338 OA
BRANCH   8   9
ATOM      9  C   UNL     1      29.293  41.725   6.267  1.00  0.00     0.199 C 
BRANCH   9  10
ATOM     10  C   UNL     1      30.667  41.565   6.960  1.00  0.00     0.179 C 
ATOM     11  C   UNL     1      31.737  41.068   8.898  1.00  0.00     0.282 C 
ATOM     12  O   UNL     1      30.553  41.405   8.294  1.00  0.00    -0.341 OA
ATOM     13  C   UNL     1      32.122  39.696   8.277  1.00  0.00     0.202 C 
ATOM     14  C   UNL     1      32.656  40.107   6.901  1.00  0.00     0.179 C 
ATOM     15  C   UNL     1      31.435  40.579   6.159  1.00  0.00     0.177 C 
BRANCH  11  16
ATOM     16  O   UNL     1      31.582  40.880  10.226  1.00  0.00    -0.341 OA
BRANCH  16  17
ATOM     17  C   UNL     1      30.317  40.829  10.761  1.00  0.00     0.184 C 
ATOM     18  C   UNL     1      30.028  41.931  11.725  1.00  0.00     0.178 C 
ATOM     19  O   UNL     1      29.637  41.579  12.978  1.00  0.00    -0.341 OA
ATOM     20  C   UNL     1      28.933  40.424  13.138  1.00  0.00     0.281 C 
ATOM     21  C   UNL     1      30.108  39.430  11.266  1.00  0.00     0.180 C 
ATOM     22  C   UNL     1      29.826  39.282  12.717  1.00  0.00     0.202 C 
BRANCH  18  23
ATOM     23  C   UNL     1      28.954  42.829  11.148  1.00  0.00     0.191 C 
BRANCH  23  24
ATOM     24  O   UNL     1      29.268  43.229   9.850  1.00  0.00    -0.394 OA
ATOM     25  H   UNL     1      30.147  43.710   9.918  1.00  0.00     0.210 HD
ENDBRANCH  23  24
ENDBRANCH  18  23
BRANCH  20  26
ATOM     26  O   UNL     1      27.709  40.411  12.489  1.00  0.00    -0.350 OA
BRANCH  26  27
ATOM     27  C   UNL     1      26.711  40.842  13.366  1.00  0.00     0.169 C 
BRANCH  27  28
ATOM     28  C   UNL     1      26.646  39.815  14.495  1.00  0.00     0.119 C 
BRANCH  28  29
ATOM     29  N   UNL     1      25.341  39.781  15.098  1.00  0.00    -0.092 NA
ATOM     30  N   UNL     1      25.208  39.279  16.233  1.00  0.00     0.001 N 
ATOM     31  N   UNL     1      25.038  38.532  17.215  1.00  0.00    -0.003 NA
ENDBRANCH  28  29
ENDBRANCH  27  28
ENDBRANCH  26  27
ENDBRANCH  20  26
BRANCH  21  32
ATOM     32  O   UNL     1      29.025  38.801  10.595  1.00  0.00    -0.387 OA
ATOM     33  H   UNL     1      28.534  39.429  10.019  1.00  0.00     0.211 HD
ENDBRANCH  21  32
BRANCH  22  34
ATOM     34  O   UNL     1      31.002  39.367  13.468  1.00  0.00    -0.385 OA
ATOM     35  H   UNL     1      31.189  40.279  13.768  1.00  0.00     0.211 HD
ENDBRANCH  22  34
ENDBRANCH  16  17
ENDBRANCH  11  16
BRANCH  13  36
ATOM     36  O   UNL     1      33.009  38.991   9.020  1.00  0.00    -0.385 OA
ATOM     37  H   UNL     1      33.500  39.461   9.714  1.00  0.00     0.211 HD
ENDBRANCH  13  36
BRANCH  14  38
ATOM     38  O   UNL     1      33.280  39.037   6.267  1.00  0.00    -0.387 OA
ATOM     39  H   UNL     1      33.506  38.336   6.919  1.00  0.00     0.211 HD
ENDBRANCH  14  38
BRANCH  15  40
ATOM     40  O   UNL     1      30.656  39.442   5.922  1.00  0.00    -0.387 OA
ATOM     41  H   UNL     1      30.660  39.197   4.967  1.00  0.00     0.211 HD
ENDBRANCH  15  40
ENDBRANCH   9  10
ENDBRANCH   8   9
ENDBRANCH   3   8
BRANCH   3  42
ATOM     42  C   UNL     1      26.121  41.755   6.690  1.00  0.00     0.364 C 
ATOM     43  O   UNL     1      25.697  41.351   5.570  1.00  0.00    -0.246 OA
BRANCH  42  44
ATOM     44  O   UNL     1      25.471  42.806   7.275  1.00  0.00    -0.477 OA
ATOM     45  H   UNL     1      25.930  43.703   7.343  1.00  0.00     0.296 HD
ENDBRANCH  42  44
ENDBRANCH   3  42
BRANCH   6  46
ATOM     46  O   UNL     1      25.820  39.559  10.292  1.00  0.00    -0.391 OA
ATOM     47  H   UNL     1      25.548  40.322  10.840  1.00  0.00     0.211 HD
ENDBRANCH   6  46
BRANCH   7  48
ATOM     48  N   UNL     1      24.690  38.151   7.617  1.00  0.00    -0.348 N 
ATOM     49  C   UNL     1      23.879  37.269   8.382  1.00  0.00     0.217 C 
ATOM     50  H   UNL     1      24.302  38.430   6.667  1.00  0.00     0.163 HD
ATOM     51  C   UNL     1      22.584  36.829   7.819  1.00  0.00     0.114 C 
ATOM     52  O   UNL     1      24.245  36.877   9.495  1.00  0.00    -0.275 OA
ENDBRANCH   7  48
ENDBRANCH   1   2
BRANCH   1  53
ATOM     53  O   UNL     1      29.073  38.092   7.846  1.00  0.00    -0.388 OA
ATOM     54  H   UNL     1      29.357  38.997   7.572  1.00  0.00     0.211 HD
ENDBRANCH   1  53
BRANCH   1  55
ATOM     55  C   UNL     1      28.295  36.859   5.898  1.00  0.00     0.165 C 
BRANCH  55  56
ATOM     56  O   UNL     1      27.371  37.138   4.924  1.00  0.00    -0.388 OA
ATOM     57  H   UNL     1      27.564  36.713   4.065  1.00  0.00     0.211 HD
ENDBRANCH  55  56
BRANCH  55  58
ATOM     58  C   UNL     1      28.284  35.393   6.265  1.00  0.00     0.154 C 
BRANCH  58  59
ATOM     59  N   UNL     1      28.655  35.061   7.588  1.00  0.00    -0.319 N 
ATOM     60  C   UNL     1      27.828  34.538   8.618  1.00  0.00     0.407 C 
ATOM     61  H   UNL     1      29.677  35.201   7.906  1.00  0.00     0.167 HD
ATOM     62  O   UNL     1      26.634  34.303   8.402  1.00  0.00    -0.225 OA
BRANCH  60  63
ATOM     63  O   UNL     1      28.337  34.281   9.881  1.00  0.00    -0.443 OA
BRANCH  63  64
ATOM     64  C   UNL     1      28.573  35.181  10.899  1.00  0.00     0.294 C 
BRANCH  64  65
ATOM     65  C   UNL     1      27.401  35.730  11.599  1.00  0.00     0.120 A 
ATOM     66  C   UNL     1      26.473  35.030  12.361  1.00  0.00     0.138 A 
ATOM     67  N   UNL     1      27.000  37.018  11.594  1.00  0.00    -0.132 NA
ATOM     68  N   UNL     1      25.571  35.919  12.768  1.00  0.00    -0.250 N 
ATOM     69  N   UNL     1      25.896  37.100  12.306  1.00  0.00    -0.067 NA
BRANCH  68  70
ATOM     70  C   UNL     1      24.391  35.556  13.597  1.00  0.00     0.177 C 
BRANCH  70  71
ATOM     71  C   UNL     1      23.440  34.857  12.686  1.00  0.00     0.136 C 
BRANCH  71  72
ATOM     72  O   UNL     1      22.815  35.751  11.799  1.00  0.00    -0.391 OA
ATOM     73  H   UNL     1      22.311  36.447  12.270  1.00  0.00     0.211 HD
ENDBRANCH  71  72
BRANCH  71  74
ATOM     74  C   UNL     1      22.440  33.999  13.355  1.00  0.00     0.038 C 
BRANCH  74  75
ATOM     75  C   UNL     1      21.732  32.933  12.655  1.00  0.00     0.038 C 
BRANCH  75  76
ATOM     76  C   UNL     1      22.220  31.571  12.710  1.00  0.00    -0.048 A 
ATOM     77  C   UNL     1      23.544  31.300  13.046  1.00  0.00     0.004 A 
ATOM     78  C   UNL     1      21.414  30.490  12.355  1.00  0.00     0.004 A 
ATOM     79  C   UNL     1      24.021  30.023  13.024  1.00  0.00     0.000 A 
ATOM     80  C   UNL     1      21.926  29.215  12.343  1.00  0.00     0.000 A 
ATOM     81  C   UNL     1      23.245  28.944  12.677  1.00  0.00     0.000 A 
ENDBRANCH  75  76
ENDBRANCH  74  75
ENDBRANCH  71  74
ENDBRANCH  70  71
ENDBRANCH  68  70
ENDBRANCH  64  65
ENDBRANCH  63  64
ENDBRANCH  60  63
ENDBRANCH  58  59
ENDBRANCH  55  58
ENDBRANCH   1  55
TORSDOF 35
BEGIN_RES LYS A 131
REMARK  4 active torsions:
REMARK  status: ('A' for Active; 'I' for Inactive)
REMARK    1  A    between atoms: CA   and  CB  
REMARK    2  A    between atoms: CB   and  CG  
REMARK    3  A    between atoms: CG   and  CD  
REMARK    4  A    between atoms: CD   and  CE  
ROOT
ATOM      1  CA  LYS A 131      29.867  25.555  16.977  1.00 20.52     0.186 C 
ENDROOT
BRANCH   1   2
ATOM      2  CB  LYS A 131      28.345  25.722  17.026  1.00 20.94     0.034 C 
BRANCH   2   3
ATOM      3  CG  LYS A 131      27.599  24.425  16.751  1.00 22.96     0.005 C 
BRANCH   3   4
ATOM      4  CD  LYS A 131      26.205  24.443  17.315  1.00 24.33     0.041 C 
BRANCH   4   5
ATOM      5  CE  LYS A 131      26.166  23.623  18.600  1.00 26.91     0.338 C 
ATOM      6  NZ  LYS A 131      25.328  24.297  19.620  1.00 27.40     0.618 N 
ENDBRANCH   4   5
ENDBRANCH   3   4
ENDBRANCH   2   3
ENDBRANCH   1   2
END_RES LYS A 131
BEGIN_RES LYS A 135
REMARK  4 active torsions:
REMARK  status: ('A' for Active; 'I' for Inactive)
REMARK    5  A    between atoms: CA   and  CB  
REMARK    6  A    between atoms: CB   and  CG  
REMARK    7  A    between atoms: CG   and  CD  
REMARK    8  A    between atoms: CD   and  CE  
ROOT
ATOM      7  CA  LYS A 135      33.193  34.663   9.290  1.00 25.02     0.186 C 
ENDROOT
BRANCH   7   8
ATOM      8  CB  LYS A 135      32.060  35.360  10.034  1.00 26.63     0.034 C 
BRANCH   8   9
ATOM      9  CG  LYS A 135      31.963  34.970  11.486  1.00 29.45     0.005 C 
BRANCH   9  10
ATOM     10  CD  LYS A 135      32.167  36.182  12.382  1.00 32.00     0.041 C 
BRANCH  10  11
ATOM     11  CE  LYS A 135      31.433  36.002  13.697  1.00 34.25     0.338 C 
ATOM     12  NZ  LYS A 135      30.839  34.640  13.798  1.00 35.99     0.618 N 
ENDBRANCH  10  11
ENDBRANCH   9  10
ENDBRANCH   8   9
ENDBRANCH   7   8
END_RES LYS A 135
