REMARK VINA RESULT:    -5.415      3.535      6.606
REMARK INTER + INTRA:         -22.922
REMARK INTER:                 -10.761
REMARK INTRA:                 -12.162
REMARK UNBOUND:                -8.960
REMARK SMILES CC(=O)N[C@@H]1[C@@H](O)C[C@](OC[C@H]2O[C@@H](O[C@H]3[C@H](O)[C@@H](O)[C@H](OCCN=[N+]=[N-])O[C@@H]3CO)[C@H](O)[C@@H](O)[C@H]2O)(C(=O)O)O[C@H]1C(O)[C@H](O)CNC(=O)OCc1cn(Cc2cccc(C#N)c2)nn1
REMARK SMILES IDX 9 1 8 2 6 3 5 4 42 5 41 6 10 7 11 8 12 9 14 10 13 11 32 12
REMARK SMILES IDX 34 13 36 14 15 15 16 16 29 17 28 18 21 19 17 20 19 21 30 22
REMARK SMILES IDX 31 23 22 25 23 26 24 27 25 28 26 29 27 30 18 31 20 33 33 35
REMARK SMILES IDX 35 37 37 39 38 41 39 42 40 43 7 45 43 47 44 48 45 50 46 51
REMARK SMILES IDX 47 53 48 54 49 55 50 57 51 58 52 59 53 60 54 61 66 62 55 63
REMARK SMILES IDX 65 64 56 65 57 66 58 67 64 68 59 69 61 70 60 71 62 72 63 73
REMARK SMILES IDX 4 74 2 75 1 77 3 78
REMARK H PARENT 31 24 18 32 20 34 33 36 35 38 37 40 40 44 7 46 44 49 46 52
REMARK H PARENT 48 56 4 76
REMARK Flexibility Score: inf
ROOT
ATOM      1  C   UNL     1      31.824  35.241  14.041  1.00  0.00     0.272 C 
ATOM      2  C   UNL     1      31.895  36.480  14.900  1.00  0.00     0.113 C 
ATOM      3  C   UNL     1      30.878  37.518  14.677  1.00  0.00     0.145 C 
ATOM      4  C   UNL     1      30.422  37.571  13.215  1.00  0.00     0.142 C 
ATOM      5  C   UNL     1      30.136  36.251  12.655  1.00  0.00     0.178 C 
ATOM      6  O   UNL     1      30.816  35.180  13.134  1.00  0.00    -0.332 OA
ENDROOT
BRANCH   1   7
ATOM      7  O   UNL     1      31.743  34.184  14.828  1.00  0.00    -0.338 OA
BRANCH   7   8
ATOM      8  C   UNL     1      31.927  33.660  15.943  1.00  0.00     0.199 C 
BRANCH   8   9
ATOM      9  C   UNL     1      30.982  32.797  16.731  1.00  0.00     0.179 C 
ATOM     10  C   UNL     1      29.060  32.887  17.904  1.00  0.00     0.282 C 
ATOM     11  O   UNL     1      29.730  33.513  16.844  1.00  0.00    -0.341 OA
ATOM     12  C   UNL     1      28.605  31.515  17.536  1.00  0.00     0.202 C 
ATOM     13  C   UNL     1      29.656  30.744  16.760  1.00  0.00     0.179 C 
ATOM     14  C   UNL     1      30.512  31.596  15.887  1.00  0.00     0.177 C 
BRANCH  10  15
ATOM     15  O   UNL     1      27.966  33.667  18.271  1.00  0.00    -0.341 OA
BRANCH  15  16
ATOM     16  C   UNL     1      27.828  34.789  17.496  1.00  0.00     0.184 C 
ATOM     17  C   UNL     1      27.868  36.046  18.285  1.00  0.00     0.178 C 
ATOM     18  O   UNL     1      27.649  37.180  17.537  1.00  0.00    -0.341 OA
ATOM     19  C   UNL     1      26.532  37.165  16.731  1.00  0.00     0.281 C 
ATOM     20  C   UNL     1      26.364  34.724  16.952  1.00  0.00     0.180 C 
ATOM     21  C   UNL     1      26.290  35.891  15.988  1.00  0.00     0.202 C 
BRANCH  17  22
ATOM     22  C   UNL     1      29.215  36.216  18.949  1.00  0.00     0.191 C 
BRANCH  22  23
ATOM     23  O   UNL     1      30.233  36.044  18.006  1.00  0.00    -0.394 OA
ATOM     24  H   UNL     1      30.108  35.261  17.444  1.00  0.00     0.210 HD
ENDBRANCH  22  23
ENDBRANCH  17  22
BRANCH  19  25
ATOM     25  O   UNL     1      26.736  38.157  15.749  1.00  0.00    -0.350 OA
BRANCH  25  26
ATOM     26  C   UNL     1      26.584  39.401  16.303  1.00  0.00     0.169 C 
BRANCH  26  27
ATOM     27  C   UNL     1      27.214  40.487  15.476  1.00  0.00     0.119 C 
BRANCH  27  28
ATOM     28  N   UNL     1      28.156  39.987  14.503  1.00  0.00    -0.092 NA
ATOM     29  N   UNL     1      29.217  40.604  14.334  1.00  0.00     0.001 N 
ATOM     30  N   UNL     1      30.278  41.182  14.005  1.00  0.00    -0.003 NA
ENDBRANCH  27  28
ENDBRANCH  26  27
ENDBRANCH  25  26
ENDBRANCH  19  25
BRANCH  20  31
ATOM     31  O   UNL     1      26.197  33.500  16.361  1.00  0.00    -0.387 OA
ATOM     32  H   UNL     1      25.544  32.929  16.858  1.00  0.00     0.211 HD
ENDBRANCH  20  31
BRANCH  21  33
ATOM     33  O   UNL     1      25.001  35.916  15.464  1.00  0.00    -0.385 OA
ATOM     34  H   UNL     1      24.718  36.877  15.447  1.00  0.00     0.211 HD
ENDBRANCH  21  33
ENDBRANCH  15  16
ENDBRANCH  10  15
BRANCH  12  35
ATOM     35  O   UNL     1      28.433  30.782  18.732  1.00  0.00    -0.385 OA
ATOM     36  H   UNL     1      28.110  31.432  19.403  1.00  0.00     0.211 HD
ENDBRANCH  12  35
BRANCH  13  37
ATOM     37  O   UNL     1      28.947  29.870  15.922  1.00  0.00    -0.387 OA
ATOM     38  H   UNL     1      29.078  28.928  16.146  1.00  0.00     0.211 HD
ENDBRANCH  13  37
BRANCH  14  39
ATOM     39  O   UNL     1      29.687  32.100  14.870  1.00  0.00    -0.387 OA
ATOM     40  H   UNL     1      28.794  32.328  15.195  1.00  0.00     0.211 HD
ENDBRANCH  14  39
ENDBRANCH   8   9
ENDBRANCH   7   8
ENDBRANCH   1   7
BRANCH   1  41
ATOM     41  C   UNL     1      33.087  35.241  13.220  1.00  0.00     0.364 C 
ATOM     42  O   UNL     1      34.141  34.658  13.645  1.00  0.00    -0.246 OA
BRANCH  41  43
ATOM     43  O   UNL     1      33.156  35.858  12.000  1.00  0.00    -0.477 OA
ATOM     44  H   UNL     1      33.618  36.782  11.967  1.00  0.00     0.296 HD
ENDBRANCH  41  43
ENDBRANCH   1  41
BRANCH   3  45
ATOM     45  O   UNL     1      29.772  37.288  15.482  1.00  0.00    -0.391 OA
ATOM     46  H   UNL     1      29.858  36.481  16.042  1.00  0.00     0.211 HD
ENDBRANCH   3  45
BRANCH   5  47
ATOM     47  C   UNL     1      28.691  35.807  12.753  1.00  0.00     0.176 C 
BRANCH  47  48
ATOM     48  O   UNL     1      28.005  36.974  13.227  1.00  0.00    -0.388 OA
ATOM     49  H   UNL     1      27.051  36.740  13.279  1.00  0.00     0.211 HD
ENDBRANCH  47  48
BRANCH  47  50
ATOM     50  C   UNL     1      27.981  35.419  11.524  1.00  0.00     0.165 C 
BRANCH  50  51
ATOM     51  O   UNL     1      27.390  36.687  11.098  1.00  0.00    -0.388 OA
ATOM     52  H   UNL     1      27.238  36.615  10.108  1.00  0.00     0.211 HD
ENDBRANCH  50  51
BRANCH  50  53
ATOM     53  C   UNL     1      26.804  34.521  11.634  1.00  0.00     0.154 C 
BRANCH  53  54
ATOM     54  N   UNL     1      25.803  34.873  12.589  1.00  0.00    -0.319 N 
ATOM     55  C   UNL     1      24.537  35.378  12.141  1.00  0.00     0.407 C 
ATOM     56  H   UNL     1      25.930  34.781  13.604  1.00  0.00     0.167 HD
ATOM     57  O   UNL     1      24.372  35.485  10.904  1.00  0.00    -0.225 OA
BRANCH  55  58
ATOM     58  O   UNL     1      23.529  35.734  12.989  1.00  0.00    -0.443 OA
BRANCH  58  59
ATOM     59  C   UNL     1      22.499  34.803  13.378  1.00  0.00     0.294 C 
BRANCH  59  60
ATOM     60  C   UNL     1      23.118  33.467  13.609  1.00  0.00     0.120 A 
ATOM     61  C   UNL     1      22.961  32.337  12.837  1.00  0.00     0.138 A 
ATOM     62  N   UNL     1      23.934  33.116  14.608  1.00  0.00    -0.132 NA
ATOM     63  N   UNL     1      23.686  31.318  13.380  1.00  0.00    -0.248 N 
ATOM     64  N   UNL     1      24.266  31.826  14.456  1.00  0.00    -0.067 NA
BRANCH  63  65
ATOM     65  C   UNL     1      23.774  29.978  12.877  1.00  0.00     0.181 C 
BRANCH  65  66
ATOM     66  C   UNL     1      22.475  29.294  13.072  1.00  0.00    -0.025 A 
ATOM     67  C   UNL     1      21.508  29.228  12.104  1.00  0.00     0.006 A 
ATOM     68  C   UNL     1      22.207  28.686  14.293  1.00  0.00     0.025 A 
ATOM     69  C   UNL     1      20.307  28.598  12.294  1.00  0.00     0.002 A 
ATOM     70  C   UNL     1      21.003  28.054  14.484  1.00  0.00     0.052 A 
ATOM     71  C   UNL     1      20.013  27.984  13.504  1.00  0.00     0.019 A 
BRANCH  70  72
ATOM     72  C   UNL     1      20.735  27.423  15.750  1.00  0.00     0.099 C 
ATOM     73  N   UNL     1      20.503  26.917  16.779  1.00  0.00    -0.192 NA
ENDBRANCH  70  72
ENDBRANCH  65  66
ENDBRANCH  63  65
ENDBRANCH  59  60
ENDBRANCH  58  59
ENDBRANCH  55  58
ENDBRANCH  53  54
ENDBRANCH  50  53
ENDBRANCH  47  50
ENDBRANCH   5  47
BRANCH   4  74
ATOM     74  N   UNL     1      31.364  38.402  12.467  1.00  0.00    -0.348 N 
ATOM     75  C   UNL     1      30.933  39.043  11.287  1.00  0.00     0.217 C 
ATOM     76  H   UNL     1      32.352  38.564  12.744  1.00  0.00     0.163 HD
ATOM     77  C   UNL     1      31.824  39.906  10.461  1.00  0.00     0.114 C 
ATOM     78  O   UNL     1      29.759  38.881  10.915  1.00  0.00    -0.275 OA
ENDBRANCH   4  74
TORSDOF 32
BEGIN_RES LYS A 131
REMARK  4 active torsions:
REMARK  status: ('A' for Active; 'I' for Inactive)
REMARK    1  A    between atoms: CA   and  CB  
REMARK    2  A    between atoms: CB   and  CG  
REMARK    3  A    between atoms: CG   and  CD  
REMARK    4  A    between atoms: CD   and  CE  
ROOT
ATOM      1  CA  LYS A 131      29.867  25.555  16.977  1.00 20.52     0.186 C 
ENDROOT
BRANCH   1   2
ATOM      2  CB  LYS A 131      28.345  25.722  17.026  1.00 20.94     0.034 C 
BRANCH   2   3
ATOM      3  CG  LYS A 131      27.601  24.400  16.908  1.00 22.96     0.005 C 
BRANCH   3   4
ATOM      4  CD  LYS A 131      26.157  24.525  17.307  1.00 24.33     0.041 C 
BRANCH   4   5
ATOM      5  CE  LYS A 131      25.887  23.645  18.524  1.00 26.91     0.338 C 
ATOM      6  NZ  LYS A 131      25.483  24.474  19.684  1.00 27.40     0.618 N 
ENDBRANCH   4   5
ENDBRANCH   3   4
ENDBRANCH   2   3
ENDBRANCH   1   2
END_RES LYS A 131
BEGIN_RES LYS A 135
REMARK  4 active torsions:
REMARK  status: ('A' for Active; 'I' for Inactive)
REMARK    5  A    between atoms: CA   and  CB  
REMARK    6  A    between atoms: CB   and  CG  
REMARK    7  A    between atoms: CG   and  CD  
REMARK    8  A    between atoms: CD   and  CE  
ROOT
ATOM      7  CA  LYS A 135      33.193  34.663   9.290  1.00 25.02     0.186 C 
ENDROOT
BRANCH   7   8
ATOM      8  CB  LYS A 135      32.060  35.360  10.034  1.00 26.63     0.034 C 
BRANCH   8   9
ATOM      9  CG  LYS A 135      30.840  35.603   9.183  1.00 29.45     0.005 C 
BRANCH   9  10
ATOM     10  CD  LYS A 135      30.197  34.285   8.778  1.00 32.00     0.041 C 
BRANCH  10  11
ATOM     11  CE  LYS A 135      28.828  34.525   8.171  1.00 34.25     0.338 C 
ATOM     12  NZ  LYS A 135      28.913  35.448   7.005  1.00 35.99     0.618 N 
ENDBRANCH  10  11
ENDBRANCH   9  10
ENDBRANCH   8   9
ENDBRANCH   7   8
END_RES LYS A 135
