REMARK VINA RESULT:    -4.366      7.296     16.101
REMARK INTER + INTRA:         -21.989
REMARK INTER:                 -11.796
REMARK INTRA:                 -10.193
REMARK UNBOUND:               -11.242
REMARK SMILES CC(=O)N[C@@H]1[C@@H](O)C[C@](OC[C@H]2O[C@@H](O[C@H]3[C@H](O)[C@@H](O)[C@H](OCCN=[N+]=[N-])O[C@@H]3CO)[C@H](O)[C@@H](O)[C@H]2O)(C(=O)O)O[C@H]1C(O)[C@H](O)CNC(=O)OCc1cn(-c2c(C)cc(C)cc2C)nn1
REMARK SMILES IDX 9 1 8 2 6 3 5 4 42 5 41 6 10 7 11 8 12 9 14 10 13 11 32 12
REMARK SMILES IDX 34 13 36 14 15 15 16 16 29 17 28 18 21 19 17 20 19 21 30 22
REMARK SMILES IDX 31 23 22 25 23 26 24 27 25 28 26 29 27 30 18 31 20 33 33 35
REMARK SMILES IDX 35 37 37 39 38 41 39 42 40 43 7 45 43 47 44 48 45 50 46 51
REMARK SMILES IDX 47 53 48 54 49 55 50 57 51 58 52 59 53 60 54 61 66 62 55 63
REMARK SMILES IDX 65 64 56 65 57 66 63 67 58 68 59 69 62 70 64 71 60 72 61 73
REMARK SMILES IDX 4 74 2 75 1 77 3 78
REMARK H PARENT 31 24 18 32 20 34 33 36 35 38 37 40 40 44 7 46 44 49 46 52
REMARK H PARENT 48 56 4 76
REMARK Flexibility Score: inf
ROOT
ATOM      1  C   UNL     1      26.495  37.256   8.694  1.00  0.00     0.272 C 
ATOM      2  C   UNL     1      26.512  36.809   7.284  1.00  0.00     0.113 C 
ATOM      3  C   UNL     1      27.399  37.586   6.343  1.00  0.00     0.145 C 
ATOM      4  C   UNL     1      27.428  39.027   6.741  1.00  0.00     0.142 C 
ATOM      5  C   UNL     1      26.129  39.260   7.524  1.00  0.00     0.178 C 
ATOM      6  O   UNL     1      26.325  38.644   8.790  1.00  0.00    -0.332 OA
ENDROOT
BRANCH   1   7
ATOM      7  O   UNL     1      27.519  36.858   9.499  1.00  0.00    -0.338 OA
BRANCH   7   8
ATOM      8  C   UNL     1      28.159  37.747  10.283  1.00  0.00     0.199 C 
BRANCH   8   9
ATOM      9  C   UNL     1      27.769  37.446  11.737  1.00  0.00     0.179 C 
ATOM     10  C   UNL     1      28.843  37.265  13.765  1.00  0.00     0.282 C 
ATOM     11  O   UNL     1      28.837  36.905  12.426  1.00  0.00    -0.341 OA
ATOM     12  C   UNL     1      29.175  38.734  13.800  1.00  0.00     0.202 C 
ATOM     13  C   UNL     1      27.987  39.449  13.174  1.00  0.00     0.179 C 
ATOM     14  C   UNL     1      27.065  38.565  12.411  1.00  0.00     0.177 C 
BRANCH  10  15
ATOM     15  O   UNL     1      29.588  36.469  14.548  1.00  0.00    -0.341 OA
BRANCH  15  16
ATOM     16  C   UNL     1      29.248  35.173  14.694  1.00  0.00     0.184 C 
ATOM     17  C   UNL     1      28.828  34.919  16.131  1.00  0.00     0.178 C 
ATOM     18  O   UNL     1      29.786  34.290  16.868  1.00  0.00    -0.341 OA
ATOM     19  C   UNL     1      30.117  33.019  16.424  1.00  0.00     0.281 C 
ATOM     20  C   UNL     1      30.466  34.304  14.367  1.00  0.00     0.180 C 
ATOM     21  C   UNL     1      30.287  32.915  14.953  1.00  0.00     0.202 C 
BRANCH  17  22
ATOM     22  C   UNL     1      27.476  34.229  16.189  1.00  0.00     0.191 C 
BRANCH  22  23
ATOM     23  O   UNL     1      27.019  34.151  17.502  1.00  0.00    -0.394 OA
ATOM     24  H   UNL     1      27.259  33.310  17.954  1.00  0.00     0.210 HD
ENDBRANCH  22  23
ENDBRANCH  17  22
BRANCH  19  25
ATOM     25  O   UNL     1      29.172  32.074  16.850  1.00  0.00    -0.350 OA
BRANCH  25  26
ATOM     26  C   UNL     1      29.456  31.520  18.072  1.00  0.00     0.169 C 
BRANCH  26  27
ATOM     27  C   UNL     1      28.265  31.116  18.885  1.00  0.00     0.119 C 
BRANCH  27  28
ATOM     28  N   UNL     1      28.000  29.691  18.802  1.00  0.00    -0.092 NA
ATOM     29  N   UNL     1      27.558  29.184  17.752  1.00  0.00     0.001 N 
ATOM     30  N   UNL     1      27.186  28.871  16.615  1.00  0.00    -0.003 NA
ENDBRANCH  27  28
ENDBRANCH  26  27
ENDBRANCH  25  26
ENDBRANCH  19  25
BRANCH  20  31
ATOM     31  O   UNL     1      30.689  34.171  13.019  1.00  0.00    -0.387 OA
ATOM     32  H   UNL     1      31.643  34.090  12.760  1.00  0.00     0.211 HD
ENDBRANCH  20  31
BRANCH  21  33
ATOM     33  O   UNL     1      31.455  32.207  14.679  1.00  0.00    -0.385 OA
ATOM     34  H   UNL     1      32.014  32.684  14.003  1.00  0.00     0.211 HD
ENDBRANCH  21  33
ENDBRANCH  15  16
ENDBRANCH  10  15
BRANCH  12  35
ATOM     35  O   UNL     1      29.313  39.222  15.096  1.00  0.00    -0.385 OA
ATOM     36  H   UNL     1      30.287  39.148  15.332  1.00  0.00     0.211 HD
ENDBRANCH  12  35
BRANCH  13  37
ATOM     37  O   UNL     1      28.402  40.491  12.346  1.00  0.00    -0.387 OA
ATOM     38  H   UNL     1      27.957  40.487  11.460  1.00  0.00     0.211 HD
ENDBRANCH  13  37
BRANCH  14  39
ATOM     39  O   UNL     1      26.414  39.370  11.445  1.00  0.00    -0.387 OA
ATOM     40  H   UNL     1      26.964  39.449  10.631  1.00  0.00     0.211 HD
ENDBRANCH  14  39
ENDBRANCH   8   9
ENDBRANCH   7   8
ENDBRANCH   1   7
BRANCH   1  41
ATOM     41  C   UNL     1      25.202  36.733   9.281  1.00  0.00     0.364 C 
ATOM     42  O   UNL     1      24.803  35.614   8.942  1.00  0.00    -0.246 OA
BRANCH  41  43
ATOM     43  O   UNL     1      24.466  37.477  10.183  1.00  0.00    -0.477 OA
ATOM     44  H   UNL     1      24.554  38.468  10.317  1.00  0.00     0.296 HD
ENDBRANCH  41  43
ENDBRANCH   1  41
BRANCH   3  45
ATOM     45  O   UNL     1      28.650  36.970   6.357  1.00  0.00    -0.391 OA
ATOM     46  H   UNL     1      29.205  37.393   7.088  1.00  0.00     0.211 HD
ENDBRANCH   3  45
BRANCH   5  47
ATOM     47  C   UNL     1      25.839  40.672   7.845  1.00  0.00     0.176 C 
BRANCH  47  48
ATOM     48  O   UNL     1      26.626  40.990   9.012  1.00  0.00    -0.388 OA
ATOM     49  H   UNL     1      26.533  40.248   9.663  1.00  0.00     0.211 HD
ENDBRANCH  47  48
BRANCH  47  50
ATOM     50  C   UNL     1      24.440  41.011   8.319  1.00  0.00     0.165 C 
BRANCH  50  51
ATOM     51  O   UNL     1      24.434  40.436   9.648  1.00  0.00    -0.388 OA
ATOM     52  H   UNL     1      24.410  39.463   9.571  1.00  0.00     0.211 HD
ENDBRANCH  50  51
BRANCH  50  53
ATOM     53  C   UNL     1      23.393  40.193   7.603  1.00  0.00     0.154 C 
BRANCH  53  54
ATOM     54  N   UNL     1      22.695  39.227   8.396  1.00  0.00    -0.319 N 
ATOM     55  C   UNL     1      21.315  39.431   8.702  1.00  0.00     0.407 C 
ATOM     56  H   UNL     1      23.189  38.365   8.762  1.00  0.00     0.167 HD
ATOM     57  O   UNL     1      20.788  40.485   8.251  1.00  0.00    -0.225 OA
BRANCH  55  58
ATOM     58  O   UNL     1      20.575  38.528   9.455  1.00  0.00    -0.443 OA
BRANCH  58  59
ATOM     59  C   UNL     1      20.714  37.135   9.308  1.00  0.00     0.294 C 
BRANCH  59  60
ATOM     60  C   UNL     1      21.387  36.474  10.459  1.00  0.00     0.121 A 
ATOM     61  C   UNL     1      21.786  35.163  10.578  1.00  0.00     0.144 A 
ATOM     62  N   UNL     1      21.741  37.063  11.638  1.00  0.00    -0.131 NA
ATOM     63  N   UNL     1      22.353  34.985  11.783  1.00  0.00    -0.220 N 
ATOM     64  N   UNL     1      22.301  36.170  12.391  1.00  0.00    -0.062 NA
BRANCH  63  65
ATOM     65  C   UNL     1      22.907  33.782  12.349  1.00  0.00     0.072 A 
ATOM     66  C   UNL     1      22.029  32.762  12.618  1.00  0.00    -0.025 A 
ATOM     67  C   UNL     1      24.233  33.696  12.595  1.00  0.00    -0.025 A 
ATOM     68  C   UNL     1      20.559  32.898  12.330  1.00  0.00     0.047 C 
ATOM     69  C   UNL     1      22.540  31.601  13.164  1.00  0.00     0.009 A 
ATOM     70  C   UNL     1      24.704  32.501  13.149  1.00  0.00     0.009 A 
ATOM     71  C   UNL     1      25.213  34.777  12.315  1.00  0.00     0.047 C 
ATOM     72  C   UNL     1      23.874  31.445  13.439  1.00  0.00    -0.050 A 
ATOM     73  C   UNL     1      24.361  30.172  14.024  1.00  0.00     0.044 C 
ENDBRANCH  63  65
ENDBRANCH  59  60
ENDBRANCH  58  59
ENDBRANCH  55  58
ENDBRANCH  53  54
ENDBRANCH  50  53
ENDBRANCH  47  50
ENDBRANCH   5  47
BRANCH   4  74
ATOM     74  N   UNL     1      27.650  39.958   5.722  1.00  0.00    -0.348 N 
ATOM     75  C   UNL     1      28.948  40.362   5.296  1.00  0.00     0.217 C 
ATOM     76  H   UNL     1      26.848  40.378   5.217  1.00  0.00     0.163 HD
ATOM     77  C   UNL     1      29.151  41.359   4.200  1.00  0.00     0.114 C 
ATOM     78  O   UNL     1      29.924  39.851   5.869  1.00  0.00    -0.275 OA
ENDBRANCH   4  74
TORSDOF 30
BEGIN_RES LYS A 131
REMARK  4 active torsions:
REMARK  status: ('A' for Active; 'I' for Inactive)
REMARK    1  A    between atoms: CA   and  CB  
REMARK    2  A    between atoms: CB   and  CG  
REMARK    3  A    between atoms: CG   and  CD  
REMARK    4  A    between atoms: CD   and  CE  
ROOT
ATOM      1  CA  LYS A 131      29.867  25.555  16.977  1.00 20.52     0.186 C 
ENDROOT
BRANCH   1   2
ATOM      2  CB  LYS A 131      28.345  25.722  17.026  1.00 20.94     0.034 C 
BRANCH   2   3
ATOM      3  CG  LYS A 131      27.602  24.399  16.920  1.00 22.96     0.005 C 
BRANCH   3   4
ATOM      4  CD  LYS A 131      26.599  24.223  18.026  1.00 24.33     0.041 C 
BRANCH   4   5
ATOM      5  CE  LYS A 131      26.294  25.577  18.658  1.00 26.91     0.338 C 
ATOM      6  NZ  LYS A 131      25.069  26.163  18.065  1.00 27.40     0.618 N 
ENDBRANCH   4   5
ENDBRANCH   3   4
ENDBRANCH   2   3
ENDBRANCH   1   2
END_RES LYS A 131
BEGIN_RES LYS A 135
REMARK  4 active torsions:
REMARK  status: ('A' for Active; 'I' for Inactive)
REMARK    5  A    between atoms: CA   and  CB  
REMARK    6  A    between atoms: CB   and  CG  
REMARK    7  A    between atoms: CG   and  CD  
REMARK    8  A    between atoms: CD   and  CE  
ROOT
ATOM      7  CA  LYS A 135      33.193  34.663   9.290  1.00 25.02     0.186 C 
ENDROOT
BRANCH   7   8
ATOM      8  CB  LYS A 135      32.060  35.360  10.034  1.00 26.63     0.034 C 
BRANCH   8   9
ATOM      9  CG  LYS A 135      30.775  35.427   9.249  1.00 29.45     0.005 C 
BRANCH   9  10
ATOM     10  CD  LYS A 135      30.183  34.038   9.069  1.00 32.00     0.041 C 
BRANCH  10  11
ATOM     11  CE  LYS A 135      28.721  34.130   8.676  1.00 34.25     0.338 C 
ATOM     12  NZ  LYS A 135      27.838  33.675   9.785  1.00 35.99     0.618 N 
ENDBRANCH  10  11
ENDBRANCH   9  10
ENDBRANCH   8   9
ENDBRANCH   7   8
END_RES LYS A 135
