REMARK VINA RESULT:    -4.692      3.017      6.468
REMARK INTER + INTRA:         -23.036
REMARK INTER:                 -12.265
REMARK INTRA:                 -10.772
REMARK UNBOUND:               -11.213
REMARK SMILES CC(=O)N[C@@H]1[C@@H](O)C[C@](OC[C@H]2O[C@@H](O[C@H]3[C@H](O)[C@@H](O)[C@H](OCCN=[N+]=[N-])O[C@@H]3CO)[C@H](O)[C@@H](O)[C@H]2O)(C(=O)O)O[C@H]1C(O)[C@H](O)CNC(=O)OCc1cn(CC2=CC[C@H]3C[C@@H]2C3(C)C)nn1
REMARK SMILES IDX 9 1 8 2 6 3 5 4 42 5 41 6 10 7 11 8 12 9 14 10 13 11 32 12
REMARK SMILES IDX 34 13 36 14 15 15 16 16 29 17 28 18 21 19 17 20 19 21 30 22
REMARK SMILES IDX 31 23 22 25 23 26 24 27 25 28 26 29 27 30 18 31 20 33 33 35
REMARK SMILES IDX 35 37 37 39 38 41 39 42 40 43 7 45 43 47 44 48 45 50 46 51
REMARK SMILES IDX 47 53 48 54 49 55 50 57 51 58 52 59 53 60 54 61 67 62 55 63
REMARK SMILES IDX 66 64 56 65 57 66 58 67 62 68 59 69 61 70 63 71 60 72 64 73
REMARK SMILES IDX 65 74 4 75 2 76 1 78 3 79
REMARK H PARENT 31 24 18 32 20 34 33 36 35 38 37 40 40 44 7 46 44 49 46 52
REMARK H PARENT 48 56 4 77
REMARK Flexibility Score: inf
ROOT
ATOM      1  C   UNL     1      28.989  34.950   8.375  1.00  0.00     0.272 C 
ATOM      2  C   UNL     1      28.669  33.793   9.262  1.00  0.00     0.113 C 
ATOM      3  C   UNL     1      27.245  33.937   9.828  1.00  0.00     0.145 C 
ATOM      4  C   UNL     1      27.138  35.157  10.669  1.00  0.00     0.142 C 
ATOM      5  C   UNL     1      28.355  36.008  10.370  1.00  0.00     0.178 C 
ATOM      6  O   UNL     1      28.569  36.148   9.047  1.00  0.00    -0.332 OA
ENDROOT
BRANCH   1   7
ATOM      7  O   UNL     1      28.373  35.004   7.204  1.00  0.00    -0.338 OA
BRANCH   7   8
ATOM      8  C   UNL     1      28.339  35.964   6.316  1.00  0.00     0.199 C 
BRANCH   8   9
ATOM      9  C   UNL     1      28.077  37.389   6.565  1.00  0.00     0.179 C 
ATOM     10  C   UNL     1      29.260  39.368   6.749  1.00  0.00     0.282 C 
ATOM     11  O   UNL     1      29.283  38.078   6.231  1.00  0.00    -0.341 OA
ATOM     12  C   UNL     1      27.992  40.085   6.620  1.00  0.00     0.202 C 
ATOM     13  C   UNL     1      26.803  39.379   6.101  1.00  0.00     0.179 C 
ATOM     14  C   UNL     1      27.112  38.014   5.538  1.00  0.00     0.177 C 
BRANCH  10  15
ATOM     15  O   UNL     1      30.263  40.046   6.031  1.00  0.00    -0.341 OA
BRANCH  15  16
ATOM     16  C   UNL     1      31.131  40.740   6.855  1.00  0.00     0.184 C 
ATOM     17  C   UNL     1      31.488  42.061   6.236  1.00  0.00     0.178 C 
ATOM     18  O   UNL     1      32.606  42.661   6.787  1.00  0.00    -0.341 OA
ATOM     19  C   UNL     1      33.091  42.105   7.934  1.00  0.00     0.281 C 
ATOM     20  C   UNL     1      32.426  39.925   6.918  1.00  0.00     0.180 C 
ATOM     21  C   UNL     1      33.398  40.632   7.812  1.00  0.00     0.202 C 
BRANCH  17  22
ATOM     22  C   UNL     1      30.289  43.001   6.407  1.00  0.00     0.191 C 
BRANCH  22  23
ATOM     23  O   UNL     1      29.723  42.745   7.647  1.00  0.00    -0.394 OA
ATOM     24  H   UNL     1      29.471  41.772   7.676  1.00  0.00     0.210 HD
ENDBRANCH  22  23
ENDBRANCH  17  22
BRANCH  19  25
ATOM     25  O   UNL     1      32.222  42.294   9.017  1.00  0.00    -0.350 OA
BRANCH  25  26
ATOM     26  C   UNL     1      32.818  41.944  10.230  1.00  0.00     0.169 C 
BRANCH  26  27
ATOM     27  C   UNL     1      31.695  41.343  11.079  1.00  0.00     0.119 C 
BRANCH  27  28
ATOM     28  N   UNL     1      30.653  42.330  11.261  1.00  0.00    -0.092 NA
ATOM     29  N   UNL     1      29.499  42.129  10.929  1.00  0.00     0.001 N 
ATOM     30  N   UNL     1      28.374  41.938  10.452  1.00  0.00    -0.003 NA
ENDBRANCH  27  28
ENDBRANCH  26  27
ENDBRANCH  25  26
ENDBRANCH  19  25
BRANCH  20  31
ATOM     31  O   UNL     1      32.161  38.659   7.470  1.00  0.00    -0.387 OA
ATOM     32  H   UNL     1      31.801  38.055   6.785  1.00  0.00     0.211 HD
ENDBRANCH  20  31
BRANCH  21  33
ATOM     33  O   UNL     1      34.723  40.442   7.422  1.00  0.00    -0.385 OA
ATOM     34  H   UNL     1      35.309  40.687   8.194  1.00  0.00     0.211 HD
ENDBRANCH  21  33
ENDBRANCH  15  16
ENDBRANCH  10  15
BRANCH  12  35
ATOM     35  O   UNL     1      27.660  40.588   7.907  1.00  0.00    -0.385 OA
ATOM     36  H   UNL     1      28.234  40.188   8.609  1.00  0.00     0.211 HD
ENDBRANCH  12  35
BRANCH  13  37
ATOM     37  O   UNL     1      26.066  40.168   5.211  1.00  0.00    -0.387 OA
ATOM     38  H   UNL     1      25.108  40.181   5.481  1.00  0.00     0.211 HD
ENDBRANCH  13  37
BRANCH  14  39
ATOM     39  O   UNL     1      27.848  38.206   4.351  1.00  0.00    -0.387 OA
ATOM     40  H   UNL     1      28.745  38.564   4.562  1.00  0.00     0.211 HD
ENDBRANCH  14  39
ENDBRANCH   8   9
ENDBRANCH   7   8
ENDBRANCH   1   7
BRANCH   1  41
ATOM     41  C   UNL     1      30.459  35.161   8.316  1.00  0.00     0.364 C 
ATOM     42  O   UNL     1      31.244  34.155   8.200  1.00  0.00    -0.246 OA
BRANCH  41  43
ATOM     43  O   UNL     1      31.048  36.379   8.385  1.00  0.00    -0.477 OA
ATOM     44  H   UNL     1      32.003  36.620   8.177  1.00  0.00     0.296 HD
ENDBRANCH  41  43
ENDBRANCH   1  41
BRANCH   3  45
ATOM     45  O   UNL     1      26.457  34.155   8.687  1.00  0.00    -0.391 OA
ATOM     46  H   UNL     1      27.054  34.122   7.899  1.00  0.00     0.211 HD
ENDBRANCH   3  45
BRANCH   5  47
ATOM     47  C   UNL     1      28.185  37.409  10.963  1.00  0.00     0.176 C 
BRANCH  47  48
ATOM     48  O   UNL     1      28.112  38.348   9.968  1.00  0.00    -0.388 OA
ATOM     49  H   UNL     1      27.782  38.004   9.091  1.00  0.00     0.211 HD
ENDBRANCH  47  48
BRANCH  47  50
ATOM     50  C   UNL     1      29.295  37.716  11.924  1.00  0.00     0.165 C 
BRANCH  50  51
ATOM     51  O   UNL     1      29.199  36.725  12.942  1.00  0.00    -0.388 OA
ATOM     52  H   UNL     1      28.214  36.512  12.955  1.00  0.00     0.211 HD
ENDBRANCH  50  51
BRANCH  50  53
ATOM     53  C   UNL     1      29.096  39.028  12.614  1.00  0.00     0.154 C 
BRANCH  53  54
ATOM     54  N   UNL     1      27.762  39.534  12.581  1.00  0.00    -0.319 N 
ATOM     55  C   UNL     1      26.839  39.183  13.595  1.00  0.00     0.407 C 
ATOM     56  H   UNL     1      27.476  40.175  11.800  1.00  0.00     0.167 HD
ATOM     57  O   UNL     1      27.182  38.433  14.518  1.00  0.00    -0.225 OA
BRANCH  55  58
ATOM     58  O   UNL     1      25.545  39.668  13.574  1.00  0.00    -0.443 OA
BRANCH  58  59
ATOM     59  C   UNL     1      24.900  40.274  12.505  1.00  0.00     0.294 C 
BRANCH  59  60
ATOM     60  C   UNL     1      24.938  39.494  11.234  1.00  0.00     0.120 A 
ATOM     61  C   UNL     1      24.396  38.257  10.982  1.00  0.00     0.138 A 
ATOM     62  N   UNL     1      25.523  39.884  10.067  1.00  0.00    -0.132 NA
ATOM     63  N   UNL     1      24.651  37.927   9.714  1.00  0.00    -0.248 N 
ATOM     64  N   UNL     1      25.332  38.925   9.185  1.00  0.00    -0.067 NA
BRANCH  63  65
ATOM     65  C   UNL     1      24.251  36.689   9.020  1.00  0.00     0.177 C 
BRANCH  65  66
ATOM     66  C   UNL     1      22.759  36.781   8.885  1.00  0.00    -0.049 C 
ATOM     67  C   UNL     1      22.171  37.942   8.533  1.00  0.00    -0.025 C 
ATOM     68  C   UNL     1      21.872  35.632   9.121  1.00  0.00     0.023 C 
ATOM     69  C   UNL     1      20.694  38.036   8.564  1.00  0.00     0.031 C 
ATOM     70  C   UNL     1      20.824  35.651   8.000  1.00  0.00     0.013 C 
ATOM     71  C   UNL     1      20.775  36.030  10.061  1.00  0.00    -0.026 C 
ATOM     72  C   UNL     1      20.091  36.691   8.856  1.00  0.00    -0.000 C 
ATOM     73  C   UNL     1      19.919  34.887  10.551  1.00  0.00     0.012 C 
ATOM     74  C   UNL     1      21.126  36.954  11.178  1.00  0.00     0.012 C 
ENDBRANCH  65  66
ENDBRANCH  63  65
ENDBRANCH  59  60
ENDBRANCH  58  59
ENDBRANCH  55  58
ENDBRANCH  53  54
ENDBRANCH  50  53
ENDBRANCH  47  50
ENDBRANCH   5  47
BRANCH   4  75
ATOM     75  N   UNL     1      27.072  34.969  12.076  1.00  0.00    -0.348 N 
ATOM     76  C   UNL     1      25.912  34.874  12.859  1.00  0.00     0.217 C 
ATOM     77  H   UNL     1      28.008  34.893  12.572  1.00  0.00     0.163 HD
ATOM     78  C   UNL     1      25.989  34.675  14.329  1.00  0.00     0.114 C 
ATOM     79  O   UNL     1      24.824  34.964  12.265  1.00  0.00    -0.275 OA
ENDBRANCH   4  75
TORSDOF 31
BEGIN_RES LYS A 131
REMARK  4 active torsions:
REMARK  status: ('A' for Active; 'I' for Inactive)
REMARK    1  A    between atoms: CA   and  CB  
REMARK    2  A    between atoms: CB   and  CG  
REMARK    3  A    between atoms: CG   and  CD  
REMARK    4  A    between atoms: CD   and  CE  
ROOT
ATOM      1  CA  LYS A 131      29.867  25.555  16.977  1.00 20.52     0.186 C 
ENDROOT
BRANCH   1   2
ATOM      2  CB  LYS A 131      28.345  25.722  17.026  1.00 20.94     0.034 C 
BRANCH   2   3
ATOM      3  CG  LYS A 131      27.601  24.402  16.895  1.00 22.96     0.005 C 
BRANCH   3   4
ATOM      4  CD  LYS A 131      26.502  24.267  17.912  1.00 24.33     0.041 C 
BRANCH   4   5
ATOM      5  CE  LYS A 131      26.011  25.653  18.317  1.00 26.91     0.338 C 
ATOM      6  NZ  LYS A 131      25.894  25.751  19.791  1.00 27.40     0.618 N 
ENDBRANCH   4   5
ENDBRANCH   3   4
ENDBRANCH   2   3
ENDBRANCH   1   2
END_RES LYS A 131
BEGIN_RES LYS A 135
REMARK  4 active torsions:
REMARK  status: ('A' for Active; 'I' for Inactive)
REMARK    5  A    between atoms: CA   and  CB  
REMARK    6  A    between atoms: CB   and  CG  
REMARK    7  A    between atoms: CG   and  CD  
REMARK    8  A    between atoms: CD   and  CE  
ROOT
ATOM      7  CA  LYS A 135      33.193  34.663   9.290  1.00 25.02     0.186 C 
ENDROOT
BRANCH   7   8
ATOM      8  CB  LYS A 135      32.060  35.360  10.034  1.00 26.63     0.034 C 
BRANCH   8   9
ATOM      9  CG  LYS A 135      32.030  35.054  11.509  1.00 29.45     0.005 C 
BRANCH   9  10
ATOM     10  CD  LYS A 135      32.628  36.202  12.308  1.00 32.00     0.041 C 
BRANCH  10  11
ATOM     11  CE  LYS A 135      32.561  35.909  13.794  1.00 34.25     0.338 C 
ATOM     12  NZ  LYS A 135      33.519  34.833  14.172  1.00 35.99     0.618 N 
ENDBRANCH  10  11
ENDBRANCH   9  10
ENDBRANCH   8   9
ENDBRANCH   7   8
END_RES LYS A 135
