REMARK VINA RESULT:    -5.788      0.000      0.000
REMARK INTER + INTRA:         -24.710
REMARK INTER:                 -14.793
REMARK INTRA:                  -9.917
REMARK UNBOUND:               -10.464
REMARK SMILES CC(=O)N[C@@H]1[C@@H](O)C[C@](OC[C@H]2O[C@@H](O[C@H]3[C@H](O)[C@@H](O)[C@H](OCCN=[N+]=[N-])O[C@@H]3CO)[C@H](O)[C@@H](O)[C@H]2O)(C(=O)O)O[C@H]1C(O)[C@H](O)CNC(=O)OCc1cn(-c2c3ccccc3nc3ccccc23)nn1
REMARK SMILES IDX 9 1 8 2 6 3 5 4 42 5 41 6 10 7 11 8 12 9 14 10 13 11 32 12
REMARK SMILES IDX 34 13 36 14 15 15 16 16 29 17 28 18 21 19 17 20 19 21 30 22
REMARK SMILES IDX 31 23 22 25 23 26 24 27 25 28 26 29 27 30 18 31 20 33 33 35
REMARK SMILES IDX 35 37 37 39 38 41 39 42 40 43 7 45 43 47 44 48 45 50 46 51
REMARK SMILES IDX 47 53 48 54 49 55 50 57 51 58 52 59 53 60 54 61 71 62 55 63
REMARK SMILES IDX 70 64 56 65 57 66 69 67 58 68 62 69 64 70 68 71 59 72 61 73
REMARK SMILES IDX 63 74 65 75 67 76 60 77 66 78 4 79 2 80 1 82 3 83
REMARK H PARENT 31 24 18 32 20 34 33 36 35 38 37 40 40 44 7 46 44 49 46 52
REMARK H PARENT 48 56 4 81
REMARK Flexibility Score: inf
ROOT
ATOM      1  C   UNL     1      32.115  34.656  14.653  1.00  0.00     0.272 C 
ATOM      2  C   UNL     1      32.228  35.950  15.600  1.00  0.00     0.113 C 
ATOM      3  C   UNL     1      32.083  37.085  14.654  1.00  0.00     0.145 C 
ATOM      4  C   UNL     1      30.833  37.046  13.801  1.00  0.00     0.142 C 
ATOM      5  C   UNL     1      30.305  35.694  13.554  1.00  0.00     0.178 C 
ATOM      6  O   UNL     1      30.843  34.674  14.262  1.00  0.00    -0.332 OA
ENDROOT
BRANCH   1   7
ATOM      7  O   UNL     1      32.290  33.668  15.624  1.00  0.00    -0.338 OA
BRANCH   7   8
ATOM      8  C   UNL     1      31.606  33.816  16.782  1.00  0.00     0.199 C 
BRANCH   8   9
ATOM      9  C   UNL     1      30.511  32.846  17.009  1.00  0.00     0.179 C 
ATOM     10  C   UNL     1      28.201  32.531  17.130  1.00  0.00     0.282 C 
ATOM     11  O   UNL     1      29.276  33.434  16.981  1.00  0.00    -0.341 OA
ATOM     12  C   UNL     1      28.602  31.167  17.506  1.00  0.00     0.202 C 
ATOM     13  C   UNL     1      29.662  30.609  16.585  1.00  0.00     0.179 C 
ATOM     14  C   UNL     1      30.570  31.663  16.040  1.00  0.00     0.177 C 
BRANCH  10  15
ATOM     15  O   UNL     1      27.391  32.580  16.004  1.00  0.00    -0.341 OA
BRANCH  15  16
ATOM     16  C   UNL     1      26.017  32.463  16.319  1.00  0.00     0.184 C 
ATOM     17  C   UNL     1      25.380  31.480  15.421  1.00  0.00     0.178 C 
ATOM     18  O   UNL     1      23.971  31.625  15.328  1.00  0.00    -0.341 OA
ATOM     19  C   UNL     1      23.739  32.864  14.743  1.00  0.00     0.281 C 
ATOM     20  C   UNL     1      25.469  33.880  16.088  1.00  0.00     0.180 C 
ATOM     21  C   UNL     1      23.982  33.880  15.871  1.00  0.00     0.202 C 
BRANCH  17  22
ATOM     22  C   UNL     1      25.627  30.053  15.886  1.00  0.00     0.191 C 
BRANCH  22  23
ATOM     23  O   UNL     1      24.478  29.321  16.037  1.00  0.00    -0.394 OA
ATOM     24  H   UNL     1      23.701  29.881  15.776  1.00  0.00     0.210 HD
ENDBRANCH  22  23
ENDBRANCH  17  22
BRANCH  19  25
ATOM     25  O   UNL     1      22.446  32.881  14.284  1.00  0.00    -0.350 OA
BRANCH  25  26
ATOM     26  C   UNL     1      21.726  31.720  14.546  1.00  0.00     0.169 C 
BRANCH  26  27
ATOM     27  C   UNL     1      20.969  31.231  13.329  1.00  0.00     0.119 C 
BRANCH  27  28
ATOM     28  N   UNL     1      21.959  30.712  12.391  1.00  0.00    -0.092 NA
ATOM     29  N   UNL     1      22.754  29.832  12.739  1.00  0.00     0.001 N 
ATOM     30  N   UNL     1      23.524  28.909  13.010  1.00  0.00    -0.003 NA
ENDBRANCH  27  28
ENDBRANCH  26  27
ENDBRANCH  25  26
ENDBRANCH  19  25
BRANCH  20  31
ATOM     31  O   UNL     1      25.862  34.710  17.126  1.00  0.00    -0.387 OA
ATOM     32  H   UNL     1      26.832  34.662  17.316  1.00  0.00     0.211 HD
ENDBRANCH  20  31
BRANCH  21  33
ATOM     33  O   UNL     1      23.571  35.141  15.502  1.00  0.00    -0.385 OA
ATOM     34  H   UNL     1      23.209  35.586  16.327  1.00  0.00     0.211 HD
ENDBRANCH  21  33
ENDBRANCH  15  16
ENDBRANCH  10  15
BRANCH  12  35
ATOM     35  O   UNL     1      28.987  31.109  18.854  1.00  0.00    -0.385 OA
ATOM     36  H   UNL     1      29.037  30.131  19.073  1.00  0.00     0.211 HD
ENDBRANCH  12  35
BRANCH  13  37
ATOM     37  O   UNL     1      29.003  29.913  15.554  1.00  0.00    -0.387 OA
ATOM     38  H   UNL     1      29.503  29.039  15.467  1.00  0.00     0.211 HD
ENDBRANCH  13  37
BRANCH  14  39
ATOM     39  O   UNL     1      30.273  32.029  14.743  1.00  0.00    -0.387 OA
ATOM     40  H   UNL     1      30.349  31.280  14.099  1.00  0.00     0.211 HD
ENDBRANCH  14  39
ENDBRANCH   8   9
ENDBRANCH   7   8
ENDBRANCH   1   7
BRANCH   1  41
ATOM     41  C   UNL     1      33.223  34.812  13.771  1.00  0.00     0.364 C 
ATOM     42  O   UNL     1      34.419  34.747  14.204  1.00  0.00    -0.246 OA
BRANCH  41  43
ATOM     43  O   UNL     1      33.153  35.041  12.392  1.00  0.00    -0.477 OA
ATOM     44  H   UNL     1      33.084  35.996  12.061  1.00  0.00     0.296 HD
ENDBRANCH  41  43
ENDBRANCH   1  41
BRANCH   3  45
ATOM     45  O   UNL     1      32.101  38.266  15.436  1.00  0.00    -0.391 OA
ATOM     46  H   UNL     1      32.680  38.117  16.229  1.00  0.00     0.211 HD
ENDBRANCH   3  45
BRANCH   5  47
ATOM     47  C   UNL     1      28.780  35.614  13.843  1.00  0.00     0.176 C 
BRANCH  47  48
ATOM     48  O   UNL     1      28.347  34.323  13.778  1.00  0.00    -0.388 OA
ATOM     49  H   UNL     1      28.840  33.753  13.109  1.00  0.00     0.211 HD
ENDBRANCH  47  48
BRANCH  47  50
ATOM     50  C   UNL     1      28.345  36.468  14.944  1.00  0.00     0.165 C 
BRANCH  50  51
ATOM     51  O   UNL     1      28.587  36.006  16.240  1.00  0.00    -0.388 OA
ATOM     52  H   UNL     1      27.745  35.843  16.734  1.00  0.00     0.211 HD
ENDBRANCH  50  51
BRANCH  50  53
ATOM     53  C   UNL     1      27.085  37.232  14.808  1.00  0.00     0.154 C 
BRANCH  53  54
ATOM     54  N   UNL     1      25.953  36.641  14.200  1.00  0.00    -0.319 N 
ATOM     55  C   UNL     1      24.946  37.332  13.493  1.00  0.00     0.407 C 
ATOM     56  H   UNL     1      25.843  35.561  14.278  1.00  0.00     0.167 HD
ATOM     57  O   UNL     1      24.909  38.561  13.334  1.00  0.00    -0.225 OA
BRANCH  55  58
ATOM     58  O   UNL     1      23.878  36.631  12.900  1.00  0.00    -0.443 OA
BRANCH  58  59
ATOM     59  C   UNL     1      24.070  35.524  12.035  1.00  0.00     0.294 C 
BRANCH  59  60
ATOM     60  C   UNL     1      24.130  36.004  10.624  1.00  0.00     0.121 A 
ATOM     61  C   UNL     1      25.066  36.830  10.041  1.00  0.00     0.144 A 
ATOM     62  N   UNL     1      23.256  35.723   9.646  1.00  0.00    -0.131 NA
ATOM     63  N   UNL     1      24.757  37.038   8.740  1.00  0.00    -0.219 N 
ATOM     64  N   UNL     1      23.647  36.349   8.531  1.00  0.00    -0.062 NA
BRANCH  63  65
ATOM     65  C   UNL     1      25.492  37.845   7.802  1.00  0.00     0.085 A 
ATOM     66  C   UNL     1      26.583  37.312   7.133  1.00  0.00     0.027 A 
ATOM     67  C   UNL     1      25.152  39.152   7.538  1.00  0.00     0.027 A 
ATOM     68  C   UNL     1      26.973  36.009   7.353  1.00  0.00     0.012 A 
ATOM     69  C   UNL     1      27.329  38.053   6.219  1.00  0.00     0.073 A 
ATOM     70  C   UNL     1      25.914  39.850   6.628  1.00  0.00     0.073 A 
ATOM     71  C   UNL     1      24.089  39.740   8.159  1.00  0.00     0.012 A 
ATOM     72  C   UNL     1      28.056  35.478   6.687  1.00  0.00     0.001 A 
ATOM     73  C   UNL     1      28.411  37.519   5.556  1.00  0.00     0.029 A 
ATOM     74  N   UNL     1      26.971  39.323   5.986  1.00  0.00    -0.248 NA
ATOM     75  C   UNL     1      25.604  41.162   6.337  1.00  0.00     0.029 A 
ATOM     76  C   UNL     1      23.799  41.062   7.847  1.00  0.00     0.001 A 
ATOM     77  C   UNL     1      28.801  36.219   5.774  1.00  0.00     0.002 A 
ATOM     78  C   UNL     1      24.536  41.797   6.943  1.00  0.00     0.002 A 
ENDBRANCH  63  65
ENDBRANCH  59  60
ENDBRANCH  58  59
ENDBRANCH  55  58
ENDBRANCH  53  54
ENDBRANCH  50  53
ENDBRANCH  47  50
ENDBRANCH   5  47
BRANCH   4  79
ATOM     79  N   UNL     1      31.060  37.818  12.600  1.00  0.00    -0.348 N 
ATOM     80  C   UNL     1      30.679  39.183  12.436  1.00  0.00     0.217 C 
ATOM     81  H   UNL     1      31.526  37.389  11.767  1.00  0.00     0.163 HD
ATOM     82  C   UNL     1      30.966  39.875  11.134  1.00  0.00     0.114 C 
ATOM     83  O   UNL     1      30.120  39.749  13.389  1.00  0.00    -0.275 OA
ENDBRANCH   4  79
TORSDOF 30
BEGIN_RES LYS A 131
REMARK  4 active torsions:
REMARK  status: ('A' for Active; 'I' for Inactive)
REMARK    1  A    between atoms: CA   and  CB  
REMARK    2  A    between atoms: CB   and  CG  
REMARK    3  A    between atoms: CG   and  CD  
REMARK    4  A    between atoms: CD   and  CE  
ROOT
ATOM      1  CA  LYS A 131      29.867  25.555  16.977  1.00 20.52     0.186 C 
ENDROOT
BRANCH   1   2
ATOM      2  CB  LYS A 131      28.345  25.722  17.026  1.00 20.94     0.034 C 
BRANCH   2   3
ATOM      3  CG  LYS A 131      27.600  24.416  16.797  1.00 22.96     0.005 C 
BRANCH   3   4
ATOM      4  CD  LYS A 131      26.545  24.175  17.842  1.00 24.33     0.041 C 
BRANCH   4   5
ATOM      5  CE  LYS A 131      25.257  24.887  17.438  1.00 26.91     0.338 C 
ATOM      6  NZ  LYS A 131      24.171  23.904  17.212  1.00 27.40     0.618 N 
ENDBRANCH   4   5
ENDBRANCH   3   4
ENDBRANCH   2   3
ENDBRANCH   1   2
END_RES LYS A 131
BEGIN_RES LYS A 135
REMARK  4 active torsions:
REMARK  status: ('A' for Active; 'I' for Inactive)
REMARK    5  A    between atoms: CA   and  CB  
REMARK    6  A    between atoms: CB   and  CG  
REMARK    7  A    between atoms: CG   and  CD  
REMARK    8  A    between atoms: CD   and  CE  
ROOT
ATOM      7  CA  LYS A 135      33.193  34.663   9.290  1.00 25.02     0.186 C 
ENDROOT
BRANCH   7   8
ATOM      8  CB  LYS A 135      32.060  35.360  10.034  1.00 26.63     0.034 C 
BRANCH   8   9
ATOM      9  CG  LYS A 135      30.772  35.417   9.254  1.00 29.45     0.005 C 
BRANCH   9  10
ATOM     10  CD  LYS A 135      29.953  34.155   9.478  1.00 32.00     0.041 C 
BRANCH  10  11
ATOM     11  CE  LYS A 135      28.708  34.465  10.288  1.00 34.25     0.338 C 
ATOM     12  NZ  LYS A 135      27.546  33.665   9.813  1.00 35.99     0.618 N 
ENDBRANCH  10  11
ENDBRANCH   9  10
ENDBRANCH   8   9
ENDBRANCH   7   8
END_RES LYS A 135
