REMARK VINA RESULT:    -4.120      4.995      9.271
REMARK INTER + INTRA:         -21.628
REMARK INTER:                  -8.763
REMARK INTRA:                 -12.864
REMARK UNBOUND:               -11.125
REMARK SMILES CC(=O)N[C@@H]1[C@@H](O)C[C@](OC[C@H]2O[C@@H](O[C@H]3[C@H](O)[C@@H](O)[C@H](OCCN=[N+]=[N-])O[C@@H]3CO)[C@H](O)[C@@H](O)[C@H]2O)(C(=O)O)O[C@H]1C(O)[C@H](O)CNC(=O)OCc1cn([C@@H](C)C(=O)O)nn1
REMARK SMILES IDX 9 1 8 2 6 3 5 4 42 5 41 6 10 7 11 8 12 9 14 10 13 11 32 12
REMARK SMILES IDX 34 13 36 14 15 15 16 16 29 17 28 18 21 19 17 20 19 21 30 22
REMARK SMILES IDX 31 23 22 25 23 26 24 27 25 28 26 29 27 30 18 31 20 33 33 35
REMARK SMILES IDX 35 37 37 39 38 41 39 42 40 43 7 45 43 47 44 48 45 50 46 51
REMARK SMILES IDX 47 53 48 54 49 55 50 57 51 58 52 59 53 60 54 61 62 62 55 63
REMARK SMILES IDX 61 64 56 65 57 66 58 67 59 68 60 69 4 71 2 72 1 74 3 75
REMARK H PARENT 31 24 18 32 20 34 33 36 35 38 37 40 40 44 7 46 44 49 46 52
REMARK H PARENT 48 56 60 70 4 73
REMARK Flexibility Score: inf
ROOT
ATOM      1  C   UNL     1      28.880  36.648   8.089  1.00  0.00     0.272 C 
ATOM      2  C   UNL     1      30.067  37.013   8.893  1.00  0.00     0.113 C 
ATOM      3  C   UNL     1      29.852  38.424   9.388  1.00  0.00     0.145 C 
ATOM      4  C   UNL     1      30.063  39.279   8.087  1.00  0.00     0.142 C 
ATOM      5  C   UNL     1      29.396  38.660   6.955  1.00  0.00     0.178 C 
ATOM      6  O   UNL     1      28.495  37.661   7.205  1.00  0.00    -0.332 OA
ENDROOT
BRANCH   1   7
ATOM      7  O   UNL     1      27.830  36.238   8.851  1.00  0.00    -0.338 OA
BRANCH   7   8
ATOM      8  C   UNL     1      26.931  35.381   8.334  1.00  0.00     0.199 C 
BRANCH   8   9
ATOM      9  C   UNL     1      25.488  35.790   8.721  1.00  0.00     0.179 C 
ATOM     10  C   UNL     1      24.216  36.178  10.607  1.00  0.00     0.282 C 
ATOM     11  O   UNL     1      25.485  35.971  10.078  1.00  0.00    -0.341 OA
ATOM     12  C   UNL     1      23.172  36.383   9.548  1.00  0.00     0.202 C 
ATOM     13  C   UNL     1      23.660  37.358   8.494  1.00  0.00     0.179 C 
ATOM     14  C   UNL     1      25.061  37.025   8.006  1.00  0.00     0.177 C 
BRANCH  10  15
ATOM     15  O   UNL     1      24.157  37.286  11.463  1.00  0.00    -0.341 OA
BRANCH  15  16
ATOM     16  C   UNL     1      25.360  37.490  12.124  1.00  0.00     0.184 C 
ATOM     17  C   UNL     1      25.168  37.348  13.600  1.00  0.00     0.178 C 
ATOM     18  O   UNL     1      25.296  38.565  14.271  1.00  0.00    -0.341 OA
ATOM     19  C   UNL     1      24.481  39.546  13.698  1.00  0.00     0.281 C 
ATOM     20  C   UNL     1      25.844  38.879  11.782  1.00  0.00     0.180 C 
ATOM     21  C   UNL     1      24.984  39.974  12.349  1.00  0.00     0.202 C 
BRANCH  17  22
ATOM     22  C   UNL     1      26.156  36.380  14.210  1.00  0.00     0.191 C 
BRANCH  22  23
ATOM     23  O   UNL     1      27.349  37.005  14.565  1.00  0.00    -0.394 OA
ATOM     24  H   UNL     1      28.055  36.336  14.676  1.00  0.00     0.210 HD
ENDBRANCH  22  23
ENDBRANCH  17  22
BRANCH  19  25
ATOM     25  O   UNL     1      24.521  40.632  14.554  1.00  0.00    -0.350 OA
BRANCH  25  26
ATOM     26  C   UNL     1      25.655  40.556  15.336  1.00  0.00     0.169 C 
BRANCH  26  27
ATOM     27  C   UNL     1      26.541  41.764  15.109  1.00  0.00     0.119 C 
BRANCH  27  28
ATOM     28  N   UNL     1      27.910  41.404  15.473  1.00  0.00    -0.092 NA
ATOM     29  N   UNL     1      28.457  40.388  15.043  1.00  0.00     0.001 N 
ATOM     30  N   UNL     1      28.987  39.511  14.385  1.00  0.00    -0.003 NA
ENDBRANCH  27  28
ENDBRANCH  26  27
ENDBRANCH  25  26
ENDBRANCH  19  25
BRANCH  20  31
ATOM     31  O   UNL     1      27.168  39.082  12.169  1.00  0.00    -0.387 OA
ATOM     32  H   UNL     1      27.470  38.476  12.878  1.00  0.00     0.211 HD
ENDBRANCH  20  31
BRANCH  21  33
ATOM     33  O   UNL     1      23.886  40.200  11.522  1.00  0.00    -0.385 OA
ATOM     34  H   UNL     1      23.698  41.162  11.428  1.00  0.00     0.211 HD
ENDBRANCH  21  33
ENDBRANCH  15  16
ENDBRANCH  10  15
BRANCH  12  35
ATOM     35  O   UNL     1      22.662  35.221   9.019  1.00  0.00    -0.385 OA
ATOM     36  H   UNL     1      22.122  34.734   9.717  1.00  0.00     0.211 HD
ENDBRANCH  12  35
BRANCH  13  37
ATOM     37  O   UNL     1      23.684  38.631   9.103  1.00  0.00    -0.387 OA
ATOM     38  H   UNL     1      23.807  39.345   8.423  1.00  0.00     0.211 HD
ENDBRANCH  13  37
BRANCH  14  39
ATOM     39  O   UNL     1      25.936  38.084   8.249  1.00  0.00    -0.387 OA
ATOM     40  H   UNL     1      26.575  37.829   8.963  1.00  0.00     0.211 HD
ENDBRANCH  14  39
ENDBRANCH   8   9
ENDBRANCH   7   8
ENDBRANCH   1   7
BRANCH   1  41
ATOM     41  C   UNL     1      29.282  35.546   7.175  1.00  0.00     0.364 C 
ATOM     42  O   UNL     1      29.865  34.548   7.621  1.00  0.00    -0.246 OA
BRANCH  41  43
ATOM     43  O   UNL     1      29.018  35.608   5.814  1.00  0.00    -0.477 OA
ATOM     44  H   UNL     1      28.607  36.455   5.394  1.00  0.00     0.296 HD
ENDBRANCH  41  43
ENDBRANCH   1  41
BRANCH   3  45
ATOM     45  O   UNL     1      28.504  38.569   9.692  1.00  0.00    -0.391 OA
ATOM     46  H   UNL     1      28.279  39.440  10.060  1.00  0.00     0.211 HD
ENDBRANCH   3  45
BRANCH   5  47
ATOM     47  C   UNL     1      28.738  39.600   5.957  1.00  0.00     0.176 C 
BRANCH  47  48
ATOM     48  O   UNL     1      28.209  40.701   6.723  1.00  0.00    -0.388 OA
ATOM     49  H   UNL     1      28.796  40.877   7.477  1.00  0.00     0.211 HD
ENDBRANCH  47  48
BRANCH  47  50
ATOM     50  C   UNL     1      27.499  39.028   5.299  1.00  0.00     0.165 C 
BRANCH  50  51
ATOM     51  O   UNL     1      27.717  38.140   4.292  1.00  0.00    -0.388 OA
ATOM     52  H   UNL     1      28.627  37.781   4.195  1.00  0.00     0.211 HD
ENDBRANCH  50  51
BRANCH  50  53
ATOM     53  C   UNL     1      26.460  40.067   5.044  1.00  0.00     0.154 C 
BRANCH  53  54
ATOM     54  N   UNL     1      25.424  40.201   5.998  1.00  0.00    -0.319 N 
ATOM     55  C   UNL     1      24.507  41.276   6.129  1.00  0.00     0.407 C 
ATOM     56  H   UNL     1      25.323  39.401   6.698  1.00  0.00     0.167 HD
ATOM     57  O   UNL     1      24.572  42.225   5.339  1.00  0.00    -0.225 OA
BRANCH  55  58
ATOM     58  O   UNL     1      23.542  41.249   7.150  1.00  0.00    -0.443 OA
BRANCH  58  59
ATOM     59  C   UNL     1      23.703  42.022   8.310  1.00  0.00     0.294 C 
BRANCH  59  60
ATOM     60  C   UNL     1      25.053  41.944   8.881  1.00  0.00     0.120 A 
ATOM     61  C   UNL     1      25.806  42.929   9.481  1.00  0.00     0.139 A 
ATOM     62  N   UNL     1      25.789  40.802   8.897  1.00  0.00    -0.132 NA
ATOM     63  N   UNL     1      26.961  42.367   9.840  1.00  0.00    -0.238 N 
ATOM     64  N   UNL     1      26.957  41.087   9.491  1.00  0.00    -0.066 NA
BRANCH  63  65
ATOM     65  C   UNL     1      28.057  43.041  10.505  1.00  0.00     0.215 C 
ATOM     66  C   UNL     1      28.656  42.136  11.536  1.00  0.00     0.046 C 
BRANCH  65  67
ATOM     67  C   UNL     1      29.094  43.469   9.536  1.00  0.00     0.328 C 
ATOM     68  O   UNL     1      29.725  44.530   9.763  1.00  0.00    -0.250 OA
BRANCH  67  69
ATOM     69  O   UNL     1      29.389  42.740   8.394  1.00  0.00    -0.480 OA
ATOM     70  H   UNL     1      29.177  41.752   8.320  1.00  0.00     0.296 HD
ENDBRANCH  67  69
ENDBRANCH  65  67
ENDBRANCH  63  65
ENDBRANCH  59  60
ENDBRANCH  58  59
ENDBRANCH  55  58
ENDBRANCH  53  54
ENDBRANCH  50  53
ENDBRANCH  47  50
ENDBRANCH   5  47
BRANCH   4  71
ATOM     71  N   UNL     1      31.489  39.506   7.952  1.00  0.00    -0.348 N 
ATOM     72  C   UNL     1      32.253  40.468   8.611  1.00  0.00     0.217 C 
ATOM     73  H   UNL     1      31.992  38.864   7.273  1.00  0.00     0.163 HD
ATOM     74  C   UNL     1      33.712  40.604   8.383  1.00  0.00     0.114 C 
ATOM     75  O   UNL     1      31.695  41.238   9.415  1.00  0.00    -0.275 OA
ENDBRANCH   4  71
TORSDOF 32
BEGIN_RES LYS A 131
REMARK  4 active torsions:
REMARK  status: ('A' for Active; 'I' for Inactive)
REMARK    1  A    between atoms: CA   and  CB  
REMARK    2  A    between atoms: CB   and  CG  
REMARK    3  A    between atoms: CG   and  CD  
REMARK    4  A    between atoms: CD   and  CE  
ROOT
ATOM      1  CA  LYS A 131      29.867  25.555  16.977  1.00 20.52     0.186 C 
ENDROOT
BRANCH   1   2
ATOM      2  CB  LYS A 131      28.345  25.722  17.026  1.00 20.94     0.034 C 
BRANCH   2   3
ATOM      3  CG  LYS A 131      27.601  24.402  16.890  1.00 22.96     0.005 C 
BRANCH   3   4
ATOM      4  CD  LYS A 131      26.152  24.527  17.271  1.00 24.33     0.041 C 
BRANCH   4   5
ATOM      5  CE  LYS A 131      25.961  24.059  18.710  1.00 26.91     0.338 C 
ATOM      6  NZ  LYS A 131      25.724  25.215  19.605  1.00 27.40     0.618 N 
ENDBRANCH   4   5
ENDBRANCH   3   4
ENDBRANCH   2   3
ENDBRANCH   1   2
END_RES LYS A 131
BEGIN_RES LYS A 135
REMARK  4 active torsions:
REMARK  status: ('A' for Active; 'I' for Inactive)
REMARK    5  A    between atoms: CA   and  CB  
REMARK    6  A    between atoms: CB   and  CG  
REMARK    7  A    between atoms: CG   and  CD  
REMARK    8  A    between atoms: CD   and  CE  
ROOT
ATOM      7  CA  LYS A 135      33.193  34.663   9.290  1.00 25.02     0.186 C 
ENDROOT
BRANCH   7   8
ATOM      8  CB  LYS A 135      32.060  35.360  10.034  1.00 26.63     0.034 C 
BRANCH   8   9
ATOM      9  CG  LYS A 135      31.140  34.410  10.757  1.00 29.45     0.005 C 
BRANCH   9  10
ATOM     10  CD  LYS A 135      30.869  34.898  12.171  1.00 32.00     0.041 C 
BRANCH  10  11
ATOM     11  CE  LYS A 135      29.549  35.643  12.234  1.00 34.25     0.338 C 
ATOM     12  NZ  LYS A 135      28.423  34.779  11.782  1.00 35.99     0.618 N 
ENDBRANCH  10  11
ENDBRANCH   9  10
ENDBRANCH   8   9
ENDBRANCH   7   8
END_RES LYS A 135
