REMARK VINA RESULT:    -3.612      3.347      9.397
REMARK INTER + INTRA:         -21.435
REMARK INTER:                 -11.516
REMARK INTRA:                  -9.919
REMARK UNBOUND:               -12.543
REMARK SMILES CC(=O)N[C@@H]1[C@@H](O)C[C@](OC[C@H]2O[C@@H](O[C@H]3[C@H](O)[C@@H](O)[C@H](OCCN=[N+]=[N-])O[C@@H]3CO)[C@H](O)[C@@H](O)[C@H]2O)(C(=O)O)O[C@H]1C(O)[C@H](O)CNC(=O)OCc1cn(-c2ccncc2)nn1
REMARK SMILES IDX 9 1 8 2 6 3 5 4 42 5 41 6 10 7 11 8 12 9 14 10 13 11 32 12
REMARK SMILES IDX 34 13 36 14 15 15 16 16 29 17 28 18 21 19 17 20 19 21 30 22
REMARK SMILES IDX 31 23 22 25 23 26 24 27 25 28 26 29 27 30 18 31 20 33 33 35
REMARK SMILES IDX 35 37 37 39 38 41 39 42 40 43 7 45 43 47 44 48 45 50 46 51
REMARK SMILES IDX 47 53 48 54 49 55 50 57 51 58 52 59 53 60 54 61 63 62 55 63
REMARK SMILES IDX 62 64 56 65 57 66 61 67 58 68 60 69 59 70 4 71 2 72 1 74
REMARK SMILES IDX 3 75
REMARK H PARENT 31 24 18 32 20 34 33 36 35 38 37 40 40 44 7 46 44 49 46 52
REMARK H PARENT 48 56 4 73
REMARK Flexibility Score: inf
ROOT
ATOM      1  C   UNL     1      29.446  35.672  14.214  1.00  0.00     0.272 C 
ATOM      2  C   UNL     1      30.678  36.519  13.835  1.00  0.00     0.113 C 
ATOM      3  C   UNL     1      31.911  35.621  13.690  1.00  0.00     0.145 C 
ATOM      4  C   UNL     1      32.242  35.118  15.136  1.00  0.00     0.142 C 
ATOM      5  C   UNL     1      30.962  34.542  15.667  1.00  0.00     0.178 C 
ATOM      6  O   UNL     1      30.042  34.465  14.630  1.00  0.00    -0.332 OA
ENDROOT
BRANCH   1   7
ATOM      7  O   UNL     1      28.746  35.362  13.142  1.00  0.00    -0.338 OA
BRANCH   7   8
ATOM      8  C   UNL     1      28.219  35.838  12.102  1.00  0.00     0.199 C 
BRANCH   8   9
ATOM      9  C   UNL     1      26.995  35.225  11.490  1.00  0.00     0.179 C 
ATOM     10  C   UNL     1      25.092  34.094  12.277  1.00  0.00     0.282 C 
ATOM     11  O   UNL     1      26.272  34.715  12.614  1.00  0.00    -0.341 OA
ATOM     12  C   UNL     1      24.135  35.060  11.652  1.00  0.00     0.202 C 
ATOM     13  C   UNL     1      24.808  35.753  10.466  1.00  0.00     0.179 C 
ATOM     14  C   UNL     1      26.100  36.343  10.946  1.00  0.00     0.177 C 
BRANCH  10  15
ATOM     15  O   UNL     1      24.580  33.653  13.525  1.00  0.00    -0.341 OA
BRANCH  15  16
ATOM     16  C   UNL     1      25.071  32.453  13.915  1.00  0.00     0.184 C 
ATOM     17  C   UNL     1      24.047  31.414  14.136  1.00  0.00     0.178 C 
ATOM     18  O   UNL     1      24.659  30.177  14.426  1.00  0.00    -0.341 OA
ATOM     19  C   UNL     1      25.017  30.344  15.818  1.00  0.00     0.281 C 
ATOM     20  C   UNL     1      25.834  32.671  15.258  1.00  0.00     0.180 C 
ATOM     21  C   UNL     1      26.145  31.307  15.846  1.00  0.00     0.202 C 
BRANCH  17  22
ATOM     22  C   UNL     1      23.110  31.247  13.001  1.00  0.00     0.191 C 
BRANCH  22  23
ATOM     23  O   UNL     1      22.134  32.254  12.956  1.00  0.00    -0.394 OA
ATOM     24  H   UNL     1      21.364  31.878  12.435  1.00  0.00     0.210 HD
ENDBRANCH  22  23
ENDBRANCH  17  22
BRANCH  19  25
ATOM     25  O   UNL     1      25.401  29.097  16.227  1.00  0.00    -0.350 OA
BRANCH  25  26
ATOM     26  C   UNL     1      24.644  28.611  17.249  1.00  0.00     0.169 C 
BRANCH  26  27
ATOM     27  C   UNL     1      23.254  29.147  17.365  1.00  0.00     0.119 C 
BRANCH  27  28
ATOM     28  N   UNL     1      22.260  28.270  16.781  1.00  0.00    -0.092 NA
ATOM     29  N   UNL     1      22.168  28.033  15.585  1.00  0.00     0.001 N 
ATOM     30  N   UNL     1      21.991  28.068  14.363  1.00  0.00    -0.003 NA
ENDBRANCH  27  28
ENDBRANCH  26  27
ENDBRANCH  25  26
ENDBRANCH  19  25
BRANCH  20  31
ATOM     31  O   UNL     1      27.019  33.286  14.931  1.00  0.00    -0.387 OA
ATOM     32  H   UNL     1      26.956  33.757  14.041  1.00  0.00     0.211 HD
ENDBRANCH  20  31
BRANCH  21  33
ATOM     33  O   UNL     1      26.626  31.442  17.140  1.00  0.00    -0.385 OA
ATOM     34  H   UNL     1      25.917  31.166  17.777  1.00  0.00     0.211 HD
ENDBRANCH  21  33
ENDBRANCH  15  16
ENDBRANCH  10  15
BRANCH  12  35
ATOM     35  O   UNL     1      23.003  34.386  11.133  1.00  0.00    -0.385 OA
ATOM     36  H   UNL     1      22.330  34.412  11.854  1.00  0.00     0.211 HD
ENDBRANCH  12  35
BRANCH  13  37
ATOM     37  O   UNL     1      24.024  36.732   9.904  1.00  0.00    -0.387 OA
ATOM     38  H   UNL     1      23.873  36.549   8.924  1.00  0.00     0.211 HD
ENDBRANCH  13  37
BRANCH  14  39
ATOM     39  O   UNL     1      25.887  37.214  12.026  1.00  0.00    -0.387 OA
ATOM     40  H   UNL     1      26.027  36.713  12.887  1.00  0.00     0.211 HD
ENDBRANCH  14  39
ENDBRANCH   8   9
ENDBRANCH   7   8
ENDBRANCH   1   7
BRANCH   1  41
ATOM     41  C   UNL     1      28.683  36.312  15.291  1.00  0.00     0.364 C 
ATOM     42  O   UNL     1      27.650  35.767  15.800  1.00  0.00    -0.246 OA
BRANCH  41  43
ATOM     43  O   UNL     1      29.015  37.533  15.828  1.00  0.00    -0.477 OA
ATOM     44  H   UNL     1      28.413  38.147  16.333  1.00  0.00     0.296 HD
ENDBRANCH  41  43
ENDBRANCH   1  41
BRANCH   3  45
ATOM     45  O   UNL     1      31.595  34.520  12.942  1.00  0.00    -0.391 OA
ATOM     46  H   UNL     1      31.553  33.704  13.477  1.00  0.00     0.211 HD
ENDBRANCH   3  45
BRANCH   5  47
ATOM     47  C   UNL     1      31.086  33.074  16.096  1.00  0.00     0.176 C 
BRANCH  47  48
ATOM     48  O   UNL     1      31.037  32.414  14.790  1.00  0.00    -0.388 OA
ATOM     49  H   UNL     1      30.293  32.856  14.281  1.00  0.00     0.211 HD
ENDBRANCH  47  48
BRANCH  47  50
ATOM     50  C   UNL     1      29.995  32.512  16.898  1.00  0.00     0.165 C 
BRANCH  50  51
ATOM     51  O   UNL     1      28.904  33.304  17.163  1.00  0.00    -0.388 OA
ATOM     52  H   UNL     1      28.401  33.519  16.334  1.00  0.00     0.211 HD
ENDBRANCH  50  51
BRANCH  50  53
ATOM     53  C   UNL     1      30.385  31.534  17.937  1.00  0.00     0.154 C 
BRANCH  53  54
ATOM     54  N   UNL     1      29.560  30.359  18.040  1.00  0.00    -0.319 N 
ATOM     55  C   UNL     1      28.500  30.291  18.975  1.00  0.00     0.407 C 
ATOM     56  H   UNL     1      29.783  29.564  17.416  1.00  0.00     0.167 HD
ATOM     57  O   UNL     1      28.313  31.294  19.700  1.00  0.00    -0.225 OA
BRANCH  55  58
ATOM     58  O   UNL     1      27.680  29.210  19.131  1.00  0.00    -0.443 OA
BRANCH  58  59
ATOM     59  C   UNL     1      28.061  27.934  19.600  1.00  0.00     0.294 C 
BRANCH  59  60
ATOM     60  C   UNL     1      28.999  28.028  20.767  1.00  0.00     0.121 A 
ATOM     61  C   UNL     1      30.373  28.125  20.783  1.00  0.00     0.144 A 
ATOM     62  N   UNL     1      28.627  28.029  22.069  1.00  0.00    -0.131 NA
ATOM     63  N   UNL     1      30.789  28.182  22.060  1.00  0.00    -0.220 N 
ATOM     64  N   UNL     1      29.702  28.122  22.830  1.00  0.00    -0.062 NA
BRANCH  63  65
ATOM     65  C   UNL     1      32.143  28.285  22.480  1.00  0.00     0.069 A 
ATOM     66  C   UNL     1      32.964  29.355  22.193  1.00  0.00     0.048 A 
ATOM     67  C   UNL     1      32.668  27.254  23.226  1.00  0.00     0.048 A 
ATOM     68  C   UNL     1      34.278  29.416  22.627  1.00  0.00     0.113 A 
ATOM     69  C   UNL     1      33.983  27.323  23.656  1.00  0.00     0.113 A 
ATOM     70  N   UNL     1      34.750  28.379  23.358  1.00  0.00    -0.265 NA
ENDBRANCH  63  65
ENDBRANCH  59  60
ENDBRANCH  58  59
ENDBRANCH  55  58
ENDBRANCH  53  54
ENDBRANCH  50  53
ENDBRANCH  47  50
ENDBRANCH   5  47
BRANCH   4  71
ATOM     71  N   UNL     1      32.661  36.328  15.802  1.00  0.00    -0.348 N 
ATOM     72  C   UNL     1      33.958  36.561  16.309  1.00  0.00     0.217 C 
ATOM     73  H   UNL     1      31.971  37.092  15.927  1.00  0.00     0.163 HD
ATOM     74  C   UNL     1      34.269  37.837  16.972  1.00  0.00     0.114 C 
ATOM     75  O   UNL     1      34.841  35.688  16.196  1.00  0.00    -0.275 OA
ENDBRANCH   4  71
TORSDOF 30
BEGIN_RES LYS A 131
REMARK  4 active torsions:
REMARK  status: ('A' for Active; 'I' for Inactive)
REMARK    1  A    between atoms: CA   and  CB  
REMARK    2  A    between atoms: CB   and  CG  
REMARK    3  A    between atoms: CG   and  CD  
REMARK    4  A    between atoms: CD   and  CE  
ROOT
ATOM      1  CA  LYS A 131      29.867  25.555  16.977  1.00 20.52     0.186 C 
ENDROOT
BRANCH   1   2
ATOM      2  CB  LYS A 131      28.345  25.722  17.026  1.00 20.94     0.034 C 
BRANCH   2   3
ATOM      3  CG  LYS A 131      27.604  24.394  16.994  1.00 22.96     0.005 C 
BRANCH   3   4
ATOM      4  CD  LYS A 131      26.112  24.577  17.045  1.00 24.33     0.041 C 
BRANCH   4   5
ATOM      5  CE  LYS A 131      25.672  24.767  18.493  1.00 26.91     0.338 C 
ATOM      6  NZ  LYS A 131      25.843  23.509  19.256  1.00 27.40     0.618 N 
ENDBRANCH   4   5
ENDBRANCH   3   4
ENDBRANCH   2   3
ENDBRANCH   1   2
END_RES LYS A 131
BEGIN_RES LYS A 135
REMARK  4 active torsions:
REMARK  status: ('A' for Active; 'I' for Inactive)
REMARK    5  A    between atoms: CA   and  CB  
REMARK    6  A    between atoms: CB   and  CG  
REMARK    7  A    between atoms: CG   and  CD  
REMARK    8  A    between atoms: CD   and  CE  
ROOT
ATOM      7  CA  LYS A 135      33.193  34.663   9.290  1.00 25.02     0.186 C 
ENDROOT
BRANCH   7   8
ATOM      8  CB  LYS A 135      32.060  35.360  10.034  1.00 26.63     0.034 C 
BRANCH   8   9
ATOM      9  CG  LYS A 135      30.694  34.822   9.692  1.00 29.45     0.005 C 
BRANCH   9  10
ATOM     10  CD  LYS A 135      30.621  34.437   8.223  1.00 32.00     0.041 C 
BRANCH  10  11
ATOM     11  CE  LYS A 135      29.425  35.092   7.559  1.00 34.25     0.338 C 
ATOM     12  NZ  LYS A 135      28.150  34.619   8.167  1.00 35.99     0.618 N 
ENDBRANCH  10  11
ENDBRANCH   9  10
ENDBRANCH   8   9
ENDBRANCH   7   8
END_RES LYS A 135
