REMARK VINA RESULT:    -4.318      2.824      7.341
REMARK INTER + INTRA:         -22.442
REMARK INTER:                 -11.508
REMARK INTRA:                 -10.934
REMARK UNBOUND:               -11.308
REMARK SMILES CC(=O)N[C@@H]1[C@@H](O)C[C@](OC[C@H]2O[C@@H](O[C@H]3[C@H](O)[C@@H](O)[C@H](OCCN=[N+]=[N-])O[C@@H]3CO)[C@H](O)[C@@H](O)[C@H]2O)(C(=O)O)O[C@H]1C(O)[C@H](O)CNC(=O)OCc1cn(CCN2CCCC2)nn1
REMARK SMILES IDX 9 1 8 2 6 3 5 4 42 5 41 6 10 7 11 8 12 9 14 10 13 11 32 12
REMARK SMILES IDX 34 13 36 14 15 15 16 16 29 17 28 18 21 19 17 20 19 21 30 22
REMARK SMILES IDX 31 23 22 25 23 26 24 27 25 28 26 29 27 30 18 31 20 33 33 35
REMARK SMILES IDX 35 37 37 39 38 41 39 42 40 43 7 45 43 47 44 48 45 50 46 51
REMARK SMILES IDX 47 53 48 54 49 55 50 57 51 58 52 59 53 60 54 61 64 62 55 63
REMARK SMILES IDX 63 64 56 65 57 66 58 67 59 68 62 69 60 70 61 71 4 72 2 73
REMARK SMILES IDX 1 75 3 76
REMARK H PARENT 31 24 18 32 20 34 33 36 35 38 37 40 40 44 7 46 44 49 46 52
REMARK H PARENT 48 56 4 74
REMARK Flexibility Score: inf
ROOT
ATOM      1  C   UNL     1      29.648  32.071  17.165  1.00  0.00     0.272 C 
ATOM      2  C   UNL     1      29.637  30.721  16.519  1.00  0.00     0.113 C 
ATOM      3  C   UNL     1      28.215  30.337  16.088  1.00  0.00     0.145 C 
ATOM      4  C   UNL     1      27.407  30.210  17.411  1.00  0.00     0.142 C 
ATOM      5  C   UNL     1      27.569  31.497  18.133  1.00  0.00     0.178 C 
ATOM      6  O   UNL     1      28.308  32.417  17.384  1.00  0.00    -0.332 OA
ENDROOT
BRANCH   1   7
ATOM      7  O   UNL     1      30.084  33.066  16.286  1.00  0.00    -0.338 OA
BRANCH   7   8
ATOM      8  C   UNL     1      31.081  32.761  15.432  1.00  0.00     0.199 C 
BRANCH   8   9
ATOM      9  C   UNL     1      31.512  33.945  14.570  1.00  0.00     0.179 C 
ATOM     10  C   UNL     1      30.739  35.557  13.134  1.00  0.00     0.282 C 
ATOM     11  O   UNL     1      30.467  34.789  14.234  1.00  0.00    -0.341 OA
ATOM     12  C   UNL     1      32.156  36.018  13.151  1.00  0.00     0.202 C 
ATOM     13  C   UNL     1      32.643  36.075  14.588  1.00  0.00     0.179 C 
ATOM     14  C   UNL     1      32.653  34.699  15.223  1.00  0.00     0.177 C 
BRANCH  10  15
ATOM     15  O   UNL     1      29.819  36.523  12.849  1.00  0.00    -0.341 OA
BRANCH  15  16
ATOM     16  C   UNL     1      28.786  36.315  12.040  1.00  0.00     0.184 C 
ATOM     17  C   UNL     1      28.274  37.493  11.238  1.00  0.00     0.178 C 
ATOM     18  O   UNL     1      27.617  36.967  10.121  1.00  0.00    -0.341 OA
ATOM     19  C   UNL     1      26.361  36.500  10.606  1.00  0.00     0.281 C 
ATOM     20  C   UNL     1      27.548  35.704  12.674  1.00  0.00     0.180 C 
ATOM     21  C   UNL     1      26.669  35.316  11.501  1.00  0.00     0.202 C 
BRANCH  17  22
ATOM     22  C   UNL     1      29.323  38.474  10.837  1.00  0.00     0.191 C 
BRANCH  22  23
ATOM     23  O   UNL     1      28.709  39.491  10.113  1.00  0.00    -0.394 OA
ATOM     24  H   UNL     1      28.528  40.271  10.706  1.00  0.00     0.210 HD
ENDBRANCH  22  23
ENDBRANCH  17  22
BRANCH  19  25
ATOM     25  O   UNL     1      25.699  36.036   9.515  1.00  0.00    -0.350 OA
BRANCH  25  26
ATOM     26  C   UNL     1      25.025  36.893   8.715  1.00  0.00     0.169 C 
BRANCH  26  27
ATOM     27  C   UNL     1      23.540  36.924   8.814  1.00  0.00     0.119 C 
BRANCH  27  28
ATOM     28  N   UNL     1      22.927  35.639   9.046  1.00  0.00    -0.092 NA
ATOM     29  N   UNL     1      22.736  35.262  10.193  1.00  0.00     0.001 N 
ATOM     30  N   UNL     1      22.523  35.038  11.389  1.00  0.00    -0.003 NA
ENDBRANCH  27  28
ENDBRANCH  26  27
ENDBRANCH  25  26
ENDBRANCH  19  25
BRANCH  20  31
ATOM     31  O   UNL     1      27.851  34.527  13.343  1.00  0.00    -0.387 OA
ATOM     32  H   UNL     1      27.293  33.765  13.095  1.00  0.00     0.211 HD
ENDBRANCH  20  31
BRANCH  21  33
ATOM     33  O   UNL     1      25.544  34.619  11.872  1.00  0.00    -0.385 OA
ATOM     34  H   UNL     1      24.720  34.840  11.406  1.00  0.00     0.211 HD
ENDBRANCH  21  33
ENDBRANCH  15  16
ENDBRANCH  10  15
BRANCH  12  35
ATOM     35  O   UNL     1      33.027  35.162  12.464  1.00  0.00    -0.385 OA
ATOM     36  H   UNL     1      32.889  34.216  12.762  1.00  0.00     0.211 HD
ENDBRANCH  12  35
BRANCH  13  37
ATOM     37  O   UNL     1      31.777  36.867  15.349  1.00  0.00    -0.387 OA
ATOM     38  H   UNL     1      31.585  37.729  14.860  1.00  0.00     0.211 HD
ENDBRANCH  13  37
BRANCH  14  39
ATOM     39  O   UNL     1      32.435  34.889  16.586  1.00  0.00    -0.387 OA
ATOM     40  H   UNL     1      32.327  35.879  16.697  1.00  0.00     0.211 HD
ENDBRANCH  14  39
ENDBRANCH   8   9
ENDBRANCH   7   8
ENDBRANCH   1   7
BRANCH   1  41
ATOM     41  C   UNL     1      30.400  32.126  18.445  1.00  0.00     0.364 C 
ATOM     42  O   UNL     1      30.474  31.060  19.131  1.00  0.00    -0.246 OA
BRANCH  41  43
ATOM     43  O   UNL     1      31.028  33.226  18.965  1.00  0.00    -0.477 OA
ATOM     44  H   UNL     1      31.123  34.129  18.560  1.00  0.00     0.296 HD
ENDBRANCH  41  43
ENDBRANCH   1  41
BRANCH   3  45
ATOM     45  O   UNL     1      27.620  31.341  15.365  1.00  0.00    -0.391 OA
ATOM     46  H   UNL     1      27.267  31.033  14.487  1.00  0.00     0.211 HD
ENDBRANCH   3  45
BRANCH   5  47
ATOM     47  C   UNL     1      26.234  32.180  18.318  1.00  0.00     0.176 C 
BRANCH  47  48
ATOM     48  O   UNL     1      25.279  31.838  17.380  1.00  0.00    -0.388 OA
ATOM     49  H   UNL     1      24.478  31.392  17.733  1.00  0.00     0.211 HD
ENDBRANCH  47  48
BRANCH  47  50
ATOM     50  C   UNL     1      25.657  32.260  19.677  1.00  0.00     0.165 C 
BRANCH  50  51
ATOM     51  O   UNL     1      25.195  31.087  20.225  1.00  0.00    -0.388 OA
ATOM     52  H   UNL     1      25.677  30.765  21.020  1.00  0.00     0.211 HD
ENDBRANCH  50  51
BRANCH  50  53
ATOM     53  C   UNL     1      24.932  33.517  20.031  1.00  0.00     0.154 C 
BRANCH  53  54
ATOM     54  N   UNL     1      24.910  34.481  18.995  1.00  0.00    -0.319 N 
ATOM     55  C   UNL     1      23.712  34.821  18.276  1.00  0.00     0.407 C 
ATOM     56  H   UNL     1      25.788  34.986  18.721  1.00  0.00     0.167 HD
ATOM     57  O   UNL     1      22.607  34.296  18.510  1.00  0.00    -0.225 OA
BRANCH  55  58
ATOM     58  O   UNL     1      23.748  35.782  17.265  1.00  0.00    -0.443 OA
BRANCH  58  59
ATOM     59  C   UNL     1      24.796  35.755  16.290  1.00  0.00     0.294 C 
BRANCH  59  60
ATOM     60  C   UNL     1      24.672  34.568  15.420  1.00  0.00     0.120 A 
ATOM     61  C   UNL     1      23.612  33.998  14.776  1.00  0.00     0.138 A 
ATOM     62  N   UNL     1      25.734  33.775  15.095  1.00  0.00    -0.132 NA
ATOM     63  N   UNL     1      24.023  32.923  14.103  1.00  0.00    -0.251 N 
ATOM     64  N   UNL     1      25.350  32.807  14.320  1.00  0.00    -0.067 NA
BRANCH  63  65
ATOM     65  C   UNL     1      23.291  32.007  13.287  1.00  0.00     0.161 C 
BRANCH  65  66
ATOM     66  C   UNL     1      23.942  30.687  13.102  1.00  0.00     0.108 C 
BRANCH  66  67
ATOM     67  N   UNL     1      23.154  29.533  12.987  1.00  0.00    -0.301 NA
ATOM     68  C   UNL     1      23.048  28.621  14.055  1.00  0.00     0.084 C 
ATOM     69  C   UNL     1      21.897  29.692  12.322  1.00  0.00     0.084 C 
ATOM     70  C   UNL     1      21.573  28.300  14.249  1.00  0.00     0.017 C 
ATOM     71  C   UNL     1      20.910  28.787  12.993  1.00  0.00     0.017 C 
ENDBRANCH  66  67
ENDBRANCH  65  66
ENDBRANCH  63  65
ENDBRANCH  59  60
ENDBRANCH  58  59
ENDBRANCH  55  58
ENDBRANCH  53  54
ENDBRANCH  50  53
ENDBRANCH  47  50
ENDBRANCH   5  47
BRANCH   4  72
ATOM     72  N   UNL     1      27.948  29.051  18.095  1.00  0.00    -0.348 N 
ATOM     73  C   UNL     1      27.186  28.216  18.963  1.00  0.00     0.217 C 
ATOM     74  H   UNL     1      28.941  28.783  17.971  1.00  0.00     0.163 HD
ATOM     75  C   UNL     1      27.854  27.044  19.629  1.00  0.00     0.114 C 
ATOM     76  O   UNL     1      25.995  28.468  19.154  1.00  0.00    -0.275 OA
ENDBRANCH   4  72
TORSDOF 32
BEGIN_RES LYS A 131
REMARK  4 active torsions:
REMARK  status: ('A' for Active; 'I' for Inactive)
REMARK    1  A    between atoms: CA   and  CB  
REMARK    2  A    between atoms: CB   and  CG  
REMARK    3  A    between atoms: CG   and  CD  
REMARK    4  A    between atoms: CD   and  CE  
ROOT
ATOM      1  CA  LYS A 131      29.867  25.555  16.977  1.00 20.52     0.186 C 
ENDROOT
BRANCH   1   2
ATOM      2  CB  LYS A 131      28.345  25.722  17.026  1.00 20.94     0.034 C 
BRANCH   2   3
ATOM      3  CG  LYS A 131      27.602  24.399  16.925  1.00 22.96     0.005 C 
BRANCH   3   4
ATOM      4  CD  LYS A 131      26.160  24.527  17.332  1.00 24.33     0.041 C 
BRANCH   4   5
ATOM      5  CE  LYS A 131      25.901  23.669  18.566  1.00 26.91     0.338 C 
ATOM      6  NZ  LYS A 131      24.560  23.043  18.491  1.00 27.40     0.618 N 
ENDBRANCH   4   5
ENDBRANCH   3   4
ENDBRANCH   2   3
ENDBRANCH   1   2
END_RES LYS A 131
BEGIN_RES LYS A 135
REMARK  4 active torsions:
REMARK  status: ('A' for Active; 'I' for Inactive)
REMARK    5  A    between atoms: CA   and  CB  
REMARK    6  A    between atoms: CB   and  CG  
REMARK    7  A    between atoms: CG   and  CD  
REMARK    8  A    between atoms: CD   and  CE  
ROOT
ATOM      7  CA  LYS A 135      33.193  34.663   9.290  1.00 25.02     0.186 C 
ENDROOT
BRANCH   7   8
ATOM      8  CB  LYS A 135      32.060  35.360  10.034  1.00 26.63     0.034 C 
BRANCH   8   9
ATOM      9  CG  LYS A 135      30.765  35.393   9.265  1.00 29.45     0.005 C 
BRANCH   9  10
ATOM     10  CD  LYS A 135      30.007  34.085   9.433  1.00 32.00     0.041 C 
BRANCH  10  11
ATOM     11  CE  LYS A 135      28.687  34.134   8.689  1.00 34.25     0.338 C 
ATOM     12  NZ  LYS A 135      28.749  35.091   7.549  1.00 35.99     0.618 N 
ENDBRANCH  10  11
ENDBRANCH   9  10
ENDBRANCH   8   9
ENDBRANCH   7   8
END_RES LYS A 135
