REMARK VINA RESULT:    -4.301      2.449      8.839
REMARK INTER + INTRA:         -22.398
REMARK INTER:                 -11.297
REMARK INTRA:                 -11.101
REMARK UNBOUND:               -11.308
REMARK SMILES CC(=O)N[C@@H]1[C@@H](O)C[C@](OC[C@H]2O[C@@H](O[C@H]3[C@H](O)[C@@H](O)[C@H](OCCN=[N+]=[N-])O[C@@H]3CO)[C@H](O)[C@@H](O)[C@H]2O)(C(=O)O)O[C@H]1C(O)[C@H](O)CNC(=O)OCc1cn(CCN2CCCC2)nn1
REMARK SMILES IDX 9 1 8 2 6 3 5 4 42 5 41 6 10 7 11 8 12 9 14 10 13 11 32 12
REMARK SMILES IDX 34 13 36 14 15 15 16 16 29 17 28 18 21 19 17 20 19 21 30 22
REMARK SMILES IDX 31 23 22 25 23 26 24 27 25 28 26 29 27 30 18 31 20 33 33 35
REMARK SMILES IDX 35 37 37 39 38 41 39 42 40 43 7 45 43 47 44 48 45 50 46 51
REMARK SMILES IDX 47 53 48 54 49 55 50 57 51 58 52 59 53 60 54 61 64 62 55 63
REMARK SMILES IDX 63 64 56 65 57 66 58 67 59 68 62 69 60 70 61 71 4 72 2 73
REMARK SMILES IDX 1 75 3 76
REMARK H PARENT 31 24 18 32 20 34 33 36 35 38 37 40 40 44 7 46 44 49 46 52
REMARK H PARENT 48 56 4 74
REMARK Flexibility Score: inf
ROOT
ATOM      1  C   UNL     1      28.729  35.816   8.530  1.00  0.00     0.272 C 
ATOM      2  C   UNL     1      29.400  36.394   9.736  1.00  0.00     0.113 C 
ATOM      3  C   UNL     1      28.889  37.814  10.012  1.00  0.00     0.145 C 
ATOM      4  C   UNL     1      29.349  38.660   8.791  1.00  0.00     0.142 C 
ATOM      5  C   UNL     1      28.826  37.979   7.581  1.00  0.00     0.178 C 
ATOM      6  O   UNL     1      28.043  36.870   7.914  1.00  0.00    -0.332 OA
ENDROOT
BRANCH   1   7
ATOM      7  O   UNL     1      27.699  34.937   8.878  1.00  0.00    -0.338 OA
BRANCH   7   8
ATOM      8  C   UNL     1      26.546  35.011   8.186  1.00  0.00     0.199 C 
BRANCH   8   9
ATOM      9  C   UNL     1      25.333  35.283   9.072  1.00  0.00     0.179 C 
ATOM     10  C   UNL     1      24.591  35.243  11.242  1.00  0.00     0.282 C 
ATOM     11  O   UNL     1      25.657  35.451  10.408  1.00  0.00    -0.341 OA
ATOM     12  C   UNL     1      23.343  35.805  10.651  1.00  0.00     0.202 C 
ATOM     13  C   UNL     1      23.707  36.944   9.715  1.00  0.00     0.179 C 
ATOM     14  C   UNL     1      24.528  36.453   8.541  1.00  0.00     0.177 C 
BRANCH  10  15
ATOM     15  O   UNL     1      24.801  35.550  12.553  1.00  0.00    -0.341 OA
BRANCH  15  16
ATOM     16  C   UNL     1      25.756  34.981  13.281  1.00  0.00     0.184 C 
ATOM     17  C   UNL     1      25.330  34.154  14.477  1.00  0.00     0.178 C 
ATOM     18  O   UNL     1      26.367  33.252  14.735  1.00  0.00    -0.341 OA
ATOM     19  C   UNL     1      27.383  34.018  15.378  1.00  0.00     0.281 C 
ATOM     20  C   UNL     1      26.840  35.905  13.808  1.00  0.00     0.180 C 
ATOM     21  C   UNL     1      27.917  34.974  14.330  1.00  0.00     0.202 C 
BRANCH  17  22
ATOM     22  C   UNL     1      24.027  33.449  14.311  1.00  0.00     0.191 C 
BRANCH  22  23
ATOM     23  O   UNL     1      23.129  33.981  15.231  1.00  0.00    -0.394 OA
ATOM     24  H   UNL     1      23.365  34.929  15.430  1.00  0.00     0.210 HD
ENDBRANCH  22  23
ENDBRANCH  17  22
BRANCH  19  25
ATOM     25  O   UNL     1      28.369  33.135  15.678  1.00  0.00    -0.350 OA
BRANCH  25  26
ATOM     26  C   UNL     1      28.060  31.888  16.100  1.00  0.00     0.169 C 
BRANCH  26  27
ATOM     27  C   UNL     1      29.072  30.813  15.914  1.00  0.00     0.119 C 
BRANCH  27  28
ATOM     28  N   UNL     1      30.328  31.047  16.586  1.00  0.00    -0.092 NA
ATOM     29  N   UNL     1      30.344  31.177  17.802  1.00  0.00     0.001 N 
ATOM     30  N   UNL     1      30.234  31.204  19.032  1.00  0.00    -0.003 NA
ENDBRANCH  27  28
ENDBRANCH  26  27
ENDBRANCH  25  26
ENDBRANCH  19  25
BRANCH  20  31
ATOM     31  O   UNL     1      27.420  36.641  12.785  1.00  0.00    -0.387 OA
ATOM     32  H   UNL     1      28.260  37.076  13.026  1.00  0.00     0.211 HD
ENDBRANCH  20  31
BRANCH  21  33
ATOM     33  O   UNL     1      29.054  35.631  14.735  1.00  0.00    -0.385 OA
ATOM     34  H   UNL     1      29.405  35.398  15.611  1.00  0.00     0.211 HD
ENDBRANCH  21  33
ENDBRANCH  15  16
ENDBRANCH  10  15
BRANCH  12  35
ATOM     35  O   UNL     1      22.619  34.876   9.894  1.00  0.00    -0.385 OA
ATOM     36  H   UNL     1      22.148  35.335   9.139  1.00  0.00     0.211 HD
ENDBRANCH  12  35
BRANCH  13  37
ATOM     37  O   UNL     1      24.490  37.882  10.394  1.00  0.00    -0.387 OA
ATOM     38  H   UNL     1      25.136  37.408  11.007  1.00  0.00     0.211 HD
ENDBRANCH  13  37
BRANCH  14  39
ATOM     39  O   UNL     1      25.347  37.513   8.157  1.00  0.00    -0.387 OA
ATOM     40  H   UNL     1      24.720  38.219   7.823  1.00  0.00     0.211 HD
ENDBRANCH  14  39
ENDBRANCH   8   9
ENDBRANCH   7   8
ENDBRANCH   1   7
BRANCH   1  41
ATOM     41  C   UNL     1      29.661  35.184   7.560  1.00  0.00     0.364 C 
ATOM     42  O   UNL     1      30.638  34.522   8.027  1.00  0.00    -0.246 OA
BRANCH  41  43
ATOM     43  O   UNL     1      29.569  35.249   6.195  1.00  0.00    -0.477 OA
ATOM     44  H   UNL     1      28.927  34.780   5.599  1.00  0.00     0.296 HD
ENDBRANCH  41  43
ENDBRANCH   1  41
BRANCH   3  45
ATOM     45  O   UNL     1      27.517  37.862  10.023  1.00  0.00    -0.391 OA
ATOM     46  H   UNL     1      27.099  37.011  10.322  1.00  0.00     0.211 HD
ENDBRANCH   3  45
BRANCH   5  47
ATOM     47  C   UNL     1      27.870  38.877   6.831  1.00  0.00     0.176 C 
BRANCH  47  48
ATOM     48  O   UNL     1      28.087  40.229   7.015  1.00  0.00    -0.388 OA
ATOM     49  H   UNL     1      28.959  40.471   7.397  1.00  0.00     0.211 HD
ENDBRANCH  47  48
BRANCH  47  50
ATOM     50  C   UNL     1      27.558  38.564   5.420  1.00  0.00     0.165 C 
BRANCH  50  51
ATOM     51  O   UNL     1      28.221  37.498   4.858  1.00  0.00    -0.388 OA
ATOM     52  H   UNL     1      29.035  37.205   5.324  1.00  0.00     0.211 HD
ENDBRANCH  50  51
BRANCH  50  53
ATOM     53  C   UNL     1      27.228  39.716   4.528  1.00  0.00     0.154 C 
BRANCH  53  54
ATOM     54  N   UNL     1      26.055  40.415   4.901  1.00  0.00    -0.319 N 
ATOM     55  C   UNL     1      26.059  41.814   5.238  1.00  0.00     0.407 C 
ATOM     56  H   UNL     1      25.131  39.920   4.938  1.00  0.00     0.167 HD
ATOM     57  O   UNL     1      27.089  42.512   5.227  1.00  0.00    -0.225 OA
BRANCH  55  58
ATOM     58  O   UNL     1      24.871  42.452   5.595  1.00  0.00    -0.443 OA
BRANCH  58  59
ATOM     59  C   UNL     1      24.053  41.912   6.639  1.00  0.00     0.294 C 
BRANCH  59  60
ATOM     60  C   UNL     1      24.868  41.581   7.825  1.00  0.00     0.120 A 
ATOM     61  C   UNL     1      25.536  42.350   8.734  1.00  0.00     0.138 A 
ATOM     62  N   UNL     1      25.096  40.298   8.232  1.00  0.00    -0.132 NA
ATOM     63  N   UNL     1      26.128  41.566   9.634  1.00  0.00    -0.251 N 
ATOM     64  N   UNL     1      25.838  40.292   9.297  1.00  0.00    -0.067 NA
BRANCH  63  65
ATOM     65  C   UNL     1      26.932  41.900  10.766  1.00  0.00     0.161 C 
BRANCH  65  66
ATOM     66  C   UNL     1      28.388  41.680  10.578  1.00  0.00     0.108 C 
BRANCH  66  67
ATOM     67  N   UNL     1      29.191  41.359  11.682  1.00  0.00    -0.301 NA
ATOM     68  C   UNL     1      28.773  40.400  12.625  1.00  0.00     0.084 C 
ATOM     69  C   UNL     1      30.596  41.253  11.430  1.00  0.00     0.084 C 
ATOM     70  C   UNL     1      29.937  39.452  12.872  1.00  0.00     0.017 C 
ATOM     71  C   UNL     1      31.132  40.161  12.303  1.00  0.00     0.017 C 
ENDBRANCH  66  67
ENDBRANCH  65  66
ENDBRANCH  63  65
ENDBRANCH  59  60
ENDBRANCH  58  59
ENDBRANCH  55  58
ENDBRANCH  53  54
ENDBRANCH  50  53
ENDBRANCH  47  50
ENDBRANCH   5  47
BRANCH   4  72
ATOM     72  N   UNL     1      30.795  38.728   8.879  1.00  0.00    -0.348 N 
ATOM     73  C   UNL     1      31.573  39.794   8.341  1.00  0.00     0.217 C 
ATOM     74  H   UNL     1      31.329  37.977   9.353  1.00  0.00     0.163 HD
ATOM     75  C   UNL     1      33.070  39.756   8.482  1.00  0.00     0.114 C 
ATOM     76  O   UNL     1      31.007  40.727   7.770  1.00  0.00    -0.275 OA
ENDBRANCH   4  72
TORSDOF 32
BEGIN_RES LYS A 131
REMARK  4 active torsions:
REMARK  status: ('A' for Active; 'I' for Inactive)
REMARK    1  A    between atoms: CA   and  CB  
REMARK    2  A    between atoms: CB   and  CG  
REMARK    3  A    between atoms: CG   and  CD  
REMARK    4  A    between atoms: CD   and  CE  
ROOT
ATOM      1  CA  LYS A 131      29.867  25.555  16.977  1.00 20.52     0.186 C 
ENDROOT
BRANCH   1   2
ATOM      2  CB  LYS A 131      28.345  25.722  17.026  1.00 20.94     0.034 C 
BRANCH   2   3
ATOM      3  CG  LYS A 131      27.602  24.399  16.925  1.00 22.96     0.005 C 
BRANCH   3   4
ATOM      4  CD  LYS A 131      26.629  24.207  18.055  1.00 24.33     0.041 C 
BRANCH   4   5
ATOM      5  CE  LYS A 131      26.425  25.533  18.781  1.00 26.91     0.338 C 
ATOM      6  NZ  LYS A 131      25.057  25.610  19.345  1.00 27.40     0.618 N 
ENDBRANCH   4   5
ENDBRANCH   3   4
ENDBRANCH   2   3
ENDBRANCH   1   2
END_RES LYS A 131
BEGIN_RES LYS A 135
REMARK  4 active torsions:
REMARK  status: ('A' for Active; 'I' for Inactive)
REMARK    5  A    between atoms: CA   and  CB  
REMARK    6  A    between atoms: CB   and  CG  
REMARK    7  A    between atoms: CG   and  CD  
REMARK    8  A    between atoms: CD   and  CE  
ROOT
ATOM      7  CA  LYS A 135      33.193  34.663   9.290  1.00 25.02     0.186 C 
ENDROOT
BRANCH   7   8
ATOM      8  CB  LYS A 135      32.060  35.360  10.034  1.00 26.63     0.034 C 
BRANCH   8   9
ATOM      9  CG  LYS A 135      32.507  36.066  11.288  1.00 29.45     0.005 C 
BRANCH   9  10
ATOM     10  CD  LYS A 135      31.762  35.530  12.501  1.00 32.00     0.041 C 
BRANCH  10  11
ATOM     11  CE  LYS A 135      32.520  35.850  13.775  1.00 34.25     0.338 C 
ATOM     12  NZ  LYS A 135      32.742  34.623  14.589  1.00 35.99     0.618 N 
ENDBRANCH  10  11
ENDBRANCH   9  10
ENDBRANCH   8   9
ENDBRANCH   7   8
END_RES LYS A 135
