REMARK VINA RESULT:    -5.405      6.371     13.222
REMARK INTER + INTRA:         -23.757
REMARK INTER:                 -14.547
REMARK INTRA:                  -9.210
REMARK UNBOUND:                -9.504
REMARK SMILES CC(=O)N[C@@H]1[C@@H](O)C[C@](OC[C@H]2O[C@@H](O[C@H]3[C@H](O)[C@@H](O)[C@H](OCCN=[N+]=[N-])O[C@@H]3CO)[C@H](O)[C@@H](O)[C@H]2O)(C(=O)O)O[C@H]1C(O)[C@H](O)CNC(=O)OCc1cn(COCc2ccccc2)nn1
REMARK SMILES IDX 43 1 42 2 9 3 8 4 41 5 6 6 5 7 10 8 11 9 12 10 14 11 13 12
REMARK SMILES IDX 32 13 34 14 36 15 15 16 16 17 29 18 28 19 21 20 17 21 19 22
REMARK SMILES IDX 30 23 31 24 22 26 23 27 24 28 25 29 26 30 27 31 18 32 20 34
REMARK SMILES IDX 33 36 35 38 37 40 38 42 39 43 40 44 7 46 4 48 2 49 1 51 3 52
REMARK SMILES IDX 44 53 45 55 46 56 47 58 48 59 49 60 50 62 51 63 52 64 53 65
REMARK SMILES IDX 54 66 66 67 55 68 65 69 56 70 57 71 58 72 59 73 60 74 64 75
REMARK SMILES IDX 61 76 63 77 62 78
REMARK H PARENT 31 25 18 33 20 35 33 37 35 39 37 41 40 45 7 47 4 50 44 54
REMARK H PARENT 46 57 48 61
REMARK Flexibility Score: inf
ROOT
ATOM      1  C   UNL     1      29.364  33.765  18.994  1.00  0.00     0.176 C 
ENDROOT
BRANCH   1   2
ATOM      2  C   UNL     1      29.305  33.099  17.601  1.00  0.00     0.178 C 
ATOM      3  C   UNL     1      28.025  31.456  16.571  1.00  0.00     0.272 C 
ATOM      4  C   UNL     1      29.284  30.905  15.911  1.00  0.00     0.113 C 
ATOM      5  O   UNL     1      28.435  32.017  17.741  1.00  0.00    -0.332 OA
ATOM      6  C   UNL     1      30.460  31.071  16.844  1.00  0.00     0.145 C 
ATOM      7  C   UNL     1      30.640  32.586  17.163  1.00  0.00     0.142 C 
BRANCH   3   8
ATOM      8  O   UNL     1      27.113  30.408  16.805  1.00  0.00    -0.338 OA
BRANCH   8   9
ATOM      9  C   UNL     1      27.505  29.165  16.485  1.00  0.00     0.199 C 
BRANCH   9  10
ATOM     10  C   UNL     1      27.005  28.170  17.506  1.00  0.00     0.179 C 
ATOM     11  C   UNL     1      27.181  27.355  19.613  1.00  0.00     0.282 C 
ATOM     12  O   UNL     1      27.675  28.346  18.734  1.00  0.00    -0.341 OA
ATOM     13  C   UNL     1      25.781  27.726  20.094  1.00  0.00     0.202 C 
ATOM     14  C   UNL     1      25.280  28.796  19.112  1.00  0.00     0.179 C 
ATOM     15  C   UNL     1      25.539  28.225  17.733  1.00  0.00     0.177 C 
BRANCH  11  16
ATOM     16  O   UNL     1      28.003  27.318  20.705  1.00  0.00    -0.341 OA
BRANCH  16  17
ATOM     17  C   UNL     1      29.132  28.117  20.588  1.00  0.00     0.184 C 
ATOM     18  C   UNL     1      30.379  27.455  21.056  1.00  0.00     0.178 C 
ATOM     19  O   UNL     1      30.375  27.365  22.415  1.00  0.00    -0.341 OA
ATOM     20  C   UNL     1      30.474  28.564  23.081  1.00  0.00     0.281 C 
ATOM     21  C   UNL     1      28.890  29.407  21.291  1.00  0.00     0.180 C 
ATOM     22  C   UNL     1      29.708  29.685  22.498  1.00  0.00     0.202 C 
BRANCH  18  23
ATOM     23  C   UNL     1      31.582  28.170  20.487  1.00  0.00     0.191 C 
BRANCH  23  24
ATOM     24  O   UNL     1      32.284  27.352  19.594  1.00  0.00    -0.394 OA
ATOM     25  H   UNL     1      32.511  26.498  20.040  1.00  0.00     0.210 HD
ENDBRANCH  23  24
ENDBRANCH  18  23
BRANCH  20  26
ATOM     26  O   UNL     1      31.832  28.903  23.105  1.00  0.00    -0.350 OA
BRANCH  26  27
ATOM     27  C   UNL     1      32.292  29.304  24.333  1.00  0.00     0.169 C 
BRANCH  27  28
ATOM     28  C   UNL     1      32.439  30.815  24.275  1.00  0.00     0.119 C 
BRANCH  28  29
ATOM     29  N   UNL     1      33.222  31.243  23.138  1.00  0.00    -0.092 NA
ATOM     30  N   UNL     1      32.748  32.052  22.320  1.00  0.00     0.001 N 
ATOM     31  N   UNL     1      32.094  32.374  21.310  1.00  0.00    -0.003 NA
ENDBRANCH  28  29
ENDBRANCH  27  28
ENDBRANCH  26  27
ENDBRANCH  20  26
BRANCH  21  32
ATOM     32  O   UNL     1      29.112  30.489  20.395  1.00  0.00    -0.387 OA
ATOM     33  H   UNL     1      30.056  30.656  20.251  1.00  0.00     0.211 HD
ENDBRANCH  21  32
BRANCH  22  34
ATOM     34  O   UNL     1      28.830  30.144  23.515  1.00  0.00    -0.385 OA
ATOM     35  H   UNL     1      28.481  29.326  23.957  1.00  0.00     0.211 HD
ENDBRANCH  22  34
ENDBRANCH  16  17
ENDBRANCH  11  16
BRANCH  13  36
ATOM     36  O   UNL     1      24.890  26.660  19.973  1.00  0.00    -0.385 OA
ATOM     37  H   UNL     1      25.355  25.851  20.301  1.00  0.00     0.211 HD
ENDBRANCH  13  36
BRANCH  14  38
ATOM     38  O   UNL     1      26.119  29.885  19.303  1.00  0.00    -0.387 OA
ATOM     39  H   UNL     1      27.004  29.645  19.675  1.00  0.00     0.211 HD
ENDBRANCH  14  38
BRANCH  15  40
ATOM     40  O   UNL     1      24.836  28.898  16.746  1.00  0.00    -0.387 OA
ATOM     41  H   UNL     1      24.330  29.679  17.088  1.00  0.00     0.211 HD
ENDBRANCH  15  40
ENDBRANCH   9  10
ENDBRANCH   8   9
ENDBRANCH   3   8
BRANCH   3  42
ATOM     42  C   UNL     1      27.310  32.414  15.728  1.00  0.00     0.364 C 
ATOM     43  O   UNL     1      26.082  32.692  15.757  1.00  0.00    -0.246 OA
BRANCH  42  44
ATOM     44  O   UNL     1      28.038  33.137  14.753  1.00  0.00    -0.477 OA
ATOM     45  H   UNL     1      28.217  32.732  13.834  1.00  0.00     0.296 HD
ENDBRANCH  42  44
ENDBRANCH   3  42
BRANCH   6  46
ATOM     46  O   UNL     1      30.410  30.421  18.026  1.00  0.00    -0.391 OA
ATOM     47  H   UNL     1      29.882  30.917  18.725  1.00  0.00     0.211 HD
ENDBRANCH   6  46
BRANCH   7  48
ATOM     48  N   UNL     1      31.077  33.152  15.909  1.00  0.00    -0.348 N 
ATOM     49  C   UNL     1      32.054  34.169  15.926  1.00  0.00     0.217 C 
ATOM     50  H   UNL     1      30.686  32.826  15.023  1.00  0.00     0.163 HD
ATOM     51  C   UNL     1      32.531  34.758  14.646  1.00  0.00     0.114 C 
ATOM     52  O   UNL     1      32.540  34.590  17.024  1.00  0.00    -0.275 OA
ENDBRANCH   7  48
ENDBRANCH   1   2
BRANCH   1  53
ATOM     53  O   UNL     1      28.023  34.250  19.240  1.00  0.00    -0.388 OA
ATOM     54  H   UNL     1      27.441  33.433  19.216  1.00  0.00     0.211 HD
ENDBRANCH   1  53
BRANCH   1  55
ATOM     55  C   UNL     1      30.246  34.960  19.084  1.00  0.00     0.165 C 
BRANCH  55  56
ATOM     56  O   UNL     1      31.309  34.900  19.939  1.00  0.00    -0.388 OA
ATOM     57  H   UNL     1      32.029  35.542  19.752  1.00  0.00     0.211 HD
ENDBRANCH  55  56
BRANCH  55  58
ATOM     58  C   UNL     1      29.661  36.317  19.003  1.00  0.00     0.154 C 
BRANCH  58  59
ATOM     59  N   UNL     1      29.271  36.807  17.711  1.00  0.00    -0.319 N 
ATOM     60  C   UNL     1      30.129  37.503  16.820  1.00  0.00     0.407 C 
ATOM     61  H   UNL     1      28.299  36.648  17.366  1.00  0.00     0.167 HD
ATOM     62  O   UNL     1      31.307  37.715  17.130  1.00  0.00    -0.225 OA
BRANCH  60  63
ATOM     63  O   UNL     1      29.728  37.982  15.568  1.00  0.00    -0.443 OA
BRANCH  63  64
ATOM     64  C   UNL     1      29.832  37.138  14.419  1.00  0.00     0.294 C 
BRANCH  64  65
ATOM     65  C   UNL     1      28.535  36.528  14.046  1.00  0.00     0.120 A 
ATOM     66  C   UNL     1      28.141  36.307  12.743  1.00  0.00     0.141 A 
ATOM     67  N   UNL     1      27.532  36.098  14.821  1.00  0.00    -0.132 NA
ATOM     68  N   UNL     1      26.906  35.749  12.774  1.00  0.00    -0.226 N 
ATOM     69  N   UNL     1      26.567  35.637  14.050  1.00  0.00    -0.065 NA
BRANCH  68  70
ATOM     70  C   UNL     1      26.082  35.335  11.661  1.00  0.00     0.307 C 
BRANCH  70  71
ATOM     71  O   UNL     1      26.635  34.294  10.967  1.00  0.00    -0.355 OA
BRANCH  71  72
ATOM     72  C   UNL     1      26.499  34.506   9.605  1.00  0.00     0.198 C 
BRANCH  72  73
ATOM     73  C   UNL     1      27.871  34.596   8.989  1.00  0.00    -0.022 A 
ATOM     74  C   UNL     1      28.930  34.064   9.694  1.00  0.00     0.006 A 
ATOM     75  C   UNL     1      28.055  35.190   7.767  1.00  0.00     0.006 A 
ATOM     76  C   UNL     1      30.201  34.127   9.164  1.00  0.00     0.000 A 
ATOM     77  C   UNL     1      29.321  35.243   7.262  1.00  0.00     0.000 A 
ATOM     78  C   UNL     1      30.413  34.720   7.937  1.00  0.00     0.000 A 
ENDBRANCH  72  73
ENDBRANCH  71  72
ENDBRANCH  70  71
ENDBRANCH  68  70
ENDBRANCH  64  65
ENDBRANCH  63  64
ENDBRANCH  60  63
ENDBRANCH  58  59
ENDBRANCH  55  58
ENDBRANCH   1  55
TORSDOF 33
BEGIN_RES LYS A 131
REMARK  4 active torsions:
REMARK  status: ('A' for Active; 'I' for Inactive)
REMARK    1  A    between atoms: CA   and  CB  
REMARK    2  A    between atoms: CB   and  CG  
REMARK    3  A    between atoms: CG   and  CD  
REMARK    4  A    between atoms: CD   and  CE  
ROOT
ATOM      1  CA  LYS A 131      29.867  25.555  16.977  1.00 20.52     0.186 C 
ENDROOT
BRANCH   1   2
ATOM      2  CB  LYS A 131      28.345  25.722  17.026  1.00 20.94     0.034 C 
BRANCH   2   3
ATOM      3  CG  LYS A 131      27.600  24.417  16.792  1.00 22.96     0.005 C 
BRANCH   3   4
ATOM      4  CD  LYS A 131      26.524  24.187  17.818  1.00 24.33     0.041 C 
BRANCH   4   5
ATOM      5  CE  LYS A 131      25.159  24.460  17.194  1.00 26.91     0.338 C 
ATOM      6  NZ  LYS A 131      24.079  23.919  18.053  1.00 27.40     0.618 N 
ENDBRANCH   4   5
ENDBRANCH   3   4
ENDBRANCH   2   3
ENDBRANCH   1   2
END_RES LYS A 131
BEGIN_RES LYS A 135
REMARK  4 active torsions:
REMARK  status: ('A' for Active; 'I' for Inactive)
REMARK    5  A    between atoms: CA   and  CB  
REMARK    6  A    between atoms: CB   and  CG  
REMARK    7  A    between atoms: CG   and  CD  
REMARK    8  A    between atoms: CD   and  CE  
ROOT
ATOM      7  CA  LYS A 135      33.193  34.663   9.290  1.00 25.02     0.186 C 
ENDROOT
BRANCH   7   8
ATOM      8  CB  LYS A 135      32.060  35.360  10.034  1.00 26.63     0.034 C 
BRANCH   8   9
ATOM      9  CG  LYS A 135      32.529  36.204  11.191  1.00 29.45     0.005 C 
BRANCH   9  10
ATOM     10  CD  LYS A 135      31.786  37.531  11.223  1.00 32.00     0.041 C 
BRANCH  10  11
ATOM     11  CE  LYS A 135      31.223  37.859   9.854  1.00 34.25     0.338 C 
ATOM     12  NZ  LYS A 135      29.747  38.049   9.913  1.00 35.99     0.618 N 
ENDBRANCH  10  11
ENDBRANCH   9  10
ENDBRANCH   8   9
ENDBRANCH   7   8
END_RES LYS A 135
