REMARK VINA RESULT:    -3.091      4.692     10.550
REMARK INTER + INTRA:         -22.421
REMARK INTER:                  -9.808
REMARK INTRA:                 -12.613
REMARK UNBOUND:               -13.729
REMARK SMILES CCOC(CCn1cc(COC(=O)NC[C@@H](O)C(O)[C@@H]2O[C@@](OC[C@H]3O[C@@H](O[C@H]4[C@H](O)[C@@H](O)[C@H](OCCN=[N+]=[N-])O[C@@H]4CO)[C@H](O)[C@@H](O)[C@H]3O)(C(=O)O)C[C@H](O)[C@H]2NC(C)=O)nn1)OCC
REMARK SMILES IDX 18 1 20 2 22 3 54 4 21 5 55 6 57 7 23 8 24 9 25 10 27 11
REMARK SMILES IDX 26 12 45 13 47 14 49 15 28 16 29 17 42 18 41 19 34 20 30 21
REMARK SMILES IDX 32 22 43 23 44 24 35 26 36 27 37 28 38 29 39 30 40 31 31 32
REMARK SMILES IDX 33 34 46 36 48 38 50 40 51 42 52 43 53 44 56 46 58 48 59 49
REMARK SMILES IDX 60 51 61 52 19 53 16 55 17 56 15 58 14 59 12 60 13 62 11 63
REMARK SMILES IDX 10 64 9 65 8 66 62 67 7 68 63 69 6 70 5 71 4 72 3 73 2 74
REMARK SMILES IDX 1 75 64 76 65 77 66 78
REMARK H PARENT 44 25 31 33 33 35 46 37 48 39 50 41 53 45 56 47 58 50 19 54
REMARK H PARENT 17 57 14 61
REMARK Flexibility Score: inf
ROOT
ATOM      1  C   UNL     1      29.012  38.161   6.042  1.00  0.00     0.176 C 
ENDROOT
BRANCH   1   2
ATOM      2  C   UNL     1      29.111  38.422   7.515  1.00  0.00     0.178 C 
ATOM      3  C   UNL     1      28.041  39.384   9.327  1.00  0.00     0.272 C 
ATOM      4  C   UNL     1      29.202  38.750  10.006  1.00  0.00     0.113 C 
ATOM      5  O   UNL     1      28.032  39.189   7.927  1.00  0.00    -0.332 OA
ATOM      6  C   UNL     1      30.530  38.952   9.364  1.00  0.00     0.145 C 
ATOM      7  C   UNL     1      30.344  39.259   7.872  1.00  0.00     0.142 C 
BRANCH   3   8
ATOM      8  O   UNL     1      27.786  40.675   9.562  1.00  0.00    -0.338 OA
BRANCH   8   9
ATOM      9  C   UNL     1      28.519  41.660   9.014  1.00  0.00     0.199 C 
BRANCH   9  10
ATOM     10  C   UNL     1      29.049  42.602  10.072  1.00  0.00     0.179 C 
ATOM     11  C   UNL     1      29.397  42.968  12.260  1.00  0.00     0.282 C 
ATOM     12  O   UNL     1      29.414  41.972  11.248  1.00  0.00    -0.341 OA
ATOM     13  C   UNL     1      30.550  43.873  12.034  1.00  0.00     0.202 C 
ATOM     14  C   UNL     1      30.470  44.463  10.645  1.00  0.00     0.179 C 
ATOM     15  C   UNL     1      30.210  43.449   9.562  1.00  0.00     0.177 C 
BRANCH  11  16
ATOM     16  O   UNL     1      29.369  42.338  13.509  1.00  0.00    -0.341 OA
BRANCH  16  17
ATOM     17  C   UNL     1      29.315  40.993  13.326  1.00  0.00     0.184 C 
ATOM     18  C   UNL     1      28.169  40.241  13.882  1.00  0.00     0.178 C 
ATOM     19  O   UNL     1      28.123  38.991  13.249  1.00  0.00    -0.341 OA
ATOM     20  C   UNL     1      29.228  38.213  13.624  1.00  0.00     0.281 C 
ATOM     21  C   UNL     1      30.567  40.305  13.958  1.00  0.00     0.180 C 
ATOM     22  C   UNL     1      30.544  38.903  13.332  1.00  0.00     0.202 C 
BRANCH  18  23
ATOM     23  C   UNL     1      26.870  40.943  13.624  1.00  0.00     0.191 C 
BRANCH  23  24
ATOM     24  O   UNL     1      26.615  41.102  12.262  1.00  0.00    -0.394 OA
ATOM     25  H   UNL     1      26.834  40.310  11.739  1.00  0.00     0.210 HD
ENDBRANCH  23  24
ENDBRANCH  18  23
BRANCH  20  26
ATOM     26  O   UNL     1      29.175  37.059  12.863  1.00  0.00    -0.350 OA
BRANCH  26  27
ATOM     27  C   UNL     1      29.000  35.889  13.538  1.00  0.00     0.169 C 
BRANCH  27  28
ATOM     28  C   UNL     1      29.788  34.783  12.885  1.00  0.00     0.119 C 
BRANCH  28  29
ATOM     29  N   UNL     1      31.203  35.145  12.876  1.00  0.00    -0.092 NA
ATOM     30  N   UNL     1      31.848  34.750  13.869  1.00  0.00     0.001 N 
ATOM     31  N   UNL     1      32.550  34.803  14.881  1.00  0.00    -0.003 NA
ENDBRANCH  28  29
ENDBRANCH  27  28
ENDBRANCH  26  27
ENDBRANCH  20  26
BRANCH  21  32
ATOM     32  O   UNL     1      31.719  40.966  13.624  1.00  0.00    -0.387 OA
ATOM     33  H   UNL     1      32.289  41.170  14.405  1.00  0.00     0.211 HD
ENDBRANCH  21  32
BRANCH  22  34
ATOM     34  O   UNL     1      31.572  38.132  13.804  1.00  0.00    -0.385 OA
ATOM     35  H   UNL     1      31.647  38.317  14.792  1.00  0.00     0.211 HD
ENDBRANCH  22  34
ENDBRANCH  16  17
ENDBRANCH  11  16
BRANCH  13  36
ATOM     36  O   UNL     1      30.524  44.967  12.913  1.00  0.00    -0.385 OA
ATOM     37  H   UNL     1      29.730  44.950  13.492  1.00  0.00     0.211 HD
ENDBRANCH  13  36
BRANCH  14  38
ATOM     38  O   UNL     1      31.562  45.275  10.361  1.00  0.00    -0.387 OA
ATOM     39  H   UNL     1      32.100  44.906   9.610  1.00  0.00     0.211 HD
ENDBRANCH  14  38
BRANCH  15  40
ATOM     40  O   UNL     1      31.305  42.633   9.321  1.00  0.00    -0.387 OA
ATOM     41  H   UNL     1      32.086  42.927   9.841  1.00  0.00     0.211 HD
ENDBRANCH  15  40
ENDBRANCH   9  10
ENDBRANCH   8   9
ENDBRANCH   3   8
BRANCH   3  42
ATOM     42  C   UNL     1      26.828  38.628   9.776  1.00  0.00     0.364 C 
ATOM     43  O   UNL     1      25.914  38.327   8.986  1.00  0.00    -0.246 OA
BRANCH  42  44
ATOM     44  O   UNL     1      26.674  38.228  11.099  1.00  0.00    -0.477 OA
ATOM     45  H   UNL     1      25.750  37.952  11.413  1.00  0.00     0.296 HD
ENDBRANCH  42  44
ENDBRANCH   3  42
BRANCH   6  46
ATOM     46  O   UNL     1      31.327  39.896   9.963  1.00  0.00    -0.391 OA
ATOM     47  H   UNL     1      32.292  39.796   9.771  1.00  0.00     0.211 HD
ENDBRANCH   6  46
BRANCH   7  48
ATOM     48  N   UNL     1      31.497  38.928   7.100  1.00  0.00    -0.348 N 
ATOM     49  C   UNL     1      32.426  39.965   6.801  1.00  0.00     0.217 C 
ATOM     50  H   UNL     1      31.696  37.972   6.748  1.00  0.00     0.163 HD
ATOM     51  C   UNL     1      33.637  39.653   5.998  1.00  0.00     0.114 C 
ATOM     52  O   UNL     1      32.240  41.160   7.209  1.00  0.00    -0.275 OA
ENDBRANCH   7  48
ENDBRANCH   1   2
BRANCH   1  53
ATOM     53  O   UNL     1      29.456  36.842   5.840  1.00  0.00    -0.388 OA
ATOM     54  H   UNL     1      30.437  36.772   6.029  1.00  0.00     0.211 HD
ENDBRANCH   1  53
BRANCH   1  55
ATOM     55  C   UNL     1      27.545  38.190   5.662  1.00  0.00     0.165 C 
BRANCH  55  56
ATOM     56  O   UNL     1      27.181  37.052   5.004  1.00  0.00    -0.388 OA
ATOM     57  H   UNL     1      27.126  36.244   5.573  1.00  0.00     0.211 HD
ENDBRANCH  55  56
BRANCH  55  58
ATOM     58  C   UNL     1      27.244  39.405   4.829  1.00  0.00     0.154 C 
BRANCH  58  59
ATOM     59  N   UNL     1      26.194  40.250   5.317  1.00  0.00    -0.319 N 
ATOM     60  C   UNL     1      26.362  41.563   5.785  1.00  0.00     0.407 C 
ATOM     61  H   UNL     1      25.219  39.818   5.311  1.00  0.00     0.167 HD
ATOM     62  O   UNL     1      27.462  42.138   5.816  1.00  0.00    -0.225 OA
BRANCH  60  63
ATOM     63  O   UNL     1      25.252  42.302   6.253  1.00  0.00    -0.443 OA
BRANCH  63  64
ATOM     64  C   UNL     1      25.325  42.916   7.549  1.00  0.00     0.294 C 
BRANCH  64  65
ATOM     65  C   UNL     1      24.660  42.020   8.530  1.00  0.00     0.120 A 
ATOM     66  C   UNL     1      23.704  41.066   8.279  1.00  0.00     0.138 A 
ATOM     67  N   UNL     1      24.880  42.000   9.847  1.00  0.00    -0.132 NA
ATOM     68  N   UNL     1      23.385  40.508   9.465  1.00  0.00    -0.252 N 
ATOM     69  N   UNL     1      24.117  41.096  10.394  1.00  0.00    -0.067 NA
BRANCH  68  70
ATOM     70  C   UNL     1      22.418  39.462   9.628  1.00  0.00     0.151 C 
BRANCH  70  71
ATOM     71  C   UNL     1      22.468  38.390   8.578  1.00  0.00     0.086 C 
BRANCH  71  72
ATOM     72  C   UNL     1      22.302  37.026   9.249  1.00  0.00     0.251 C 
BRANCH  72  73
ATOM     73  O   UNL     1      23.286  36.940  10.215  1.00  0.00    -0.353 OA
BRANCH  73  74
ATOM     74  C   UNL     1      23.885  35.688  10.249  1.00  0.00     0.160 C 
ATOM     75  C   UNL     1      23.505  34.924  11.502  1.00  0.00     0.035 C 
ENDBRANCH  73  74
ENDBRANCH  72  73
BRANCH  72  76
ATOM     76  O   UNL     1      22.258  36.008   8.344  1.00  0.00    -0.353 OA
BRANCH  76  77
ATOM     77  C   UNL     1      21.038  35.445   8.088  1.00  0.00     0.160 C 
ATOM     78  C   UNL     1      20.164  35.574   9.314  1.00  0.00     0.035 C 
ENDBRANCH  76  77
ENDBRANCH  72  76
ENDBRANCH  71  72
ENDBRANCH  70  71
ENDBRANCH  68  70
ENDBRANCH  64  65
ENDBRANCH  63  64
ENDBRANCH  60  63
ENDBRANCH  58  59
ENDBRANCH  55  58
ENDBRANCH   1  55
TORSDOF 36
BEGIN_RES LYS A 131
REMARK  4 active torsions:
REMARK  status: ('A' for Active; 'I' for Inactive)
REMARK    1  A    between atoms: CA   and  CB  
REMARK    2  A    between atoms: CB   and  CG  
REMARK    3  A    between atoms: CG   and  CD  
REMARK    4  A    between atoms: CD   and  CE  
ROOT
ATOM      1  CA  LYS A 131      29.867  25.555  16.977  1.00 20.52     0.186 C 
ENDROOT
BRANCH   1   2
ATOM      2  CB  LYS A 131      28.345  25.722  17.026  1.00 20.94     0.034 C 
BRANCH   2   3
ATOM      3  CG  LYS A 131      27.599  24.452  16.647  1.00 22.96     0.005 C 
BRANCH   3   4
ATOM      4  CD  LYS A 131      27.140  23.683  17.855  1.00 24.33     0.041 C 
BRANCH   4   5
ATOM      5  CE  LYS A 131      25.737  24.136  18.244  1.00 26.91     0.338 C 
ATOM      6  NZ  LYS A 131      24.865  24.211  17.048  1.00 27.40     0.618 N 
ENDBRANCH   4   5
ENDBRANCH   3   4
ENDBRANCH   2   3
ENDBRANCH   1   2
END_RES LYS A 131
BEGIN_RES LYS A 135
REMARK  4 active torsions:
REMARK  status: ('A' for Active; 'I' for Inactive)
REMARK    5  A    between atoms: CA   and  CB  
REMARK    6  A    between atoms: CB   and  CG  
REMARK    7  A    between atoms: CG   and  CD  
REMARK    8  A    between atoms: CD   and  CE  
ROOT
ATOM      7  CA  LYS A 135      33.193  34.663   9.290  1.00 25.02     0.186 C 
ENDROOT
BRANCH   7   8
ATOM      8  CB  LYS A 135      32.060  35.360  10.034  1.00 26.63     0.034 C 
BRANCH   8   9
ATOM      9  CG  LYS A 135      30.796  35.488   9.224  1.00 29.45     0.005 C 
BRANCH   9  10
ATOM     10  CD  LYS A 135      30.105  34.140   9.090  1.00 32.00     0.041 C 
BRANCH  10  11
ATOM     11  CE  LYS A 135      28.655  34.322   8.687  1.00 34.25     0.338 C 
ATOM     12  NZ  LYS A 135      27.736  33.864   9.765  1.00 35.99     0.618 N 
ENDBRANCH  10  11
ENDBRANCH   9  10
ENDBRANCH   8   9
ENDBRANCH   7   8
END_RES LYS A 135
