REMARK VINA RESULT:    -3.552      6.300     11.889
REMARK INTER + INTRA:         -20.744
REMARK INTER:                 -10.412
REMARK INTRA:                 -10.332
REMARK UNBOUND:               -11.690
REMARK SMILES CC(=O)N[C@@H]1[C@@H](O)C[C@](OC[C@H]2O[C@@H](O[C@H]3[C@H](O)[C@@H](O)[C@H](OCCN=[N+]=[N-])O[C@@H]3CO)[C@H](O)[C@@H](O)[C@H]2O)(C(=O)O)O[C@H]1C(O)[C@H](O)CNC(=O)OCc1cn(CCO)nn1
REMARK SMILES IDX 9 1 8 2 6 3 5 4 42 5 41 6 10 7 11 8 12 9 14 10 13 11 32 12
REMARK SMILES IDX 34 13 36 14 15 15 16 16 29 17 28 18 21 19 17 20 19 21 30 22
REMARK SMILES IDX 31 23 22 25 23 26 24 27 25 28 26 29 27 30 18 31 20 33 33 35
REMARK SMILES IDX 35 37 37 39 38 41 39 42 40 43 7 45 43 47 44 48 45 50 46 51
REMARK SMILES IDX 47 53 48 54 49 55 50 57 51 58 52 59 53 60 54 61 60 62 55 63
REMARK SMILES IDX 59 64 56 65 57 66 58 67 4 69 2 70 1 72 3 73
REMARK H PARENT 31 24 18 32 20 34 33 36 35 38 37 40 40 44 7 46 44 49 46 52
REMARK H PARENT 48 56 58 68 4 71
REMARK Flexibility Score: inf
ROOT
ATOM      1  C   UNL     1      28.408  37.080  12.082  1.00  0.00     0.272 C 
ATOM      2  C   UNL     1      29.612  37.964  12.117  1.00  0.00     0.113 C 
ATOM      3  C   UNL     1      30.320  37.821  13.436  1.00  0.00     0.145 C 
ATOM      4  C   UNL     1      30.643  36.334  13.580  1.00  0.00     0.142 C 
ATOM      5  C   UNL     1      29.299  35.625  13.702  1.00  0.00     0.178 C 
ATOM      6  O   UNL     1      28.723  35.798  12.421  1.00  0.00    -0.332 OA
ENDROOT
BRANCH   1   7
ATOM      7  O   UNL     1      27.837  37.052  10.789  1.00  0.00    -0.338 OA
BRANCH   7   8
ATOM      8  C   UNL     1      28.380  37.902   9.884  1.00  0.00     0.199 C 
BRANCH   8   9
ATOM      9  C   UNL     1      27.321  38.402   8.889  1.00  0.00     0.179 C 
ATOM     10  C   UNL     1      25.252  37.880   7.977  1.00  0.00     0.282 C 
ATOM     11  O   UNL     1      26.346  37.442   8.724  1.00  0.00    -0.341 OA
ATOM     12  C   UNL     1      24.523  39.014   8.646  1.00  0.00     0.202 C 
ATOM     13  C   UNL     1      25.358  39.762   9.655  1.00  0.00     0.179 C 
ATOM     14  C   UNL     1      26.798  39.756   9.224  1.00  0.00     0.177 C 
BRANCH  10  15
ATOM     15  O   UNL     1      24.426  36.829   7.861  1.00  0.00    -0.341 OA
BRANCH  15  16
ATOM     16  C   UNL     1      23.336  36.704   8.635  1.00  0.00     0.184 C 
ATOM     17  C   UNL     1      23.194  35.637   9.625  1.00  0.00     0.178 C 
ATOM     18  O   UNL     1      21.878  35.218   9.709  1.00  0.00    -0.341 OA
ATOM     19  C   UNL     1      20.904  36.164   9.682  1.00  0.00     0.281 C 
ATOM     20  C   UNL     1      22.160  36.536   7.638  1.00  0.00     0.180 C 
ATOM     21  C   UNL     1      20.945  37.014   8.403  1.00  0.00     0.202 C 
BRANCH  17  22
ATOM     22  C   UNL     1      23.630  36.045  11.030  1.00  0.00     0.191 C 
BRANCH  22  23
ATOM     23  O   UNL     1      24.970  36.435  11.064  1.00  0.00    -0.394 OA
ATOM     24  H   UNL     1      25.112  36.967  11.870  1.00  0.00     0.210 HD
ENDBRANCH  22  23
ENDBRANCH  17  22
BRANCH  19  25
ATOM     25  O   UNL     1      20.757  36.941  10.796  1.00  0.00    -0.350 OA
BRANCH  25  26
ATOM     26  C   UNL     1      20.673  38.288  10.611  1.00  0.00     0.169 C 
BRANCH  26  27
ATOM     27  C   UNL     1      20.860  39.026  11.893  1.00  0.00     0.119 C 
BRANCH  27  28
ATOM     28  N   UNL     1      22.263  39.460  12.000  1.00  0.00    -0.092 NA
ATOM     29  N   UNL     1      22.869  39.022  12.995  1.00  0.00     0.001 N 
ATOM     30  N   UNL     1      23.682  38.263  13.551  1.00  0.00    -0.003 NA
ENDBRANCH  27  28
ENDBRANCH  26  27
ENDBRANCH  25  26
ENDBRANCH  19  25
BRANCH  20  31
ATOM     31  O   UNL     1      22.390  37.241   6.486  1.00  0.00    -0.387 OA
ATOM     32  H   UNL     1      22.234  38.214   6.592  1.00  0.00     0.211 HD
ENDBRANCH  20  31
BRANCH  21  33
ATOM     33  O   UNL     1      19.810  36.914   7.645  1.00  0.00    -0.385 OA
ATOM     34  H   UNL     1      19.959  36.447   6.786  1.00  0.00     0.211 HD
ENDBRANCH  21  33
ENDBRANCH  15  16
ENDBRANCH  10  15
BRANCH  12  35
ATOM     35  O   UNL     1      24.196  39.954   7.655  1.00  0.00    -0.385 OA
ATOM     36  H   UNL     1      23.752  39.558   6.879  1.00  0.00     0.211 HD
ENDBRANCH  12  35
BRANCH  13  37
ATOM     37  O   UNL     1      25.151  39.235  10.903  1.00  0.00    -0.387 OA
ATOM     38  H   UNL     1      24.316  38.670  10.941  1.00  0.00     0.211 HD
ENDBRANCH  13  37
BRANCH  14  39
ATOM     39  O   UNL     1      27.554  40.242  10.314  1.00  0.00    -0.387 OA
ATOM     40  H   UNL     1      27.972  41.111  10.093  1.00  0.00     0.211 HD
ENDBRANCH  14  39
ENDBRANCH   8   9
ENDBRANCH   7   8
ENDBRANCH   1   7
BRANCH   1  41
ATOM     41  C   UNL     1      27.353  37.680  12.928  1.00  0.00     0.364 C 
ATOM     42  O   UNL     1      27.210  38.909  13.063  1.00  0.00    -0.246 OA
BRANCH  41  43
ATOM     43  O   UNL     1      26.461  36.877  13.618  1.00  0.00    -0.477 OA
ATOM     44  H   UNL     1      25.452  37.096  13.690  1.00  0.00     0.296 HD
ENDBRANCH  41  43
ENDBRANCH   1  41
BRANCH   3  45
ATOM     45  O   UNL     1      31.565  38.489  13.407  1.00  0.00    -0.391 OA
ATOM     46  H   UNL     1      31.473  39.311  12.853  1.00  0.00     0.211 HD
ENDBRANCH   3  45
BRANCH   5  47
ATOM     47  C   UNL     1      29.534  34.153  13.808  1.00  0.00     0.176 C 
BRANCH  47  48
ATOM     48  O   UNL     1      30.730  33.774  13.195  1.00  0.00    -0.388 OA
ATOM     49  H   UNL     1      31.428  33.529  13.859  1.00  0.00     0.211 HD
ENDBRANCH  47  48
BRANCH  47  50
ATOM     50  C   UNL     1      29.405  33.502  15.130  1.00  0.00     0.165 C 
BRANCH  50  51
ATOM     51  O   UNL     1      30.006  32.191  14.887  1.00  0.00    -0.388 OA
ATOM     52  H   UNL     1      30.915  32.333  14.537  1.00  0.00     0.211 HD
ENDBRANCH  50  51
BRANCH  50  53
ATOM     53  C   UNL     1      27.987  33.102  15.496  1.00  0.00     0.154 C 
BRANCH  53  54
ATOM     54  N   UNL     1      26.981  33.846  14.808  1.00  0.00    -0.319 N 
ATOM     55  C   UNL     1      25.742  34.140  15.431  1.00  0.00     0.407 C 
ATOM     56  H   UNL     1      27.123  34.188  13.816  1.00  0.00     0.167 HD
ATOM     57  O   UNL     1      25.589  33.695  16.619  1.00  0.00    -0.225 OA
BRANCH  55  58
ATOM     58  O   UNL     1      24.709  34.850  14.881  1.00  0.00    -0.443 OA
BRANCH  58  59
ATOM     59  C   UNL     1      23.378  34.486  15.196  1.00  0.00     0.294 C 
BRANCH  59  60
ATOM     60  C   UNL     1      22.772  33.606  14.193  1.00  0.00     0.120 A 
ATOM     61  C   UNL     1      23.039  32.268  14.043  1.00  0.00     0.138 A 
ATOM     62  N   UNL     1      21.867  33.901  13.246  1.00  0.00    -0.132 NA
ATOM     63  N   UNL     1      22.303  31.781  13.024  1.00  0.00    -0.250 N 
ATOM     64  N   UNL     1      21.599  32.785  12.555  1.00  0.00    -0.067 NA
BRANCH  63  65
ATOM     65  C   UNL     1      22.308  30.388  12.555  1.00  0.00     0.174 C 
BRANCH  65  66
ATOM     66  C   UNL     1      23.674  29.806  12.824  1.00  0.00     0.179 C 
BRANCH  66  67
ATOM     67  O   UNL     1      23.639  28.456  12.436  1.00  0.00    -0.394 OA
ATOM     68  H   UNL     1      22.740  28.125  12.270  1.00  0.00     0.210 HD
ENDBRANCH  66  67
ENDBRANCH  65  66
ENDBRANCH  63  65
ENDBRANCH  59  60
ENDBRANCH  58  59
ENDBRANCH  55  58
ENDBRANCH  53  54
ENDBRANCH  50  53
ENDBRANCH  47  50
ENDBRANCH   5  47
BRANCH   4  69
ATOM     69  N   UNL     1      31.599  36.058  14.578  1.00  0.00    -0.348 N 
ATOM     70  C   UNL     1      32.899  35.547  14.353  1.00  0.00     0.217 C 
ATOM     71  H   UNL     1      31.364  36.253  15.584  1.00  0.00     0.163 HD
ATOM     72  C   UNL     1      33.797  35.301  15.500  1.00  0.00     0.114 C 
ATOM     73  O   UNL     1      33.297  35.299  13.205  1.00  0.00    -0.275 OA
ENDBRANCH   4  69
TORSDOF 32
BEGIN_RES LYS A 131
REMARK  4 active torsions:
REMARK  status: ('A' for Active; 'I' for Inactive)
REMARK    1  A    between atoms: CA   and  CB  
REMARK    2  A    between atoms: CB   and  CG  
REMARK    3  A    between atoms: CG   and  CD  
REMARK    4  A    between atoms: CD   and  CE  
ROOT
ATOM      1  CA  LYS A 131      29.867  25.555  16.977  1.00 20.52     0.186 C 
ENDROOT
BRANCH   1   2
ATOM      2  CB  LYS A 131      28.345  25.722  17.026  1.00 20.94     0.034 C 
BRANCH   2   3
ATOM      3  CG  LYS A 131      27.601  24.402  16.890  1.00 22.96     0.005 C 
BRANCH   3   4
ATOM      4  CD  LYS A 131      26.194  24.489  17.412  1.00 24.33     0.041 C 
BRANCH   4   5
ATOM      5  CE  LYS A 131      26.075  25.677  18.361  1.00 26.91     0.338 C 
ATOM      6  NZ  LYS A 131      24.991  26.587  17.920  1.00 27.40     0.618 N 
ENDBRANCH   4   5
ENDBRANCH   3   4
ENDBRANCH   2   3
ENDBRANCH   1   2
END_RES LYS A 131
BEGIN_RES LYS A 135
REMARK  4 active torsions:
REMARK  status: ('A' for Active; 'I' for Inactive)
REMARK    5  A    between atoms: CA   and  CB  
REMARK    6  A    between atoms: CB   and  CG  
REMARK    7  A    between atoms: CG   and  CD  
REMARK    8  A    between atoms: CD   and  CE  
ROOT
ATOM      7  CA  LYS A 135      33.193  34.663   9.290  1.00 25.02     0.186 C 
ENDROOT
BRANCH   7   8
ATOM      8  CB  LYS A 135      32.060  35.360  10.034  1.00 26.63     0.034 C 
BRANCH   8   9
ATOM      9  CG  LYS A 135      30.802  35.504   9.217  1.00 29.45     0.005 C 
BRANCH   9  10
ATOM     10  CD  LYS A 135      30.112  34.159   9.053  1.00 32.00     0.041 C 
BRANCH  10  11
ATOM     11  CE  LYS A 135      28.665  34.350   8.637  1.00 34.25     0.338 C 
ATOM     12  NZ  LYS A 135      27.736  33.783   9.654  1.00 35.99     0.618 N 
ENDBRANCH  10  11
ENDBRANCH   9  10
ENDBRANCH   8   9
ENDBRANCH   7   8
END_RES LYS A 135
