REMARK VINA RESULT:    -4.306      8.876     15.212
REMARK INTER + INTRA:         -21.842
REMARK INTER:                 -12.679
REMARK INTRA:                  -9.163
REMARK UNBOUND:               -11.242
REMARK SMILES CC(=O)N[C@@H]1[C@@H](O)C[C@](OC[C@H]2O[C@@H](O[C@H]3[C@H](O)[C@@H](O)[C@H](OCCN=[N+]=[N-])O[C@@H]3CO)[C@H](O)[C@@H](O)[C@H]2O)(C(=O)O)O[C@H]1C(O)[C@H](O)CNC(=O)OCc1cn(-c2c(C)cc(C)cc2C)nn1
REMARK SMILES IDX 9 1 8 2 6 3 5 4 42 5 41 6 10 7 11 8 12 9 14 10 13 11 32 12
REMARK SMILES IDX 34 13 36 14 15 15 16 16 29 17 28 18 21 19 17 20 19 21 30 22
REMARK SMILES IDX 31 23 22 25 23 26 24 27 25 28 26 29 27 30 18 31 20 33 33 35
REMARK SMILES IDX 35 37 37 39 38 41 39 42 40 43 7 45 43 47 44 48 45 50 46 51
REMARK SMILES IDX 47 53 48 54 49 55 50 57 51 58 52 59 53 60 54 61 66 62 55 63
REMARK SMILES IDX 65 64 56 65 57 66 63 67 58 68 59 69 62 70 64 71 60 72 61 73
REMARK SMILES IDX 4 74 2 75 1 77 3 78
REMARK H PARENT 31 24 18 32 20 34 33 36 35 38 37 40 40 44 7 46 44 49 46 52
REMARK H PARENT 48 56 4 76
REMARK Flexibility Score: inf
ROOT
ATOM      1  C   UNL     1      25.819  37.871   9.616  1.00  0.00     0.272 C 
ATOM      2  C   UNL     1      25.417  39.068  10.384  1.00  0.00     0.113 C 
ATOM      3  C   UNL     1      24.571  40.084   9.656  1.00  0.00     0.145 C 
ATOM      4  C   UNL     1      24.966  40.135   8.214  1.00  0.00     0.142 C 
ATOM      5  C   UNL     1      26.411  39.623   8.167  1.00  0.00     0.178 C 
ATOM      6  O   UNL     1      26.329  38.217   8.356  1.00  0.00    -0.332 OA
ENDROOT
BRANCH   1   7
ATOM      7  O   UNL     1      24.910  36.864   9.485  1.00  0.00    -0.338 OA
BRANCH   7   8
ATOM      8  C   UNL     1      24.255  36.679   8.324  1.00  0.00     0.199 C 
BRANCH   8   9
ATOM      9  C   UNL     1      23.009  35.833   8.626  1.00  0.00     0.179 C 
ATOM     10  C   UNL     1      21.501  35.612  10.350  1.00  0.00     0.282 C 
ATOM     11  O   UNL     1      22.837  35.688   9.989  1.00  0.00    -0.341 OA
ATOM     12  C   UNL     1      20.929  36.987  10.119  1.00  0.00     0.202 C 
ATOM     13  C   UNL     1      20.948  37.202   8.612  1.00  0.00     0.179 C 
ATOM     14  C   UNL     1      21.806  36.245   7.862  1.00  0.00     0.177 C 
BRANCH  10  15
ATOM     15  O   UNL     1      21.286  35.076  11.562  1.00  0.00    -0.341 OA
BRANCH  15  16
ATOM     16  C   UNL     1      22.275  35.084  12.478  1.00  0.00     0.184 C 
ATOM     17  C   UNL     1      22.840  33.682  12.622  1.00  0.00     0.178 C 
ATOM     18  O   UNL     1      22.410  33.043  13.746  1.00  0.00    -0.341 OA
ATOM     19  C   UNL     1      22.790  33.643  14.937  1.00  0.00     0.281 C 
ATOM     20  C   UNL     1      21.699  35.533  13.823  1.00  0.00     0.180 C 
ATOM     21  C   UNL     1      22.625  35.119  14.952  1.00  0.00     0.202 C 
BRANCH  17  22
ATOM     22  C   UNL     1      24.353  33.687  12.477  1.00  0.00     0.191 C 
BRANCH  22  23
ATOM     23  O   UNL     1      24.780  34.848  11.838  1.00  0.00    -0.394 OA
ATOM     24  H   UNL     1      25.756  34.893  11.711  1.00  0.00     0.210 HD
ENDBRANCH  22  23
ENDBRANCH  17  22
BRANCH  19  25
ATOM     25  O   UNL     1      24.116  33.320  15.263  1.00  0.00    -0.350 OA
BRANCH  25  26
ATOM     26  C   UNL     1      24.241  32.156  15.978  1.00  0.00     0.169 C 
BRANCH  26  27
ATOM     27  C   UNL     1      25.279  31.203  15.471  1.00  0.00     0.119 C 
BRANCH  27  28
ATOM     28  N   UNL     1      24.700  29.958  15.000  1.00  0.00    -0.092 NA
ATOM     29  N   UNL     1      24.138  29.895  13.888  1.00  0.00     0.001 N 
ATOM     30  N   UNL     1      23.687  30.024  12.745  1.00  0.00    -0.003 NA
ENDBRANCH  27  28
ENDBRANCH  26  27
ENDBRANCH  25  26
ENDBRANCH  19  25
BRANCH  20  31
ATOM     31  O   UNL     1      21.512  36.891  13.904  1.00  0.00    -0.387 OA
ATOM     32  H   UNL     1      20.565  37.184  13.881  1.00  0.00     0.211 HD
ENDBRANCH  20  31
BRANCH  21  33
ATOM     33  O   UNL     1      22.008  35.496  16.142  1.00  0.00    -0.385 OA
ATOM     34  H   UNL     1      21.218  34.917  16.335  1.00  0.00     0.211 HD
ENDBRANCH  21  33
ENDBRANCH  15  16
ENDBRANCH  10  15
BRANCH  12  35
ATOM     35  O   UNL     1      19.603  37.092  10.531  1.00  0.00    -0.385 OA
ATOM     36  H   UNL     1      19.406  36.276  11.085  1.00  0.00     0.211 HD
ENDBRANCH  12  35
BRANCH  13  37
ATOM     37  O   UNL     1      21.335  38.503   8.293  1.00  0.00    -0.387 OA
ATOM     38  H   UNL     1      21.333  38.683   7.318  1.00  0.00     0.211 HD
ENDBRANCH  13  37
BRANCH  14  39
ATOM     39  O   UNL     1      22.200  36.886   6.662  1.00  0.00    -0.387 OA
ATOM     40  H   UNL     1      23.181  36.905   6.584  1.00  0.00     0.211 HD
ENDBRANCH  14  39
ENDBRANCH   8   9
ENDBRANCH   7   8
ENDBRANCH   1   7
BRANCH   1  41
ATOM     41  C   UNL     1      27.040  37.316  10.316  1.00  0.00     0.364 C 
ATOM     42  O   UNL     1      26.892  36.416  11.149  1.00  0.00    -0.246 OA
BRANCH  41  43
ATOM     43  O   UNL     1      28.307  37.794  10.044  1.00  0.00    -0.477 OA
ATOM     44  H   UNL     1      28.938  38.173  10.728  1.00  0.00     0.296 HD
ENDBRANCH  41  43
ENDBRANCH   1  41
BRANCH   3  45
ATOM     45  O   UNL     1      23.238  39.733   9.865  1.00  0.00    -0.391 OA
ATOM     46  H   UNL     1      23.170  39.255  10.753  1.00  0.00     0.211 HD
ENDBRANCH   3  45
BRANCH   5  47
ATOM     47  C   UNL     1      27.087  39.778   6.863  1.00  0.00     0.176 C 
BRANCH  47  48
ATOM     48  O   UNL     1      26.815  38.570   6.122  1.00  0.00    -0.388 OA
ATOM     49  H   UNL     1      27.661  38.062   6.033  1.00  0.00     0.211 HD
ENDBRANCH  47  48
BRANCH  47  50
ATOM     50  C   UNL     1      28.602  39.806   6.856  1.00  0.00     0.165 C 
BRANCH  50  51
ATOM     51  O   UNL     1      28.921  38.428   7.164  1.00  0.00    -0.388 OA
ATOM     52  H   UNL     1      28.916  38.311   8.134  1.00  0.00     0.211 HD
ENDBRANCH  50  51
BRANCH  50  53
ATOM     53  C   UNL     1      29.154  40.545   8.051  1.00  0.00     0.154 C 
BRANCH  53  54
ATOM     54  N   UNL     1      30.020  39.799   8.911  1.00  0.00    -0.319 N 
ATOM     55  C   UNL     1      30.674  40.456   9.996  1.00  0.00     0.407 C 
ATOM     56  H   UNL     1      30.188  38.765   8.750  1.00  0.00     0.167 HD
ATOM     57  O   UNL     1      30.447  41.691  10.126  1.00  0.00    -0.225 OA
BRANCH  55  58
ATOM     58  O   UNL     1      31.518  39.790  10.877  1.00  0.00    -0.443 OA
BRANCH  58  59
ATOM     59  C   UNL     1      31.091  39.363  12.148  1.00  0.00     0.294 C 
BRANCH  59  60
ATOM     60  C   UNL     1      31.387  37.933  12.433  1.00  0.00     0.121 A 
ATOM     61  C   UNL     1      30.828  37.118  13.390  1.00  0.00     0.144 A 
ATOM     62  N   UNL     1      32.292  37.147  11.780  1.00  0.00    -0.131 NA
ATOM     63  N   UNL     1      31.383  35.898  13.305  1.00  0.00    -0.220 N 
ATOM     64  N   UNL     1      32.267  35.965  12.311  1.00  0.00    -0.062 NA
BRANCH  63  65
ATOM     65  C   UNL     1      31.116  34.729  14.104  1.00  0.00     0.072 A 
ATOM     66  C   UNL     1      32.109  34.326  14.962  1.00  0.00    -0.025 A 
ATOM     67  C   UNL     1      29.936  34.082  13.988  1.00  0.00    -0.025 A 
ATOM     68  C   UNL     1      33.410  35.074  15.061  1.00  0.00     0.047 C 
ATOM     69  C   UNL     1      31.874  33.206  15.735  1.00  0.00     0.009 A 
ATOM     70  C   UNL     1      29.744  32.952  14.791  1.00  0.00     0.009 A 
ATOM     71  C   UNL     1      28.839  34.490  13.073  1.00  0.00     0.047 C 
ATOM     72  C   UNL     1      30.700  32.501  15.669  1.00  0.00    -0.050 A 
ATOM     73  C   UNL     1      30.509  31.307  16.528  1.00  0.00     0.044 C 
ENDBRANCH  63  65
ENDBRANCH  59  60
ENDBRANCH  58  59
ENDBRANCH  55  58
ENDBRANCH  53  54
ENDBRANCH  50  53
ENDBRANCH  47  50
ENDBRANCH   5  47
BRANCH   4  74
ATOM     74  N   UNL     1      24.774  41.352   7.551  1.00  0.00    -0.348 N 
ATOM     75  C   UNL     1      23.546  41.725   6.932  1.00  0.00     0.217 C 
ATOM     76  H   UNL     1      25.540  42.048   7.510  1.00  0.00     0.163 HD
ATOM     77  C   UNL     1      23.374  43.035   6.234  1.00  0.00     0.114 C 
ATOM     78  O   UNL     1      22.605  40.916   6.993  1.00  0.00    -0.275 OA
ENDBRANCH   4  74
TORSDOF 30
BEGIN_RES LYS A 131
REMARK  4 active torsions:
REMARK  status: ('A' for Active; 'I' for Inactive)
REMARK    1  A    between atoms: CA   and  CB  
REMARK    2  A    between atoms: CB   and  CG  
REMARK    3  A    between atoms: CG   and  CD  
REMARK    4  A    between atoms: CD   and  CE  
ROOT
ATOM      1  CA  LYS A 131      29.867  25.555  16.977  1.00 20.52     0.186 C 
ENDROOT
BRANCH   1   2
ATOM      2  CB  LYS A 131      28.345  25.722  17.026  1.00 20.94     0.034 C 
BRANCH   2   3
ATOM      3  CG  LYS A 131      27.599  24.439  16.694  1.00 22.96     0.005 C 
BRANCH   3   4
ATOM      4  CD  LYS A 131      27.068  23.757  17.924  1.00 24.33     0.041 C 
BRANCH   4   5
ATOM      5  CE  LYS A 131      25.573  23.502  17.760  1.00 26.91     0.338 C 
ATOM      6  NZ  LYS A 131      24.972  24.505  16.849  1.00 27.40     0.618 N 
ENDBRANCH   4   5
ENDBRANCH   3   4
ENDBRANCH   2   3
ENDBRANCH   1   2
END_RES LYS A 131
BEGIN_RES LYS A 135
REMARK  4 active torsions:
REMARK  status: ('A' for Active; 'I' for Inactive)
REMARK    5  A    between atoms: CA   and  CB  
REMARK    6  A    between atoms: CB   and  CG  
REMARK    7  A    between atoms: CG   and  CD  
REMARK    8  A    between atoms: CD   and  CE  
ROOT
ATOM      7  CA  LYS A 135      33.193  34.663   9.290  1.00 25.02     0.186 C 
ENDROOT
BRANCH   7   8
ATOM      8  CB  LYS A 135      32.060  35.360  10.034  1.00 26.63     0.034 C 
BRANCH   8   9
ATOM      9  CG  LYS A 135      30.769  35.408   9.258  1.00 29.45     0.005 C 
BRANCH   9  10
ATOM     10  CD  LYS A 135      29.745  34.458   9.859  1.00 32.00     0.041 C 
BRANCH  10  11
ATOM     11  CE  LYS A 135      28.648  34.154   8.857  1.00 34.25     0.338 C 
ATOM     12  NZ  LYS A 135      28.700  35.094   7.703  1.00 35.99     0.618 N 
ENDBRANCH  10  11
ENDBRANCH   9  10
ENDBRANCH   8   9
ENDBRANCH   7   8
END_RES LYS A 135
