REMARK VINA RESULT:    -4.696      4.399      7.384
REMARK INTER + INTRA:         -23.866
REMARK INTER:                 -12.861
REMARK INTRA:                 -11.005
REMARK UNBOUND:               -11.071
REMARK SMILES CC(=O)N[C@@H]1[C@@H](O)C[C@](OC[C@H]2O[C@@H](O[C@H]3[C@H](O)[C@@H](O)[C@H](OCCN=[N+]=[N-])O[C@@H]3CO)[C@H](O)[C@@H](O)[C@H]2O)(C(=O)O)O[C@H]1C(O)[C@H](O)CNC(=O)OCc1cn(CC(O)CCc2ccccc2)nn1
REMARK SMILES IDX 43 1 42 2 9 3 8 4 41 5 6 6 5 7 10 8 11 9 12 10 14 11 13 12
REMARK SMILES IDX 32 13 34 14 36 15 15 16 16 17 29 18 28 19 21 20 17 21 19 22
REMARK SMILES IDX 30 23 31 24 22 26 23 27 24 28 25 29 26 30 27 31 18 32 20 34
REMARK SMILES IDX 33 36 35 38 37 40 38 42 39 43 40 44 7 46 4 48 2 49 1 51 3 52
REMARK SMILES IDX 44 53 45 55 46 56 47 58 48 59 49 60 50 62 51 63 52 64 53 65
REMARK SMILES IDX 54 66 68 67 55 68 67 69 56 70 57 71 58 72 59 74 60 75 61 76
REMARK SMILES IDX 62 77 66 78 63 79 65 80 64 81
REMARK H PARENT 31 25 18 33 20 35 33 37 35 39 37 41 40 45 7 47 4 50 44 54
REMARK H PARENT 46 57 48 61 58 73
REMARK Flexibility Score: inf
ROOT
ATOM      1  C   UNL     1      29.685  35.523  17.124  1.00  0.00     0.176 C 
ENDROOT
BRANCH   1   2
ATOM      2  C   UNL     1      30.695  35.750  15.982  1.00  0.00     0.178 C 
ATOM      3  C   UNL     1      30.251  35.697  13.653  1.00  0.00     0.272 C 
ATOM      4  C   UNL     1      30.438  34.218  13.733  1.00  0.00     0.113 C 
ATOM      5  O   UNL     1      30.036  36.194  14.910  1.00  0.00    -0.332 OA
ATOM      6  C   UNL     1      31.600  33.867  14.592  1.00  0.00     0.145 C 
ATOM      7  C   UNL     1      31.595  34.576  15.913  1.00  0.00     0.142 C 
BRANCH   3   8
ATOM      8  O   UNL     1      29.195  36.018  12.777  1.00  0.00    -0.338 OA
BRANCH   8   9
ATOM      9  C   UNL     1      28.155  35.159  12.737  1.00  0.00     0.199 C 
BRANCH   9  10
ATOM     10  C   UNL     1      26.813  35.910  12.572  1.00  0.00     0.179 C 
ATOM     11  C   UNL     1      24.562  35.698  12.385  1.00  0.00     0.282 C 
ATOM     12  O   UNL     1      25.782  35.073  12.340  1.00  0.00    -0.341 OA
ATOM     13  C   UNL     1      24.440  36.224  13.843  1.00  0.00     0.202 C 
ATOM     14  C   UNL     1      25.348  37.458  13.814  1.00  0.00     0.179 C 
ATOM     15  C   UNL     1      26.735  36.891  13.684  1.00  0.00     0.177 C 
BRANCH  11  16
ATOM     16  O   UNL     1      23.550  34.828  12.185  1.00  0.00    -0.341 OA
BRANCH  16  17
ATOM     17  C   UNL     1      22.592  35.106  11.238  1.00  0.00     0.184 C 
ATOM     18  C   UNL     1      22.815  36.394  10.519  1.00  0.00     0.178 C 
ATOM     19  O   UNL     1      21.813  37.311  10.553  1.00  0.00    -0.341 OA
ATOM     20  C   UNL     1      20.528  36.865  10.627  1.00  0.00     0.281 C 
ATOM     21  C   UNL     1      21.255  34.936  11.901  1.00  0.00     0.180 C 
ATOM     22  C   UNL     1      20.374  36.132  11.938  1.00  0.00     0.202 C 
BRANCH  18  23
ATOM     23  C   UNL     1      23.121  36.106   9.065  1.00  0.00     0.191 C 
BRANCH  23  24
ATOM     24  O   UNL     1      22.554  34.901   8.654  1.00  0.00    -0.394 OA
ATOM     25  H   UNL     1      21.721  34.790   9.204  1.00  0.00     0.210 HD
ENDBRANCH  23  24
ENDBRANCH  18  23
BRANCH  20  26
ATOM     26  O   UNL     1      20.126  36.106   9.541  1.00  0.00    -0.350 OA
BRANCH  26  27
ATOM     27  C   UNL     1      19.257  36.855   8.745  1.00  0.00     0.169 C 
BRANCH  27  28
ATOM     28  C   UNL     1      17.847  36.603   9.277  1.00  0.00     0.119 C 
BRANCH  28  29
ATOM     29  N   UNL     1      17.079  35.801   8.364  1.00  0.00    -0.092 NA
ATOM     30  N   UNL     1      17.427  34.622   8.149  1.00  0.00     0.001 N 
ATOM     31  N   UNL     1      17.937  33.566   7.727  1.00  0.00    -0.003 NA
ENDBRANCH  28  29
ENDBRANCH  27  28
ENDBRANCH  26  27
ENDBRANCH  20  26
BRANCH  21  32
ATOM     32  O   UNL     1      20.496  33.915  11.266  1.00  0.00    -0.387 OA
ATOM     33  H   UNL     1      19.624  33.779  11.703  1.00  0.00     0.211 HD
ENDBRANCH  21  32
BRANCH  22  34
ATOM     34  O   UNL     1      20.757  37.006  12.959  1.00  0.00    -0.385 OA
ATOM     35  H   UNL     1      21.252  37.780  12.622  1.00  0.00     0.211 HD
ENDBRANCH  22  34
ENDBRANCH  16  17
ENDBRANCH  11  16
BRANCH  13  36
ATOM     36  O   UNL     1      23.166  36.489  14.222  1.00  0.00    -0.385 OA
ATOM     37  H   UNL     1      22.701  35.826  14.758  1.00  0.00     0.211 HD
ENDBRANCH  13  36
BRANCH  14  38
ATOM     38  O   UNL     1      25.192  38.219  14.969  1.00  0.00    -0.387 OA
ATOM     39  H   UNL     1      25.637  37.783  15.730  1.00  0.00     0.211 HD
ENDBRANCH  14  38
BRANCH  15  40
ATOM     40  O   UNL     1      27.017  36.261  14.900  1.00  0.00    -0.387 OA
ATOM     41  H   UNL     1      26.193  36.076  15.408  1.00  0.00     0.211 HD
ENDBRANCH  15  40
ENDBRANCH   9  10
ENDBRANCH   8   9
ENDBRANCH   3   8
BRANCH   3  42
ATOM     42  C   UNL     1      31.435  36.298  12.992  1.00  0.00     0.364 C 
ATOM     43  O   UNL     1      32.047  35.627  12.112  1.00  0.00    -0.246 OA
BRANCH  42  44
ATOM     44  O   UNL     1      31.908  37.548  13.281  1.00  0.00    -0.477 OA
ATOM     45  H   UNL     1      31.614  38.010  14.129  1.00  0.00     0.296 HD
ENDBRANCH  42  44
ENDBRANCH   3  42
BRANCH   6  46
ATOM     46  O   UNL     1      31.541  32.456  14.758  1.00  0.00    -0.391 OA
ATOM     47  H   UNL     1      30.711  32.173  15.192  1.00  0.00     0.211 HD
ENDBRANCH   6  46
BRANCH   7  48
ATOM     48  N   UNL     1      32.918  34.867  16.405  1.00  0.00    -0.348 N 
ATOM     49  C   UNL     1      33.471  36.175  16.460  1.00  0.00     0.217 C 
ATOM     50  H   UNL     1      33.548  34.082  16.749  1.00  0.00     0.163 HD
ATOM     51  C   UNL     1      34.841  36.343  16.991  1.00  0.00     0.114 C 
ATOM     52  O   UNL     1      32.823  37.153  16.074  1.00  0.00    -0.275 OA
ENDBRANCH   7  48
ENDBRANCH   1   2
BRANCH   1  53
ATOM     53  O   UNL     1      28.563  34.880  16.640  1.00  0.00    -0.388 OA
ATOM     54  H   UNL     1      28.594  34.727  15.664  1.00  0.00     0.211 HD
ENDBRANCH   1  53
BRANCH   1  55
ATOM     55  C   UNL     1      29.445  36.701  17.991  1.00  0.00     0.165 C 
BRANCH  55  56
ATOM     56  O   UNL     1      30.011  37.821  17.437  1.00  0.00    -0.388 OA
ATOM     57  H   UNL     1      30.013  38.596  18.033  1.00  0.00     0.211 HD
ENDBRANCH  55  56
BRANCH  55  58
ATOM     58  C   UNL     1      30.042  36.393  19.344  1.00  0.00     0.154 C 
BRANCH  58  59
ATOM     59  N   UNL     1      30.020  35.043  19.762  1.00  0.00    -0.319 N 
ATOM     60  C   UNL     1      31.100  34.120  19.777  1.00  0.00     0.407 C 
ATOM     61  H   UNL     1      29.099  34.612  20.123  1.00  0.00     0.167 HD
ATOM     62  O   UNL     1      32.228  34.471  19.412  1.00  0.00    -0.225 OA
BRANCH  60  63
ATOM     63  O   UNL     1      30.915  32.812  20.199  1.00  0.00    -0.443 OA
BRANCH  63  64
ATOM     64  C   UNL     1      30.686  31.696  19.422  1.00  0.00     0.294 C 
BRANCH  64  65
ATOM     65  C   UNL     1      29.682  31.813  18.353  1.00  0.00     0.120 A 
ATOM     66  C   UNL     1      28.303  31.903  18.502  1.00  0.00     0.138 A 
ATOM     67  N   UNL     1      29.925  31.817  17.026  1.00  0.00    -0.132 NA
ATOM     68  N   UNL     1      27.792  31.953  17.274  1.00  0.00    -0.250 N 
ATOM     69  N   UNL     1      28.769  31.903  16.403  1.00  0.00    -0.067 NA
BRANCH  68  70
ATOM     70  C   UNL     1      26.333  32.033  17.005  1.00  0.00     0.177 C 
BRANCH  70  71
ATOM     71  C   UNL     1      26.184  32.091  15.522  1.00  0.00     0.136 C 
BRANCH  71  72
ATOM     72  O   UNL     1      26.310  33.405  15.038  1.00  0.00    -0.391 OA
ATOM     73  H   UNL     1      25.689  33.588  14.301  1.00  0.00     0.211 HD
ENDBRANCH  71  72
BRANCH  71  74
ATOM     74  C   UNL     1      24.969  31.448  14.983  1.00  0.00     0.038 C 
BRANCH  74  75
ATOM     75  C   UNL     1      24.500  31.680  13.621  1.00  0.00     0.038 C 
BRANCH  75  76
ATOM     76  C   UNL     1      23.441  30.866  13.063  1.00  0.00    -0.048 A 
ATOM     77  C   UNL     1      22.180  31.402  12.821  1.00  0.00     0.004 A 
ATOM     78  C   UNL     1      23.618  29.503  12.822  1.00  0.00     0.004 A 
ATOM     79  C   UNL     1      21.163  30.614  12.365  1.00  0.00     0.000 A 
ATOM     80  C   UNL     1      22.573  28.738  12.363  1.00  0.00     0.000 A 
ATOM     81  C   UNL     1      21.314  29.271  12.122  1.00  0.00     0.000 A 
ENDBRANCH  75  76
ENDBRANCH  74  75
ENDBRANCH  71  74
ENDBRANCH  70  71
ENDBRANCH  68  70
ENDBRANCH  64  65
ENDBRANCH  63  64
ENDBRANCH  60  63
ENDBRANCH  58  59
ENDBRANCH  55  58
ENDBRANCH   1  55
TORSDOF 35
BEGIN_RES LYS A 131
REMARK  4 active torsions:
REMARK  status: ('A' for Active; 'I' for Inactive)
REMARK    1  A    between atoms: CA   and  CB  
REMARK    2  A    between atoms: CB   and  CG  
REMARK    3  A    between atoms: CG   and  CD  
REMARK    4  A    between atoms: CD   and  CE  
ROOT
ATOM      1  CA  LYS A 131      29.867  25.555  16.977  1.00 20.52     0.186 C 
ENDROOT
BRANCH   1   2
ATOM      2  CB  LYS A 131      28.345  25.722  17.026  1.00 20.94     0.034 C 
BRANCH   2   3
ATOM      3  CG  LYS A 131      27.602  24.398  16.930  1.00 22.96     0.005 C 
BRANCH   3   4
ATOM      4  CD  LYS A 131      26.152  24.534  17.304  1.00 24.33     0.041 C 
BRANCH   4   5
ATOM      5  CE  LYS A 131      26.033  25.329  18.600  1.00 26.91     0.338 C 
ATOM      6  NZ  LYS A 131      25.189  26.530  18.397  1.00 27.40     0.618 N 
ENDBRANCH   4   5
ENDBRANCH   3   4
ENDBRANCH   2   3
ENDBRANCH   1   2
END_RES LYS A 131
BEGIN_RES LYS A 135
REMARK  4 active torsions:
REMARK  status: ('A' for Active; 'I' for Inactive)
REMARK    5  A    between atoms: CA   and  CB  
REMARK    6  A    between atoms: CB   and  CG  
REMARK    7  A    between atoms: CG   and  CD  
REMARK    8  A    between atoms: CD   and  CE  
ROOT
ATOM      7  CA  LYS A 135      33.193  34.663   9.290  1.00 25.02     0.186 C 
ENDROOT
BRANCH   7   8
ATOM      8  CB  LYS A 135      32.060  35.360  10.034  1.00 26.63     0.034 C 
BRANCH   8   9
ATOM      9  CG  LYS A 135      30.810  35.525   9.209  1.00 29.45     0.005 C 
BRANCH   9  10
ATOM     10  CD  LYS A 135      29.845  34.376   9.461  1.00 32.00     0.041 C 
BRANCH  10  11
ATOM     11  CE  LYS A 135      28.432  34.775   9.082  1.00 34.25     0.338 C 
ATOM     12  NZ  LYS A 135      27.458  33.709   9.448  1.00 35.99     0.618 N 
ENDBRANCH  10  11
ENDBRANCH   9  10
ENDBRANCH   8   9
ENDBRANCH   7   8
END_RES LYS A 135
