REMARK VINA RESULT:    -5.193      4.228      8.873
REMARK INTER + INTRA:         -23.291
REMARK INTER:                 -14.092
REMARK INTRA:                  -9.199
REMARK UNBOUND:                -9.598
REMARK SMILES CC(=O)N[C@@H]1[C@@H](O)C[C@](OC[C@H]2O[C@@H](O[C@H]3[C@H](O)[C@@H](O)[C@H](OCCN=[N+]=[N-])O[C@@H]3CO)[C@H](O)[C@@H](O)[C@H]2O)(C(=O)O)O[C@H]1C(O)[C@H](O)CNC(=O)OCc1cn(Cc2ccccc2OC(C)=O)nn1
REMARK SMILES IDX 43 1 42 2 9 3 8 4 41 5 6 6 5 7 10 8 11 9 12 10 14 11 13 12
REMARK SMILES IDX 32 13 34 14 36 15 15 16 16 17 29 18 28 19 21 20 17 21 19 22
REMARK SMILES IDX 30 23 31 24 22 26 23 27 24 28 25 29 26 30 27 31 18 32 20 34
REMARK SMILES IDX 33 36 35 38 37 40 38 42 39 43 40 44 7 46 4 48 2 49 1 51 3 52
REMARK SMILES IDX 44 53 45 55 46 56 47 58 48 59 49 60 50 62 51 63 52 64 53 65
REMARK SMILES IDX 54 66 68 67 55 68 67 69 56 70 57 71 62 72 58 73 61 74 59 75
REMARK SMILES IDX 60 76 63 77 64 78 66 79 65 80
REMARK H PARENT 31 25 18 33 20 35 33 37 35 39 37 41 40 45 7 47 4 50 44 54
REMARK H PARENT 46 57 48 61
REMARK Flexibility Score: inf
ROOT
ATOM      1  C   UNL     1      30.025  33.880  14.075  1.00  0.00     0.176 C 
ENDROOT
BRANCH   1   2
ATOM      2  C   UNL     1      29.443  35.206  14.537  1.00  0.00     0.178 C 
ATOM      3  C   UNL     1      27.625  36.617  14.158  1.00  0.00     0.272 C 
ATOM      4  C   UNL     1      28.584  37.551  14.887  1.00  0.00     0.113 C 
ATOM      5  O   UNL     1      28.349  35.472  13.745  1.00  0.00    -0.332 OA
ATOM      6  C   UNL     1      29.874  37.547  14.084  1.00  0.00     0.145 C 
ATOM      7  C   UNL     1      30.542  36.246  14.311  1.00  0.00     0.142 C 
BRANCH   3   8
ATOM      8  O   UNL     1      27.106  37.158  13.020  1.00  0.00    -0.338 OA
BRANCH   8   9
ATOM      9  C   UNL     1      27.075  36.404  11.890  1.00  0.00     0.199 C 
BRANCH   9  10
ATOM     10  C   UNL     1      25.651  36.484  11.314  1.00  0.00     0.179 C 
ATOM     11  C   UNL     1      24.520  36.541   9.313  1.00  0.00     0.282 C 
ATOM     12  O   UNL     1      25.804  36.352   9.930  1.00  0.00    -0.341 OA
ATOM     13  C   UNL     1      23.769  35.290   9.600  1.00  0.00     0.202 C 
ATOM     14  C   UNL     1      23.524  35.276  11.120  1.00  0.00     0.179 C 
ATOM     15  C   UNL     1      24.796  35.400  11.888  1.00  0.00     0.177 C 
BRANCH  11  16
ATOM     16  O   UNL     1      24.821  36.823   8.003  1.00  0.00    -0.341 OA
BRANCH  16  17
ATOM     17  C   UNL     1      25.952  37.654   7.905  1.00  0.00     0.184 C 
ATOM     18  C   UNL     1      25.692  38.953   7.237  1.00  0.00     0.178 C 
ATOM     19  O   UNL     1      26.664  39.286   6.289  1.00  0.00    -0.341 OA
ATOM     20  C   UNL     1      27.970  39.112   6.729  1.00  0.00     0.281 C 
ATOM     21  C   UNL     1      26.940  36.914   6.927  1.00  0.00     0.180 C 
ATOM     22  C   UNL     1      28.244  37.649   7.074  1.00  0.00     0.202 C 
BRANCH  18  23
ATOM     23  C   UNL     1      25.371  40.105   8.137  1.00  0.00     0.191 C 
BRANCH  23  24
ATOM     24  O   UNL     1      25.805  39.817   9.422  1.00  0.00    -0.394 OA
ATOM     25  H   UNL     1      25.451  38.953   9.717  1.00  0.00     0.210 HD
ENDBRANCH  23  24
ENDBRANCH  18  23
BRANCH  20  26
ATOM     26  O   UNL     1      28.226  39.849   7.830  1.00  0.00    -0.350 OA
BRANCH  26  27
ATOM     27  C   UNL     1      29.401  40.485   7.992  1.00  0.00     0.169 C 
BRANCH  27  28
ATOM     28  C   UNL     1      30.563  40.069   7.165  1.00  0.00     0.119 C 
BRANCH  28  29
ATOM     29  N   UNL     1      31.395  39.153   7.868  1.00  0.00    -0.092 NA
ATOM     30  N   UNL     1      31.436  39.091   9.077  1.00  0.00     0.001 N 
ATOM     31  N   UNL     1      31.196  38.941  10.278  1.00  0.00    -0.003 NA
ENDBRANCH  28  29
ENDBRANCH  27  28
ENDBRANCH  26  27
ENDBRANCH  20  26
BRANCH  21  32
ATOM     32  O   UNL     1      27.002  35.584   7.262  1.00  0.00    -0.387 OA
ATOM     33  H   UNL     1      27.175  35.029   6.436  1.00  0.00     0.211 HD
ENDBRANCH  21  32
BRANCH  22  34
ATOM     34  O   UNL     1      29.254  37.094   6.319  1.00  0.00    -0.385 OA
ATOM     35  H   UNL     1      28.928  37.056   5.375  1.00  0.00     0.211 HD
ENDBRANCH  22  34
ENDBRANCH  16  17
ENDBRANCH  11  16
BRANCH  13  36
ATOM     36  O   UNL     1      22.503  35.256   9.036  1.00  0.00    -0.385 OA
ATOM     37  H   UNL     1      21.813  35.716   9.558  1.00  0.00     0.211 HD
ENDBRANCH  13  36
BRANCH  14  38
ATOM     38  O   UNL     1      22.799  34.136  11.475  1.00  0.00    -0.387 OA
ATOM     39  H   UNL     1      23.225  33.373  10.988  1.00  0.00     0.211 HD
ENDBRANCH  14  38
BRANCH  15  40
ATOM     40  O   UNL     1      25.427  34.158  11.890  1.00  0.00    -0.387 OA
ATOM     41  H   UNL     1      24.807  33.406  11.927  1.00  0.00     0.211 HD
ENDBRANCH  15  40
ENDBRANCH   9  10
ENDBRANCH   8   9
ENDBRANCH   3   8
BRANCH   3  42
ATOM     42  C   UNL     1      26.618  36.205  15.160  1.00  0.00     0.364 C 
ATOM     43  O   UNL     1      26.378  36.868  16.167  1.00  0.00    -0.246 OA
BRANCH  42  44
ATOM     44  O   UNL     1      25.914  35.017  14.949  1.00  0.00    -0.477 OA
ATOM     45  H   UNL     1      25.784  34.630  14.003  1.00  0.00     0.296 HD
ENDBRANCH  42  44
ENDBRANCH   3  42
BRANCH   6  46
ATOM     46  O   UNL     1      29.484  37.609  12.742  1.00  0.00    -0.391 OA
ATOM     47  H   UNL     1      28.881  38.363  12.541  1.00  0.00     0.211 HD
ENDBRANCH   6  46
BRANCH   7  48
ATOM     48  N   UNL     1      31.511  36.171  15.322  1.00  0.00    -0.348 N 
ATOM     49  C   UNL     1      32.879  35.849  15.098  1.00  0.00     0.217 C 
ATOM     50  H   UNL     1      31.201  36.366  16.317  1.00  0.00     0.163 HD
ATOM     51  C   UNL     1      33.868  35.780  16.186  1.00  0.00     0.114 C 
ATOM     52  O   UNL     1      33.212  35.627  13.926  1.00  0.00    -0.275 OA
ENDBRANCH   7  48
ENDBRANCH   1   2
BRANCH   1  53
ATOM     53  O   UNL     1      30.899  34.170  13.043  1.00  0.00    -0.388 OA
ATOM     54  H   UNL     1      31.839  34.245  13.310  1.00  0.00     0.211 HD
ENDBRANCH   1  53
BRANCH   1  55
ATOM     55  C   UNL     1      30.601  33.057  15.179  1.00  0.00     0.165 C 
BRANCH  55  56
ATOM     56  O   UNL     1      31.949  32.835  14.886  1.00  0.00    -0.388 OA
ATOM     57  H   UNL     1      32.524  33.006  15.648  1.00  0.00     0.211 HD
ENDBRANCH  55  56
BRANCH  55  58
ATOM     58  C   UNL     1      29.869  31.753  15.389  1.00  0.00     0.154 C 
BRANCH  58  59
ATOM     59  N   UNL     1      28.591  31.882  16.006  1.00  0.00    -0.319 N 
ATOM     60  C   UNL     1      27.750  30.789  16.341  1.00  0.00     0.407 C 
ATOM     61  H   UNL     1      28.227  32.846  16.240  1.00  0.00     0.167 HD
ATOM     62  O   UNL     1      28.158  29.633  16.071  1.00  0.00    -0.225 OA
BRANCH  60  63
ATOM     63  O   UNL     1      26.519  30.927  16.937  1.00  0.00    -0.443 OA
BRANCH  63  64
ATOM     64  C   UNL     1      25.576  31.919  16.533  1.00  0.00     0.294 C 
BRANCH  64  65
ATOM     65  C   UNL     1      25.002  31.611  15.216  1.00  0.00     0.120 A 
ATOM     66  C   UNL     1      24.651  30.345  14.808  1.00  0.00     0.138 A 
ATOM     67  N   UNL     1      24.706  32.420  14.192  1.00  0.00    -0.132 NA
ATOM     68  N   UNL     1      24.160  30.411  13.570  1.00  0.00    -0.248 N 
ATOM     69  N   UNL     1      24.209  31.710  13.219  1.00  0.00    -0.067 NA
BRANCH  68  70
ATOM     70  C   UNL     1      23.665  29.361  12.701  1.00  0.00     0.185 C 
BRANCH  70  71
ATOM     71  C   UNL     1      22.241  29.091  12.927  1.00  0.00     0.016 A 
ATOM     72  C   UNL     1      21.814  28.215  13.864  1.00  0.00     0.135 A 
ATOM     73  C   UNL     1      21.331  29.796  12.134  1.00  0.00     0.009 A 
ATOM     74  C   UNL     1      20.442  28.022  14.031  1.00  0.00     0.047 A 
ATOM     75  C   UNL     1      19.986  29.598  12.306  1.00  0.00     0.001 A 
ATOM     76  C   UNL     1      19.530  28.711  13.255  1.00  0.00     0.004 A 
BRANCH  72  77
ATOM     77  O   UNL     1      22.673  27.495  14.669  1.00  0.00    -0.426 OA
BRANCH  77  78
ATOM     78  C   UNL     1      22.388  27.431  16.037  1.00  0.00     0.308 C 
ATOM     79  O   UNL     1      22.493  28.472  16.722  1.00  0.00    -0.252 OA
ATOM     80  C   UNL     1      21.976  26.160  16.639  1.00  0.00     0.139 C 
ENDBRANCH  77  78
ENDBRANCH  72  77
ENDBRANCH  70  71
ENDBRANCH  68  70
ENDBRANCH  64  65
ENDBRANCH  63  64
ENDBRANCH  60  63
ENDBRANCH  58  59
ENDBRANCH  55  58
ENDBRANCH   1  55
TORSDOF 33
BEGIN_RES LYS A 131
REMARK  4 active torsions:
REMARK  status: ('A' for Active; 'I' for Inactive)
REMARK    1  A    between atoms: CA   and  CB  
REMARK    2  A    between atoms: CB   and  CG  
REMARK    3  A    between atoms: CG   and  CD  
REMARK    4  A    between atoms: CD   and  CE  
ROOT
ATOM      1  CA  LYS A 131      29.867  25.555  16.977  1.00 20.52     0.186 C 
ENDROOT
BRANCH   1   2
ATOM      2  CB  LYS A 131      28.345  25.722  17.026  1.00 20.94     0.034 C 
BRANCH   2   3
ATOM      3  CG  LYS A 131      27.601  24.403  16.888  1.00 22.96     0.005 C 
BRANCH   3   4
ATOM      4  CD  LYS A 131      26.247  24.445  17.539  1.00 24.33     0.041 C 
BRANCH   4   5
ATOM      5  CE  LYS A 131      26.237  25.517  18.624  1.00 26.91     0.338 C 
ATOM      6  NZ  LYS A 131      25.512  25.034  19.823  1.00 27.40     0.618 N 
ENDBRANCH   4   5
ENDBRANCH   3   4
ENDBRANCH   2   3
ENDBRANCH   1   2
END_RES LYS A 131
BEGIN_RES LYS A 135
REMARK  4 active torsions:
REMARK  status: ('A' for Active; 'I' for Inactive)
REMARK    5  A    between atoms: CA   and  CB  
REMARK    6  A    between atoms: CB   and  CG  
REMARK    7  A    between atoms: CG   and  CD  
REMARK    8  A    between atoms: CD   and  CE  
ROOT
ATOM      7  CA  LYS A 135      33.193  34.663   9.290  1.00 25.02     0.186 C 
ENDROOT
BRANCH   7   8
ATOM      8  CB  LYS A 135      32.060  35.360  10.034  1.00 26.63     0.034 C 
BRANCH   8   9
ATOM      9  CG  LYS A 135      30.815  35.539   9.204  1.00 29.45     0.005 C 
BRANCH   9  10
ATOM     10  CD  LYS A 135      30.050  34.229   9.095  1.00 32.00     0.041 C 
BRANCH  10  11
ATOM     11  CE  LYS A 135      28.942  34.172  10.130  1.00 34.25     0.338 C 
ATOM     12  NZ  LYS A 135      27.720  33.530   9.571  1.00 35.99     0.618 N 
ENDBRANCH  10  11
ENDBRANCH   9  10
ENDBRANCH   8   9
ENDBRANCH   7   8
END_RES LYS A 135
