REMARK VINA RESULT:    -3.445      3.862      8.693
REMARK INTER + INTRA:         -20.472
REMARK INTER:                  -8.781
REMARK INTRA:                 -11.690
REMARK UNBOUND:               -11.690
REMARK SMILES CC(=O)N[C@@H]1[C@@H](O)C[C@](OC[C@H]2O[C@@H](O[C@H]3[C@H](O)[C@@H](O)[C@H](OCCN=[N+]=[N-])O[C@@H]3CO)[C@H](O)[C@@H](O)[C@H]2O)(C(=O)O)O[C@H]1C(O)[C@H](O)CNC(=O)OCc1cn(CCO)nn1
REMARK SMILES IDX 9 1 8 2 6 3 5 4 42 5 41 6 10 7 11 8 12 9 14 10 13 11 32 12
REMARK SMILES IDX 34 13 36 14 15 15 16 16 29 17 28 18 21 19 17 20 19 21 30 22
REMARK SMILES IDX 31 23 22 25 23 26 24 27 25 28 26 29 27 30 18 31 20 33 33 35
REMARK SMILES IDX 35 37 37 39 38 41 39 42 40 43 7 45 43 47 44 48 45 50 46 51
REMARK SMILES IDX 47 53 48 54 49 55 50 57 51 58 52 59 53 60 54 61 60 62 55 63
REMARK SMILES IDX 59 64 56 65 57 66 58 67 4 69 2 70 1 72 3 73
REMARK H PARENT 31 24 18 32 20 34 33 36 35 38 37 40 40 44 7 46 44 49 46 52
REMARK H PARENT 48 56 58 68 4 71
REMARK Flexibility Score: inf
ROOT
ATOM      1  C   UNL     1      26.861  31.672  16.151  1.00  0.00     0.272 C 
ATOM      2  C   UNL     1      26.353  30.384  15.588  1.00  0.00     0.113 C 
ATOM      3  C   UNL     1      24.850  30.354  15.641  1.00  0.00     0.145 C 
ATOM      4  C   UNL     1      24.379  31.591  14.875  1.00  0.00     0.142 C 
ATOM      5  C   UNL     1      24.843  32.791  15.693  1.00  0.00     0.178 C 
ATOM      6  O   UNL     1      26.251  32.743  15.570  1.00  0.00    -0.332 OA
ENDROOT
BRANCH   1   7
ATOM      7  O   UNL     1      28.252  31.805  15.938  1.00  0.00    -0.338 OA
BRANCH   7   8
ATOM      8  C   UNL     1      28.740  33.068  15.997  1.00  0.00     0.199 C 
BRANCH   8   9
ATOM      9  C   UNL     1      29.630  33.375  14.782  1.00  0.00     0.179 C 
ATOM     10  C   UNL     1      30.282  35.085  13.355  1.00  0.00     0.282 C 
ATOM     11  O   UNL     1      29.392  34.658  14.340  1.00  0.00    -0.341 OA
ATOM     12  C   UNL     1      31.702  35.140  13.855  1.00  0.00     0.202 C 
ATOM     13  C   UNL     1      31.952  34.280  15.068  1.00  0.00     0.179 C 
ATOM     14  C   UNL     1      31.069  33.065  15.019  1.00  0.00     0.177 C 
BRANCH  10  15
ATOM     15  O   UNL     1      29.890  36.317  12.997  1.00  0.00    -0.341 OA
BRANCH  15  16
ATOM     16  C   UNL     1      28.600  36.605  12.767  1.00  0.00     0.184 C 
ATOM     17  C   UNL     1      27.972  36.409  11.461  1.00  0.00     0.178 C 
ATOM     18  O   UNL     1      27.034  37.396  11.215  1.00  0.00    -0.341 OA
ATOM     19  C   UNL     1      26.221  37.774  12.236  1.00  0.00     0.281 C 
ATOM     20  C   UNL     1      28.467  38.115  13.095  1.00  0.00     0.180 C 
ATOM     21  C   UNL     1      27.007  38.298  13.448  1.00  0.00     0.202 C 
BRANCH  17  22
ATOM     22  C   UNL     1      27.263  35.064  11.320  1.00  0.00     0.191 C 
BRANCH  22  23
ATOM     23  O   UNL     1      26.965  34.503  12.563  1.00  0.00    -0.394 OA
ATOM     24  H   UNL     1      27.184  35.157  13.254  1.00  0.00     0.210 HD
ENDBRANCH  22  23
ENDBRANCH  17  22
BRANCH  19  25
ATOM     25  O   UNL     1      25.243  36.898  12.612  1.00  0.00    -0.350 OA
BRANCH  25  26
ATOM     26  C   UNL     1      24.034  37.011  11.995  1.00  0.00     0.169 C 
BRANCH  26  27
ATOM     27  C   UNL     1      23.606  35.715  11.395  1.00  0.00     0.119 C 
BRANCH  27  28
ATOM     28  N   UNL     1      23.872  35.742   9.947  1.00  0.00    -0.092 NA
ATOM     29  N   UNL     1      22.916  35.382   9.236  1.00  0.00     0.001 N 
ATOM     30  N   UNL     1      21.965  35.600   8.465  1.00  0.00    -0.003 NA
ENDBRANCH  27  28
ENDBRANCH  26  27
ENDBRANCH  25  26
ENDBRANCH  19  25
BRANCH  20  31
ATOM     31  O   UNL     1      29.320  38.474  14.105  1.00  0.00    -0.387 OA
ATOM     32  H   UNL     1      29.016  38.163  14.995  1.00  0.00     0.211 HD
ENDBRANCH  20  31
BRANCH  21  33
ATOM     33  O   UNL     1      26.729  39.603  13.754  1.00  0.00    -0.385 OA
ATOM     34  H   UNL     1      26.158  40.045  13.078  1.00  0.00     0.211 HD
ENDBRANCH  21  33
ENDBRANCH  15  16
ENDBRANCH  10  15
BRANCH  12  35
ATOM     35  O   UNL     1      32.528  34.620  12.846  1.00  0.00    -0.385 OA
ATOM     36  H   UNL     1      32.041  34.379  12.032  1.00  0.00     0.211 HD
ENDBRANCH  12  35
BRANCH  13  37
ATOM     37  O   UNL     1      31.797  35.032  16.203  1.00  0.00    -0.387 OA
ATOM     38  H   UNL     1      32.320  34.655  16.979  1.00  0.00     0.211 HD
ENDBRANCH  13  37
BRANCH  14  39
ATOM     39  O   UNL     1      31.162  32.438  16.281  1.00  0.00    -0.387 OA
ATOM     40  H   UNL     1      31.579  31.545  16.200  1.00  0.00     0.211 HD
ENDBRANCH  14  39
ENDBRANCH   8   9
ENDBRANCH   7   8
ENDBRANCH   1   7
BRANCH   1  41
ATOM     41  C   UNL     1      26.725  31.634  17.623  1.00  0.00     0.364 C 
ATOM     42  O   UNL     1      26.556  32.655  18.315  1.00  0.00    -0.246 OA
BRANCH  41  43
ATOM     43  O   UNL     1      26.780  30.431  18.307  1.00  0.00    -0.477 OA
ATOM     44  H   UNL     1      26.008  29.743  18.291  1.00  0.00     0.296 HD
ENDBRANCH  41  43
ENDBRANCH   1  41
BRANCH   3  45
ATOM     45  O   UNL     1      24.350  29.241  14.929  1.00  0.00    -0.391 OA
ATOM     46  H   UNL     1      24.588  29.344  13.969  1.00  0.00     0.211 HD
ENDBRANCH   3  45
BRANCH   5  47
ATOM     47  C   UNL     1      24.449  34.045  14.982  1.00  0.00     0.176 C 
BRANCH  47  48
ATOM     48  O   UNL     1      23.077  34.088  14.729  1.00  0.00    -0.388 OA
ATOM     49  H   UNL     1      22.632  34.832  15.214  1.00  0.00     0.211 HD
ENDBRANCH  47  48
BRANCH  47  50
ATOM     50  C   UNL     1      24.915  35.344  15.514  1.00  0.00     0.165 C 
BRANCH  50  51
ATOM     51  O   UNL     1      26.301  35.387  15.050  1.00  0.00    -0.388 OA
ATOM     52  H   UNL     1      26.788  34.645  15.477  1.00  0.00     0.211 HD
ENDBRANCH  50  51
BRANCH  50  53
ATOM     53  C   UNL     1      25.117  35.369  17.018  1.00  0.00     0.154 C 
BRANCH  53  54
ATOM     54  N   UNL     1      26.488  35.399  17.416  1.00  0.00    -0.319 N 
ATOM     55  C   UNL     1      26.956  36.368  18.340  1.00  0.00     0.407 C 
ATOM     56  H   UNL     1      27.195  34.713  17.028  1.00  0.00     0.167 HD
ATOM     57  O   UNL     1      26.087  37.198  18.774  1.00  0.00    -0.225 OA
BRANCH  55  58
ATOM     58  O   UNL     1      28.238  36.491  18.804  1.00  0.00    -0.443 OA
BRANCH  58  59
ATOM     59  C   UNL     1      28.621  35.779  19.965  1.00  0.00     0.294 C 
BRANCH  59  60
ATOM     60  C   UNL     1      29.564  34.693  19.687  1.00  0.00     0.120 A 
ATOM     61  C   UNL     1      29.588  33.476  20.322  1.00  0.00     0.138 A 
ATOM     62  N   UNL     1      30.565  34.652  18.792  1.00  0.00    -0.132 NA
ATOM     63  N   UNL     1      30.587  32.729  19.810  1.00  0.00    -0.250 N 
ATOM     64  N   UNL     1      31.166  33.458  18.884  1.00  0.00    -0.067 NA
BRANCH  63  65
ATOM     65  C   UNL     1      30.933  31.364  20.229  1.00  0.00     0.174 C 
BRANCH  65  66
ATOM     66  C   UNL     1      29.934  30.415  19.614  1.00  0.00     0.179 C 
BRANCH  66  67
ATOM     67  O   UNL     1      29.969  30.612  18.223  1.00  0.00    -0.394 OA
ATOM     68  H   UNL     1      30.643  31.254  17.940  1.00  0.00     0.210 HD
ENDBRANCH  66  67
ENDBRANCH  65  66
ENDBRANCH  63  65
ENDBRANCH  59  60
ENDBRANCH  58  59
ENDBRANCH  55  58
ENDBRANCH  53  54
ENDBRANCH  50  53
ENDBRANCH  47  50
ENDBRANCH   5  47
BRANCH   4  69
ATOM     69  N   UNL     1      23.015  31.551  14.524  1.00  0.00    -0.348 N 
ATOM     70  C   UNL     1      22.484  30.966  13.351  1.00  0.00     0.217 C 
ATOM     71  H   UNL     1      22.302  31.969  15.176  1.00  0.00     0.163 HD
ATOM     72  C   UNL     1      21.027  31.001  13.109  1.00  0.00     0.114 C 
ATOM     73  O   UNL     1      23.225  30.422  12.518  1.00  0.00    -0.275 OA
ENDBRANCH   4  69
TORSDOF 32
BEGIN_RES LYS A 131
REMARK  4 active torsions:
REMARK  status: ('A' for Active; 'I' for Inactive)
REMARK    1  A    between atoms: CA   and  CB  
REMARK    2  A    between atoms: CB   and  CG  
REMARK    3  A    between atoms: CG   and  CD  
REMARK    4  A    between atoms: CD   and  CE  
ROOT
ATOM      1  CA  LYS A 131      29.867  25.555  16.977  1.00 20.52     0.186 C 
ENDROOT
BRANCH   1   2
ATOM      2  CB  LYS A 131      28.345  25.722  17.026  1.00 20.94     0.034 C 
BRANCH   2   3
ATOM      3  CG  LYS A 131      27.601  24.401  16.900  1.00 22.96     0.005 C 
BRANCH   3   4
ATOM      4  CD  LYS A 131      26.153  24.528  17.282  1.00 24.33     0.041 C 
BRANCH   4   5
ATOM      5  CE  LYS A 131      26.029  25.406  18.523  1.00 26.91     0.338 C 
ATOM      6  NZ  LYS A 131      25.498  24.622  19.663  1.00 27.40     0.618 N 
ENDBRANCH   4   5
ENDBRANCH   3   4
ENDBRANCH   2   3
ENDBRANCH   1   2
END_RES LYS A 131
BEGIN_RES LYS A 135
REMARK  4 active torsions:
REMARK  status: ('A' for Active; 'I' for Inactive)
REMARK    5  A    between atoms: CA   and  CB  
REMARK    6  A    between atoms: CB   and  CG  
REMARK    7  A    between atoms: CG   and  CD  
REMARK    8  A    between atoms: CD   and  CE  
ROOT
ATOM      7  CA  LYS A 135      33.193  34.663   9.290  1.00 25.02     0.186 C 
ENDROOT
BRANCH   7   8
ATOM      8  CB  LYS A 135      32.060  35.360  10.034  1.00 26.63     0.034 C 
BRANCH   8   9
ATOM      9  CG  LYS A 135      30.705  34.755   9.772  1.00 29.45     0.005 C 
BRANCH   9  10
ATOM     10  CD  LYS A 135      30.475  34.579   8.279  1.00 32.00     0.041 C 
BRANCH  10  11
ATOM     11  CE  LYS A 135      29.027  34.861   7.926  1.00 34.25     0.338 C 
ATOM     12  NZ  LYS A 135      28.922  35.585   6.629  1.00 35.99     0.618 N 
ENDBRANCH  10  11
ENDBRANCH   9  10
ENDBRANCH   8   9
ENDBRANCH   7   8
END_RES LYS A 135
