REMARK VINA RESULT:    -4.833      7.282     12.802
REMARK INTER + INTRA:         -23.089
REMARK INTER:                 -12.850
REMARK INTRA:                 -10.239
REMARK UNBOUND:               -10.485
REMARK SMILES CC(=O)N[C@@H]1[C@@H](O)C[C@](OC[C@H]2O[C@@H](O[C@H]3[C@H](O)[C@@H](O)[C@H](OCCN=[N+]=[N-])O[C@@H]3CO)[C@H](O)[C@@H](O)[C@H]2O)(C(=O)O)O[C@H]1C(O)[C@H](O)CNC(=O)OCc1cn(CC(O)c2ccccc2)nn1
REMARK SMILES IDX 9 1 8 2 6 3 5 4 42 5 41 6 10 7 11 8 12 9 14 10 13 11 32 12
REMARK SMILES IDX 34 13 36 14 15 15 16 16 29 17 28 18 21 19 17 20 19 21 30 22
REMARK SMILES IDX 31 23 22 25 23 26 24 27 25 28 26 29 27 30 18 31 20 33 33 35
REMARK SMILES IDX 35 37 37 39 38 41 39 42 40 43 7 45 43 47 44 48 45 50 46 51
REMARK SMILES IDX 47 53 48 54 49 55 50 57 51 58 52 59 53 60 54 61 66 62 55 63
REMARK SMILES IDX 65 64 56 65 57 66 58 67 59 69 60 70 64 71 61 72 63 73 62 74
REMARK SMILES IDX 4 75 2 76 1 78 3 79
REMARK H PARENT 31 24 18 32 20 34 33 36 35 38 37 40 40 44 7 46 44 49 46 52
REMARK H PARENT 48 56 58 68 4 77
REMARK Flexibility Score: inf
ROOT
ATOM      1  C   UNL     1      27.829  29.803  22.658  1.00  0.00     0.272 C 
ATOM      2  C   UNL     1      28.361  30.755  23.661  1.00  0.00     0.113 C 
ATOM      3  C   UNL     1      29.454  31.662  23.215  1.00  0.00     0.145 C 
ATOM      4  C   UNL     1      30.016  31.155  21.925  1.00  0.00     0.142 C 
ATOM      5  C   UNL     1      30.067  29.640  22.011  1.00  0.00     0.178 C 
ATOM      6  O   UNL     1      28.857  29.026  22.112  1.00  0.00    -0.332 OA
ENDROOT
BRANCH   1   7
ATOM      7  O   UNL     1      27.121  30.314  21.612  1.00  0.00    -0.338 OA
BRANCH   7   8
ATOM      8  C   UNL     1      26.852  29.498  20.556  1.00  0.00     0.199 C 
BRANCH   8   9
ATOM      9  C   UNL     1      26.725  30.284  19.271  1.00  0.00     0.179 C 
ATOM     10  C   UNL     1      28.046  30.844  17.473  1.00  0.00     0.282 C 
ATOM     11  O   UNL     1      27.965  30.706  18.832  1.00  0.00    -0.341 OA
ATOM     12  C   UNL     1      27.875  29.561  16.690  1.00  0.00     0.202 C 
ATOM     13  C   UNL     1      26.894  28.686  17.438  1.00  0.00     0.179 C 
ATOM     14  C   UNL     1      25.955  29.610  18.187  1.00  0.00     0.177 C 
BRANCH  10  15
ATOM     15  O   UNL     1      29.275  31.358  17.073  1.00  0.00    -0.341 OA
BRANCH  15  16
ATOM     16  C   UNL     1      29.648  32.530  17.670  1.00  0.00     0.184 C 
ATOM     17  C   UNL     1      28.657  33.591  17.207  1.00  0.00     0.178 C 
ATOM     18  O   UNL     1      29.183  34.356  16.187  1.00  0.00    -0.341 OA
ATOM     19  C   UNL     1      29.688  33.478  15.210  1.00  0.00     0.281 C 
ATOM     20  C   UNL     1      31.059  32.840  17.187  1.00  0.00     0.180 C 
ATOM     21  C   UNL     1      31.074  33.053  15.683  1.00  0.00     0.202 C 
BRANCH  17  22
ATOM     22  C   UNL     1      28.198  34.447  18.376  1.00  0.00     0.191 C 
BRANCH  22  23
ATOM     23  O   UNL     1      28.234  33.735  19.571  1.00  0.00    -0.394 OA
ATOM     24  H   UNL     1      29.089  33.242  19.685  1.00  0.00     0.210 HD
ENDBRANCH  22  23
ENDBRANCH  17  22
BRANCH  19  25
ATOM     25  O   UNL     1      29.717  34.176  14.027  1.00  0.00    -0.350 OA
BRANCH  25  26
ATOM     26  C   UNL     1      29.653  35.544  14.144  1.00  0.00     0.169 C 
BRANCH  26  27
ATOM     27  C   UNL     1      30.895  36.263  13.698  1.00  0.00     0.119 C 
BRANCH  27  28
ATOM     28  N   UNL     1      31.783  35.332  12.992  1.00  0.00    -0.092 NA
ATOM     29  N   UNL     1      32.888  35.164  13.532  1.00  0.00     0.001 N 
ATOM     30  N   UNL     1      33.956  34.722  13.957  1.00  0.00    -0.003 NA
ENDBRANCH  27  28
ENDBRANCH  26  27
ENDBRANCH  25  26
ENDBRANCH  19  25
BRANCH  20  31
ATOM     31  O   UNL     1      31.554  33.962  17.839  1.00  0.00    -0.387 OA
ATOM     32  H   UNL     1      32.323  33.700  18.421  1.00  0.00     0.211 HD
ENDBRANCH  20  31
BRANCH  21  33
ATOM     33  O   UNL     1      31.536  31.927  15.026  1.00  0.00    -0.385 OA
ATOM     34  H   UNL     1      32.200  32.220  14.354  1.00  0.00     0.211 HD
ENDBRANCH  21  33
ENDBRANCH  15  16
ENDBRANCH  10  15
BRANCH  12  35
ATOM     35  O   UNL     1      27.346  29.874  15.433  1.00  0.00    -0.385 OA
ATOM     36  H   UNL     1      26.436  29.470  15.389  1.00  0.00     0.211 HD
ENDBRANCH  12  35
BRANCH  13  37
ATOM     37  O   UNL     1      27.652  27.920  18.320  1.00  0.00    -0.387 OA
ATOM     38  H   UNL     1      28.568  28.228  18.431  1.00  0.00     0.211 HD
ENDBRANCH  13  37
BRANCH  14  39
ATOM     39  O   UNL     1      24.795  29.007  18.611  1.00  0.00    -0.387 OA
ATOM     40  H   UNL     1      24.724  28.050  18.361  1.00  0.00     0.211 HD
ENDBRANCH  14  39
ENDBRANCH   8   9
ENDBRANCH   7   8
ENDBRANCH   1   7
BRANCH   1  41
ATOM     41  C   UNL     1      27.004  28.799  23.449  1.00  0.00     0.364 C 
ATOM     42  O   UNL     1      27.391  27.649  23.565  1.00  0.00    -0.246 OA
BRANCH  41  43
ATOM     43  O   UNL     1      25.830  29.281  24.001  1.00  0.00    -0.477 OA
ATOM     44  H   UNL     1      25.584  28.938  24.905  1.00  0.00     0.296 HD
ENDBRANCH  41  43
ENDBRANCH   1  41
BRANCH   3  45
ATOM     45  O   UNL     1      29.039  32.993  23.158  1.00  0.00    -0.391 OA
ATOM     46  H   UNL     1      28.216  33.047  23.719  1.00  0.00     0.211 HD
ENDBRANCH   3  45
BRANCH   5  47
ATOM     47  C   UNL     1      30.913  29.188  20.849  1.00  0.00     0.176 C 
BRANCH  47  48
ATOM     48  O   UNL     1      30.426  29.793  19.680  1.00  0.00    -0.388 OA
ATOM     49  H   UNL     1      31.129  29.671  18.984  1.00  0.00     0.211 HD
ENDBRANCH  47  48
BRANCH  47  50
ATOM     50  C   UNL     1      30.977  27.702  20.731  1.00  0.00     0.165 C 
BRANCH  50  51
ATOM     51  O   UNL     1      29.834  27.160  20.209  1.00  0.00    -0.388 OA
ATOM     52  H   UNL     1      29.184  26.855  20.861  1.00  0.00     0.211 HD
ENDBRANCH  50  51
BRANCH  50  53
ATOM     53  C   UNL     1      31.539  26.999  21.940  1.00  0.00     0.154 C 
BRANCH  53  54
ATOM     54  N   UNL     1      32.945  27.164  22.157  1.00  0.00    -0.319 N 
ATOM     55  C   UNL     1      33.519  27.932  23.213  1.00  0.00     0.407 C 
ATOM     56  H   UNL     1      33.635  26.680  21.498  1.00  0.00     0.167 HD
ATOM     57  O   UNL     1      32.796  28.515  24.039  1.00  0.00    -0.225 OA
BRANCH  55  58
ATOM     58  O   UNL     1      34.885  28.050  23.348  1.00  0.00    -0.443 OA
BRANCH  58  59
ATOM     59  C   UNL     1      35.506  28.847  24.356  1.00  0.00     0.294 C 
BRANCH  59  60
ATOM     60  C   UNL     1      35.901  30.168  23.771  1.00  0.00     0.120 A 
ATOM     61  C   UNL     1      36.959  30.491  22.963  1.00  0.00     0.138 A 
ATOM     62  N   UNL     1      35.203  31.309  23.964  1.00  0.00    -0.132 NA
ATOM     63  N   UNL     1      36.895  31.825  22.671  1.00  0.00    -0.249 N 
ATOM     64  N   UNL     1      35.824  32.252  23.299  1.00  0.00    -0.067 NA
BRANCH  63  65
ATOM     65  C   UNL     1      37.833  32.560  21.837  1.00  0.00     0.182 C 
BRANCH  65  66
ATOM     66  C   UNL     1      37.088  33.581  20.995  1.00  0.00     0.166 C 
BRANCH  66  67
ATOM     67  O   UNL     1      37.212  34.794  21.713  1.00  0.00    -0.386 OA
ATOM     68  H   UNL     1      36.856  34.676  22.636  1.00  0.00     0.211 HD
ENDBRANCH  66  67
BRANCH  66  69
ATOM     69  C   UNL     1      37.614  33.739  19.636  1.00  0.00    -0.018 A 
ATOM     70  C   UNL     1      38.383  32.799  19.022  1.00  0.00     0.006 A 
ATOM     71  C   UNL     1      37.287  34.945  18.999  1.00  0.00     0.006 A 
ATOM     72  C   UNL     1      38.842  33.057  17.740  1.00  0.00     0.000 A 
ATOM     73  C   UNL     1      37.754  35.176  17.734  1.00  0.00     0.000 A 
ATOM     74  C   UNL     1      38.535  34.233  17.097  1.00  0.00     0.000 A 
ENDBRANCH  66  69
ENDBRANCH  65  66
ENDBRANCH  63  65
ENDBRANCH  59  60
ENDBRANCH  58  59
ENDBRANCH  55  58
ENDBRANCH  53  54
ENDBRANCH  50  53
ENDBRANCH  47  50
ENDBRANCH   5  47
BRANCH   4  75
ATOM     75  N   UNL     1      31.421  31.571  21.786  1.00  0.00    -0.348 N 
ATOM     76  C   UNL     1      31.792  32.806  21.198  1.00  0.00     0.217 C 
ATOM     77  H   UNL     1      32.186  30.949  22.124  1.00  0.00     0.163 HD
ATOM     78  C   UNL     1      33.198  33.259  21.040  1.00  0.00     0.114 C 
ATOM     79  O   UNL     1      30.870  33.563  20.787  1.00  0.00    -0.275 OA
ENDBRANCH   4  75
TORSDOF 33
BEGIN_RES LYS A 131
REMARK  4 active torsions:
REMARK  status: ('A' for Active; 'I' for Inactive)
REMARK    1  A    between atoms: CA   and  CB  
REMARK    2  A    between atoms: CB   and  CG  
REMARK    3  A    between atoms: CG   and  CD  
REMARK    4  A    between atoms: CD   and  CE  
ROOT
ATOM      1  CA  LYS A 131      29.867  25.555  16.977  1.00 20.52     0.186 C 
ENDROOT
BRANCH   1   2
ATOM      2  CB  LYS A 131      28.345  25.722  17.026  1.00 20.94     0.034 C 
BRANCH   2   3
ATOM      3  CG  LYS A 131      27.603  24.396  16.966  1.00 22.96     0.005 C 
BRANCH   3   4
ATOM      4  CD  LYS A 131      26.138  24.552  17.265  1.00 24.33     0.041 C 
BRANCH   4   5
ATOM      5  CE  LYS A 131      25.867  24.143  18.710  1.00 26.91     0.338 C 
ATOM      6  NZ  LYS A 131      25.760  25.340  19.577  1.00 27.40     0.618 N 
ENDBRANCH   4   5
ENDBRANCH   3   4
ENDBRANCH   2   3
ENDBRANCH   1   2
END_RES LYS A 131
BEGIN_RES LYS A 135
REMARK  4 active torsions:
REMARK  status: ('A' for Active; 'I' for Inactive)
REMARK    5  A    between atoms: CA   and  CB  
REMARK    6  A    between atoms: CB   and  CG  
REMARK    7  A    between atoms: CG   and  CD  
REMARK    8  A    between atoms: CD   and  CE  
ROOT
ATOM      7  CA  LYS A 135      33.193  34.663   9.290  1.00 25.02     0.186 C 
ENDROOT
BRANCH   7   8
ATOM      8  CB  LYS A 135      32.060  35.360  10.034  1.00 26.63     0.034 C 
BRANCH   8   9
ATOM      9  CG  LYS A 135      30.735  35.285   9.320  1.00 29.45     0.005 C 
BRANCH   9  10
ATOM     10  CD  LYS A 135      29.727  34.495  10.141  1.00 32.00     0.041 C 
BRANCH  10  11
ATOM     11  CE  LYS A 135      28.534  34.106   9.289  1.00 34.25     0.338 C 
ATOM     12  NZ  LYS A 135      28.619  34.720   7.935  1.00 35.99     0.618 N 
ENDBRANCH  10  11
ENDBRANCH   9  10
ENDBRANCH   8   9
ENDBRANCH   7   8
END_RES LYS A 135
