REMARK VINA RESULT:    -4.217      6.787     11.804
REMARK INTER + INTRA:         -23.326
REMARK INTER:                  -8.366
REMARK INTRA:                 -14.961
REMARK UNBOUND:               -12.699
REMARK SMILES CC(=O)N[C@@H]1[C@@H](O)C[C@](OC[C@H]2O[C@@H](O[C@H]3[C@H](O)[C@@H](O)[C@H](OCCN=[N+]=[N-])O[C@@H]3CO)[C@H](O)[C@@H](O)[C@H]2O)(C(=O)O)O[C@H]1C(O)[C@H](O)CNC(=O)OCc1cn(Cc2ccc(Br)cc2)nn1
REMARK SMILES IDX 9 1 8 2 6 3 5 4 42 5 41 6 10 7 11 8 12 9 14 10 13 11 32 12
REMARK SMILES IDX 34 13 36 14 15 15 16 16 29 17 28 18 21 19 17 20 19 21 30 22
REMARK SMILES IDX 31 23 22 25 23 26 24 27 25 28 26 29 27 30 18 31 20 33 33 35
REMARK SMILES IDX 35 37 37 39 38 41 39 42 40 43 7 45 43 47 44 48 45 50 46 51
REMARK SMILES IDX 47 53 48 54 49 55 50 57 51 58 52 59 53 60 54 61 65 62 55 63
REMARK SMILES IDX 64 64 56 65 57 66 58 67 63 68 59 69 62 70 60 71 61 72 4 73
REMARK SMILES IDX 2 74 1 76 3 77
REMARK H PARENT 31 24 18 32 20 34 33 36 35 38 37 40 40 44 7 46 44 49 46 52
REMARK H PARENT 48 56 4 75
REMARK Flexibility Score: inf
ROOT
ATOM      1  C   UNL     1      27.558  40.681  10.180  1.00  0.00     0.272 C 
ATOM      2  C   UNL     1      27.967  41.202  11.510  1.00  0.00     0.113 C 
ATOM      3  C   UNL     1      27.320  40.650  12.718  1.00  0.00     0.145 C 
ATOM      4  C   UNL     1      25.963  39.950  12.441  1.00  0.00     0.142 C 
ATOM      5  C   UNL     1      25.457  40.700  11.239  1.00  0.00     0.178 C 
ATOM      6  O   UNL     1      26.250  40.166  10.184  1.00  0.00    -0.332 OA
ENDROOT
BRANCH   1   7
ATOM      7  O   UNL     1      28.401  39.968   9.440  1.00  0.00    -0.338 OA
BRANCH   7   8
ATOM      8  C   UNL     1      28.876  38.781   9.434  1.00  0.00     0.199 C 
BRANCH   8   9
ATOM      9  C   UNL     1      28.312  37.832   8.404  1.00  0.00     0.179 C 
ATOM     10  C   UNL     1      26.545  36.529   7.832  1.00  0.00     0.282 C 
ATOM     11  O   UNL     1      27.164  37.210   8.820  1.00  0.00    -0.341 OA
ATOM     12  C   UNL     1      27.338  36.306   6.557  1.00  0.00     0.202 C 
ATOM     13  C   UNL     1      27.958  37.591   6.054  1.00  0.00     0.179 C 
ATOM     14  C   UNL     1      27.936  38.643   7.154  1.00  0.00     0.177 C 
BRANCH  10  15
ATOM     15  O   UNL     1      25.305  36.930   7.462  1.00  0.00    -0.341 OA
BRANCH  15  16
ATOM     16  C   UNL     1      24.279  37.090   8.310  1.00  0.00     0.184 C 
ATOM     17  C   UNL     1      23.709  35.853   8.925  1.00  0.00     0.178 C 
ATOM     18  O   UNL     1      22.415  35.595   8.564  1.00  0.00    -0.341 OA
ATOM     19  C   UNL     1      21.508  36.578   8.932  1.00  0.00     0.281 C 
ATOM     20  C   UNL     1      23.167  37.847   7.615  1.00  0.00     0.180 C 
ATOM     21  C   UNL     1      22.013  37.964   8.579  1.00  0.00     0.202 C 
BRANCH  17  22
ATOM     22  C   UNL     1      23.877  35.919  10.425  1.00  0.00     0.191 C 
BRANCH  22  23
ATOM     23  O   UNL     1      24.900  36.818  10.788  1.00  0.00    -0.394 OA
ATOM     24  H   UNL     1      25.644  36.355  11.212  1.00  0.00     0.210 HD
ENDBRANCH  22  23
ENDBRANCH  17  22
BRANCH  19  25
ATOM     25  O   UNL     1      21.108  36.513  10.256  1.00  0.00    -0.350 OA
BRANCH  25  26
ATOM     26  C   UNL     1      19.771  36.300  10.461  1.00  0.00     0.169 C 
BRANCH  26  27
ATOM     27  C   UNL     1      18.990  37.546  10.758  1.00  0.00     0.119 C 
BRANCH  27  28
ATOM     28  N   UNL     1      19.166  37.925  12.155  1.00  0.00    -0.092 NA
ATOM     29  N   UNL     1      20.072  38.692  12.474  1.00  0.00     0.001 N 
ATOM     30  N   UNL     1      21.066  39.275  12.962  1.00  0.00    -0.003 NA
ENDBRANCH  27  28
ENDBRANCH  26  27
ENDBRANCH  25  26
ENDBRANCH  19  25
BRANCH  20  31
ATOM     31  O   UNL     1      23.649  39.151   7.391  1.00  0.00    -0.387 OA
ATOM     32  H   UNL     1      24.646  39.153   7.429  1.00  0.00     0.211 HD
ENDBRANCH  20  31
BRANCH  21  33
ATOM     33  O   UNL     1      20.997  38.776   8.089  1.00  0.00    -0.385 OA
ATOM     34  H   UNL     1      20.279  38.179   7.758  1.00  0.00     0.211 HD
ENDBRANCH  21  33
ENDBRANCH  15  16
ENDBRANCH  10  15
BRANCH  12  35
ATOM     35  O   UNL     1      28.324  35.342   6.677  1.00  0.00    -0.385 OA
ATOM     36  H   UNL     1      28.581  35.128   7.604  1.00  0.00     0.211 HD
ENDBRANCH  12  35
BRANCH  13  37
ATOM     37  O   UNL     1      27.355  38.072   4.898  1.00  0.00    -0.387 OA
ATOM     38  H   UNL     1      26.610  38.656   5.183  1.00  0.00     0.211 HD
ENDBRANCH  13  37
BRANCH  14  39
ATOM     39  O   UNL     1      26.640  39.122   7.378  1.00  0.00    -0.387 OA
ATOM     40  H   UNL     1      26.069  38.393   7.692  1.00  0.00     0.211 HD
ENDBRANCH  14  39
ENDBRANCH   8   9
ENDBRANCH   7   8
ENDBRANCH   1   7
BRANCH   1  41
ATOM     41  C   UNL     1      27.377  41.935   9.309  1.00  0.00     0.364 C 
ATOM     42  O   UNL     1      27.947  42.967   9.659  1.00  0.00    -0.246 OA
BRANCH  41  43
ATOM     43  O   UNL     1      26.613  41.942   8.172  1.00  0.00    -0.477 OA
ATOM     44  H   UNL     1      26.868  42.568   7.392  1.00  0.00     0.296 HD
ENDBRANCH  41  43
ENDBRANCH   1  41
BRANCH   3  45
ATOM     45  O   UNL     1      28.116  39.873  13.545  1.00  0.00    -0.391 OA
ATOM     46  H   UNL     1      29.002  39.787  13.132  1.00  0.00     0.211 HD
ENDBRANCH   3  45
BRANCH   5  47
ATOM     47  C   UNL     1      24.022  40.565  10.893  1.00  0.00     0.176 C 
BRANCH  47  48
ATOM     48  O   UNL     1      23.519  39.334  11.155  1.00  0.00    -0.388 OA
ATOM     49  H   UNL     1      22.603  39.352  11.455  1.00  0.00     0.211 HD
ENDBRANCH  47  48
BRANCH  47  50
ATOM     50  C   UNL     1      23.097  41.674  11.174  1.00  0.00     0.165 C 
BRANCH  50  51
ATOM     51  O   UNL     1      22.737  41.749  12.529  1.00  0.00    -0.388 OA
ATOM     52  H   UNL     1      22.311  42.577  12.793  1.00  0.00     0.211 HD
ENDBRANCH  50  51
BRANCH  50  53
ATOM     53  C   UNL     1      21.936  41.911  10.295  1.00  0.00     0.154 C 
BRANCH  53  54
ATOM     54  N   UNL     1      22.094  41.466   8.922  1.00  0.00    -0.319 N 
ATOM     55  C   UNL     1      22.557  42.338   7.902  1.00  0.00     0.407 C 
ATOM     56  H   UNL     1      21.880  40.484   8.616  1.00  0.00     0.167 HD
ATOM     57  O   UNL     1      22.856  43.541   8.186  1.00  0.00    -0.225 OA
BRANCH  55  58
ATOM     58  O   UNL     1      22.706  41.954   6.573  1.00  0.00    -0.443 OA
BRANCH  58  59
ATOM     59  C   UNL     1      23.475  42.770   5.669  1.00  0.00     0.294 C 
BRANCH  59  60
ATOM     60  C   UNL     1      24.795  42.189   5.376  1.00  0.00     0.120 A 
ATOM     61  C   UNL     1      25.901  42.899   4.949  1.00  0.00     0.138 A 
ATOM     62  N   UNL     1      25.164  40.910   5.456  1.00  0.00    -0.132 NA
ATOM     63  N   UNL     1      26.907  42.031   4.784  1.00  0.00    -0.248 N 
ATOM     64  N   UNL     1      26.433  40.842   5.096  1.00  0.00    -0.067 NA
BRANCH  63  65
ATOM     65  C   UNL     1      28.270  42.298   4.369  1.00  0.00     0.181 C 
BRANCH  65  66
ATOM     66  C   UNL     1      29.292  41.766   5.298  1.00  0.00    -0.026 A 
ATOM     67  C   UNL     1      30.025  40.646   4.894  1.00  0.00     0.007 A 
ATOM     68  C   UNL     1      29.577  42.306   6.520  1.00  0.00     0.007 A 
ATOM     69  C   UNL     1      31.003  40.119   5.721  1.00  0.00     0.016 A 
ATOM     70  C   UNL     1      30.561  41.785   7.362  1.00  0.00     0.016 A 
ATOM     71  C   UNL     1      31.270  40.688   6.953  1.00  0.00     0.017 A 
ATOM     72  Br  UNL     1      32.639  39.930   8.072  1.00  0.00    -0.051 Br
ENDBRANCH  65  66
ENDBRANCH  63  65
ENDBRANCH  59  60
ENDBRANCH  58  59
ENDBRANCH  55  58
ENDBRANCH  53  54
ENDBRANCH  50  53
ENDBRANCH  47  50
ENDBRANCH   5  47
BRANCH   4  73
ATOM     73  N   UNL     1      25.163  39.984  13.610  1.00  0.00    -0.348 N 
ATOM     74  C   UNL     1      24.620  38.790  14.146  1.00  0.00     0.217 C 
ATOM     75  H   UNL     1      24.981  40.879  14.095  1.00  0.00     0.163 HD
ATOM     76  C   UNL     1      23.788  38.706  15.349  1.00  0.00     0.114 C 
ATOM     77  O   UNL     1      24.873  37.690  13.538  1.00  0.00    -0.275 OA
ENDBRANCH   4  73
TORSDOF 31
BEGIN_RES LYS A 131
REMARK  4 active torsions:
REMARK  status: ('A' for Active; 'I' for Inactive)
REMARK    1  A    between atoms: CA   and  CB  
REMARK    2  A    between atoms: CB   and  CG  
REMARK    3  A    between atoms: CG   and  CD  
REMARK    4  A    between atoms: CD   and  CE  
ROOT
ATOM      1  CA  LYS A 131      29.867  25.555  16.977  1.00 20.52     0.186 C 
ENDROOT
BRANCH   1   2
ATOM      2  CB  LYS A 131      28.345  25.722  17.026  1.00 20.94     0.034 C 
BRANCH   2   3
ATOM      3  CG  LYS A 131      27.601  24.403  16.886  1.00 22.96     0.005 C 
BRANCH   3   4
ATOM      4  CD  LYS A 131      26.153  24.525  17.273  1.00 24.33     0.041 C 
BRANCH   4   5
ATOM      5  CE  LYS A 131      25.761  23.344  18.155  1.00 26.91     0.338 C 
ATOM      6  NZ  LYS A 131      25.510  23.795  19.544  1.00 27.40     0.618 N 
ENDBRANCH   4   5
ENDBRANCH   3   4
ENDBRANCH   2   3
ENDBRANCH   1   2
END_RES LYS A 131
BEGIN_RES LYS A 135
REMARK  4 active torsions:
REMARK  status: ('A' for Active; 'I' for Inactive)
REMARK    5  A    between atoms: CA   and  CB  
REMARK    6  A    between atoms: CB   and  CG  
REMARK    7  A    between atoms: CG   and  CD  
REMARK    8  A    between atoms: CD   and  CE  
ROOT
ATOM      7  CA  LYS A 135      33.193  34.663   9.290  1.00 25.02     0.186 C 
ENDROOT
BRANCH   7   8
ATOM      8  CB  LYS A 135      32.060  35.360  10.034  1.00 26.63     0.034 C 
BRANCH   8   9
ATOM      9  CG  LYS A 135      30.784  35.452   9.238  1.00 29.45     0.005 C 
BRANCH   9  10
ATOM     10  CD  LYS A 135      29.979  34.168   9.363  1.00 32.00     0.041 C 
BRANCH  10  11
ATOM     11  CE  LYS A 135      28.733  34.399  10.196  1.00 34.25     0.338 C 
ATOM     12  NZ  LYS A 135      27.568  33.660   9.636  1.00 35.99     0.618 N 
ENDBRANCH  10  11
ENDBRANCH   9  10
ENDBRANCH   8   9
ENDBRANCH   7   8
END_RES LYS A 135
