REMARK VINA RESULT:    -4.111      2.608      7.367
REMARK INTER + INTRA:         -22.749
REMARK INTER:                 -11.423
REMARK INTRA:                 -11.326
REMARK UNBOUND:               -12.270
REMARK SMILES CC(=O)N[C@@H]1[C@@H](O)C[C@](OC[C@H]2O[C@@H](O[C@H]3[C@H](O)[C@@H](O)[C@H](OCCN=[N+]=[N-])O[C@@H]3CO)[C@H](O)[C@@H](O)[C@H]2O)(C(=O)O)O[C@H]1C(O)[C@H](O)CNC(=O)OCc1cn(-c2ccc(S(N)(=O)=O)cc2)nn1
REMARK SMILES IDX 9 1 8 2 6 3 5 4 42 5 41 6 10 7 11 8 12 9 14 10 13 11 32 12
REMARK SMILES IDX 34 13 36 14 15 15 16 16 29 17 28 18 21 19 17 20 19 21 30 22
REMARK SMILES IDX 31 23 22 25 23 26 24 27 25 28 26 29 27 30 18 31 20 33 33 35
REMARK SMILES IDX 35 37 37 39 38 41 39 42 40 43 7 45 43 47 44 48 45 50 46 51
REMARK SMILES IDX 47 53 48 54 49 55 50 57 51 58 52 59 53 60 54 61 67 62 55 63
REMARK SMILES IDX 66 64 56 65 57 66 65 67 58 68 64 69 59 70 60 71 62 72 63 73
REMARK SMILES IDX 61 74 4 77 2 78 1 80 3 81
REMARK H PARENT 31 24 18 32 20 34 33 36 35 38 37 40 40 44 7 46 44 49 46 52
REMARK H PARENT 48 56 61 75 61 76 4 79
REMARK Flexibility Score: inf
ROOT
ATOM      1  C   UNL     1      25.860  36.593  12.058  1.00  0.00     0.272 C 
ATOM      2  C   UNL     1      25.846  37.986  12.708  1.00  0.00     0.113 C 
ATOM      3  C   UNL     1      26.872  38.889  12.122  1.00  0.00     0.145 C 
ATOM      4  C   UNL     1      28.133  38.105  11.866  1.00  0.00     0.142 C 
ATOM      5  C   UNL     1      28.041  36.884  12.789  1.00  0.00     0.178 C 
ATOM      6  O   UNL     1      27.110  36.037  12.193  1.00  0.00    -0.332 OA
ENDROOT
BRANCH   1   7
ATOM      7  O   UNL     1      25.457  36.793  10.744  1.00  0.00    -0.338 OA
BRANCH   7   8
ATOM      8  C   UNL     1      26.003  35.922   9.843  1.00  0.00     0.199 C 
BRANCH   8   9
ATOM      9  C   UNL     1      25.577  36.385   8.439  1.00  0.00     0.179 C 
ATOM     10  C   UNL     1      23.896  37.740   7.540  1.00  0.00     0.282 C 
ATOM     11  O   UNL     1      24.285  36.793   8.537  1.00  0.00    -0.341 OA
ATOM     12  C   UNL     1      24.712  38.954   7.876  1.00  0.00     0.202 C 
ATOM     13  C   UNL     1      26.180  38.689   7.565  1.00  0.00     0.179 C 
ATOM     14  C   UNL     1      26.563  37.273   7.795  1.00  0.00     0.177 C 
BRANCH  10  15
ATOM     15  O   UNL     1      22.573  37.963   7.699  1.00  0.00    -0.341 OA
BRANCH  15  16
ATOM     16  C   UNL     1      21.983  37.307   8.811  1.00  0.00     0.184 C 
ATOM     17  C   UNL     1      20.769  36.637   8.353  1.00  0.00     0.178 C 
ATOM     18  O   UNL     1      19.670  36.687   9.186  1.00  0.00    -0.341 OA
ATOM     19  C   UNL     1      19.915  36.871  10.517  1.00  0.00     0.281 C 
ATOM     20  C   UNL     1      21.805  38.300   9.936  1.00  0.00     0.180 C 
ATOM     21  C   UNL     1      20.531  38.234  10.682  1.00  0.00     0.202 C 
BRANCH  17  22
ATOM     22  C   UNL     1      20.962  35.178   7.991  1.00  0.00     0.191 C 
BRANCH  22  23
ATOM     23  O   UNL     1      19.896  34.718   7.231  1.00  0.00    -0.394 OA
ATOM     24  H   UNL     1      19.097  34.533   7.785  1.00  0.00     0.210 HD
ENDBRANCH  22  23
ENDBRANCH  17  22
BRANCH  19  25
ATOM     25  O   UNL     1      20.634  35.881  11.143  1.00  0.00    -0.350 OA
BRANCH  25  26
ATOM     26  C   UNL     1      19.831  35.206  12.054  1.00  0.00     0.169 C 
BRANCH  26  27
ATOM     27  C   UNL     1      20.193  33.725  11.987  1.00  0.00     0.119 C 
BRANCH  27  28
ATOM     28  N   UNL     1      21.556  33.576  12.413  1.00  0.00    -0.092 NA
ATOM     29  N   UNL     1      21.853  33.216  13.575  1.00  0.00     0.001 N 
ATOM     30  N   UNL     1      22.213  33.443  14.743  1.00  0.00    -0.003 NA
ENDBRANCH  27  28
ENDBRANCH  26  27
ENDBRANCH  25  26
ENDBRANCH  19  25
BRANCH  20  31
ATOM     31  O   UNL     1      22.848  38.202  10.861  1.00  0.00    -0.387 OA
ATOM     32  H   UNL     1      23.474  37.501  10.568  1.00  0.00     0.211 HD
ENDBRANCH  20  31
BRANCH  21  33
ATOM     33  O   UNL     1      19.608  39.212  10.327  1.00  0.00    -0.385 OA
ATOM     34  H   UNL     1      20.007  39.649   9.507  1.00  0.00     0.211 HD
ENDBRANCH  21  33
ENDBRANCH  15  16
ENDBRANCH  10  15
BRANCH  12  35
ATOM     35  O   UNL     1      24.258  40.131   7.357  1.00  0.00    -0.385 OA
ATOM     36  H   UNL     1      23.300  40.293   7.452  1.00  0.00     0.211 HD
ENDBRANCH  12  35
BRANCH  13  37
ATOM     37  O   UNL     1      27.003  39.628   8.164  1.00  0.00    -0.387 OA
ATOM     38  H   UNL     1      27.433  39.341   8.995  1.00  0.00     0.211 HD
ENDBRANCH  13  37
BRANCH  14  39
ATOM     39  O   UNL     1      27.720  37.283   8.613  1.00  0.00    -0.387 OA
ATOM     40  H   UNL     1      27.546  36.587   9.311  1.00  0.00     0.211 HD
ENDBRANCH  14  39
ENDBRANCH   8   9
ENDBRANCH   7   8
ENDBRANCH   1   7
BRANCH   1  41
ATOM     41  C   UNL     1      24.806  35.828  12.823  1.00  0.00     0.364 C 
ATOM     42  O   UNL     1      25.115  35.103  13.800  1.00  0.00    -0.246 OA
BRANCH  41  43
ATOM     43  O   UNL     1      23.472  35.903  12.476  1.00  0.00    -0.477 OA
ATOM     44  H   UNL     1      22.785  35.861  13.213  1.00  0.00     0.296 HD
ENDBRANCH  41  43
ENDBRANCH   1  41
BRANCH   3  45
ATOM     45  O   UNL     1      26.346  39.478  10.974  1.00  0.00    -0.391 OA
ATOM     46  H   UNL     1      26.017  40.380  11.196  1.00  0.00     0.211 HD
ENDBRANCH   3  45
BRANCH   5  47
ATOM     47  C   UNL     1      29.366  36.175  12.877  1.00  0.00     0.176 C 
BRANCH  47  48
ATOM     48  O   UNL     1      30.256  36.747  13.762  1.00  0.00    -0.388 OA
ATOM     49  H   UNL     1      30.366  36.221  14.594  1.00  0.00     0.211 HD
ENDBRANCH  47  48
BRANCH  47  50
ATOM     50  C   UNL     1      29.160  34.719  13.227  1.00  0.00     0.165 C 
BRANCH  50  51
ATOM     51  O   UNL     1      28.168  34.593  14.223  1.00  0.00    -0.388 OA
ATOM     52  H   UNL     1      27.985  33.627  14.404  1.00  0.00     0.211 HD
ENDBRANCH  50  51
BRANCH  50  53
ATOM     53  C   UNL     1      30.436  34.065  13.694  1.00  0.00     0.154 C 
BRANCH  53  54
ATOM     54  N   UNL     1      30.191  32.787  14.319  1.00  0.00    -0.319 N 
ATOM     55  C   UNL     1      30.907  32.427  15.490  1.00  0.00     0.407 C 
ATOM     56  H   UNL     1      29.502  32.107  13.943  1.00  0.00     0.167 HD
ATOM     57  O   UNL     1      31.752  33.244  15.959  1.00  0.00    -0.225 OA
BRANCH  55  58
ATOM     58  O   UNL     1      30.742  31.230  16.165  1.00  0.00    -0.443 OA
BRANCH  58  59
ATOM     59  C   UNL     1      29.791  31.062  17.189  1.00  0.00     0.294 C 
BRANCH  59  60
ATOM     60  C   UNL     1      28.454  31.464  16.679  1.00  0.00     0.121 A 
ATOM     61  C   UNL     1      27.469  30.600  16.185  1.00  0.00     0.144 A 
ATOM     62  N   UNL     1      27.903  32.686  16.573  1.00  0.00    -0.131 NA
ATOM     63  N   UNL     1      26.388  31.328  15.809  1.00  0.00    -0.220 N 
ATOM     64  N   UNL     1      26.673  32.572  16.052  1.00  0.00    -0.062 NA
BRANCH  63  65
ATOM     65  C   UNL     1      25.170  30.822  15.250  1.00  0.00     0.066 A 
ATOM     66  C   UNL     1      24.992  30.739  13.888  1.00  0.00     0.030 A 
ATOM     67  C   UNL     1      24.139  30.400  16.059  1.00  0.00     0.030 A 
ATOM     68  C   UNL     1      23.806  30.245  13.348  1.00  0.00     0.024 A 
ATOM     69  C   UNL     1      22.950  29.904  15.529  1.00  0.00     0.024 A 
ATOM     70  C   UNL     1      22.775  29.823  14.163  1.00  0.00     0.082 A 
BRANCH  70  71
ATOM     71  S   UNL     1      21.288  29.201  13.447  1.00  0.00     0.238 S 
ATOM     72  O   UNL     1      20.181  30.224  13.527  1.00  0.00    -0.207 OA
ATOM     73  O   UNL     1      21.497  28.887  11.997  1.00  0.00    -0.207 OA
BRANCH  71  74
ATOM     74  N   UNL     1      20.773  27.751  14.252  1.00  0.00    -0.225 NA
ATOM     75  H   UNL     1      20.415  27.089  13.507  1.00  0.00     0.137 HD
ATOM     76  H   UNL     1      20.028  27.937  14.964  1.00  0.00     0.137 HD
ENDBRANCH  71  74
ENDBRANCH  70  71
ENDBRANCH  63  65
ENDBRANCH  59  60
ENDBRANCH  58  59
ENDBRANCH  55  58
ENDBRANCH  53  54
ENDBRANCH  50  53
ENDBRANCH  47  50
ENDBRANCH   5  47
BRANCH   4  77
ATOM     77  N   UNL     1      29.348  38.837  12.105  1.00  0.00    -0.348 N 
ATOM     78  C   UNL     1      30.091  39.354  11.023  1.00  0.00     0.217 C 
ATOM     79  H   UNL     1      29.694  38.998  13.069  1.00  0.00     0.163 HD
ATOM     80  C   UNL     1      31.340  40.103  11.310  1.00  0.00     0.114 C 
ATOM     81  O   UNL     1      29.744  39.208   9.828  1.00  0.00    -0.275 OA
ENDBRANCH   4  77
TORSDOF 32
BEGIN_RES LYS A 131
REMARK  4 active torsions:
REMARK  status: ('A' for Active; 'I' for Inactive)
REMARK    1  A    between atoms: CA   and  CB  
REMARK    2  A    between atoms: CB   and  CG  
REMARK    3  A    between atoms: CG   and  CD  
REMARK    4  A    between atoms: CD   and  CE  
ROOT
ATOM      1  CA  LYS A 131      29.867  25.555  16.977  1.00 20.52     0.186 C 
ENDROOT
BRANCH   1   2
ATOM      2  CB  LYS A 131      28.345  25.722  17.026  1.00 20.94     0.034 C 
BRANCH   2   3
ATOM      3  CG  LYS A 131      27.602  24.400  16.909  1.00 22.96     0.005 C 
BRANCH   3   4
ATOM      4  CD  LYS A 131      26.137  24.545  17.217  1.00 24.33     0.041 C 
BRANCH   4   5
ATOM      5  CE  LYS A 131      25.714  23.459  18.201  1.00 26.91     0.338 C 
ATOM      6  NZ  LYS A 131      25.287  22.239  17.474  1.00 27.40     0.618 N 
ENDBRANCH   4   5
ENDBRANCH   3   4
ENDBRANCH   2   3
ENDBRANCH   1   2
END_RES LYS A 131
BEGIN_RES LYS A 135
REMARK  4 active torsions:
REMARK  status: ('A' for Active; 'I' for Inactive)
REMARK    5  A    between atoms: CA   and  CB  
REMARK    6  A    between atoms: CB   and  CG  
REMARK    7  A    between atoms: CG   and  CD  
REMARK    8  A    between atoms: CD   and  CE  
ROOT
ATOM      7  CA  LYS A 135      33.193  34.663   9.290  1.00 25.02     0.186 C 
ENDROOT
BRANCH   7   8
ATOM      8  CB  LYS A 135      32.060  35.360  10.034  1.00 26.63     0.034 C 
BRANCH   8   9
ATOM      9  CG  LYS A 135      30.899  35.734   9.150  1.00 29.45     0.005 C 
BRANCH   9  10
ATOM     10  CD  LYS A 135      30.530  34.579   8.231  1.00 32.00     0.041 C 
BRANCH  10  11
ATOM     11  CE  LYS A 135      29.081  34.180   8.432  1.00 34.25     0.338 C 
ATOM     12  NZ  LYS A 135      28.760  34.034   9.879  1.00 35.99     0.618 N 
ENDBRANCH  10  11
ENDBRANCH   9  10
ENDBRANCH   8   9
ENDBRANCH   7   8
END_RES LYS A 135
