REMARK VINA RESULT:    -5.374      5.153     11.947
REMARK INTER + INTRA:         -23.675
REMARK INTER:                 -13.681
REMARK INTRA:                  -9.994
REMARK UNBOUND:                -9.504
REMARK SMILES CC(=O)N[C@@H]1[C@@H](O)C[C@](OC[C@H]2O[C@@H](O[C@H]3[C@H](O)[C@@H](O)[C@H](OCCN=[N+]=[N-])O[C@@H]3CO)[C@H](O)[C@@H](O)[C@H]2O)(C(=O)O)O[C@H]1C(O)[C@H](O)CNC(=O)OCc1cn(COCc2ccccc2)nn1
REMARK SMILES IDX 43 1 42 2 9 3 8 4 41 5 6 6 5 7 10 8 11 9 12 10 14 11 13 12
REMARK SMILES IDX 32 13 34 14 36 15 15 16 16 17 29 18 28 19 21 20 17 21 19 22
REMARK SMILES IDX 30 23 31 24 22 26 23 27 24 28 25 29 26 30 27 31 18 32 20 34
REMARK SMILES IDX 33 36 35 38 37 40 38 42 39 43 40 44 7 46 4 48 2 49 1 51 3 52
REMARK SMILES IDX 44 53 45 55 46 56 47 58 48 59 49 60 50 62 51 63 52 64 53 65
REMARK SMILES IDX 54 66 66 67 55 68 65 69 56 70 57 71 58 72 59 73 60 74 64 75
REMARK SMILES IDX 61 76 63 77 62 78
REMARK H PARENT 31 25 18 33 20 35 33 37 35 39 37 41 40 45 7 47 4 50 44 54
REMARK H PARENT 46 57 48 61
REMARK Flexibility Score: inf
ROOT
ATOM      1  C   UNL     1      30.601  32.351  17.414  1.00  0.00     0.176 C 
ENDROOT
BRANCH   1   2
ATOM      2  C   UNL     1      29.714  31.211  17.962  1.00  0.00     0.178 C 
ATOM      3  C   UNL     1      27.453  30.674  17.940  1.00  0.00     0.272 C 
ATOM      4  C   UNL     1      27.555  30.232  19.396  1.00  0.00     0.113 C 
ATOM      5  O   UNL     1      28.398  31.639  17.779  1.00  0.00    -0.332 OA
ATOM      6  C   UNL     1      28.553  31.103  20.122  1.00  0.00     0.145 C 
ATOM      7  C   UNL     1      29.939  30.971  19.422  1.00  0.00     0.142 C 
BRANCH   3   8
ATOM      8  O   UNL     1      26.163  31.181  17.687  1.00  0.00    -0.338 OA
BRANCH   8   9
ATOM      9  C   UNL     1      26.069  32.463  17.300  1.00  0.00     0.199 C 
BRANCH   9  10
ATOM     10  C   UNL     1      25.843  32.553  15.809  1.00  0.00     0.179 C 
ATOM     11  C   UNL     1      24.347  32.760  14.120  1.00  0.00     0.282 C 
ATOM     12  O   UNL     1      24.472  32.728  15.528  1.00  0.00    -0.341 OA
ATOM     13  C   UNL     1      24.835  34.098  13.576  1.00  0.00     0.202 C 
ATOM     14  C   UNL     1      25.671  34.720  14.705  1.00  0.00     0.179 C 
ATOM     15  C   UNL     1      26.623  33.628  15.145  1.00  0.00     0.177 C 
BRANCH  11  16
ATOM     16  O   UNL     1      23.018  32.644  13.817  1.00  0.00    -0.341 OA
BRANCH  16  17
ATOM     17  C   UNL     1      22.622  31.352  13.499  1.00  0.00     0.184 C 
ATOM     18  C   UNL     1      21.365  30.933  14.173  1.00  0.00     0.178 C 
ATOM     19  O   UNL     1      21.599  30.717  15.497  1.00  0.00    -0.341 OA
ATOM     20  C   UNL     1      22.397  29.634  15.782  1.00  0.00     0.281 C 
ATOM     21  C   UNL     1      23.745  30.416  13.782  1.00  0.00     0.180 C 
ATOM     22  C   UNL     1      23.545  29.431  14.874  1.00  0.00     0.202 C 
BRANCH  18  23
ATOM     23  C   UNL     1      20.767  29.749  13.449  1.00  0.00     0.191 C 
BRANCH  23  24
ATOM     24  O   UNL     1      20.987  29.833  12.069  1.00  0.00    -0.394 OA
ATOM     25  H   UNL     1      21.820  30.341  11.900  1.00  0.00     0.210 HD
ENDBRANCH  23  24
ENDBRANCH  18  23
BRANCH  20  26
ATOM     26  O   UNL     1      21.576  28.502  15.739  1.00  0.00    -0.350 OA
BRANCH  26  27
ATOM     27  C   UNL     1      21.247  27.996  16.971  1.00  0.00     0.169 C 
BRANCH  27  28
ATOM     28  C   UNL     1      21.820  26.591  17.034  1.00  0.00     0.119 C 
BRANCH  28  29
ATOM     29  N   UNL     1      22.744  26.427  18.133  1.00  0.00    -0.092 NA
ATOM     30  N   UNL     1      23.645  27.264  18.323  1.00  0.00     0.001 N 
ATOM     31  N   UNL     1      24.778  27.754  18.148  1.00  0.00    -0.003 NA
ENDBRANCH  28  29
ENDBRANCH  27  28
ENDBRANCH  26  27
ENDBRANCH  20  26
BRANCH  21  32
ATOM     32  O   UNL     1      24.050  29.667  12.612  1.00  0.00    -0.387 OA
ATOM     33  H   UNL     1      23.279  29.567  12.033  1.00  0.00     0.211 HD
ENDBRANCH  21  32
BRANCH  22  34
ATOM     34  O   UNL     1      24.709  29.448  15.687  1.00  0.00    -0.385 OA
ATOM     35  H   UNL     1      25.041  28.513  15.700  1.00  0.00     0.211 HD
ENDBRANCH  22  34
ENDBRANCH  16  17
ENDBRANCH  11  16
BRANCH  13  36
ATOM     36  O   UNL     1      25.715  33.936  12.506  1.00  0.00    -0.385 OA
ATOM     37  H   UNL     1      26.629  34.086  12.852  1.00  0.00     0.211 HD
ENDBRANCH  13  36
BRANCH  14  38
ATOM     38  O   UNL     1      24.769  34.961  15.733  1.00  0.00    -0.387 OA
ATOM     39  H   UNL     1      24.369  34.138  16.111  1.00  0.00     0.211 HD
ENDBRANCH  14  38
BRANCH  15  40
ATOM     40  O   UNL     1      27.671  34.121  15.906  1.00  0.00    -0.387 OA
ATOM     41  H   UNL     1      28.039  33.458  16.545  1.00  0.00     0.211 HD
ENDBRANCH  15  40
ENDBRANCH   9  10
ENDBRANCH   8   9
ENDBRANCH   3   8
BRANCH   3  42
ATOM     42  C   UNL     1      27.631  29.572  16.995  1.00  0.00     0.364 C 
ATOM     43  O   UNL     1      27.767  29.650  15.745  1.00  0.00    -0.246 OA
BRANCH  42  44
ATOM     44  O   UNL     1      27.661  28.247  17.493  1.00  0.00    -0.477 OA
ATOM     45  H   UNL     1      27.389  28.049  18.455  1.00  0.00     0.296 HD
ENDBRANCH  42  44
ENDBRANCH   3  42
BRANCH   6  46
ATOM     46  O   UNL     1      28.277  32.422  20.208  1.00  0.00    -0.391 OA
ATOM     47  H   UNL     1      28.837  32.982  19.586  1.00  0.00     0.211 HD
ENDBRANCH   6  46
BRANCH   7  48
ATOM     48  N   UNL     1      30.345  29.618  19.715  1.00  0.00    -0.348 N 
ATOM     49  C   UNL     1      31.442  29.409  20.577  1.00  0.00     0.217 C 
ATOM     50  H   UNL     1      29.852  28.822  19.305  1.00  0.00     0.163 HD
ATOM     51  C   UNL     1      31.871  28.023  20.906  1.00  0.00     0.114 C 
ATOM     52  O   UNL     1      32.070  30.391  21.085  1.00  0.00    -0.275 OA
ENDBRANCH   7  48
ENDBRANCH   1   2
BRANCH   1  53
ATOM     53  O   UNL     1      29.966  33.572  17.859  1.00  0.00    -0.388 OA
ATOM     54  H   UNL     1      30.444  33.823  18.705  1.00  0.00     0.211 HD
ENDBRANCH   1  53
BRANCH   1  55
ATOM     55  C   UNL     1      30.658  32.445  15.930  1.00  0.00     0.165 C 
BRANCH  55  56
ATOM     56  O   UNL     1      29.999  31.491  15.208  1.00  0.00    -0.388 OA
ATOM     57  H   UNL     1      29.066  31.340  15.476  1.00  0.00     0.211 HD
ENDBRANCH  55  56
BRANCH  55  58
ATOM     58  C   UNL     1      31.900  32.900  15.266  1.00  0.00     0.154 C 
BRANCH  58  59
ATOM     59  N   UNL     1      31.804  33.972  14.316  1.00  0.00    -0.319 N 
ATOM     60  C   UNL     1      32.616  35.136  14.329  1.00  0.00     0.407 C 
ATOM     61  H   UNL     1      31.108  33.919  13.540  1.00  0.00     0.167 HD
ATOM     62  O   UNL     1      33.487  35.276  15.195  1.00  0.00    -0.225 OA
BRANCH  60  63
ATOM     63  O   UNL     1      32.502  36.176  13.399  1.00  0.00    -0.443 OA
BRANCH  63  64
ATOM     64  C   UNL     1      31.541  37.212  13.609  1.00  0.00     0.294 C 
BRANCH  64  65
ATOM     65  C   UNL     1      30.171  36.799  13.227  1.00  0.00     0.120 A 
ATOM     66  C   UNL     1      29.450  37.391  12.211  1.00  0.00     0.141 A 
ATOM     67  N   UNL     1      29.384  35.847  13.743  1.00  0.00    -0.132 NA
ATOM     68  N   UNL     1      28.244  36.774  12.147  1.00  0.00    -0.226 N 
ATOM     69  N   UNL     1      28.239  35.843  13.089  1.00  0.00    -0.065 NA
BRANCH  68  70
ATOM     70  C   UNL     1      27.150  37.039  11.241  1.00  0.00     0.307 C 
BRANCH  70  71
ATOM     71  O   UNL     1      27.578  37.239   9.957  1.00  0.00    -0.355 OA
BRANCH  71  72
ATOM     72  C   UNL     1      26.507  37.153   9.081  1.00  0.00     0.198 C 
BRANCH  72  73
ATOM     73  C   UNL     1      27.017  37.316   7.674  1.00  0.00    -0.022 A 
ATOM     74  C   UNL     1      27.006  38.583   7.126  1.00  0.00     0.006 A 
ATOM     75  C   UNL     1      27.475  36.236   6.963  1.00  0.00     0.006 A 
ATOM     76  C   UNL     1      27.464  38.772   5.840  1.00  0.00     0.000 A 
ATOM     77  C   UNL     1      27.922  36.448   5.692  1.00  0.00     0.000 A 
ATOM     78  C   UNL     1      27.929  37.703   5.104  1.00  0.00     0.000 A 
ENDBRANCH  72  73
ENDBRANCH  71  72
ENDBRANCH  70  71
ENDBRANCH  68  70
ENDBRANCH  64  65
ENDBRANCH  63  64
ENDBRANCH  60  63
ENDBRANCH  58  59
ENDBRANCH  55  58
ENDBRANCH   1  55
TORSDOF 33
BEGIN_RES LYS A 131
REMARK  4 active torsions:
REMARK  status: ('A' for Active; 'I' for Inactive)
REMARK    1  A    between atoms: CA   and  CB  
REMARK    2  A    between atoms: CB   and  CG  
REMARK    3  A    between atoms: CG   and  CD  
REMARK    4  A    between atoms: CD   and  CE  
ROOT
ATOM      1  CA  LYS A 131      29.867  25.555  16.977  1.00 20.52     0.186 C 
ENDROOT
BRANCH   1   2
ATOM      2  CB  LYS A 131      28.345  25.722  17.026  1.00 20.94     0.034 C 
BRANCH   2   3
ATOM      3  CG  LYS A 131      27.599  24.455  16.638  1.00 22.96     0.005 C 
BRANCH   3   4
ATOM      4  CD  LYS A 131      27.085  23.709  17.838  1.00 24.33     0.041 C 
BRANCH   4   5
ATOM      5  CE  LYS A 131      25.678  24.192  18.173  1.00 26.91     0.338 C 
ATOM      6  NZ  LYS A 131      25.573  24.526  19.613  1.00 27.40     0.618 N 
ENDBRANCH   4   5
ENDBRANCH   3   4
ENDBRANCH   2   3
ENDBRANCH   1   2
END_RES LYS A 131
BEGIN_RES LYS A 135
REMARK  4 active torsions:
REMARK  status: ('A' for Active; 'I' for Inactive)
REMARK    5  A    between atoms: CA   and  CB  
REMARK    6  A    between atoms: CB   and  CG  
REMARK    7  A    between atoms: CG   and  CD  
REMARK    8  A    between atoms: CD   and  CE  
ROOT
ATOM      7  CA  LYS A 135      33.193  34.663   9.290  1.00 25.02     0.186 C 
ENDROOT
BRANCH   7   8
ATOM      8  CB  LYS A 135      32.060  35.360  10.034  1.00 26.63     0.034 C 
BRANCH   8   9
ATOM      9  CG  LYS A 135      30.877  35.687   9.160  1.00 29.45     0.005 C 
BRANCH   9  10
ATOM     10  CD  LYS A 135      30.086  34.429   8.834  1.00 32.00     0.041 C 
BRANCH  10  11
ATOM     11  CE  LYS A 135      29.126  34.097   9.960  1.00 34.25     0.338 C 
ATOM     12  NZ  LYS A 135      27.786  33.722   9.429  1.00 35.99     0.618 N 
ENDBRANCH  10  11
ENDBRANCH   9  10
ENDBRANCH   8   9
ENDBRANCH   7   8
END_RES LYS A 135
