REMARK VINA RESULT:    -4.750      3.550      9.960
REMARK INTER + INTRA:         -24.101
REMARK INTER:                 -13.629
REMARK INTRA:                 -10.472
REMARK UNBOUND:               -12.409
REMARK SMILES CC(=O)N[C@@H]1[C@@H](O)C[C@](OC[C@H]2O[C@@H](O[C@H]3[C@H](O)[C@@H](O)[C@H](OCCN=[N+]=[N-])O[C@@H]3CO)[C@H](O)[C@@H](O)[C@H]2O)(C(=O)O)O[C@H]1C(O)[C@H](O)CNC(=O)OCc1cn(C2c3ccccc3-c3ccccc32)nn1
REMARK SMILES IDX 9 1 8 2 6 3 5 4 42 5 41 6 10 7 11 8 12 9 14 10 13 11 32 12
REMARK SMILES IDX 34 13 36 14 15 15 16 16 29 17 28 18 21 19 17 20 19 21 30 22
REMARK SMILES IDX 31 23 22 25 23 26 24 27 25 28 26 29 27 30 18 31 20 33 33 35
REMARK SMILES IDX 35 37 37 39 38 41 39 42 40 43 7 45 43 47 44 48 45 50 46 51
REMARK SMILES IDX 47 53 48 54 49 55 50 57 51 58 52 59 53 60 54 61 70 62 55 63
REMARK SMILES IDX 69 64 56 65 57 66 68 67 58 68 62 69 63 70 67 71 59 72 61 73
REMARK SMILES IDX 64 74 66 75 60 76 65 77 4 78 2 79 1 81 3 82
REMARK H PARENT 31 24 18 32 20 34 33 36 35 38 37 40 40 44 7 46 44 49 46 52
REMARK H PARENT 48 56 4 80
REMARK Flexibility Score: inf
ROOT
ATOM      1  C   UNL     1      26.940  36.981  13.884  1.00  0.00     0.272 C 
ATOM      2  C   UNL     1      26.021  38.077  14.247  1.00  0.00     0.113 C 
ATOM      3  C   UNL     1      24.931  37.646  15.152  1.00  0.00     0.145 C 
ATOM      4  C   UNL     1      24.662  36.166  15.128  1.00  0.00     0.142 C 
ATOM      5  C   UNL     1      25.028  35.631  13.787  1.00  0.00     0.178 C 
ATOM      6  O   UNL     1      26.296  35.853  13.353  1.00  0.00    -0.332 OA
ENDROOT
BRANCH   1   7
ATOM      7  O   UNL     1      27.736  36.569  14.920  1.00  0.00    -0.338 OA
BRANCH   7   8
ATOM      8  C   UNL     1      28.418  35.396  14.748  1.00  0.00     0.199 C 
BRANCH   8   9
ATOM      9  C   UNL     1      29.672  35.398  15.593  1.00  0.00     0.179 C 
ATOM     10  C   UNL     1      29.557  33.095  16.017  1.00  0.00     0.282 C 
ATOM     11  O   UNL     1      29.576  34.372  16.504  1.00  0.00    -0.341 OA
ATOM     12  C   UNL     1      30.594  32.897  14.980  1.00  0.00     0.202 C 
ATOM     13  C   UNL     1      31.648  33.992  15.232  1.00  0.00     0.179 C 
ATOM     14  C   UNL     1      30.926  35.277  14.770  1.00  0.00     0.177 C 
BRANCH  10  15
ATOM     15  O   UNL     1      28.286  32.668  15.742  1.00  0.00    -0.341 OA
BRANCH  15  16
ATOM     16  C   UNL     1      27.625  32.008  16.743  1.00  0.00     0.184 C 
ATOM     17  C   UNL     1      27.562  32.832  17.974  1.00  0.00     0.178 C 
ATOM     18  O   UNL     1      27.739  32.098  19.143  1.00  0.00    -0.341 OA
ATOM     19  C   UNL     1      27.244  30.836  19.083  1.00  0.00     0.281 C 
ATOM     20  C   UNL     1      28.416  30.717  16.939  1.00  0.00     0.180 C 
ATOM     21  C   UNL     1      28.180  30.009  18.208  1.00  0.00     0.202 C 
BRANCH  17  22
ATOM     22  C   UNL     1      26.241  33.560  18.104  1.00  0.00     0.191 C 
BRANCH  22  23
ATOM     23  O   UNL     1      25.360  33.174  17.066  1.00  0.00    -0.394 OA
ATOM     24  H   UNL     1      24.899  33.988  16.700  1.00  0.00     0.210 HD
ENDBRANCH  22  23
ENDBRANCH  17  22
BRANCH  19  25
ATOM     25  O   UNL     1      25.977  30.689  18.553  1.00  0.00    -0.350 OA
BRANCH  25  26
ATOM     26  C   UNL     1      25.575  29.393  18.397  1.00  0.00     0.169 C 
BRANCH  26  27
ATOM     27  C   UNL     1      24.642  29.111  17.270  1.00  0.00     0.119 C 
BRANCH  27  28
ATOM     28  N   UNL     1      24.247  30.299  16.541  1.00  0.00    -0.092 NA
ATOM     29  N   UNL     1      24.588  30.353  15.353  1.00  0.00     0.001 N 
ATOM     30  N   UNL     1      24.978  30.527  14.193  1.00  0.00    -0.003 NA
ENDBRANCH  27  28
ENDBRANCH  26  27
ENDBRANCH  25  26
ENDBRANCH  19  25
BRANCH  20  31
ATOM     31  O   UNL     1      28.107  29.825  15.878  1.00  0.00    -0.387 OA
ATOM     32  H   UNL     1      27.503  29.109  16.198  1.00  0.00     0.211 HD
ENDBRANCH  20  31
BRANCH  21  33
ATOM     33  O   UNL     1      29.378  29.870  18.922  1.00  0.00    -0.385 OA
ATOM     34  H   UNL     1      29.908  29.085  18.627  1.00  0.00     0.211 HD
ENDBRANCH  21  33
ENDBRANCH  15  16
ENDBRANCH  10  15
BRANCH  12  35
ATOM     35  O   UNL     1      31.289  31.695  15.108  1.00  0.00    -0.385 OA
ATOM     36  H   UNL     1      31.822  31.730  15.937  1.00  0.00     0.211 HD
ENDBRANCH  12  35
BRANCH  13  37
ATOM     37  O   UNL     1      32.746  33.837  14.420  1.00  0.00    -0.387 OA
ATOM     38  H   UNL     1      32.498  33.253  13.663  1.00  0.00     0.211 HD
ENDBRANCH  13  37
BRANCH  14  39
ATOM     39  O   UNL     1      30.588  35.056  13.449  1.00  0.00    -0.387 OA
ATOM     40  H   UNL     1      29.716  35.453  13.202  1.00  0.00     0.211 HD
ENDBRANCH  14  39
ENDBRANCH   8   9
ENDBRANCH   7   8
ENDBRANCH   1   7
BRANCH   1  41
ATOM     41  C   UNL     1      27.825  37.410  12.714  1.00  0.00     0.364 C 
ATOM     42  O   UNL     1      28.554  38.393  12.877  1.00  0.00    -0.246 OA
BRANCH  41  43
ATOM     43  O   UNL     1      27.819  36.733  11.519  1.00  0.00    -0.477 OA
ATOM     44  H   UNL     1      28.579  36.091  11.263  1.00  0.00     0.296 HD
ENDBRANCH  41  43
ENDBRANCH   1  41
BRANCH   3  45
ATOM     45  O   UNL     1      25.070  38.057  16.479  1.00  0.00    -0.391 OA
ATOM     46  H   UNL     1      25.101  39.019  16.583  1.00  0.00     0.211 HD
ENDBRANCH   3  45
BRANCH   5  47
ATOM     47  C   UNL     1      24.766  34.127  13.776  1.00  0.00     0.176 C 
BRANCH  47  48
ATOM     48  O   UNL     1      25.890  33.465  14.198  1.00  0.00    -0.388 OA
ATOM     49  H   UNL     1      25.703  32.908  15.013  1.00  0.00     0.211 HD
ENDBRANCH  47  48
BRANCH  47  50
ATOM     50  C   UNL     1      24.362  33.731  12.388  1.00  0.00     0.165 C 
BRANCH  50  51
ATOM     51  O   UNL     1      24.865  34.667  11.468  1.00  0.00    -0.388 OA
ATOM     52  H   UNL     1      25.318  35.404  11.935  1.00  0.00     0.211 HD
ENDBRANCH  50  51
BRANCH  50  53
ATOM     53  C   UNL     1      22.838  33.881  12.312  1.00  0.00     0.154 C 
BRANCH  53  54
ATOM     54  N   UNL     1      22.535  34.763  11.226  1.00  0.00    -0.319 N 
ATOM     55  C   UNL     1      22.028  36.057  11.468  1.00  0.00     0.407 C 
ATOM     56  H   UNL     1      22.693  34.446  10.240  1.00  0.00     0.167 HD
ATOM     57  O   UNL     1      21.817  36.468  12.638  1.00  0.00    -0.225 OA
BRANCH  55  58
ATOM     58  O   UNL     1      21.742  36.932  10.440  1.00  0.00    -0.443 OA
BRANCH  58  59
ATOM     59  C   UNL     1      22.433  38.158  10.254  1.00  0.00     0.294 C 
BRANCH  59  60
ATOM     60  C   UNL     1      23.799  37.828   9.775  1.00  0.00     0.120 A 
ATOM     61  C   UNL     1      24.162  37.156   8.616  1.00  0.00     0.139 A 
ATOM     62  N   UNL     1      24.954  38.130  10.387  1.00  0.00    -0.132 NA
ATOM     63  N   UNL     1      25.501  37.072   8.559  1.00  0.00    -0.240 N 
ATOM     64  N   UNL     1      25.952  37.673   9.649  1.00  0.00    -0.066 NA
BRANCH  63  65
ATOM     65  C   UNL     1      26.296  36.443   7.503  1.00  0.00     0.170 C 
ATOM     66  C   UNL     1      27.243  35.519   8.133  1.00  0.00    -0.011 A 
ATOM     67  C   UNL     1      27.157  37.441   6.843  1.00  0.00    -0.011 A 
ATOM     68  C   UNL     1      27.054  34.373   8.896  1.00  0.00     0.007 A 
ATOM     69  C   UNL     1      28.535  35.903   7.892  1.00  0.00    -0.012 A 
ATOM     70  C   UNL     1      28.471  37.116   7.079  1.00  0.00    -0.012 A 
ATOM     71  C   UNL     1      26.881  38.562   6.082  1.00  0.00     0.007 A 
ATOM     72  C   UNL     1      28.130  33.665   9.382  1.00  0.00     0.000 A 
ATOM     73  C   UNL     1      29.617  35.189   8.384  1.00  0.00     0.009 A 
ATOM     74  C   UNL     1      29.496  37.883   6.573  1.00  0.00     0.009 A 
ATOM     75  C   UNL     1      27.890  39.343   5.567  1.00  0.00     0.000 A 
ATOM     76  C   UNL     1      29.439  34.054   9.139  1.00  0.00     0.001 A 
ATOM     77  C   UNL     1      29.203  39.002   5.813  1.00  0.00     0.001 A 
ENDBRANCH  63  65
ENDBRANCH  59  60
ENDBRANCH  58  59
ENDBRANCH  55  58
ENDBRANCH  53  54
ENDBRANCH  50  53
ENDBRANCH  47  50
ENDBRANCH   5  47
BRANCH   4  78
ATOM     78  N   UNL     1      23.199  36.013  15.244  1.00  0.00    -0.348 N 
ATOM     79  C   UNL     1      22.582  35.669  16.474  1.00  0.00     0.217 C 
ATOM     80  H   UNL     1      22.635  36.161  14.396  1.00  0.00     0.163 HD
ATOM     81  C   UNL     1      21.096  35.517  16.576  1.00  0.00     0.114 C 
ATOM     82  O   UNL     1      23.324  35.498  17.481  1.00  0.00    -0.275 OA
ENDBRANCH   4  78
TORSDOF 30
BEGIN_RES LYS A 131
REMARK  4 active torsions:
REMARK  status: ('A' for Active; 'I' for Inactive)
REMARK    1  A    between atoms: CA   and  CB  
REMARK    2  A    between atoms: CB   and  CG  
REMARK    3  A    between atoms: CG   and  CD  
REMARK    4  A    between atoms: CD   and  CE  
ROOT
ATOM      1  CA  LYS A 131      29.867  25.555  16.977  1.00 20.52     0.186 C 
ENDROOT
BRANCH   1   2
ATOM      2  CB  LYS A 131      28.345  25.722  17.026  1.00 20.94     0.034 C 
BRANCH   2   3
ATOM      3  CG  LYS A 131      27.608  24.396  17.140  1.00 22.96     0.005 C 
BRANCH   3   4
ATOM      4  CD  LYS A 131      26.116  24.578  17.168  1.00 24.33     0.041 C 
BRANCH   4   5
ATOM      5  CE  LYS A 131      25.750  25.616  18.224  1.00 26.91     0.338 C 
ATOM      6  NZ  LYS A 131      25.699  24.994  19.568  1.00 27.40     0.618 N 
ENDBRANCH   4   5
ENDBRANCH   3   4
ENDBRANCH   2   3
ENDBRANCH   1   2
END_RES LYS A 131
BEGIN_RES LYS A 135
REMARK  4 active torsions:
REMARK  status: ('A' for Active; 'I' for Inactive)
REMARK    5  A    between atoms: CA   and  CB  
REMARK    6  A    between atoms: CB   and  CG  
REMARK    7  A    between atoms: CG   and  CD  
REMARK    8  A    between atoms: CD   and  CE  
ROOT
ATOM      7  CA  LYS A 135      33.193  34.663   9.290  1.00 25.02     0.186 C 
ENDROOT
BRANCH   7   8
ATOM      8  CB  LYS A 135      32.060  35.360  10.034  1.00 26.63     0.034 C 
BRANCH   8   9
ATOM      9  CG  LYS A 135      32.532  36.428  10.987  1.00 29.45     0.005 C 
BRANCH   9  10
ATOM     10  CD  LYS A 135      31.453  37.479  11.192  1.00 32.00     0.041 C 
BRANCH  10  11
ATOM     11  CE  LYS A 135      31.156  38.199   9.891  1.00 34.25     0.338 C 
ATOM     12  NZ  LYS A 135      32.303  39.054   9.477  1.00 35.99     0.618 N 
ENDBRANCH  10  11
ENDBRANCH   9  10
ENDBRANCH   8   9
ENDBRANCH   7   8
END_RES LYS A 135
