REMARK VINA RESULT:    -5.361      3.651      7.997
REMARK INTER + INTRA:         -24.595
REMARK INTER:                 -11.528
REMARK INTRA:                 -13.067
REMARK UNBOUND:               -10.617
REMARK SMILES CC(=O)N[C@@H]1[C@@H](O)C[C@](OC[C@H]2O[C@@H](O[C@H]3[C@H](O)[C@@H](O)[C@H](OCCN=[N+]=[N-])O[C@@H]3CO)[C@H](O)[C@@H](O)[C@H]2O)(C(=O)O)O[C@H]1C(O)[C@H](O)CNC(=O)OCc1cn(-c2ccc(S(=O)(=O)c3ccc(N)cc3)cc2)nn1
REMARK SMILES IDX 43 1 42 2 9 3 8 4 41 5 6 6 5 7 10 8 11 9 12 10 14 11 13 12
REMARK SMILES IDX 32 13 34 14 36 15 15 16 16 17 29 18 28 19 21 20 17 21 19 22
REMARK SMILES IDX 30 23 31 24 22 26 23 27 24 28 25 29 26 30 27 31 18 32 20 34
REMARK SMILES IDX 33 36 35 38 37 40 38 42 39 43 40 44 7 46 4 48 2 49 1 51 3 52
REMARK SMILES IDX 44 53 45 55 46 56 47 58 48 59 49 60 50 62 51 63 52 64 53 65
REMARK SMILES IDX 54 66 73 67 55 68 72 69 56 70 57 71 71 72 58 73 70 74 59 75
REMARK SMILES IDX 60 76 61 77 62 78 63 79 64 80 69 81 65 82 68 83 66 84 67 85
REMARK H PARENT 31 25 18 33 20 35 33 37 35 39 37 41 40 45 7 47 4 50 44 54
REMARK H PARENT 46 57 48 61 67 86 67 87
REMARK Flexibility Score: inf
ROOT
ATOM      1  C   UNL     1      21.771  35.248  13.807  1.00  0.00     0.176 C 
ENDROOT
BRANCH   1   2
ATOM      2  C   UNL     1      23.068  35.395  13.011  1.00  0.00     0.178 C 
ATOM      3  C   UNL     1      25.374  35.437  13.190  1.00  0.00     0.272 C 
ATOM      4  C   UNL     1      25.439  36.621  12.281  1.00  0.00     0.113 C 
ATOM      5  O   UNL     1      24.136  35.390  13.856  1.00  0.00    -0.332 OA
ATOM      6  C   UNL     1      24.212  37.485  12.524  1.00  0.00     0.145 C 
ATOM      7  C   UNL     1      22.998  36.689  12.184  1.00  0.00     0.142 C 
BRANCH   3   8
ATOM      8  O   UNL     1      26.314  35.434  14.223  1.00  0.00    -0.338 OA
BRANCH   8   9
ATOM      9  C   UNL     1      27.334  36.332  14.118  1.00  0.00     0.199 C 
BRANCH   9  10
ATOM     10  C   UNL     1      28.636  35.660  14.491  1.00  0.00     0.179 C 
ATOM     11  C   UNL     1      29.541  33.873  15.587  1.00  0.00     0.282 C 
ATOM     12  O   UNL     1      28.333  34.435  15.096  1.00  0.00    -0.341 OA
ATOM     13  C   UNL     1      30.291  33.417  14.368  1.00  0.00     0.202 C 
ATOM     14  C   UNL     1      30.711  34.630  13.570  1.00  0.00     0.179 C 
ATOM     15  C   UNL     1      29.490  35.487  13.283  1.00  0.00     0.177 C 
BRANCH  11  16
ATOM     16  O   UNL     1      29.210  32.889  16.481  1.00  0.00    -0.341 OA
BRANCH  16  17
ATOM     17  C   UNL     1      27.921  32.374  16.207  1.00  0.00     0.184 C 
ATOM     18  C   UNL     1      27.123  32.439  17.470  1.00  0.00     0.178 C 
ATOM     19  O   UNL     1      26.537  31.264  17.858  1.00  0.00    -0.341 OA
ATOM     20  C   UNL     1      27.324  30.151  17.907  1.00  0.00     0.281 C 
ATOM     21  C   UNL     1      28.172  30.936  15.772  1.00  0.00     0.180 C 
ATOM     22  C   UNL     1      28.560  30.199  17.038  1.00  0.00     0.202 C 
BRANCH  18  23
ATOM     23  C   UNL     1      25.960  33.407  17.179  1.00  0.00     0.191 C 
BRANCH  23  24
ATOM     24  O   UNL     1      25.443  33.252  15.917  1.00  0.00    -0.394 OA
ATOM     25  H   UNL     1      24.730  33.895  15.679  1.00  0.00     0.210 HD
ENDBRANCH  23  24
ENDBRANCH  18  23
BRANCH  20  26
ATOM     26  O   UNL     1      26.564  29.077  17.457  1.00  0.00    -0.350 OA
BRANCH  26  27
ATOM     27  C   UNL     1      27.060  27.839  17.761  1.00  0.00     0.169 C 
BRANCH  27  28
ATOM     28  C   UNL     1      26.550  27.361  19.079  1.00  0.00     0.119 C 
BRANCH  28  29
ATOM     29  N   UNL     1      27.672  27.240  20.026  1.00  0.00    -0.092 NA
ATOM     30  N   UNL     1      27.499  27.381  21.235  1.00  0.00     0.001 N 
ATOM     31  N   UNL     1      27.288  27.081  22.423  1.00  0.00    -0.003 NA
ENDBRANCH  28  29
ENDBRANCH  27  28
ENDBRANCH  26  27
ENDBRANCH  20  26
BRANCH  21  32
ATOM     32  O   UNL     1      27.021  30.383  15.264  1.00  0.00    -0.387 OA
ATOM     33  H   UNL     1      26.415  30.097  16.000  1.00  0.00     0.211 HD
ENDBRANCH  21  32
BRANCH  22  34
ATOM     34  O   UNL     1      29.651  30.755  17.664  1.00  0.00    -0.385 OA
ATOM     35  H   UNL     1      29.789  30.407  18.584  1.00  0.00     0.211 HD
ENDBRANCH  22  34
ENDBRANCH  16  17
ENDBRANCH  11  16
BRANCH  13  36
ATOM     36  O   UNL     1      31.379  32.606  14.682  1.00  0.00    -0.385 OA
ATOM     37  H   UNL     1      32.132  32.896  14.075  1.00  0.00     0.211 HD
ENDBRANCH  13  36
BRANCH  14  38
ATOM     38  O   UNL     1      31.169  34.196  12.318  1.00  0.00    -0.387 OA
ATOM     39  H   UNL     1      30.435  34.178  11.677  1.00  0.00     0.211 HD
ENDBRANCH  14  38
BRANCH  15  40
ATOM     40  O   UNL     1      28.774  34.983  12.206  1.00  0.00    -0.387 OA
ATOM     41  H   UNL     1      27.806  35.043  12.382  1.00  0.00     0.211 HD
ENDBRANCH  15  40
ENDBRANCH   9  10
ENDBRANCH   8   9
ENDBRANCH   3   8
BRANCH   3  42
ATOM     42  C   UNL     1      25.533  34.138  12.484  1.00  0.00     0.364 C 
ATOM     43  O   UNL     1      25.104  33.032  12.891  1.00  0.00    -0.246 OA
BRANCH  42  44
ATOM     44  O   UNL     1      26.207  34.112  11.275  1.00  0.00    -0.477 OA
ATOM     45  H   UNL     1      27.143  34.534  11.169  1.00  0.00     0.296 HD
ENDBRANCH  42  44
ENDBRANCH   3  42
BRANCH   6  46
ATOM     46  O   UNL     1      24.185  37.733  13.900  1.00  0.00    -0.391 OA
ATOM     47  H   UNL     1      24.808  37.135  14.396  1.00  0.00     0.211 HD
ENDBRANCH   6  46
BRANCH   7  48
ATOM     48  N   UNL     1      22.832  36.376  10.800  1.00  0.00    -0.348 N 
ATOM     49  C   UNL     1      21.672  36.690  10.038  1.00  0.00     0.217 C 
ATOM     50  H   UNL     1      23.609  35.885  10.294  1.00  0.00     0.163 HD
ATOM     51  C   UNL     1      21.619  36.313   8.604  1.00  0.00     0.114 C 
ATOM     52  O   UNL     1      20.742  37.274  10.610  1.00  0.00    -0.275 OA
ENDBRANCH   7  48
ENDBRANCH   1   2
BRANCH   1  53
ATOM     53  O   UNL     1      20.751  35.994  13.240  1.00  0.00    -0.388 OA
ATOM     54  H   UNL     1      19.967  36.039  13.864  1.00  0.00     0.211 HD
ENDBRANCH   1  53
BRANCH   1  55
ATOM     55  C   UNL     1      21.420  33.834  14.071  1.00  0.00     0.165 C 
BRANCH  55  56
ATOM     56  O   UNL     1      22.488  33.151  14.657  1.00  0.00    -0.388 OA
ATOM     57  H   UNL     1      23.045  32.667  14.027  1.00  0.00     0.211 HD
ENDBRANCH  55  56
BRANCH  55  58
ATOM     58  C   UNL     1      21.115  33.094  12.786  1.00  0.00     0.154 C 
BRANCH  58  59
ATOM     59  N   UNL     1      22.039  32.032  12.500  1.00  0.00    -0.319 N 
ATOM     60  C   UNL     1      21.551  30.703  12.438  1.00  0.00     0.407 C 
ATOM     61  H   UNL     1      23.042  32.214  12.340  1.00  0.00     0.167 HD
ATOM     62  O   UNL     1      20.316  30.503  12.626  1.00  0.00    -0.225 OA
BRANCH  60  63
ATOM     63  O   UNL     1      22.329  29.596  12.186  1.00  0.00    -0.443 OA
BRANCH  63  64
ATOM     64  C   UNL     1      23.647  29.424  12.660  1.00  0.00     0.294 C 
BRANCH  64  65
ATOM     65  C   UNL     1      23.645  29.590  14.134  1.00  0.00     0.121 A 
ATOM     66  C   UNL     1      23.345  28.688  15.134  1.00  0.00     0.144 A 
ATOM     67  N   UNL     1      23.983  30.740  14.799  1.00  0.00    -0.131 NA
ATOM     68  N   UNL     1      23.506  29.300  16.348  1.00  0.00    -0.220 N 
ATOM     69  N   UNL     1      23.888  30.526  16.093  1.00  0.00    -0.062 NA
BRANCH  68  70
ATOM     70  C   UNL     1      23.323  28.745  17.633  1.00  0.00     0.066 A 
ATOM     71  C   UNL     1      23.519  29.523  18.777  1.00  0.00     0.030 A 
ATOM     72  C   UNL     1      22.952  27.441  17.842  1.00  0.00     0.030 A 
ATOM     73  C   UNL     1      23.354  29.031  20.048  1.00  0.00     0.023 A 
ATOM     74  C   UNL     1      22.783  26.933  19.132  1.00  0.00     0.023 A 
ATOM     75  C   UNL     1      22.982  27.720  20.245  1.00  0.00     0.072 A 
BRANCH  75  76
ATOM     76  S   UNL     1      22.764  27.083  21.861  1.00  0.00     0.206 S 
ATOM     77  O   UNL     1      21.276  27.064  22.170  1.00  0.00    -0.219 OA
ATOM     78  O   UNL     1      23.530  27.836  22.895  1.00  0.00    -0.219 OA
BRANCH  76  79
ATOM     79  C   UNL     1      23.264  25.391  21.872  1.00  0.00     0.072 A 
ATOM     80  C   UNL     1      24.482  25.026  21.366  1.00  0.00     0.023 A 
ATOM     81  C   UNL     1      22.439  24.418  22.387  1.00  0.00     0.023 A 
ATOM     82  C   UNL     1      24.858  23.714  21.377  1.00  0.00     0.027 A 
ATOM     83  C   UNL     1      22.829  23.103  22.391  1.00  0.00     0.027 A 
ATOM     84  C   UNL     1      24.039  22.710  21.892  1.00  0.00     0.031 A 
BRANCH  84  85
ATOM     85  N   UNL     1      24.466  21.365  21.883  1.00  0.00    -0.399 N 
ATOM     86  H   UNL     1      24.271  20.747  21.082  1.00  0.00     0.156 HD
ATOM     87  H   UNL     1      24.986  20.988  22.694  1.00  0.00     0.156 HD
ENDBRANCH  84  85
ENDBRANCH  76  79
ENDBRANCH  75  76
ENDBRANCH  68  70
ENDBRANCH  64  65
ENDBRANCH  63  64
ENDBRANCH  60  63
ENDBRANCH  58  59
ENDBRANCH  55  58
ENDBRANCH   1  55
TORSDOF 33
BEGIN_RES LYS A 131
REMARK  4 active torsions:
REMARK  status: ('A' for Active; 'I' for Inactive)
REMARK    1  A    between atoms: CA   and  CB  
REMARK    2  A    between atoms: CB   and  CG  
REMARK    3  A    between atoms: CG   and  CD  
REMARK    4  A    between atoms: CD   and  CE  
ROOT
ATOM      1  CA  LYS A 131      29.867  25.555  16.977  1.00 20.52     0.186 C 
ENDROOT
BRANCH   1   2
ATOM      2  CB  LYS A 131      28.345  25.722  17.026  1.00 20.94     0.034 C 
BRANCH   2   3
ATOM      3  CG  LYS A 131      27.599  24.423  16.760  1.00 22.96     0.005 C 
BRANCH   3   4
ATOM      4  CD  LYS A 131      26.926  23.894  17.995  1.00 24.33     0.041 C 
BRANCH   4   5
ATOM      5  CE  LYS A 131      25.554  23.337  17.628  1.00 26.91     0.338 C 
ATOM      6  NZ  LYS A 131      24.732  24.377  16.965  1.00 27.40     0.618 N 
ENDBRANCH   4   5
ENDBRANCH   3   4
ENDBRANCH   2   3
ENDBRANCH   1   2
END_RES LYS A 131
BEGIN_RES LYS A 135
REMARK  4 active torsions:
REMARK  status: ('A' for Active; 'I' for Inactive)
REMARK    5  A    between atoms: CA   and  CB  
REMARK    6  A    between atoms: CB   and  CG  
REMARK    7  A    between atoms: CG   and  CD  
REMARK    8  A    between atoms: CD   and  CE  
ROOT
ATOM      7  CA  LYS A 135      33.193  34.663   9.290  1.00 25.02     0.186 C 
ENDROOT
BRANCH   7   8
ATOM      8  CB  LYS A 135      32.060  35.360  10.034  1.00 26.63     0.034 C 
BRANCH   8   9
ATOM      9  CG  LYS A 135      30.902  35.740   9.148  1.00 29.45     0.005 C 
BRANCH   9  10
ATOM     10  CD  LYS A 135      30.363  34.521   8.416  1.00 32.00     0.041 C 
BRANCH  10  11
ATOM     11  CE  LYS A 135      29.055  34.065   9.033  1.00 34.25     0.338 C 
ATOM     12  NZ  LYS A 135      27.889  34.587   8.266  1.00 35.99     0.618 N 
ENDBRANCH  10  11
ENDBRANCH   9  10
ENDBRANCH   8   9
ENDBRANCH   7   8
END_RES LYS A 135
