REMARK VINA RESULT:    -3.389      2.898      9.870
REMARK INTER + INTRA:         -22.818
REMARK INTER:                 -12.384
REMARK INTRA:                 -10.434
REMARK UNBOUND:               -13.881
REMARK SMILES CCOC(=O)c1cccc(-n2cc(COC(=O)NC[C@@H](O)C(O)[C@@H]3O[C@@](OC[C@H]4O[C@@H](O[C@H]5[C@H](O)[C@@H](O)[C@H](OCCN=[N+]=[N-])O[C@@H]5CO)[C@H](O)[C@@H](O)[C@H]4O)(C(=O)O)C[C@H](O)[C@H]3NC(C)=O)nn2)c1
REMARK SMILES IDX 22 1 24 2 26 3 58 4 25 5 59 6 61 7 27 8 28 9 29 10 31 11
REMARK SMILES IDX 30 12 49 13 51 14 53 15 32 16 33 17 46 18 45 19 38 20 34 21
REMARK SMILES IDX 36 22 47 23 48 24 39 26 40 27 41 28 42 29 43 30 44 31 35 32
REMARK SMILES IDX 37 34 50 36 52 38 54 40 55 42 56 43 57 44 60 46 62 48 63 49
REMARK SMILES IDX 64 51 65 52 23 53 20 55 21 56 19 58 18 59 16 60 17 62 15 63
REMARK SMILES IDX 14 64 13 65 12 66 66 67 11 68 67 69 10 70 68 71 9 72 6 73
REMARK SMILES IDX 8 74 7 75 4 76 5 77 3 78 2 79 1 80
REMARK H PARENT 48 25 35 33 37 35 50 37 52 39 54 41 57 45 60 47 62 50 23 54
REMARK H PARENT 21 57 18 61
REMARK Flexibility Score: inf
ROOT
ATOM      1  C   UNL     1      27.956  35.530  14.759  1.00  0.00     0.176 C 
ENDROOT
BRANCH   1   2
ATOM      2  C   UNL     1      29.372  35.910  14.633  1.00  0.00     0.178 C 
ATOM      3  C   UNL     1      30.617  37.294  13.175  1.00  0.00     0.272 C 
ATOM      4  C   UNL     1      31.676  36.820  14.117  1.00  0.00     0.113 C 
ATOM      5  O   UNL     1      29.597  36.283  13.305  1.00  0.00    -0.332 OA
ATOM      6  C   UNL     1      31.712  35.309  14.277  1.00  0.00     0.145 C 
ATOM      7  C   UNL     1      30.392  34.894  15.008  1.00  0.00     0.142 C 
BRANCH   3   8
ATOM      8  O   UNL     1      31.045  37.200  11.888  1.00  0.00    -0.338 OA
BRANCH   8   9
ATOM      9  C   UNL     1      31.870  38.009  11.271  1.00  0.00     0.199 C 
BRANCH   9  10
ATOM     10  C   UNL     1      31.789  38.495   9.887  1.00  0.00     0.179 C 
ATOM     11  C   UNL     1      30.456  38.519   7.965  1.00  0.00     0.282 C 
ATOM     12  O   UNL     1      30.868  37.850   9.141  1.00  0.00    -0.341 OA
ATOM     13  C   UNL     1      31.414  39.608   7.593  1.00  0.00     0.202 C 
ATOM     14  C   UNL     1      31.643  40.601   8.686  1.00  0.00     0.179 C 
ATOM     15  C   UNL     1      31.322  39.981  10.002  1.00  0.00     0.177 C 
BRANCH  11  16
ATOM     16  O   UNL     1      29.167  38.896   8.202  1.00  0.00    -0.341 OA
BRANCH  16  17
ATOM     17  C   UNL     1      28.191  37.961   8.222  1.00  0.00     0.184 C 
ATOM     18  C   UNL     1      27.166  38.315   7.177  1.00  0.00     0.178 C 
ATOM     19  O   UNL     1      26.153  37.357   7.111  1.00  0.00    -0.341 OA
ATOM     20  C   UNL     1      25.398  37.450   8.313  1.00  0.00     0.281 C 
ATOM     21  C   UNL     1      27.446  37.913   9.567  1.00  0.00     0.180 C 
ATOM     22  C   UNL     1      26.303  36.916   9.389  1.00  0.00     0.202 C 
BRANCH  18  23
ATOM     23  C   UNL     1      27.795  38.431   5.818  1.00  0.00     0.191 C 
BRANCH  23  24
ATOM     24  O   UNL     1      26.973  39.210   4.963  1.00  0.00    -0.394 OA
ATOM     25  H   UNL     1      27.012  38.858   4.037  1.00  0.00     0.210 HD
ENDBRANCH  23  24
ENDBRANCH  18  23
BRANCH  20  26
ATOM     26  O   UNL     1      24.245  36.742   8.137  1.00  0.00    -0.350 OA
BRANCH  26  27
ATOM     27  C   UNL     1      23.113  37.538   8.235  1.00  0.00     0.169 C 
BRANCH  27  28
ATOM     28  C   UNL     1      21.862  36.769   8.540  1.00  0.00     0.119 C 
BRANCH  28  29
ATOM     29  N   UNL     1      21.749  36.597   9.994  1.00  0.00    -0.092 NA
ATOM     30  N   UNL     1      22.361  35.651  10.507  1.00  0.00     0.001 N 
ATOM     31  N   UNL     1      23.100  34.912  11.188  1.00  0.00    -0.003 NA
ENDBRANCH  28  29
ENDBRANCH  27  28
ENDBRANCH  26  27
ENDBRANCH  20  26
BRANCH  21  32
ATOM     32  O   UNL     1      28.246  37.375  10.564  1.00  0.00    -0.387 OA
ATOM     33  H   UNL     1      27.733  36.649  10.994  1.00  0.00     0.211 HD
ENDBRANCH  21  32
BRANCH  22  34
ATOM     34  O   UNL     1      25.629  36.713  10.589  1.00  0.00    -0.385 OA
ATOM     35  H   UNL     1      25.760  37.463  11.245  1.00  0.00     0.211 HD
ENDBRANCH  22  34
ENDBRANCH  16  17
ENDBRANCH  11  16
BRANCH  13  36
ATOM     36  O   UNL     1      32.612  39.027   7.134  1.00  0.00    -0.385 OA
ATOM     37  H   UNL     1      32.872  38.240   7.664  1.00  0.00     0.211 HD
ENDBRANCH  13  36
BRANCH  14  38
ATOM     38  O   UNL     1      31.070  41.829   8.450  1.00  0.00    -0.387 OA
ATOM     39  H   UNL     1      31.671  42.513   8.850  1.00  0.00     0.211 HD
ENDBRANCH  14  38
BRANCH  15  40
ATOM     40  O   UNL     1      30.008  40.077  10.335  1.00  0.00    -0.387 OA
ATOM     41  H   UNL     1      29.831  39.549  11.153  1.00  0.00     0.211 HD
ENDBRANCH  15  40
ENDBRANCH   9  10
ENDBRANCH   8   9
ENDBRANCH   3   8
BRANCH   3  42
ATOM     42  C   UNL     1      29.991  38.567  13.499  1.00  0.00     0.364 C 
ATOM     43  O   UNL     1      30.442  39.334  14.364  1.00  0.00    -0.246 OA
BRANCH  42  44
ATOM     44  O   UNL     1      28.835  38.977  12.833  1.00  0.00    -0.477 OA
ATOM     45  H   UNL     1      28.013  39.306  13.296  1.00  0.00     0.296 HD
ENDBRANCH  42  44
ENDBRANCH   3  42
BRANCH   6  46
ATOM     46  O   UNL     1      31.651  34.737  13.031  1.00  0.00    -0.391 OA
ATOM     47  H   UNL     1      32.547  34.755  12.616  1.00  0.00     0.211 HD
ENDBRANCH   6  46
BRANCH   7  48
ATOM     48  N   UNL     1      30.706  34.889  16.417  1.00  0.00    -0.348 N 
ATOM     49  C   UNL     1      31.196  33.741  17.122  1.00  0.00     0.217 C 
ATOM     50  H   UNL     1      30.592  35.757  17.022  1.00  0.00     0.163 HD
ATOM     51  C   UNL     1      31.509  33.772  18.575  1.00  0.00     0.114 C 
ATOM     52  O   UNL     1      31.370  32.668  16.508  1.00  0.00    -0.275 OA
ENDBRANCH   7  48
ENDBRANCH   1   2
BRANCH   1  53
ATOM     53  O   UNL     1      27.290  36.001  15.858  1.00  0.00    -0.388 OA
ATOM     54  H   UNL     1      26.559  36.621  15.626  1.00  0.00     0.211 HD
ENDBRANCH   1  53
BRANCH   1  55
ATOM     55  C   UNL     1      27.109  35.632  13.516  1.00  0.00     0.165 C 
BRANCH  55  56
ATOM     56  O   UNL     1      26.837  36.971  13.215  1.00  0.00    -0.388 OA
ATOM     57  H   UNL     1      27.007  37.147  12.254  1.00  0.00     0.211 HD
ENDBRANCH  55  56
BRANCH  55  58
ATOM     58  C   UNL     1      25.917  34.724  13.491  1.00  0.00     0.154 C 
BRANCH  58  59
ATOM     59  N   UNL     1      26.026  33.651  14.452  1.00  0.00    -0.319 N 
ATOM     60  C   UNL     1      25.213  32.499  14.365  1.00  0.00     0.407 C 
ATOM     61  H   UNL     1      26.731  33.710  15.250  1.00  0.00     0.167 HD
ATOM     62  O   UNL     1      24.353  32.286  13.481  1.00  0.00    -0.225 OA
BRANCH  60  63
ATOM     63  O   UNL     1      25.330  31.477  15.327  1.00  0.00    -0.443 OA
BRANCH  63  64
ATOM     64  C   UNL     1      26.454  30.671  15.503  1.00  0.00     0.294 C 
BRANCH  64  65
ATOM     65  C   UNL     1      26.780  30.312  16.890  1.00  0.00     0.121 A 
ATOM     66  C   UNL     1      28.035  30.392  17.484  1.00  0.00     0.144 A 
ATOM     67  N   UNL     1      25.957  29.853  17.824  1.00  0.00    -0.131 NA
ATOM     68  N   UNL     1      27.911  29.976  18.744  1.00  0.00    -0.220 N 
ATOM     69  N   UNL     1      26.653  29.653  18.942  1.00  0.00    -0.062 NA
BRANCH  68  70
ATOM     70  C   UNL     1      28.952  29.904  19.694  1.00  0.00     0.067 A 
ATOM     71  C   UNL     1      28.803  29.206  20.890  1.00  0.00     0.044 A 
ATOM     72  C   UNL     1      30.165  30.505  19.484  1.00  0.00     0.028 A 
ATOM     73  C   UNL     1      29.787  29.098  21.835  1.00  0.00     0.062 A 
ATOM     74  C   UNL     1      31.187  30.418  20.417  1.00  0.00     0.003 A 
ATOM     75  C   UNL     1      31.005  29.721  21.588  1.00  0.00     0.016 A 
BRANCH  73  76
ATOM     76  C   UNL     1      29.563  28.359  23.059  1.00  0.00     0.338 C 
ATOM     77  O   UNL     1      29.569  28.961  24.150  1.00  0.00    -0.246 OA
BRANCH  76  78
ATOM     78  O   UNL     1      29.344  27.006  23.017  1.00  0.00    -0.462 OA
BRANCH  78  79
ATOM     79  C   UNL     1      28.329  26.346  23.736  1.00  0.00     0.230 C 
ATOM     80  C   UNL     1      26.976  26.685  23.149  1.00  0.00     0.049 C 
ENDBRANCH  78  79
ENDBRANCH  76  78
ENDBRANCH  73  76
ENDBRANCH  68  70
ENDBRANCH  64  65
ENDBRANCH  63  64
ENDBRANCH  60  63
ENDBRANCH  58  59
ENDBRANCH  55  58
ENDBRANCH   1  55
TORSDOF 33
BEGIN_RES LYS A 131
REMARK  4 active torsions:
REMARK  status: ('A' for Active; 'I' for Inactive)
REMARK    1  A    between atoms: CA   and  CB  
REMARK    2  A    between atoms: CB   and  CG  
REMARK    3  A    between atoms: CG   and  CD  
REMARK    4  A    between atoms: CD   and  CE  
ROOT
ATOM      1  CA  LYS A 131      29.867  25.555  16.977  1.00 20.52     0.186 C 
ENDROOT
BRANCH   1   2
ATOM      2  CB  LYS A 131      28.345  25.722  17.026  1.00 20.94     0.034 C 
BRANCH   2   3
ATOM      3  CG  LYS A 131      27.599  24.475  16.576  1.00 22.96     0.005 C 
BRANCH   3   4
ATOM      4  CD  LYS A 131      27.270  23.566  17.728  1.00 24.33     0.041 C 
BRANCH   4   5
ATOM      5  CE  LYS A 131      25.757  23.502  17.910  1.00 26.91     0.338 C 
ATOM      6  NZ  LYS A 131      25.079  24.385  16.931  1.00 27.40     0.618 N 
ENDBRANCH   4   5
ENDBRANCH   3   4
ENDBRANCH   2   3
ENDBRANCH   1   2
END_RES LYS A 131
BEGIN_RES LYS A 135
REMARK  4 active torsions:
REMARK  status: ('A' for Active; 'I' for Inactive)
REMARK    5  A    between atoms: CA   and  CB  
REMARK    6  A    between atoms: CB   and  CG  
REMARK    7  A    between atoms: CG   and  CD  
REMARK    8  A    between atoms: CD   and  CE  
ROOT
ATOM      7  CA  LYS A 135      33.193  34.663   9.290  1.00 25.02     0.186 C 
ENDROOT
BRANCH   7   8
ATOM      8  CB  LYS A 135      32.060  35.360  10.034  1.00 26.63     0.034 C 
BRANCH   8   9
ATOM      9  CG  LYS A 135      30.738  34.646   9.923  1.00 29.45     0.005 C 
BRANCH   9  10
ATOM     10  CD  LYS A 135      30.350  34.457   8.465  1.00 32.00     0.041 C 
BRANCH  10  11
ATOM     11  CE  LYS A 135      28.842  34.468   8.308  1.00 34.25     0.338 C 
ATOM     12  NZ  LYS A 135      28.178  33.803   9.463  1.00 35.99     0.618 N 
ENDBRANCH  10  11
ENDBRANCH   9  10
ENDBRANCH   8   9
ENDBRANCH   7   8
END_RES LYS A 135
