REMARK VINA RESULT:    -4.923      3.666      9.362
REMARK INTER + INTRA:         -24.899
REMARK INTER:                 -13.617
REMARK INTRA:                 -11.282
REMARK UNBOUND:                -9.760
REMARK SMILES CC(=O)N[C@@H]1[C@@H](O)C[C@](OC[C@H]2O[C@@H](O[C@H]3[C@H](O)[C@@H](O)[C@H](OCCN=[N+]=[N-])O[C@@H]3CO)[C@H](O)[C@@H](O)[C@H]2O)(C(=O)O)O[C@H]1C(O)[C@H](O)CNC(=O)OCc1cn(CCCCCCCCCCC(=O)O)nn1
REMARK SMILES IDX 51 1 49 2 48 3 50 5 47 6 45 7 43 8 42 9 9 10 8 11 41 12 6 13
REMARK SMILES IDX 5 14 10 15 11 16 12 17 14 18 13 19 32 20 34 21 36 22 15 23
REMARK SMILES IDX 16 24 29 25 28 26 21 27 17 28 19 29 30 30 31 31 22 33 23 34
REMARK SMILES IDX 24 35 25 36 26 37 27 38 18 39 20 41 33 43 35 45 37 47 38 49
REMARK SMILES IDX 39 50 40 51 7 53 4 55 2 56 1 58 3 59 44 60 46 62 52 64 53 65
REMARK SMILES IDX 54 66 70 67 55 68 69 69 56 70 57 71 58 72 59 73 60 74 61 75
REMARK SMILES IDX 62 76 63 77 64 78 65 79 66 80 67 81 68 82
REMARK H PARENT 48 4 31 32 18 40 20 42 33 44 35 46 37 48 40 52 7 54 4 57 44 61
REMARK H PARENT 46 63 68 83
REMARK Flexibility Score: inf
ROOT
ATOM      1  O   UNL     1      31.865  35.898  15.536  1.00  0.00    -0.443 OA
ENDROOT
BRANCH   1   2
ATOM      2  C   UNL     1      31.429  35.217  16.695  1.00  0.00     0.407 C 
ATOM      3  N   UNL     1      30.049  35.108  16.997  1.00  0.00    -0.319 N 
ATOM      4  H   UNL     1      29.355  35.555  16.341  1.00  0.00     0.167 HD
ATOM      5  O   UNL     1      32.249  34.691  17.480  1.00  0.00    -0.225 OA
BRANCH   3   6
ATOM      6  C   UNL     1      29.563  34.420  18.154  1.00  0.00     0.154 C 
BRANCH   6   7
ATOM      7  C   UNL     1      28.679  33.216  17.846  1.00  0.00     0.165 C 
BRANCH   7   8
ATOM      8  C   UNL     1      29.549  32.018  17.998  1.00  0.00     0.176 C 
BRANCH   8   9
ATOM      9  C   UNL     1      28.929  30.831  18.697  1.00  0.00     0.178 C 
ATOM     10  C   UNL     1      26.903  29.694  18.803  1.00  0.00     0.272 C 
ATOM     11  C   UNL     1      27.202  29.478  20.271  1.00  0.00     0.113 C 
ATOM     12  O   UNL     1      27.594  30.822  18.403  1.00  0.00    -0.332 OA
ATOM     13  C   UNL     1      27.970  30.595  20.901  1.00  0.00     0.145 C 
ATOM     14  C   UNL     1      29.276  30.767  20.152  1.00  0.00     0.142 C 
BRANCH  10  15
ATOM     15  O   UNL     1      25.524  29.869  18.600  1.00  0.00    -0.338 OA
BRANCH  15  16
ATOM     16  C   UNL     1      24.725  28.820  18.904  1.00  0.00     0.199 C 
BRANCH  16  17
ATOM     17  C   UNL     1      23.293  29.234  18.502  1.00  0.00     0.179 C 
ATOM     18  C   UNL     1      23.213  29.338  16.139  1.00  0.00     0.282 C 
ATOM     19  O   UNL     1      23.239  29.928  17.358  1.00  0.00    -0.341 OA
ATOM     20  C   UNL     1      22.891  27.892  16.171  1.00  0.00     0.202 C 
ATOM     21  C   UNL     1      21.839  27.645  17.245  1.00  0.00     0.179 C 
ATOM     22  C   UNL     1      22.364  28.046  18.608  1.00  0.00     0.177 C 
BRANCH  18  23
ATOM     23  O   UNL     1      24.454  29.633  15.521  1.00  0.00    -0.341 OA
BRANCH  23  24
ATOM     24  C   UNL     1      24.309  30.847  14.862  1.00  0.00     0.184 C 
ATOM     25  C   UNL     1      24.469  30.788  13.378  1.00  0.00     0.178 C 
ATOM     26  O   UNL     1      24.482  32.043  12.843  1.00  0.00    -0.341 OA
ATOM     27  C   UNL     1      24.185  33.120  13.591  1.00  0.00     0.281 C 
ATOM     28  C   UNL     1      25.371  31.837  15.367  1.00  0.00     0.180 C 
ATOM     29  C   UNL     1      24.914  33.203  14.911  1.00  0.00     0.202 C 
BRANCH  25  30
ATOM     30  C   UNL     1      23.414  29.945  12.686  1.00  0.00     0.191 C 
BRANCH  30  31
ATOM     31  O   UNL     1      23.701  28.606  12.665  1.00  0.00    -0.394 OA
ATOM     32  H   UNL     1      23.182  28.162  13.385  1.00  0.00     0.210 HD
ENDBRANCH  30  31
ENDBRANCH  25  30
BRANCH  27  33
ATOM     33  O   UNL     1      22.822  33.166  13.849  1.00  0.00    -0.350 OA
BRANCH  33  34
ATOM     34  C   UNL     1      22.124  33.874  12.871  1.00  0.00     0.169 C 
BRANCH  34  35
ATOM     35  C   UNL     1      21.747  35.254  13.332  1.00  0.00     0.119 C 
BRANCH  35  36
ATOM     36  N   UNL     1      22.633  36.221  12.681  1.00  0.00    -0.092 NA
ATOM     37  N   UNL     1      23.708  36.564  13.220  1.00  0.00     0.001 N 
ATOM     38  N   UNL     1      24.687  36.731  13.979  1.00  0.00    -0.003 NA
ENDBRANCH  35  36
ENDBRANCH  34  35
ENDBRANCH  33  34
ENDBRANCH  27  33
BRANCH  28  39
ATOM     39  O   UNL     1      25.501  31.821  16.739  1.00  0.00    -0.387 OA
ATOM     40  H   UNL     1      25.250  30.957  17.152  1.00  0.00     0.211 HD
ENDBRANCH  28  39
BRANCH  29  41
ATOM     41  O   UNL     1      26.053  33.978  14.713  1.00  0.00    -0.385 OA
ATOM     42  H   UNL     1      25.768  34.807  14.218  1.00  0.00     0.211 HD
ENDBRANCH  29  41
ENDBRANCH  23  24
ENDBRANCH  18  23
BRANCH  20  43
ATOM     43  O   UNL     1      22.300  27.442  14.982  1.00  0.00    -0.385 OA
ATOM     44  H   UNL     1      22.664  26.519  14.835  1.00  0.00     0.211 HD
ENDBRANCH  20  43
BRANCH  21  45
ATOM     45  O   UNL     1      21.465  26.302  17.267  1.00  0.00    -0.387 OA
ATOM     46  H   UNL     1      20.609  26.259  17.764  1.00  0.00     0.211 HD
ENDBRANCH  21  45
BRANCH  22  47
ATOM     47  O   UNL     1      23.026  26.966  19.139  1.00  0.00    -0.387 OA
ATOM     48  H   UNL     1      23.505  27.262  19.955  1.00  0.00     0.211 HD
ENDBRANCH  22  47
ENDBRANCH  16  17
ENDBRANCH  15  16
ENDBRANCH  10  15
BRANCH  10  49
ATOM     49  C   UNL     1      27.257  28.528  17.990  1.00  0.00     0.364 C 
ATOM     50  O   UNL     1      27.669  27.463  18.480  1.00  0.00    -0.246 OA
BRANCH  49  51
ATOM     51  O   UNL     1      27.142  28.572  16.611  1.00  0.00    -0.477 OA
ATOM     52  H   UNL     1      26.966  29.443  16.104  1.00  0.00     0.296 HD
ENDBRANCH  49  51
ENDBRANCH  10  49
BRANCH  13  53
ATOM     53  O   UNL     1      27.286  31.781  21.052  1.00  0.00    -0.391 OA
ATOM     54  H   UNL     1      27.706  32.553  20.574  1.00  0.00     0.211 HD
ENDBRANCH  13  53
BRANCH  14  55
ATOM     55  N   UNL     1      30.129  29.688  20.527  1.00  0.00    -0.348 N 
ATOM     56  C   UNL     1      31.485  29.839  20.932  1.00  0.00     0.217 C 
ATOM     57  H   UNL     1      29.773  28.702  20.516  1.00  0.00     0.163 HD
ATOM     58  C   UNL     1      32.305  28.673  21.306  1.00  0.00     0.114 C 
ATOM     59  O   UNL     1      31.955  30.991  20.961  1.00  0.00    -0.275 OA
ENDBRANCH  14  55
ENDBRANCH   8   9
BRANCH   8  60
ATOM     60  O   UNL     1      30.760  32.406  18.505  1.00  0.00    -0.388 OA
ATOM     61  H   UNL     1      31.538  32.045  18.051  1.00  0.00     0.211 HD
ENDBRANCH   8  60
ENDBRANCH   7   8
BRANCH   7  62
ATOM     62  O   UNL     1      28.169  33.407  16.567  1.00  0.00    -0.388 OA
ATOM     63  H   UNL     1      27.699  34.271  16.477  1.00  0.00     0.211 HD
ENDBRANCH   7  62
ENDBRANCH   6   7
ENDBRANCH   3   6
ENDBRANCH   1   2
BRANCH   1  64
ATOM     64  C   UNL     1      31.958  35.118  14.336  1.00  0.00     0.294 C 
BRANCH  64  65
ATOM     65  C   UNL     1      30.581  34.925  13.835  1.00  0.00     0.120 A 
ATOM     66  C   UNL     1      29.908  35.806  13.009  1.00  0.00     0.138 A 
ATOM     67  N   UNL     1      29.754  33.897  14.066  1.00  0.00    -0.132 NA
ATOM     68  N   UNL     1      28.697  35.263  12.780  1.00  0.00    -0.252 N 
ATOM     69  N   UNL     1      28.626  34.090  13.441  1.00  0.00    -0.067 NA
BRANCH  68  70
ATOM     70  C   UNL     1      27.621  35.769  11.987  1.00  0.00     0.146 C 
BRANCH  70  71
ATOM     71  C   UNL     1      26.590  34.777  11.577  1.00  0.00     0.024 C 
BRANCH  71  72
ATOM     72  C   UNL     1      26.170  34.813  10.150  1.00  0.00     0.002 C 
BRANCH  72  73
ATOM     73  C   UNL     1      27.196  34.382   9.160  1.00  0.00     0.000 C 
BRANCH  73  74
ATOM     74  C   UNL     1      27.009  34.891   7.773  1.00  0.00     0.000 C 
BRANCH  74  75
ATOM     75  C   UNL     1      26.283  36.207   7.795  1.00  0.00     0.000 C 
BRANCH  75  76
ATOM     76  C   UNL     1      26.988  37.289   7.006  1.00  0.00     0.000 C 
BRANCH  76  77
ATOM     77  C   UNL     1      27.717  36.773   5.809  1.00  0.00     0.001 C 
BRANCH  77  78
ATOM     78  C   UNL     1      28.838  37.644   5.333  1.00  0.00     0.012 C 
BRANCH  78  79
ATOM     79  C   UNL     1      28.861  38.901   6.185  1.00  0.00     0.122 C 
BRANCH  79  80
ATOM     80  C   UNL     1      29.562  39.966   5.448  1.00  0.00     0.303 C 
ATOM     81  O   UNL     1      28.922  40.845   4.836  1.00  0.00    -0.252 OA
BRANCH  80  82
ATOM     82  O   UNL     1      30.948  40.026   5.409  1.00  0.00    -0.481 OA
ATOM     83  H   UNL     1      31.505  40.100   6.241  1.00  0.00     0.296 HD
ENDBRANCH  80  82
ENDBRANCH  79  80
ENDBRANCH  78  79
ENDBRANCH  77  78
ENDBRANCH  76  77
ENDBRANCH  75  76
ENDBRANCH  74  75
ENDBRANCH  73  74
ENDBRANCH  72  73
ENDBRANCH  71  72
ENDBRANCH  70  71
ENDBRANCH  68  70
ENDBRANCH  64  65
ENDBRANCH   1  64
TORSDOF 41
BEGIN_RES LYS A 131
REMARK  4 active torsions:
REMARK  status: ('A' for Active; 'I' for Inactive)
REMARK    1  A    between atoms: CA   and  CB  
REMARK    2  A    between atoms: CB   and  CG  
REMARK    3  A    between atoms: CG   and  CD  
REMARK    4  A    between atoms: CD   and  CE  
ROOT
ATOM      1  CA  LYS A 131      29.867  25.555  16.977  1.00 20.52     0.186 C 
ENDROOT
BRANCH   1   2
ATOM      2  CB  LYS A 131      28.345  25.722  17.026  1.00 20.94     0.034 C 
BRANCH   2   3
ATOM      3  CG  LYS A 131      27.601  24.404  16.877  1.00 22.96     0.005 C 
BRANCH   3   4
ATOM      4  CD  LYS A 131      26.618  24.179  17.992  1.00 24.33     0.041 C 
BRANCH   4   5
ATOM      5  CE  LYS A 131      25.383  23.469  17.446  1.00 26.91     0.338 C 
ATOM      6  NZ  LYS A 131      24.443  24.448  16.850  1.00 27.40     0.618 N 
ENDBRANCH   4   5
ENDBRANCH   3   4
ENDBRANCH   2   3
ENDBRANCH   1   2
END_RES LYS A 131
BEGIN_RES LYS A 135
REMARK  4 active torsions:
REMARK  status: ('A' for Active; 'I' for Inactive)
REMARK    5  A    between atoms: CA   and  CB  
REMARK    6  A    between atoms: CB   and  CG  
REMARK    7  A    between atoms: CG   and  CD  
REMARK    8  A    between atoms: CD   and  CE  
ROOT
ATOM      7  CA  LYS A 135      33.193  34.663   9.290  1.00 25.02     0.186 C 
ENDROOT
BRANCH   7   8
ATOM      8  CB  LYS A 135      32.060  35.360  10.034  1.00 26.63     0.034 C 
BRANCH   8   9
ATOM      9  CG  LYS A 135      30.704  35.129   9.419  1.00 29.45     0.005 C 
BRANCH   9  10
ATOM     10  CD  LYS A 135      30.328  36.280   8.499  1.00 32.00     0.041 C 
BRANCH  10  11
ATOM     11  CE  LYS A 135      30.507  37.609   9.209  1.00 34.25     0.338 C 
ATOM     12  NZ  LYS A 135      29.226  38.074   9.809  1.00 35.99     0.618 N 
ENDBRANCH  10  11
ENDBRANCH   9  10
ENDBRANCH   8   9
ENDBRANCH   7   8
END_RES LYS A 135
