REMARK VINA RESULT:    -5.114      6.155     13.184
REMARK INTER + INTRA:         -21.248
REMARK INTER:                  -9.369
REMARK INTRA:                 -11.879
REMARK UNBOUND:                -8.212
REMARK SMILES CC(=O)N[C@@H]1[C@@H](O)C[C@](OC[C@H]2O[C@@H](O[C@H]3[C@H](O)[C@@H](O)[C@H](OCCN=[N+]=[N-])O[C@@H]3CO)[C@H](O)[C@@H](O)[C@H]2O)(C(=O)O)O[C@H]1C(O)[C@H](O)CNC(=O)OCc1cn(-c2ccc(CO)cn2)nn1
REMARK SMILES IDX 9 1 8 2 6 3 5 4 42 5 41 6 10 7 11 8 12 9 14 10 13 11 32 12
REMARK SMILES IDX 34 13 36 14 15 15 16 16 29 17 28 18 21 19 17 20 19 21 30 22
REMARK SMILES IDX 31 23 22 25 23 26 24 27 25 28 26 29 27 30 18 31 20 33 33 35
REMARK SMILES IDX 35 37 37 39 38 41 39 42 40 43 7 45 43 47 44 48 45 50 46 51
REMARK SMILES IDX 47 53 48 54 49 55 50 57 51 58 52 59 53 60 54 61 65 62 55 63
REMARK SMILES IDX 64 64 56 65 57 66 63 67 58 68 62 69 59 70 60 71 61 72 4 74
REMARK SMILES IDX 2 75 1 77 3 78
REMARK H PARENT 31 24 18 32 20 34 33 36 35 38 37 40 40 44 7 46 44 49 46 52
REMARK H PARENT 48 56 61 73 4 76
REMARK Flexibility Score: inf
ROOT
ATOM      1  C   UNL     1      30.688  31.244  19.971  1.00  0.00     0.272 C 
ATOM      2  C   UNL     1      31.833  32.008  20.523  1.00  0.00     0.113 C 
ATOM      3  C   UNL     1      32.306  31.463  21.842  1.00  0.00     0.145 C 
ATOM      4  C   UNL     1      32.467  29.957  21.754  1.00  0.00     0.142 C 
ATOM      5  C   UNL     1      31.252  29.337  21.199  1.00  0.00     0.178 C 
ATOM      6  O   UNL     1      30.839  29.882  20.032  1.00  0.00    -0.332 OA
ENDROOT
BRANCH   1   7
ATOM      7  O   UNL     1      30.387  31.559  18.657  1.00  0.00    -0.338 OA
BRANCH   7   8
ATOM      8  C   UNL     1      30.678  32.867  18.331  1.00  0.00     0.199 C 
BRANCH   8   9
ATOM      9  C   UNL     1      29.643  33.394  17.384  1.00  0.00     0.179 C 
ATOM     10  C   UNL     1      28.153  32.742  15.814  1.00  0.00     0.282 C 
ATOM     11  O   UNL     1      28.652  32.432  17.105  1.00  0.00    -0.341 OA
ATOM     12  C   UNL     1      27.779  34.166  15.743  1.00  0.00     0.202 C 
ATOM     13  C   UNL     1      27.700  34.897  17.073  1.00  0.00     0.179 C 
ATOM     14  C   UNL     1      28.929  34.590  17.924  1.00  0.00     0.177 C 
BRANCH  10  15
ATOM     15  O   UNL     1      27.131  31.843  15.488  1.00  0.00    -0.341 OA
BRANCH  15  16
ATOM     16  C   UNL     1      26.647  31.167  16.586  1.00  0.00     0.184 C 
ATOM     17  C   UNL     1      26.609  29.676  16.466  1.00  0.00     0.178 C 
ATOM     18  O   UNL     1      25.320  29.153  16.413  1.00  0.00    -0.341 OA
ATOM     19  C   UNL     1      24.565  29.670  15.391  1.00  0.00     0.281 C 
ATOM     20  C   UNL     1      25.191  31.635  16.765  1.00  0.00     0.180 C 
ATOM     21  C   UNL     1      24.498  31.203  15.466  1.00  0.00     0.202 C 
BRANCH  17  22
ATOM     22  C   UNL     1      27.206  29.109  17.768  1.00  0.00     0.191 C 
BRANCH  22  23
ATOM     23  O   UNL     1      28.520  29.578  17.927  1.00  0.00    -0.394 OA
ATOM     24  H   UNL     1      28.929  29.785  17.033  1.00  0.00     0.210 HD
ENDBRANCH  22  23
ENDBRANCH  17  22
BRANCH  19  25
ATOM     25  O   UNL     1      23.274  29.160  15.496  1.00  0.00    -0.350 OA
BRANCH  25  26
ATOM     26  C   UNL     1      22.907  28.382  14.429  1.00  0.00     0.169 C 
BRANCH  26  27
ATOM     27  C   UNL     1      21.752  29.075  13.716  1.00  0.00     0.119 C 
BRANCH  27  28
ATOM     28  N   UNL     1      22.255  29.905  12.629  1.00  0.00    -0.092 NA
ATOM     29  N   UNL     1      22.226  31.124  12.639  1.00  0.00     0.001 N 
ATOM     30  N   UNL     1      22.592  32.296  12.724  1.00  0.00    -0.003 NA
ENDBRANCH  27  28
ENDBRANCH  26  27
ENDBRANCH  25  26
ENDBRANCH  19  25
BRANCH  20  31
ATOM     31  O   UNL     1      24.600  31.126  17.889  1.00  0.00    -0.387 OA
ATOM     32  H   UNL     1      24.004  31.786  18.273  1.00  0.00     0.211 HD
ENDBRANCH  20  31
BRANCH  21  33
ATOM     33  O   UNL     1      25.239  31.762  14.428  1.00  0.00    -0.385 OA
ATOM     34  H   UNL     1      25.497  31.026  13.817  1.00  0.00     0.211 HD
ENDBRANCH  21  33
ENDBRANCH  15  16
ENDBRANCH  10  15
BRANCH  12  35
ATOM     35  O   UNL     1      28.721  34.847  14.935  1.00  0.00    -0.385 OA
ATOM     36  H   UNL     1      28.335  35.084  14.052  1.00  0.00     0.211 HD
ENDBRANCH  12  35
BRANCH  13  37
ATOM     37  O   UNL     1      26.511  34.647  17.736  1.00  0.00    -0.387 OA
ATOM     38  H   UNL     1      26.269  35.321  18.390  1.00  0.00     0.211 HD
ENDBRANCH  13  37
BRANCH  14  39
ATOM     39  O   UNL     1      28.497  34.392  19.217  1.00  0.00    -0.387 OA
ATOM     40  H   UNL     1      29.077  34.878  19.834  1.00  0.00     0.211 HD
ENDBRANCH  14  39
ENDBRANCH   8   9
ENDBRANCH   7   8
ENDBRANCH   1   7
BRANCH   1  41
ATOM     41  C   UNL     1      29.414  31.528  20.739  1.00  0.00     0.364 C 
ATOM     42  O   UNL     1      29.244  32.566  21.422  1.00  0.00    -0.246 OA
BRANCH  41  43
ATOM     43  O   UNL     1      28.369  30.626  20.714  1.00  0.00    -0.477 OA
ATOM     44  H   UNL     1      28.064  30.177  21.587  1.00  0.00     0.296 HD
ENDBRANCH  41  43
ENDBRANCH   1  41
BRANCH   3  45
ATOM     45  O   UNL     1      33.602  31.976  22.040  1.00  0.00    -0.391 OA
ATOM     46  H   UNL     1      33.865  32.633  21.370  1.00  0.00     0.211 HD
ENDBRANCH   3  45
BRANCH   5  47
ATOM     47  C   UNL     1      31.343  27.828  21.075  1.00  0.00     0.176 C 
BRANCH  47  48
ATOM     48  O   UNL     1      32.027  27.496  19.906  1.00  0.00    -0.388 OA
ATOM     49  H   UNL     1      32.490  26.632  20.008  1.00  0.00     0.211 HD
ENDBRANCH  47  48
BRANCH  47  50
ATOM     50  C   UNL     1      30.049  27.106  21.079  1.00  0.00     0.165 C 
BRANCH  50  51
ATOM     51  O   UNL     1      29.331  27.259  19.885  1.00  0.00    -0.388 OA
ATOM     52  H   UNL     1      29.894  27.318  19.098  1.00  0.00     0.211 HD
ENDBRANCH  50  51
BRANCH  50  53
ATOM     53  C   UNL     1      29.163  27.342  22.269  1.00  0.00     0.154 C 
BRANCH  53  54
ATOM     54  N   UNL     1      27.946  28.004  21.882  1.00  0.00    -0.319 N 
ATOM     55  C   UNL     1      26.697  27.512  22.330  1.00  0.00     0.407 C 
ATOM     56  H   UNL     1      27.987  28.870  21.252  1.00  0.00     0.167 HD
ATOM     57  O   UNL     1      26.586  26.507  23.067  1.00  0.00    -0.225 OA
BRANCH  55  58
ATOM     58  O   UNL     1      25.501  28.139  21.964  1.00  0.00    -0.443 OA
BRANCH  58  59
ATOM     59  C   UNL     1      25.104  29.301  22.635  1.00  0.00     0.294 C 
BRANCH  59  60
ATOM     60  C   UNL     1      25.372  30.558  21.948  1.00  0.00     0.121 A 
ATOM     61  C   UNL     1      25.547  31.792  22.524  1.00  0.00     0.146 A 
ATOM     62  N   UNL     1      25.494  30.748  20.624  1.00  0.00    -0.131 NA
ATOM     63  N   UNL     1      25.768  32.693  21.546  1.00  0.00    -0.202 N 
ATOM     64  N   UNL     1      25.728  32.019  20.411  1.00  0.00    -0.061 NA
BRANCH  63  65
ATOM     65  C   UNL     1      25.989  34.079  21.756  1.00  0.00     0.155 A 
ATOM     66  C   UNL     1      26.285  34.589  23.015  1.00  0.00     0.049 A 
ATOM     67  N   UNL     1      25.912  34.956  20.741  1.00  0.00    -0.237 NA
ATOM     68  C   UNL     1      26.490  35.950  23.203  1.00  0.00     0.011 A 
ATOM     69  C   UNL     1      26.109  36.287  20.902  1.00  0.00     0.119 A 
ATOM     70  C   UNL     1      26.404  36.825  22.143  1.00  0.00    -0.004 A 
BRANCH  70  71
ATOM     71  C   UNL     1      26.622  38.282  22.352  1.00  0.00     0.193 C 
BRANCH  71  72
ATOM     72  O   UNL     1      25.406  38.958  22.444  1.00  0.00    -0.392 OA
ATOM     73  H   UNL     1      24.644  38.394  22.198  1.00  0.00     0.211 HD
ENDBRANCH  71  72
ENDBRANCH  70  71
ENDBRANCH  63  65
ENDBRANCH  59  60
ENDBRANCH  58  59
ENDBRANCH  55  58
ENDBRANCH  53  54
ENDBRANCH  50  53
ENDBRANCH  47  50
ENDBRANCH   5  47
BRANCH   4  74
ATOM     74  N   UNL     1      32.808  29.431  23.077  1.00  0.00    -0.348 N 
ATOM     75  C   UNL     1      34.116  29.140  23.455  1.00  0.00     0.217 C 
ATOM     76  H   UNL     1      32.032  29.281  23.752  1.00  0.00     0.163 HD
ATOM     77  C   UNL     1      34.327  28.595  24.849  1.00  0.00     0.114 C 
ATOM     78  O   UNL     1      35.104  29.300  22.724  1.00  0.00    -0.275 OA
ENDBRANCH   4  74
TORSDOF 32
BEGIN_RES LYS A 131
REMARK  4 active torsions:
REMARK  status: ('A' for Active; 'I' for Inactive)
REMARK    1  A    between atoms: CA   and  CB  
REMARK    2  A    between atoms: CB   and  CG  
REMARK    3  A    between atoms: CG   and  CD  
REMARK    4  A    between atoms: CD   and  CE  
ROOT
ATOM      1  CA  LYS A 131      29.867  25.555  16.977  1.00 20.52     0.186 C 
ENDROOT
BRANCH   1   2
ATOM      2  CB  LYS A 131      28.345  25.722  17.026  1.00 20.94     0.034 C 
BRANCH   2   3
ATOM      3  CG  LYS A 131      27.602  24.400  16.917  1.00 22.96     0.005 C 
BRANCH   3   4
ATOM      4  CD  LYS A 131      26.638  24.196  18.053  1.00 24.33     0.041 C 
BRANCH   4   5
ATOM      5  CE  LYS A 131      26.419  25.520  18.778  1.00 26.91     0.338 C 
ATOM      6  NZ  LYS A 131      25.274  25.417  19.713  1.00 27.40     0.618 N 
ENDBRANCH   4   5
ENDBRANCH   3   4
ENDBRANCH   2   3
ENDBRANCH   1   2
END_RES LYS A 131
BEGIN_RES LYS A 135
REMARK  4 active torsions:
REMARK  status: ('A' for Active; 'I' for Inactive)
REMARK    5  A    between atoms: CA   and  CB  
REMARK    6  A    between atoms: CB   and  CG  
REMARK    7  A    between atoms: CG   and  CD  
REMARK    8  A    between atoms: CD   and  CE  
ROOT
ATOM      7  CA  LYS A 135      33.193  34.663   9.290  1.00 25.02     0.186 C 
ENDROOT
BRANCH   7   8
ATOM      8  CB  LYS A 135      32.060  35.360  10.034  1.00 26.63     0.034 C 
BRANCH   8   9
ATOM      9  CG  LYS A 135      30.765  34.590  10.018  1.00 29.45     0.005 C 
BRANCH   9  10
ATOM     10  CD  LYS A 135      29.669  35.397   9.340  1.00 32.00     0.041 C 
BRANCH  10  11
ATOM     11  CE  LYS A 135      28.952  34.555   8.302  1.00 34.25     0.338 C 
ATOM     12  NZ  LYS A 135      28.847  35.278   7.004  1.00 35.99     0.618 N 
ENDBRANCH  10  11
ENDBRANCH   9  10
ENDBRANCH   8   9
ENDBRANCH   7   8
END_RES LYS A 135
