REMARK VINA RESULT:    -5.180      3.665      9.036
REMARK INTER + INTRA:         -22.560
REMARK INTER:                 -12.548
REMARK INTRA:                 -10.011
REMARK UNBOUND:                -9.203
REMARK SMILES CC(=O)N[C@@H]1[C@@H](O)C[C@](OC[C@H]2O[C@@H](O[C@H]3[C@H](O)[C@@H](O)[C@H](OCCN=[N+]=[N-])O[C@@H]3CO)[C@H](O)[C@@H](O)[C@H]2O)(C(=O)O)O[C@H]1C(O)[C@H](O)CNC(=O)OCc1cn(Cc2ccc(C#N)cc2)nn1
REMARK SMILES IDX 9 1 8 2 6 3 5 4 42 5 41 6 10 7 11 8 12 9 14 10 13 11 32 12
REMARK SMILES IDX 34 13 36 14 15 15 16 16 29 17 28 18 21 19 17 20 19 21 30 22
REMARK SMILES IDX 31 23 22 25 23 26 24 27 25 28 26 29 27 30 18 31 20 33 33 35
REMARK SMILES IDX 35 37 37 39 38 41 39 42 40 43 7 45 43 47 44 48 45 50 46 51
REMARK SMILES IDX 47 53 48 54 49 55 50 57 51 58 52 59 53 60 54 61 66 62 55 63
REMARK SMILES IDX 65 64 56 65 57 66 58 67 64 68 59 69 63 70 60 71 61 72 62 73
REMARK SMILES IDX 4 74 2 75 1 77 3 78
REMARK H PARENT 31 24 18 32 20 34 33 36 35 38 37 40 40 44 7 46 44 49 46 52
REMARK H PARENT 48 56 4 76
REMARK Flexibility Score: inf
ROOT
ATOM      1  C   UNL     1      23.160  40.236   9.375  1.00  0.00     0.272 C 
ATOM      2  C   UNL     1      22.972  40.198   7.899  1.00  0.00     0.113 C 
ATOM      3  C   UNL     1      23.829  39.223   7.173  1.00  0.00     0.145 C 
ATOM      4  C   UNL     1      25.145  39.079   7.955  1.00  0.00     0.142 C 
ATOM      5  C   UNL     1      25.343  40.375   8.680  1.00  0.00     0.178 C 
ATOM      6  O   UNL     1      24.496  40.451   9.749  1.00  0.00    -0.332 OA
ENDROOT
BRANCH   1   7
ATOM      7  O   UNL     1      22.635  39.176  10.082  1.00  0.00    -0.338 OA
BRANCH   7   8
ATOM      8  C   UNL     1      23.078  39.057  11.355  1.00  0.00     0.199 C 
BRANCH   8   9
ATOM      9  C   UNL     1      22.909  37.626  11.896  1.00  0.00     0.179 C 
ATOM     10  C   UNL     1      21.687  35.718  11.458  1.00  0.00     0.282 C 
ATOM     11  O   UNL     1      21.823  37.083  11.208  1.00  0.00    -0.341 OA
ATOM     12  C   UNL     1      22.865  34.918  11.010  1.00  0.00     0.202 C 
ATOM     13  C   UNL     1      23.924  35.846  10.463  1.00  0.00     0.179 C 
ATOM     14  C   UNL     1      24.171  36.877  11.555  1.00  0.00     0.177 C 
BRANCH  10  15
ATOM     15  O   UNL     1      20.572  35.288  10.743  1.00  0.00    -0.341 OA
BRANCH  15  16
ATOM     16  C   UNL     1      20.061  36.258   9.882  1.00  0.00     0.184 C 
ATOM     17  C   UNL     1      18.679  36.615  10.295  1.00  0.00     0.178 C 
ATOM     18  O   UNL     1      17.664  35.983   9.635  1.00  0.00    -0.341 OA
ATOM     19  C   UNL     1      18.018  34.938   8.820  1.00  0.00     0.281 C 
ATOM     20  C   UNL     1      20.229  35.896   8.441  1.00  0.00     0.180 C 
ATOM     21  C   UNL     1      18.965  35.448   7.758  1.00  0.00     0.202 C 
BRANCH  17  22
ATOM     22  C   UNL     1      18.524  38.134  10.269  1.00  0.00     0.191 C 
BRANCH  22  23
ATOM     23  O   UNL     1      19.789  38.683  10.059  1.00  0.00    -0.394 OA
ATOM     24  H   UNL     1      20.432  38.393  10.776  1.00  0.00     0.210 HD
ENDBRANCH  22  23
ENDBRANCH  17  22
BRANCH  19  25
ATOM     25  O   UNL     1      16.835  34.525   8.174  1.00  0.00    -0.350 OA
BRANCH  25  26
ATOM     26  C   UNL     1      16.284  33.422   8.811  1.00  0.00     0.169 C 
BRANCH  26  27
ATOM     27  C   UNL     1      17.334  32.354   9.049  1.00  0.00     0.119 C 
BRANCH  27  28
ATOM     28  N   UNL     1      17.174  31.220   8.158  1.00  0.00    -0.092 NA
ATOM     29  N   UNL     1      16.360  31.262   7.251  1.00  0.00     0.001 N 
ATOM     30  N   UNL     1      15.930  31.263   6.087  1.00  0.00    -0.003 NA
ENDBRANCH  27  28
ENDBRANCH  26  27
ENDBRANCH  25  26
ENDBRANCH  19  25
BRANCH  20  31
ATOM     31  O   UNL     1      20.870  36.895   7.698  1.00  0.00    -0.387 OA
ATOM     32  H   UNL     1      21.333  37.535   8.314  1.00  0.00     0.211 HD
ENDBRANCH  20  31
BRANCH  21  33
ATOM     33  O   UNL     1      19.212  34.463   6.799  1.00  0.00    -0.385 OA
ATOM     34  H   UNL     1      19.814  34.871   6.122  1.00  0.00     0.211 HD
ENDBRANCH  21  33
ENDBRANCH  15  16
ENDBRANCH  10  15
BRANCH  12  35
ATOM     35  O   UNL     1      23.435  34.134  11.988  1.00  0.00    -0.385 OA
ATOM     36  H   UNL     1      23.975  34.705  12.604  1.00  0.00     0.211 HD
ENDBRANCH  12  35
BRANCH  13  37
ATOM     37  O   UNL     1      23.440  36.417   9.297  1.00  0.00    -0.387 OA
ATOM     38  H   UNL     1      22.573  36.068   8.996  1.00  0.00     0.211 HD
ENDBRANCH  13  37
BRANCH  14  39
ATOM     39  O   UNL     1      25.237  37.704  11.293  1.00  0.00    -0.387 OA
ATOM     40  H   UNL     1      26.022  37.411  11.804  1.00  0.00     0.211 HD
ENDBRANCH  14  39
ENDBRANCH   8   9
ENDBRANCH   7   8
ENDBRANCH   1   7
BRANCH   1  41
ATOM     41  C   UNL     1      22.475  41.484   9.854  1.00  0.00     0.364 C 
ATOM     42  O   UNL     1      23.141  42.449  10.242  1.00  0.00    -0.246 OA
BRANCH  41  43
ATOM     43  O   UNL     1      21.101  41.525   9.847  1.00  0.00    -0.477 OA
ATOM     44  H   UNL     1      20.548  42.082  10.486  1.00  0.00     0.296 HD
ENDBRANCH  41  43
ENDBRANCH   1  41
BRANCH   3  45
ATOM     45  O   UNL     1      23.260  38.021   6.864  1.00  0.00    -0.391 OA
ATOM     46  H   UNL     1      23.938  37.328   6.726  1.00  0.00     0.211 HD
ENDBRANCH   3  45
BRANCH   5  47
ATOM     47  C   UNL     1      26.799  40.611   9.102  1.00  0.00     0.176 C 
BRANCH  47  48
ATOM     48  O   UNL     1      27.403  41.212   7.972  1.00  0.00    -0.388 OA
ATOM     49  H   UNL     1      26.850  41.989   7.710  1.00  0.00     0.211 HD
ENDBRANCH  47  48
BRANCH  47  50
ATOM     50  C   UNL     1      26.898  41.525  10.241  1.00  0.00     0.165 C 
BRANCH  50  51
ATOM     51  O   UNL     1      26.102  42.692  10.033  1.00  0.00    -0.388 OA
ATOM     52  H   UNL     1      26.778  43.440  10.027  1.00  0.00     0.211 HD
ENDBRANCH  50  51
BRANCH  50  53
ATOM     53  C   UNL     1      28.249  41.929  10.682  1.00  0.00     0.154 C 
BRANCH  53  54
ATOM     54  N   UNL     1      29.146  41.040  11.280  1.00  0.00    -0.319 N 
ATOM     55  C   UNL     1      30.185  40.280  10.712  1.00  0.00     0.407 C 
ATOM     56  H   UNL     1      29.047  40.897  12.345  1.00  0.00     0.167 HD
ATOM     57  O   UNL     1      30.481  40.319   9.510  1.00  0.00    -0.225 OA
BRANCH  55  58
ATOM     58  O   UNL     1      30.963  39.418  11.502  1.00  0.00    -0.443 OA
BRANCH  58  59
ATOM     59  C   UNL     1      31.593  38.293  10.913  1.00  0.00     0.294 C 
BRANCH  59  60
ATOM     60  C   UNL     1      31.941  37.324  12.012  1.00  0.00     0.120 A 
ATOM     61  C   UNL     1      31.422  37.386  13.289  1.00  0.00     0.138 A 
ATOM     62  N   UNL     1      32.779  36.272  11.994  1.00  0.00    -0.132 NA
ATOM     63  N   UNL     1      31.963  36.368  14.008  1.00  0.00    -0.248 N 
ATOM     64  N   UNL     1      32.754  35.744  13.198  1.00  0.00    -0.067 NA
BRANCH  63  65
ATOM     65  C   UNL     1      31.646  36.148  15.410  1.00  0.00     0.181 C 
BRANCH  65  66
ATOM     66  C   UNL     1      31.044  34.766  15.455  1.00  0.00    -0.026 A 
ATOM     67  C   UNL     1      29.731  34.616  15.082  1.00  0.00     0.007 A 
ATOM     68  C   UNL     1      31.819  33.680  15.870  1.00  0.00     0.007 A 
ATOM     69  C   UNL     1      29.097  33.395  15.096  1.00  0.00     0.020 A 
ATOM     70  C   UNL     1      31.187  32.463  15.883  1.00  0.00     0.020 A 
ATOM     71  C   UNL     1      29.888  32.320  15.515  1.00  0.00     0.052 A 
BRANCH  71  72
ATOM     72  C   UNL     1      29.234  31.017  15.557  1.00  0.00     0.099 C 
ATOM     73  N   UNL     1      28.724  29.972  15.606  1.00  0.00    -0.192 NA
ENDBRANCH  71  72
ENDBRANCH  65  66
ENDBRANCH  63  65
ENDBRANCH  59  60
ENDBRANCH  58  59
ENDBRANCH  55  58
ENDBRANCH  53  54
ENDBRANCH  50  53
ENDBRANCH  47  50
ENDBRANCH   5  47
BRANCH   4  74
ATOM     74  N   UNL     1      26.215  38.716   7.060  1.00  0.00    -0.348 N 
ATOM     75  C   UNL     1      26.578  37.348   6.952  1.00  0.00     0.217 C 
ATOM     76  H   UNL     1      26.725  39.410   6.493  1.00  0.00     0.163 HD
ATOM     77  C   UNL     1      27.661  36.901   6.058  1.00  0.00     0.114 C 
ATOM     78  O   UNL     1      25.973  36.454   7.633  1.00  0.00    -0.275 OA
ENDBRANCH   4  74
TORSDOF 32
BEGIN_RES LYS A 131
REMARK  4 active torsions:
REMARK  status: ('A' for Active; 'I' for Inactive)
REMARK    1  A    between atoms: CA   and  CB  
REMARK    2  A    between atoms: CB   and  CG  
REMARK    3  A    between atoms: CG   and  CD  
REMARK    4  A    between atoms: CD   and  CE  
ROOT
ATOM      1  CA  LYS A 131      29.867  25.555  16.977  1.00 20.52     0.186 C 
ENDROOT
BRANCH   1   2
ATOM      2  CB  LYS A 131      28.345  25.722  17.026  1.00 20.94     0.034 C 
BRANCH   2   3
ATOM      3  CG  LYS A 131      27.602  24.399  16.924  1.00 22.96     0.005 C 
BRANCH   3   4
ATOM      4  CD  LYS A 131      26.176  24.513  17.386  1.00 24.33     0.041 C 
BRANCH   4   5
ATOM      5  CE  LYS A 131      25.996  25.811  18.167  1.00 26.91     0.338 C 
ATOM      6  NZ  LYS A 131      25.725  25.524  19.595  1.00 27.40     0.618 N 
ENDBRANCH   4   5
ENDBRANCH   3   4
ENDBRANCH   2   3
ENDBRANCH   1   2
END_RES LYS A 131
BEGIN_RES LYS A 135
REMARK  4 active torsions:
REMARK  status: ('A' for Active; 'I' for Inactive)
REMARK    5  A    between atoms: CA   and  CB  
REMARK    6  A    between atoms: CB   and  CG  
REMARK    7  A    between atoms: CG   and  CD  
REMARK    8  A    between atoms: CD   and  CE  
ROOT
ATOM      7  CA  LYS A 135      33.193  34.663   9.290  1.00 25.02     0.186 C 
ENDROOT
BRANCH   7   8
ATOM      8  CB  LYS A 135      32.060  35.360  10.034  1.00 26.63     0.034 C 
BRANCH   8   9
ATOM      9  CG  LYS A 135      30.752  34.614   9.975  1.00 29.45     0.005 C 
BRANCH   9  10
ATOM     10  CD  LYS A 135      29.712  35.415   9.207  1.00 32.00     0.041 C 
BRANCH  10  11
ATOM     11  CE  LYS A 135      28.757  34.489   8.479  1.00 34.25     0.338 C 
ATOM     12  NZ  LYS A 135      27.867  33.775   9.436  1.00 35.99     0.618 N 
ENDBRANCH  10  11
ENDBRANCH   9  10
ENDBRANCH   8   9
ENDBRANCH   7   8
END_RES LYS A 135
