REMARK VINA RESULT:    -4.386      4.493      7.036
REMARK INTER + INTRA:         -22.633
REMARK INTER:                 -10.740
REMARK INTRA:                 -11.893
REMARK UNBOUND:               -11.069
REMARK SMILES COCC(C(N)=O)n1cc(COC(=O)NC[C@@H](O)C(O)[C@@H]2O[C@@](OC[C@H]3O[C@@H](O[C@H]4[C@H](O)[C@@H](O)[C@H](OCCN=[N+]=[N-])O[C@@H]4CO)[C@H](O)[C@@H](O)[C@H]3O)(C(=O)O)C[C@H](O)[C@H]2NC(C)=O)nn1
REMARK SMILES IDX 23 1 55 2 56 3 58 4 21 5 22 6 24 7 25 8 26 9 28 10 27 11
REMARK SMILES IDX 46 12 48 13 50 14 29 15 30 16 43 17 42 18 35 19 31 20 33 21
REMARK SMILES IDX 44 22 45 23 36 25 37 26 38 27 39 28 40 29 41 30 32 31 34 33
REMARK SMILES IDX 47 35 49 37 51 39 52 41 53 42 54 43 57 45 19 47 20 48 17 50
REMARK SMILES IDX 18 51 16 53 15 54 13 55 14 57 12 58 11 59 10 60 9 61 63 62
REMARK SMILES IDX 8 63 64 64 4 65 3 66 2 67 1 68 5 69 7 70 6 71 59 74 60 75
REMARK SMILES IDX 61 77 62 78
REMARK H PARENT 45 24 32 32 34 34 47 36 49 38 51 40 54 44 57 46 20 49 18 52
REMARK H PARENT 15 56 6 72 6 73 59 76
REMARK Flexibility Score: inf
ROOT
ATOM      1  C   UNL     1      27.496  35.776   7.752  1.00  0.00     0.272 C 
ATOM      2  C   UNL     1      28.084  34.491   8.192  1.00  0.00     0.113 C 
ATOM      3  C   UNL     1      28.040  34.187   9.644  1.00  0.00     0.145 C 
ATOM      4  C   UNL     1      28.281  35.440  10.443  1.00  0.00     0.142 C 
ATOM      5  C   UNL     1      28.889  36.463   9.495  1.00  0.00     0.178 C 
ATOM      6  O   UNL     1      27.959  36.818   8.553  1.00  0.00    -0.332 OA
ENDROOT
BRANCH   1   7
ATOM      7  O   UNL     1      26.132  35.865   7.716  1.00  0.00    -0.338 OA
BRANCH   7   8
ATOM      8  C   UNL     1      25.540  36.883   8.388  1.00  0.00     0.199 C 
BRANCH   8   9
ATOM      9  C   UNL     1      24.710  37.789   7.468  1.00  0.00     0.179 C 
ATOM     10  C   UNL     1      22.758  38.334   8.602  1.00  0.00     0.282 C 
ATOM     11  O   UNL     1      23.370  37.573   7.616  1.00  0.00    -0.341 OA
ATOM     12  C   UNL     1      23.011  39.795   8.460  1.00  0.00     0.202 C 
ATOM     13  C   UNL     1      24.469  40.117   8.429  1.00  0.00     0.179 C 
ATOM     14  C   UNL     1      25.163  39.205   7.482  1.00  0.00     0.177 C 
BRANCH  10  15
ATOM     15  O   UNL     1      23.050  37.887   9.878  1.00  0.00    -0.341 OA
BRANCH  15  16
ATOM     16  C   UNL     1      21.987  37.156  10.404  1.00  0.00     0.184 C 
ATOM     17  C   UNL     1      21.579  37.528  11.779  1.00  0.00     0.178 C 
ATOM     18  O   UNL     1      20.420  36.896  12.158  1.00  0.00    -0.341 OA
ATOM     19  C   UNL     1      20.241  35.628  11.603  1.00  0.00     0.281 C 
ATOM     20  C   UNL     1      22.480  35.700  10.466  1.00  0.00     0.180 C 
ATOM     21  C   UNL     1      21.579  34.941  11.380  1.00  0.00     0.202 C 
BRANCH  17  22
ATOM     22  C   UNL     1      21.356  39.013  11.995  1.00  0.00     0.191 C 
BRANCH  22  23
ATOM     23  O   UNL     1      22.570  39.691  11.906  1.00  0.00    -0.394 OA
ATOM     24  H   UNL     1      22.546  40.410  11.233  1.00  0.00     0.210 HD
ENDBRANCH  22  23
ENDBRANCH  17  22
BRANCH  19  25
ATOM     25  O   UNL     1      19.490  35.721  10.485  1.00  0.00    -0.350 OA
BRANCH  25  26
ATOM     26  C   UNL     1      19.028  34.611   9.866  1.00  0.00     0.169 C 
BRANCH  26  27
ATOM     27  C   UNL     1      19.114  34.546   8.382  1.00  0.00     0.119 C 
BRANCH  27  28
ATOM     28  N   UNL     1      17.952  33.983   7.771  1.00  0.00    -0.092 NA
ATOM     29  N   UNL     1      16.849  34.130   8.290  1.00  0.00     0.001 N 
ATOM     30  N   UNL     1      15.718  34.615   8.464  1.00  0.00    -0.003 NA
ENDBRANCH  27  28
ENDBRANCH  26  27
ENDBRANCH  25  26
ENDBRANCH  19  25
BRANCH  20  31
ATOM     31  O   UNL     1      22.487  35.155   9.183  1.00  0.00    -0.387 OA
ATOM     32  H   UNL     1      21.546  35.127   8.890  1.00  0.00     0.211 HD
ENDBRANCH  20  31
BRANCH  21  33
ATOM     33  O   UNL     1      22.165  34.795  12.656  1.00  0.00    -0.385 OA
ATOM     34  H   UNL     1      21.563  34.235  13.226  1.00  0.00     0.211 HD
ENDBRANCH  21  33
ENDBRANCH  15  16
ENDBRANCH  10  15
BRANCH  12  35
ATOM     35  O   UNL     1      22.486  40.181   7.213  1.00  0.00    -0.385 OA
ATOM     36  H   UNL     1      21.677  40.723   7.328  1.00  0.00     0.211 HD
ENDBRANCH  12  35
BRANCH  13  37
ATOM     37  O   UNL     1      25.038  40.164   9.701  1.00  0.00    -0.387 OA
ATOM     38  H   UNL     1      25.873  39.623   9.655  1.00  0.00     0.211 HD
ENDBRANCH  13  37
BRANCH  14  39
ATOM     39  O   UNL     1      26.544  39.231   7.685  1.00  0.00    -0.387 OA
ATOM     40  H   UNL     1      26.786  38.744   8.517  1.00  0.00     0.211 HD
ENDBRANCH  14  39
ENDBRANCH   8   9
ENDBRANCH   7   8
ENDBRANCH   1   7
BRANCH   1  41
ATOM     41  C   UNL     1      28.068  36.076   6.390  1.00  0.00     0.364 C 
ATOM     42  O   UNL     1      29.153  35.590   6.017  1.00  0.00    -0.246 OA
BRANCH  41  43
ATOM     43  O   UNL     1      27.367  36.907   5.556  1.00  0.00    -0.477 OA
ATOM     44  H   UNL     1      26.407  37.167   5.720  1.00  0.00     0.296 HD
ENDBRANCH  41  43
ENDBRANCH   1  41
BRANCH   3  45
ATOM     45  O   UNL     1      26.892  33.515  10.052  1.00  0.00    -0.391 OA
ATOM     46  H   UNL     1      26.983  33.233  10.996  1.00  0.00     0.211 HD
ENDBRANCH   3  45
BRANCH   5  47
ATOM     47  C   UNL     1      29.312  37.691  10.277  1.00  0.00     0.176 C 
BRANCH  47  48
ATOM     48  O   UNL     1      29.817  38.683   9.493  1.00  0.00    -0.388 OA
ATOM     49  H   UNL     1      30.272  38.439   8.676  1.00  0.00     0.211 HD
ENDBRANCH  47  48
BRANCH  47  50
ATOM     50  C   UNL     1      28.161  38.205  11.099  1.00  0.00     0.165 C 
BRANCH  50  51
ATOM     51  O   UNL     1      27.478  39.140  10.283  1.00  0.00    -0.388 OA
ATOM     52  H   UNL     1      26.818  38.655   9.716  1.00  0.00     0.211 HD
ENDBRANCH  50  51
BRANCH  50  53
ATOM     53  C   UNL     1      28.558  38.942  12.334  1.00  0.00     0.154 C 
BRANCH  53  54
ATOM     54  N   UNL     1      28.887  40.318  12.163  1.00  0.00    -0.319 N 
ATOM     55  C   UNL     1      30.222  40.781  12.013  1.00  0.00     0.407 C 
ATOM     56  H   UNL     1      28.132  41.056  12.143  1.00  0.00     0.167 HD
ATOM     57  O   UNL     1      31.153  39.962  12.032  1.00  0.00    -0.225 OA
BRANCH  55  58
ATOM     58  O   UNL     1      30.519  42.138  11.844  1.00  0.00    -0.443 OA
BRANCH  58  59
ATOM     59  C   UNL     1      29.930  42.920  10.849  1.00  0.00     0.294 C 
BRANCH  59  60
ATOM     60  C   UNL     1      29.588  42.202   9.616  1.00  0.00     0.120 A 
ATOM     61  C   UNL     1      30.448  42.024   8.561  1.00  0.00     0.139 A 
ATOM     62  N   UNL     1      28.416  41.621   9.334  1.00  0.00    -0.132 NA
ATOM     63  N   UNL     1      29.767  41.328   7.647  1.00  0.00    -0.237 N 
ATOM     64  N   UNL     1      28.544  41.092   8.128  1.00  0.00    -0.066 NA
BRANCH  63  65
ATOM     65  C   UNL     1      30.283  40.908   6.358  1.00  0.00     0.223 C 
BRANCH  65  66
ATOM     66  C   UNL     1      31.758  40.704   6.479  1.00  0.00     0.197 C 
BRANCH  66  67
ATOM     67  O   UNL     1      32.276  40.032   5.401  1.00  0.00    -0.382 OA
ATOM     68  C   UNL     1      33.530  40.481   5.080  1.00  0.00     0.195 C 
ENDBRANCH  66  67
ENDBRANCH  65  66
BRANCH  65  69
ATOM     69  C   UNL     1      29.595  39.616   6.026  1.00  0.00     0.244 C 
ATOM     70  O   UNL     1      28.645  39.634   5.218  1.00  0.00    -0.273 OA
ATOM     71  N   UNL     1      30.045  38.420   6.640  1.00  0.00    -0.368 N 
ATOM     72  H   UNL     1      29.536  37.923   7.389  1.00  0.00     0.159 HD
ATOM     73  H   UNL     1      30.952  38.022   6.311  1.00  0.00     0.159 HD
ENDBRANCH  65  69
ENDBRANCH  63  65
ENDBRANCH  59  60
ENDBRANCH  58  59
ENDBRANCH  55  58
ENDBRANCH  53  54
ENDBRANCH  50  53
ENDBRANCH  47  50
ENDBRANCH   5  47
BRANCH   4  74
ATOM     74  N   UNL     1      29.151  35.178  11.587  1.00  0.00    -0.348 N 
ATOM     75  C   UNL     1      28.668  34.785  12.864  1.00  0.00     0.217 C 
ATOM     76  H   UNL     1      30.193  35.274  11.495  1.00  0.00     0.163 HD
ATOM     77  C   UNL     1      29.525  34.514  14.030  1.00  0.00     0.114 C 
ATOM     78  O   UNL     1      27.403  34.660  12.992  1.00  0.00    -0.275 OA
ENDBRANCH   4  74
TORSDOF 33
BEGIN_RES LYS A 131
REMARK  4 active torsions:
REMARK  status: ('A' for Active; 'I' for Inactive)
REMARK    1  A    between atoms: CA   and  CB  
REMARK    2  A    between atoms: CB   and  CG  
REMARK    3  A    between atoms: CG   and  CD  
REMARK    4  A    between atoms: CD   and  CE  
ROOT
ATOM      1  CA  LYS A 131      29.867  25.555  16.977  1.00 20.52     0.186 C 
ENDROOT
BRANCH   1   2
ATOM      2  CB  LYS A 131      28.345  25.722  17.026  1.00 20.94     0.034 C 
BRANCH   2   3
ATOM      3  CG  LYS A 131      27.599  24.436  16.707  1.00 22.96     0.005 C 
BRANCH   3   4
ATOM      4  CD  LYS A 131      26.990  23.815  17.933  1.00 24.33     0.041 C 
BRANCH   4   5
ATOM      5  CE  LYS A 131      25.615  23.252  17.589  1.00 26.91     0.338 C 
ATOM      6  NZ  LYS A 131      24.784  24.282  16.921  1.00 27.40     0.618 N 
ENDBRANCH   4   5
ENDBRANCH   3   4
ENDBRANCH   2   3
ENDBRANCH   1   2
END_RES LYS A 131
BEGIN_RES LYS A 135
REMARK  4 active torsions:
REMARK  status: ('A' for Active; 'I' for Inactive)
REMARK    5  A    between atoms: CA   and  CB  
REMARK    6  A    between atoms: CB   and  CG  
REMARK    7  A    between atoms: CG   and  CD  
REMARK    8  A    between atoms: CD   and  CE  
ROOT
ATOM      7  CA  LYS A 135      33.193  34.663   9.290  1.00 25.02     0.186 C 
ENDROOT
BRANCH   7   8
ATOM      8  CB  LYS A 135      32.060  35.360  10.034  1.00 26.63     0.034 C 
BRANCH   8   9
ATOM      9  CG  LYS A 135      32.518  36.523  10.876  1.00 29.45     0.005 C 
BRANCH   9  10
ATOM     10  CD  LYS A 135      32.132  36.316  12.332  1.00 32.00     0.041 C 
BRANCH  10  11
ATOM     11  CE  LYS A 135      33.079  35.337  13.000  1.00 34.25     0.338 C 
ATOM     12  NZ  LYS A 135      33.058  35.496  14.481  1.00 35.99     0.618 N 
ENDBRANCH  10  11
ENDBRANCH   9  10
ENDBRANCH   8   9
ENDBRANCH   7   8
END_RES LYS A 135
