REMARK VINA RESULT:    -4.266      5.289     10.463
REMARK INTER + INTRA:         -22.369
REMARK INTER:                 -10.490
REMARK INTRA:                 -11.879
REMARK UNBOUND:               -11.119
REMARK SMILES CC(=O)N[C@@H]1[C@@H](O)C[C@](OC[C@H]2O[C@@H](O[C@H]3[C@H](O)[C@@H](O)[C@H](OCCN=[N+]=[N-])O[C@@H]3CO)[C@H](O)[C@@H](O)[C@H]2O)(C(=O)O)O[C@H]1C(O)[C@H](O)CNC(=O)OCc1cn(CC(O)CO)nn1
REMARK SMILES IDX 43 1 42 2 9 3 8 4 41 5 6 6 5 7 10 8 11 9 12 10 14 11 13 12
REMARK SMILES IDX 32 13 34 14 36 15 15 16 16 17 29 18 28 19 21 20 17 21 19 22
REMARK SMILES IDX 30 23 31 24 22 26 23 27 24 28 25 29 26 30 27 31 18 32 20 34
REMARK SMILES IDX 33 36 35 38 37 40 38 42 39 43 40 44 7 46 4 48 2 49 1 51 3 52
REMARK SMILES IDX 44 53 45 55 46 56 47 58 48 59 49 60 50 62 51 63 52 64 53 65
REMARK SMILES IDX 54 66 62 67 55 68 61 69 56 70 57 71 58 72 59 74 60 75
REMARK H PARENT 31 25 18 33 20 35 33 37 35 39 37 41 40 45 7 47 4 50 44 54
REMARK H PARENT 46 57 48 61 58 73 60 76
REMARK Flexibility Score: inf
ROOT
ATOM      1  C   UNL     1      30.380  29.083  21.242  1.00  0.00     0.176 C 
ENDROOT
BRANCH   1   2
ATOM      2  C   UNL     1      29.005  28.395  21.146  1.00  0.00     0.178 C 
ATOM      3  C   UNL     1      26.868  28.603  20.163  1.00  0.00     0.272 C 
ATOM      4  C   UNL     1      26.212  28.384  21.497  1.00  0.00     0.113 C 
ATOM      5  O   UNL     1      28.171  29.079  20.368  1.00  0.00    -0.332 OA
ATOM      6  C   UNL     1      27.072  28.479  22.700  1.00  0.00     0.145 C 
ATOM      7  C   UNL     1      28.506  28.144  22.519  1.00  0.00     0.142 C 
BRANCH   3   8
ATOM      8  O   UNL     1      26.217  29.509  19.461  1.00  0.00    -0.338 OA
BRANCH   8   9
ATOM      9  C   UNL     1      26.150  30.734  19.155  1.00  0.00     0.199 C 
BRANCH   9  10
ATOM     10  C   UNL     1      26.945  31.399  18.078  1.00  0.00     0.179 C 
ATOM     11  C   UNL     1      28.543  33.009  17.783  1.00  0.00     0.282 C 
ATOM     12  O   UNL     1      28.086  32.053  18.684  1.00  0.00    -0.341 OA
ATOM     13  C   UNL     1      28.231  32.736  16.352  1.00  0.00     0.202 C 
ATOM     14  C   UNL     1      28.139  31.289  15.975  1.00  0.00     0.179 C 
ATOM     15  C   UNL     1      27.653  30.430  17.131  1.00  0.00     0.177 C 
BRANCH  11  16
ATOM     16  O   UNL     1      29.882  33.318  17.907  1.00  0.00    -0.341 OA
BRANCH  16  17
ATOM     17  C   UNL     1      30.355  34.190  16.929  1.00  0.00     0.184 C 
ATOM     18  C   UNL     1      31.753  33.804  16.550  1.00  0.00     0.178 C 
ATOM     19  O   UNL     1      32.695  34.773  16.858  1.00  0.00    -0.341 OA
ATOM     20  C   UNL     1      32.461  35.315  18.133  1.00  0.00     0.281 C 
ATOM     21  C   UNL     1      30.164  35.586  17.355  1.00  0.00     0.180 C 
ATOM     22  C   UNL     1      31.331  36.298  17.947  1.00  0.00     0.202 C 
BRANCH  18  23
ATOM     23  C   UNL     1      31.879  33.498  15.072  1.00  0.00     0.191 C 
BRANCH  23  24
ATOM     24  O   UNL     1      31.595  32.168  14.794  1.00  0.00    -0.394 OA
ATOM     25  H   UNL     1      32.384  31.630  15.122  1.00  0.00     0.210 HD
ENDBRANCH  23  24
ENDBRANCH  18  23
BRANCH  20  26
ATOM     26  O   UNL     1      33.631  35.959  18.500  1.00  0.00    -0.350 OA
BRANCH  26  27
ATOM     27  C   UNL     1      34.430  36.343  17.434  1.00  0.00     0.169 C 
BRANCH  27  28
ATOM     28  C   UNL     1      35.885  35.976  17.625  1.00  0.00     0.119 C 
BRANCH  28  29
ATOM     29  N   UNL     1      36.607  35.924  16.383  1.00  0.00    -0.092 NA
ATOM     30  N   UNL     1      37.559  35.190  16.143  1.00  0.00     0.001 N 
ATOM     31  N   UNL     1      38.557  34.474  16.071  1.00  0.00    -0.003 NA
ENDBRANCH  28  29
ENDBRANCH  27  28
ENDBRANCH  26  27
ENDBRANCH  20  26
BRANCH  21  32
ATOM     32  O   UNL     1      29.658  36.392  16.304  1.00  0.00    -0.387 OA
ATOM     33  H   UNL     1      30.475  36.880  15.962  1.00  0.00     0.211 HD
ENDBRANCH  21  32
BRANCH  22  34
ATOM     34  O   UNL     1      31.034  36.980  19.124  1.00  0.00    -0.385 OA
ATOM     35  H   UNL     1      31.729  37.603  19.394  1.00  0.00     0.211 HD
ENDBRANCH  22  34
ENDBRANCH  16  17
ENDBRANCH  11  16
BRANCH  13  36
ATOM     36  O   UNL     1      27.124  33.492  15.897  1.00  0.00    -0.385 OA
ATOM     37  H   UNL     1      26.458  32.951  15.435  1.00  0.00     0.211 HD
ENDBRANCH  13  36
BRANCH  14  38
ATOM     38  O   UNL     1      29.319  30.779  15.437  1.00  0.00    -0.387 OA
ATOM     39  H   UNL     1      29.985  31.504  15.373  1.00  0.00     0.211 HD
ENDBRANCH  14  38
BRANCH  15  40
ATOM     40  O   UNL     1      28.817  29.995  17.820  1.00  0.00    -0.387 OA
ATOM     41  H   UNL     1      28.698  29.072  18.152  1.00  0.00     0.211 HD
ENDBRANCH  15  40
ENDBRANCH   9  10
ENDBRANCH   8   9
ENDBRANCH   3   8
BRANCH   3  42
ATOM     42  C   UNL     1      26.985  27.316  19.403  1.00  0.00     0.364 C 
ATOM     43  O   UNL     1      26.291  26.343  19.834  1.00  0.00    -0.246 OA
BRANCH  42  44
ATOM     44  O   UNL     1      27.784  27.151  18.301  1.00  0.00    -0.477 OA
ATOM     45  H   UNL     1      27.563  27.588  17.400  1.00  0.00     0.296 HD
ENDBRANCH  42  44
ENDBRANCH   3  42
BRANCH   6  46
ATOM     46  O   UNL     1      26.987  29.812  23.167  1.00  0.00    -0.391 OA
ATOM     47  H   UNL     1      26.117  30.186  22.924  1.00  0.00     0.211 HD
ENDBRANCH   6  46
BRANCH   7  48
ATOM     48  N   UNL     1      28.742  26.780  22.986  1.00  0.00    -0.348 N 
ATOM     49  C   UNL     1      29.507  26.504  24.147  1.00  0.00     0.217 C 
ATOM     50  H   UNL     1      28.357  25.958  22.480  1.00  0.00     0.163 HD
ATOM     51  C   UNL     1      29.752  25.119  24.626  1.00  0.00     0.114 C 
ATOM     52  O   UNL     1      29.984  27.483  24.775  1.00  0.00    -0.275 OA
ENDBRANCH   7  48
ENDBRANCH   1   2
BRANCH   1  53
ATOM     53  O   UNL     1      30.605  29.466  22.550  1.00  0.00    -0.388 OA
ATOM     54  H   UNL     1      29.771  29.410  23.079  1.00  0.00     0.211 HD
ENDBRANCH   1  53
BRANCH   1  55
ATOM     55  C   UNL     1      31.471  28.124  20.793  1.00  0.00     0.165 C 
BRANCH  55  56
ATOM     56  O   UNL     1      30.774  26.990  20.309  1.00  0.00    -0.388 OA
ATOM     57  H   UNL     1      31.373  26.460  19.728  1.00  0.00     0.211 HD
ENDBRANCH  55  56
BRANCH  55  58
ATOM     58  C   UNL     1      32.380  27.684  21.889  1.00  0.00     0.154 C 
BRANCH  58  59
ATOM     59  N   UNL     1      33.385  28.678  22.201  1.00  0.00    -0.319 N 
ATOM     60  C   UNL     1      33.629  29.066  23.538  1.00  0.00     0.407 C 
ATOM     61  H   UNL     1      33.966  29.143  21.449  1.00  0.00     0.167 HD
ATOM     62  O   UNL     1      32.986  28.582  24.498  1.00  0.00    -0.225 OA
BRANCH  60  63
ATOM     63  O   UNL     1      34.599  29.998  23.845  1.00  0.00    -0.443 OA
BRANCH  63  64
ATOM     64  C   UNL     1      34.585  31.357  23.579  1.00  0.00     0.294 C 
BRANCH  64  65
ATOM     65  C   UNL     1      33.278  31.916  23.164  1.00  0.00     0.120 A 
ATOM     66  C   UNL     1      32.436  32.621  23.976  1.00  0.00     0.138 A 
ATOM     67  N   UNL     1      32.709  31.808  21.926  1.00  0.00    -0.132 NA
ATOM     68  N   UNL     1      31.368  32.931  23.218  1.00  0.00    -0.249 N 
ATOM     69  N   UNL     1      31.547  32.443  22.015  1.00  0.00    -0.067 NA
BRANCH  68  70
ATOM     70  C   UNL     1      30.195  33.668  23.636  1.00  0.00     0.180 C 
BRANCH  70  71
ATOM     71  C   UNL     1      29.111  32.631  23.962  1.00  0.00     0.161 C 
BRANCH  71  72
ATOM     72  O   UNL     1      28.942  31.854  22.842  1.00  0.00    -0.389 OA
ATOM     73  H   UNL     1      28.428  32.317  22.136  1.00  0.00     0.211 HD
ENDBRANCH  71  72
BRANCH  71  74
ATOM     74  C   UNL     1      29.537  31.811  25.156  1.00  0.00     0.189 C 
BRANCH  74  75
ATOM     75  O   UNL     1      29.360  30.470  24.897  1.00  0.00    -0.394 OA
ATOM     76  H   UNL     1      28.474  30.328  24.473  1.00  0.00     0.210 HD
ENDBRANCH  74  75
ENDBRANCH  71  74
ENDBRANCH  70  71
ENDBRANCH  68  70
ENDBRANCH  64  65
ENDBRANCH  63  64
ENDBRANCH  60  63
ENDBRANCH  58  59
ENDBRANCH  55  58
ENDBRANCH   1  55
TORSDOF 34
BEGIN_RES LYS A 131
REMARK  4 active torsions:
REMARK  status: ('A' for Active; 'I' for Inactive)
REMARK    1  A    between atoms: CA   and  CB  
REMARK    2  A    between atoms: CB   and  CG  
REMARK    3  A    between atoms: CG   and  CD  
REMARK    4  A    between atoms: CD   and  CE  
ROOT
ATOM      1  CA  LYS A 131      29.867  25.555  16.977  1.00 20.52     0.186 C 
ENDROOT
BRANCH   1   2
ATOM      2  CB  LYS A 131      28.345  25.722  17.026  1.00 20.94     0.034 C 
BRANCH   2   3
ATOM      3  CG  LYS A 131      27.599  24.486  16.546  1.00 22.96     0.005 C 
BRANCH   3   4
ATOM      4  CD  LYS A 131      27.015  23.699  17.686  1.00 24.33     0.041 C 
BRANCH   4   5
ATOM      5  CE  LYS A 131      25.494  23.692  17.572  1.00 26.91     0.338 C 
ATOM      6  NZ  LYS A 131      24.975  22.305  17.635  1.00 27.40     0.618 N 
ENDBRANCH   4   5
ENDBRANCH   3   4
ENDBRANCH   2   3
ENDBRANCH   1   2
END_RES LYS A 131
BEGIN_RES LYS A 135
REMARK  4 active torsions:
REMARK  status: ('A' for Active; 'I' for Inactive)
REMARK    5  A    between atoms: CA   and  CB  
REMARK    6  A    between atoms: CB   and  CG  
REMARK    7  A    between atoms: CG   and  CD  
REMARK    8  A    between atoms: CD   and  CE  
ROOT
ATOM      7  CA  LYS A 135      33.193  34.663   9.290  1.00 25.02     0.186 C 
ENDROOT
BRANCH   7   8
ATOM      8  CB  LYS A 135      32.060  35.360  10.034  1.00 26.63     0.034 C 
BRANCH   8   9
ATOM      9  CG  LYS A 135      30.711  34.730   9.804  1.00 29.45     0.005 C 
BRANCH   9  10
ATOM     10  CD  LYS A 135      30.446  34.556   8.316  1.00 32.00     0.041 C 
BRANCH  10  11
ATOM     11  CE  LYS A 135      29.015  34.933   7.982  1.00 34.25     0.338 C 
ATOM     12  NZ  LYS A 135      28.919  35.515   6.615  1.00 35.99     0.618 N 
ENDBRANCH  10  11
ENDBRANCH   9  10
ENDBRANCH   8   9
ENDBRANCH   7   8
END_RES LYS A 135
