REMARK VINA RESULT:    -5.026      4.665     11.211
REMARK INTER + INTRA:         -24.284
REMARK INTER:                 -15.393
REMARK INTRA:                  -8.891
REMARK UNBOUND:               -10.737
REMARK SMILES CC(=O)N[C@@H]1[C@@H](O)C[C@](OC[C@H]2O[C@@H](O[C@H]3[C@H](O)[C@@H](O)[C@H](OCCN=[N+]=[N-])O[C@@H]3CO)[C@H](O)[C@@H](O)[C@H]2O)(C(=O)O)O[C@H]1C(O)[C@H](O)CNC(=O)OCc1cn(CCNC(=O)NCc2ccco2)nn1
REMARK SMILES IDX 43 1 42 2 9 3 8 4 41 5 6 6 5 7 10 8 11 9 12 10 14 11 13 12
REMARK SMILES IDX 32 13 34 14 36 15 15 16 16 17 29 18 28 19 21 20 17 21 19 22
REMARK SMILES IDX 30 23 31 24 22 26 23 27 24 28 25 29 26 30 27 31 18 32 20 34
REMARK SMILES IDX 33 36 35 38 37 40 38 42 39 43 40 44 7 46 4 48 2 49 1 51 3 52
REMARK SMILES IDX 44 53 45 55 46 56 47 58 48 59 49 60 50 62 51 63 52 64 53 65
REMARK SMILES IDX 54 66 69 67 55 68 68 69 56 70 57 71 58 72 59 73 60 75 61 76
REMARK SMILES IDX 62 78 63 79 64 80 67 81 65 82 66 83
REMARK H PARENT 31 25 18 33 20 35 33 37 35 39 37 41 40 45 7 47 4 50 44 54
REMARK H PARENT 46 57 48 61 58 74 61 77
REMARK Flexibility Score: inf
ROOT
ATOM      1  C   UNL     1      28.381  36.281  13.878  1.00  0.00     0.176 C 
ENDROOT
BRANCH   1   2
ATOM      2  C   UNL     1      29.324  36.730  12.807  1.00  0.00     0.178 C 
ATOM      3  C   UNL     1      31.418  35.681  13.216  1.00  0.00     0.272 C 
ATOM      4  C   UNL     1      31.537  36.833  14.265  1.00  0.00     0.113 C 
ATOM      5  O   UNL     1      30.286  35.819  12.497  1.00  0.00    -0.332 OA
ATOM      6  C   UNL     1      31.101  38.139  13.732  1.00  0.00     0.145 C 
ATOM      7  C   UNL     1      29.827  38.123  12.923  1.00  0.00     0.142 C 
BRANCH   3   8
ATOM      8  O   UNL     1      31.301  34.551  13.998  1.00  0.00    -0.338 OA
BRANCH   8   9
ATOM      9  C   UNL     1      31.004  34.636  15.291  1.00  0.00     0.199 C 
BRANCH   9  10
ATOM     10  C   UNL     1      30.139  33.759  16.056  1.00  0.00     0.179 C 
ATOM     11  C   UNL     1      28.179  32.585  16.263  1.00  0.00     0.282 C 
ATOM     12  O   UNL     1      29.073  33.192  15.380  1.00  0.00    -0.341 OA
ATOM     13  C   UNL     1      28.748  32.217  17.583  1.00  0.00     0.202 C 
ATOM     14  C   UNL     1      30.205  31.857  17.595  1.00  0.00     0.179 C 
ATOM     15  C   UNL     1      30.984  32.555  16.519  1.00  0.00     0.177 C 
BRANCH  11  16
ATOM     16  O   UNL     1      27.559  31.480  15.704  1.00  0.00    -0.341 OA
BRANCH  16  17
ATOM     17  C   UNL     1      26.285  31.236  16.254  1.00  0.00     0.184 C 
ATOM     18  C   UNL     1      26.023  29.763  16.135  1.00  0.00     0.178 C 
ATOM     19  O   UNL     1      24.676  29.482  15.917  1.00  0.00    -0.341 OA
ATOM     20  C   UNL     1      24.370  29.974  14.654  1.00  0.00     0.281 C 
ATOM     21  C   UNL     1      25.311  32.121  15.552  1.00  0.00     0.180 C 
ATOM     22  C   UNL     1      24.284  31.463  14.710  1.00  0.00     0.202 C 
BRANCH  18  23
ATOM     23  C   UNL     1      26.380  29.109  17.470  1.00  0.00     0.191 C 
BRANCH  23  24
ATOM     24  O   UNL     1      27.779  28.917  17.471  1.00  0.00    -0.394 OA
ATOM     25  H   UNL     1      28.120  29.578  16.800  1.00  0.00     0.210 HD
ENDBRANCH  23  24
ENDBRANCH  18  23
BRANCH  20  26
ATOM     26  O   UNL     1      23.095  29.490  14.346  1.00  0.00    -0.350 OA
BRANCH  26  27
ATOM     27  C   UNL     1      23.103  28.743  13.168  1.00  0.00     0.169 C 
BRANCH  27  28
ATOM     28  C   UNL     1      21.843  29.141  12.395  1.00  0.00     0.119 C 
BRANCH  28  29
ATOM     29  N   UNL     1      21.843  30.592  12.326  1.00  0.00    -0.092 NA
ATOM     30  N   UNL     1      20.785  31.233  12.400  1.00  0.00     0.001 N 
ATOM     31  N   UNL     1      19.775  31.848  12.783  1.00  0.00    -0.003 NA
ENDBRANCH  28  29
ENDBRANCH  27  28
ENDBRANCH  26  27
ENDBRANCH  20  26
BRANCH  21  32
ATOM     32  O   UNL     1      24.691  32.919  16.534  1.00  0.00    -0.387 OA
ATOM     33  H   UNL     1      25.072  33.814  16.578  1.00  0.00     0.211 HD
ENDBRANCH  21  32
BRANCH  22  34
ATOM     34  O   UNL     1      24.452  31.913  13.376  1.00  0.00    -0.385 OA
ATOM     35  H   UNL     1      24.591  32.906  13.454  1.00  0.00     0.211 HD
ENDBRANCH  22  34
ENDBRANCH  16  17
ENDBRANCH  11  16
BRANCH  13  36
ATOM     36  O   UNL     1      28.426  33.137  18.591  1.00  0.00    -0.385 OA
ATOM     37  H   UNL     1      28.881  32.929  19.438  1.00  0.00     0.211 HD
ENDBRANCH  13  36
BRANCH  14  38
ATOM     38  O   UNL     1      30.401  30.471  17.525  1.00  0.00    -0.387 OA
ATOM     39  H   UNL     1      31.230  30.353  16.983  1.00  0.00     0.211 HD
ENDBRANCH  14  38
BRANCH  15  40
ATOM     40  O   UNL     1      31.324  31.749  15.460  1.00  0.00    -0.387 OA
ATOM     41  H   UNL     1      31.579  32.319  14.711  1.00  0.00     0.211 HD
ENDBRANCH  15  40
ENDBRANCH   9  10
ENDBRANCH   8   9
ENDBRANCH   3   8
BRANCH   3  42
ATOM     42  C   UNL     1      32.699  35.728  12.516  1.00  0.00     0.364 C 
ATOM     43  O   UNL     1      32.930  36.578  11.644  1.00  0.00    -0.246 OA
BRANCH  42  44
ATOM     44  O   UNL     1      33.746  34.836  12.766  1.00  0.00    -0.477 OA
ATOM     45  H   UNL     1      33.920  34.534  13.726  1.00  0.00     0.296 HD
ENDBRANCH  42  44
ENDBRANCH   3  42
BRANCH   6  46
ATOM     46  O   UNL     1      30.926  39.006  14.827  1.00  0.00    -0.391 OA
ATOM     47  H   UNL     1      29.960  39.076  15.031  1.00  0.00     0.211 HD
ENDBRANCH   6  46
BRANCH   7  48
ATOM     48  N   UNL     1      30.102  38.707  11.610  1.00  0.00    -0.348 N 
ATOM     49  C   UNL     1      30.087  40.094  11.412  1.00  0.00     0.217 C 
ATOM     50  H   UNL     1      30.312  38.059  10.822  1.00  0.00     0.163 HD
ATOM     51  C   UNL     1      30.359  40.738  10.092  1.00  0.00     0.114 C 
ATOM     52  O   UNL     1      29.824  40.826  12.420  1.00  0.00    -0.275 OA
ENDBRANCH   7  48
ENDBRANCH   1   2
BRANCH   1  53
ATOM     53  O   UNL     1      27.935  34.954  13.538  1.00  0.00    -0.388 OA
ATOM     54  H   UNL     1      27.003  34.922  13.803  1.00  0.00     0.211 HD
ENDBRANCH   1  53
BRANCH   1  55
ATOM     55  C   UNL     1      27.091  37.039  13.992  1.00  0.00     0.165 C 
BRANCH  55  56
ATOM     56  O   UNL     1      26.924  37.818  15.112  1.00  0.00    -0.388 OA
ATOM     57  H   UNL     1      27.250  37.391  15.944  1.00  0.00     0.211 HD
ENDBRANCH  55  56
BRANCH  55  58
ATOM     58  C   UNL     1      25.885  36.114  13.795  1.00  0.00     0.154 C 
BRANCH  58  59
ATOM     59  N   UNL     1      25.350  36.240  12.461  1.00  0.00    -0.319 N 
ATOM     60  C   UNL     1      25.303  35.168  11.540  1.00  0.00     0.407 C 
ATOM     61  H   UNL     1      24.979  37.163  12.165  1.00  0.00     0.167 HD
ATOM     62  O   UNL     1      25.744  34.040  11.883  1.00  0.00    -0.225 OA
BRANCH  60  63
ATOM     63  O   UNL     1      24.782  35.320  10.259  1.00  0.00    -0.443 OA
BRANCH  63  64
ATOM     64  C   UNL     1      25.232  36.410   9.461  1.00  0.00     0.294 C 
BRANCH  64  65
ATOM     65  C   UNL     1      24.015  36.898   8.742  1.00  0.00     0.120 A 
ATOM     66  C   UNL     1      22.825  36.227   8.658  1.00  0.00     0.138 A 
ATOM     67  N   UNL     1      23.882  38.066   8.067  1.00  0.00    -0.132 NA
ATOM     68  N   UNL     1      22.015  36.994   7.944  1.00  0.00    -0.250 N 
ATOM     69  N   UNL     1      22.660  38.105   7.589  1.00  0.00    -0.067 NA
BRANCH  68  70
ATOM     70  C   UNL     1      20.635  36.655   7.597  1.00  0.00     0.167 C 
BRANCH  70  71
ATOM     71  C   UNL     1      20.393  35.225   8.082  1.00  0.00     0.141 C 
BRANCH  71  72
ATOM     72  N   UNL     1      19.443  34.633   7.186  1.00  0.00    -0.336 N 
ATOM     73  C   UNL     1      18.353  33.843   7.605  1.00  0.00     0.315 C 
ATOM     74  H   UNL     1      19.593  34.813   6.158  1.00  0.00     0.165 HD
ATOM     75  O   UNL     1      18.160  33.593   8.814  1.00  0.00    -0.249 OA
ATOM     76  N   UNL     1      17.454  33.327   6.611  1.00  0.00    -0.331 N 
ATOM     77  H   UNL     1      17.655  33.564   5.606  1.00  0.00     0.165 HD
BRANCH  76  78
ATOM     78  C   UNL     1      16.330  32.521   6.998  1.00  0.00     0.193 C 
BRANCH  78  79
ATOM     79  C   UNL     1      16.530  31.112   6.566  1.00  0.00     0.122 A 
ATOM     80  C   UNL     1      16.683  30.040   7.436  1.00  0.00     0.047 A 
ATOM     81  O   UNL     1      16.592  30.670   5.355  1.00  0.00    -0.467 OA
ATOM     82  C   UNL     1      16.839  28.936   6.649  1.00  0.00     0.042 A 
ATOM     83  C   UNL     1      16.777  29.368   5.352  1.00  0.00     0.195 A 
ENDBRANCH  78  79
ENDBRANCH  76  78
ENDBRANCH  71  72
ENDBRANCH  70  71
ENDBRANCH  68  70
ENDBRANCH  64  65
ENDBRANCH  63  64
ENDBRANCH  60  63
ENDBRANCH  58  59
ENDBRANCH  55  58
ENDBRANCH   1  55
TORSDOF 34
BEGIN_RES LYS A 131
REMARK  4 active torsions:
REMARK  status: ('A' for Active; 'I' for Inactive)
REMARK    1  A    between atoms: CA   and  CB  
REMARK    2  A    between atoms: CB   and  CG  
REMARK    3  A    between atoms: CG   and  CD  
REMARK    4  A    between atoms: CD   and  CE  
ROOT
ATOM      1  CA  LYS A 131      29.867  25.555  16.977  1.00 20.52     0.186 C 
ENDROOT
BRANCH   1   2
ATOM      2  CB  LYS A 131      28.345  25.722  17.026  1.00 20.94     0.034 C 
BRANCH   2   3
ATOM      3  CG  LYS A 131      27.602  24.400  16.912  1.00 22.96     0.005 C 
BRANCH   3   4
ATOM      4  CD  LYS A 131      26.417  24.334  17.836  1.00 24.33     0.041 C 
BRANCH   4   5
ATOM      5  CE  LYS A 131      26.401  25.570  18.730  1.00 26.91     0.338 C 
ATOM      6  NZ  LYS A 131      25.541  25.341  19.915  1.00 27.40     0.618 N 
ENDBRANCH   4   5
ENDBRANCH   3   4
ENDBRANCH   2   3
ENDBRANCH   1   2
END_RES LYS A 131
BEGIN_RES LYS A 135
REMARK  4 active torsions:
REMARK  status: ('A' for Active; 'I' for Inactive)
REMARK    5  A    between atoms: CA   and  CB  
REMARK    6  A    between atoms: CB   and  CG  
REMARK    7  A    between atoms: CG   and  CD  
REMARK    8  A    between atoms: CD   and  CE  
ROOT
ATOM      7  CA  LYS A 135      33.193  34.663   9.290  1.00 25.02     0.186 C 
ENDROOT
BRANCH   7   8
ATOM      8  CB  LYS A 135      32.060  35.360  10.034  1.00 26.63     0.034 C 
BRANCH   8   9
ATOM      9  CG  LYS A 135      30.787  35.461   9.235  1.00 29.45     0.005 C 
BRANCH   9  10
ATOM     10  CD  LYS A 135      30.154  34.089   9.058  1.00 32.00     0.041 C 
BRANCH  10  11
ATOM     11  CE  LYS A 135      28.693  34.120   9.465  1.00 34.25     0.338 C 
ATOM     12  NZ  LYS A 135      27.826  34.515   8.320  1.00 35.99     0.618 N 
ENDBRANCH  10  11
ENDBRANCH   9  10
ENDBRANCH   8   9
ENDBRANCH   7   8
END_RES LYS A 135
