REMARK VINA RESULT:    -4.351      4.404     10.689
REMARK INTER + INTRA:         -22.217
REMARK INTER:                 -10.731
REMARK INTRA:                 -11.485
REMARK UNBOUND:               -11.125
REMARK SMILES CC(=O)N[C@@H]1[C@@H](O)C[C@](OC[C@H]2O[C@@H](O[C@H]3[C@H](O)[C@@H](O)[C@H](OCCN=[N+]=[N-])O[C@@H]3CO)[C@H](O)[C@@H](O)[C@H]2O)(C(=O)O)O[C@H]1C(O)[C@H](O)CNC(=O)OCc1cn([C@@H](C)C(=O)O)nn1
REMARK SMILES IDX 9 1 8 2 6 3 5 4 42 5 41 6 10 7 11 8 12 9 14 10 13 11 32 12
REMARK SMILES IDX 34 13 36 14 15 15 16 16 29 17 28 18 21 19 17 20 19 21 30 22
REMARK SMILES IDX 31 23 22 25 23 26 24 27 25 28 26 29 27 30 18 31 20 33 33 35
REMARK SMILES IDX 35 37 37 39 38 41 39 42 40 43 7 45 43 47 44 48 45 50 46 51
REMARK SMILES IDX 47 53 48 54 49 55 50 57 51 58 52 59 53 60 54 61 62 62 55 63
REMARK SMILES IDX 61 64 56 65 57 66 58 67 59 68 60 69 4 71 2 72 1 74 3 75
REMARK H PARENT 31 24 18 32 20 34 33 36 35 38 37 40 40 44 7 46 44 49 46 52
REMARK H PARENT 48 56 60 70 4 73
REMARK Flexibility Score: inf
ROOT
ATOM      1  C   UNL     1      27.987  30.094  21.734  1.00  0.00     0.272 C 
ATOM      2  C   UNL     1      28.268  30.993  22.875  1.00  0.00     0.113 C 
ATOM      3  C   UNL     1      29.365  31.936  22.437  1.00  0.00     0.145 C 
ATOM      4  C   UNL     1      30.632  31.008  22.432  1.00  0.00     0.142 C 
ATOM      5  C   UNL     1      30.322  29.722  21.833  1.00  0.00     0.178 C 
ATOM      6  O   UNL     1      29.150  29.602  21.135  1.00  0.00    -0.332 OA
ENDROOT
BRANCH   1   7
ATOM      7  O   UNL     1      27.159  30.653  20.810  1.00  0.00    -0.338 OA
BRANCH   7   8
ATOM      8  C   UNL     1      26.246  29.886  20.188  1.00  0.00     0.199 C 
BRANCH   8   9
ATOM      9  C   UNL     1      26.333  30.055  18.650  1.00  0.00     0.179 C 
ATOM     10  C   UNL     1      26.840  31.674  17.085  1.00  0.00     0.282 C 
ATOM     11  O   UNL     1      26.856  31.301  18.425  1.00  0.00    -0.341 OA
ATOM     12  C   UNL     1      26.469  30.543  16.172  1.00  0.00     0.202 C 
ATOM     13  C   UNL     1      27.229  29.283  16.541  1.00  0.00     0.179 C 
ATOM     14  C   UNL     1      27.174  28.993  18.031  1.00  0.00     0.177 C 
BRANCH  10  15
ATOM     15  O   UNL     1      28.075  32.171  16.645  1.00  0.00    -0.341 OA
BRANCH  15  16
ATOM     16  C   UNL     1      28.813  32.712  17.688  1.00  0.00     0.184 C 
ATOM     17  C   UNL     1      28.982  34.185  17.492  1.00  0.00     0.178 C 
ATOM     18  O   UNL     1      30.299  34.532  17.190  1.00  0.00    -0.341 OA
ATOM     19  C   UNL     1      30.790  33.772  16.125  1.00  0.00     0.281 C 
ATOM     20  C   UNL     1      30.156  32.021  17.708  1.00  0.00     0.180 C 
ATOM     21  C   UNL     1      31.016  32.339  16.517  1.00  0.00     0.202 C 
BRANCH  17  22
ATOM     22  C   UNL     1      28.567  34.971  18.715  1.00  0.00     0.191 C 
BRANCH  22  23
ATOM     23  O   UNL     1      29.469  34.818  19.765  1.00  0.00    -0.394 OA
ATOM     24  H   UNL     1      29.751  33.883  19.828  1.00  0.00     0.210 HD
ENDBRANCH  22  23
ENDBRANCH  17  22
BRANCH  19  25
ATOM     25  O   UNL     1      32.005  34.334  15.774  1.00  0.00    -0.350 OA
BRANCH  25  26
ATOM     26  C   UNL     1      31.785  35.430  14.967  1.00  0.00     0.169 C 
BRANCH  26  27
ATOM     27  C   UNL     1      31.346  34.995  13.584  1.00  0.00     0.119 C 
BRANCH  27  28
ATOM     28  N   UNL     1      30.071  35.643  13.282  1.00  0.00    -0.092 NA
ATOM     29  N   UNL     1      28.991  35.074  13.443  1.00  0.00     0.001 N 
ATOM     30  N   UNL     1      27.986  34.528  13.860  1.00  0.00    -0.003 NA
ENDBRANCH  27  28
ENDBRANCH  26  27
ENDBRANCH  25  26
ENDBRANCH  19  25
BRANCH  20  31
ATOM     31  O   UNL     1      30.867  32.292  18.877  1.00  0.00    -0.387 OA
ATOM     32  H   UNL     1      31.493  33.043  18.795  1.00  0.00     0.211 HD
ENDBRANCH  20  31
BRANCH  21  33
ATOM     33  O   UNL     1      30.663  31.529  15.440  1.00  0.00    -0.385 OA
ATOM     34  H   UNL     1      30.327  30.654  15.743  1.00  0.00     0.211 HD
ENDBRANCH  21  33
ENDBRANCH  15  16
ENDBRANCH  10  15
BRANCH  12  35
ATOM     35  O   UNL     1      25.117  30.342  16.036  1.00  0.00    -0.385 OA
ATOM     36  H   UNL     1      24.657  30.480  16.922  1.00  0.00     0.211 HD
ENDBRANCH  12  35
BRANCH  13  37
ATOM     37  O   UNL     1      28.574  29.501  16.171  1.00  0.00    -0.387 OA
ATOM     38  H   UNL     1      28.877  30.403  16.455  1.00  0.00     0.211 HD
ENDBRANCH  13  37
BRANCH  14  39
ATOM     39  O   UNL     1      28.456  28.971  18.580  1.00  0.00    -0.387 OA
ATOM     40  H   UNL     1      29.072  29.498  18.008  1.00  0.00     0.211 HD
ENDBRANCH  14  39
ENDBRANCH   8   9
ENDBRANCH   7   8
ENDBRANCH   1   7
BRANCH   1  41
ATOM     41  C   UNL     1      27.352  28.865  22.281  1.00  0.00     0.364 C 
ATOM     42  O   UNL     1      27.666  27.752  21.836  1.00  0.00    -0.246 OA
BRANCH  41  43
ATOM     43  O   UNL     1      26.402  28.933  23.290  1.00  0.00    -0.477 OA
ATOM     44  H   UNL     1      26.354  28.205  24.019  1.00  0.00     0.296 HD
ENDBRANCH  41  43
ENDBRANCH   1  41
BRANCH   3  45
ATOM     45  O   UNL     1      29.150  32.250  21.101  1.00  0.00    -0.391 OA
ATOM     46  H   UNL     1      28.635  31.580  20.621  1.00  0.00     0.211 HD
ENDBRANCH   3  45
BRANCH   5  47
ATOM     47  C   UNL     1      31.408  29.095  20.972  1.00  0.00     0.176 C 
BRANCH  47  48
ATOM     48  O   UNL     1      31.136  29.499  19.616  1.00  0.00    -0.388 OA
ATOM     49  H   UNL     1      31.826  29.143  19.033  1.00  0.00     0.211 HD
ENDBRANCH  47  48
BRANCH  47  50
ATOM     50  C   UNL     1      31.330  27.583  20.890  1.00  0.00     0.165 C 
BRANCH  50  51
ATOM     51  O   UNL     1      30.243  27.078  20.247  1.00  0.00    -0.388 OA
ATOM     52  H   UNL     1      30.021  26.134  20.408  1.00  0.00     0.211 HD
ENDBRANCH  50  51
BRANCH  50  53
ATOM     53  C   UNL     1      31.696  26.926  22.177  1.00  0.00     0.154 C 
BRANCH  53  54
ATOM     54  N   UNL     1      32.925  27.296  22.772  1.00  0.00    -0.319 N 
ATOM     55  C   UNL     1      33.119  27.928  24.028  1.00  0.00     0.407 C 
ATOM     56  H   UNL     1      33.806  27.074  22.211  1.00  0.00     0.167 HD
ATOM     57  O   UNL     1      32.135  28.200  24.725  1.00  0.00    -0.225 OA
BRANCH  55  58
ATOM     58  O   UNL     1      34.420  28.237  24.460  1.00  0.00    -0.443 OA
BRANCH  58  59
ATOM     59  C   UNL     1      35.466  28.386  23.536  1.00  0.00     0.294 C 
BRANCH  59  60
ATOM     60  C   UNL     1      35.457  29.682  22.849  1.00  0.00     0.120 A 
ATOM     61  C   UNL     1      36.450  30.635  22.768  1.00  0.00     0.139 A 
ATOM     62  N   UNL     1      34.390  30.146  22.147  1.00  0.00    -0.132 NA
ATOM     63  N   UNL     1      35.965  31.635  22.030  1.00  0.00    -0.238 N 
ATOM     64  N   UNL     1      34.726  31.346  21.654  1.00  0.00    -0.066 NA
BRANCH  63  65
ATOM     65  C   UNL     1      36.672  32.852  21.688  1.00  0.00     0.215 C 
ATOM     66  C   UNL     1      37.549  32.611  20.499  1.00  0.00     0.046 C 
BRANCH  65  67
ATOM     67  C   UNL     1      35.731  33.963  21.414  1.00  0.00     0.328 C 
ATOM     68  O   UNL     1      35.926  34.678  20.401  1.00  0.00    -0.250 OA
BRANCH  67  69
ATOM     69  O   UNL     1      34.646  34.238  22.233  1.00  0.00    -0.480 OA
ATOM     70  H   UNL     1      34.453  33.693  23.065  1.00  0.00     0.296 HD
ENDBRANCH  67  69
ENDBRANCH  65  67
ENDBRANCH  63  65
ENDBRANCH  59  60
ENDBRANCH  58  59
ENDBRANCH  55  58
ENDBRANCH  53  54
ENDBRANCH  50  53
ENDBRANCH  47  50
ENDBRANCH   5  47
BRANCH   4  71
ATOM     71  N   UNL     1      31.147  30.981  23.788  1.00  0.00    -0.348 N 
ATOM     72  C   UNL     1      32.051  31.875  24.360  1.00  0.00     0.217 C 
ATOM     73  H   UNL     1      30.789  30.191  24.397  1.00  0.00     0.163 HD
ATOM     74  C   UNL     1      32.508  31.738  25.764  1.00  0.00     0.114 C 
ATOM     75  O   UNL     1      32.491  32.815  23.673  1.00  0.00    -0.275 OA
ENDBRANCH   4  71
TORSDOF 32
BEGIN_RES LYS A 131
REMARK  4 active torsions:
REMARK  status: ('A' for Active; 'I' for Inactive)
REMARK    1  A    between atoms: CA   and  CB  
REMARK    2  A    between atoms: CB   and  CG  
REMARK    3  A    between atoms: CG   and  CD  
REMARK    4  A    between atoms: CD   and  CE  
ROOT
ATOM      1  CA  LYS A 131      29.867  25.555  16.977  1.00 20.52     0.186 C 
ENDROOT
BRANCH   1   2
ATOM      2  CB  LYS A 131      28.345  25.722  17.026  1.00 20.94     0.034 C 
BRANCH   2   3
ATOM      3  CG  LYS A 131      27.601  24.401  16.903  1.00 22.96     0.005 C 
BRANCH   3   4
ATOM      4  CD  LYS A 131      26.653  24.176  18.048  1.00 24.33     0.041 C 
BRANCH   4   5
ATOM      5  CE  LYS A 131      25.536  23.236  17.606  1.00 26.91     0.338 C 
ATOM      6  NZ  LYS A 131      24.475  23.990  16.897  1.00 27.40     0.618 N 
ENDBRANCH   4   5
ENDBRANCH   3   4
ENDBRANCH   2   3
ENDBRANCH   1   2
END_RES LYS A 131
BEGIN_RES LYS A 135
REMARK  4 active torsions:
REMARK  status: ('A' for Active; 'I' for Inactive)
REMARK    5  A    between atoms: CA   and  CB  
REMARK    6  A    between atoms: CB   and  CG  
REMARK    7  A    between atoms: CG   and  CD  
REMARK    8  A    between atoms: CD   and  CE  
ROOT
ATOM      7  CA  LYS A 135      33.193  34.663   9.290  1.00 25.02     0.186 C 
ENDROOT
BRANCH   7   8
ATOM      8  CB  LYS A 135      32.060  35.360  10.034  1.00 26.63     0.034 C 
BRANCH   8   9
ATOM      9  CG  LYS A 135      30.721  34.692   9.854  1.00 29.45     0.005 C 
BRANCH   9  10
ATOM     10  CD  LYS A 135      30.291  34.736   8.396  1.00 32.00     0.041 C 
BRANCH  10  11
ATOM     11  CE  LYS A 135      28.791  34.544   8.277  1.00 34.25     0.338 C 
ATOM     12  NZ  LYS A 135      28.089  35.853   8.180  1.00 35.99     0.618 N 
ENDBRANCH  10  11
ENDBRANCH   9  10
ENDBRANCH   8   9
ENDBRANCH   7   8
END_RES LYS A 135
