REMARK VINA RESULT:    -3.148      3.706      7.879
REMARK INTER + INTRA:         -22.583
REMARK INTER:                 -12.312
REMARK INTRA:                 -10.270
REMARK UNBOUND:               -13.729
REMARK SMILES CCOC(CCn1cc(COC(=O)NC[C@@H](O)C(O)[C@@H]2O[C@@](OC[C@H]3O[C@@H](O[C@H]4[C@H](O)[C@@H](O)[C@H](OCCN=[N+]=[N-])O[C@@H]4CO)[C@H](O)[C@@H](O)[C@H]3O)(C(=O)O)C[C@H](O)[C@H]2NC(C)=O)nn1)OCC
REMARK SMILES IDX 18 1 20 2 22 3 54 4 21 5 55 6 57 7 23 8 24 9 25 10 27 11
REMARK SMILES IDX 26 12 45 13 47 14 49 15 28 16 29 17 42 18 41 19 34 20 30 21
REMARK SMILES IDX 32 22 43 23 44 24 35 26 36 27 37 28 38 29 39 30 40 31 31 32
REMARK SMILES IDX 33 34 46 36 48 38 50 40 51 42 52 43 53 44 56 46 58 48 59 49
REMARK SMILES IDX 60 51 61 52 19 53 16 55 17 56 15 58 14 59 12 60 13 62 11 63
REMARK SMILES IDX 10 64 9 65 8 66 62 67 7 68 63 69 6 70 5 71 4 72 3 73 2 74
REMARK SMILES IDX 1 75 64 76 65 77 66 78
REMARK H PARENT 44 25 31 33 33 35 46 37 48 39 50 41 53 45 56 47 58 50 19 54
REMARK H PARENT 17 57 14 61
REMARK Flexibility Score: inf
ROOT
ATOM      1  C   UNL     1      30.245  38.116   8.699  1.00  0.00     0.176 C 
ENDROOT
BRANCH   1   2
ATOM      2  C   UNL     1      29.494  38.300   7.413  1.00  0.00     0.178 C 
ATOM      3  C   UNL     1      28.308  39.819   6.133  1.00  0.00     0.272 C 
ATOM      4  C   UNL     1      28.348  38.658   5.205  1.00  0.00     0.113 C 
ATOM      5  O   UNL     1      28.951  39.574   7.368  1.00  0.00    -0.332 OA
ATOM      6  C   UNL     1      28.024  37.330   5.798  1.00  0.00     0.145 C 
ATOM      7  C   UNL     1      28.290  37.358   7.309  1.00  0.00     0.142 C 
BRANCH   3   8
ATOM      8  O   UNL     1      27.131  40.395   6.391  1.00  0.00    -0.338 OA
BRANCH   8   9
ATOM      9  C   UNL     1      26.072  40.255   5.573  1.00  0.00     0.199 C 
BRANCH   9  10
ATOM     10  C   UNL     1      24.830  40.874   6.174  1.00  0.00     0.179 C 
ATOM     11  C   UNL     1      23.282  40.786   7.799  1.00  0.00     0.282 C 
ATOM     12  O   UNL     1      24.662  40.596   7.518  1.00  0.00    -0.341 OA
ATOM     13  C   UNL     1      23.001  42.242   7.755  1.00  0.00     0.202 C 
ATOM     14  C   UNL     1      23.395  42.797   6.407  1.00  0.00     0.179 C 
ATOM     15  C   UNL     1      24.768  42.381   5.949  1.00  0.00     0.177 C 
BRANCH  11  16
ATOM     16  O   UNL     1      22.980  40.156   9.011  1.00  0.00    -0.341 OA
BRANCH  16  17
ATOM     17  C   UNL     1      22.445  38.934   8.754  1.00  0.00     0.184 C 
ATOM     18  C   UNL     1      21.111  38.607   9.305  1.00  0.00     0.178 C 
ATOM     19  O   UNL     1      20.614  37.499   8.603  1.00  0.00    -0.341 OA
ATOM     20  C   UNL     1      21.370  36.355   8.899  1.00  0.00     0.281 C 
ATOM     21  C   UNL     1      23.373  37.805   9.307  1.00  0.00     0.180 C 
ATOM     22  C   UNL     1      22.843  36.547   8.604  1.00  0.00     0.202 C 
BRANCH  18  23
ATOM     23  C   UNL     1      20.149  39.742   9.127  1.00  0.00     0.191 C 
BRANCH  23  24
ATOM     24  O   UNL     1      19.997  40.106   7.789  1.00  0.00    -0.394 OA
ATOM     25  H   UNL     1      19.071  40.277   7.544  1.00  0.00     0.210 HD
ENDBRANCH  23  24
ENDBRANCH  18  23
BRANCH  20  26
ATOM     26  O   UNL     1      20.899  35.348   8.076  1.00  0.00    -0.350 OA
BRANCH  26  27
ATOM     27  C   UNL     1      19.656  35.521   7.547  1.00  0.00     0.169 C 
BRANCH  27  28
ATOM     28  C   UNL     1      18.781  34.337   7.862  1.00  0.00     0.119 C 
BRANCH  28  29
ATOM     29  N   UNL     1      18.569  34.268   9.306  1.00  0.00    -0.092 NA
ATOM     30  N   UNL     1      17.978  35.254   9.792  1.00  0.00     0.001 N 
ATOM     31  N   UNL     1      17.780  36.241  10.505  1.00  0.00    -0.003 NA
ENDBRANCH  28  29
ENDBRANCH  27  28
ENDBRANCH  26  27
ENDBRANCH  20  26
BRANCH  21  32
ATOM     32  O   UNL     1      24.682  38.030   8.973  1.00  0.00    -0.387 OA
ATOM     33  H   UNL     1      24.866  37.897   8.011  1.00  0.00     0.211 HD
ENDBRANCH  21  32
BRANCH  22  34
ATOM     34  O   UNL     1      23.531  35.431   8.999  1.00  0.00    -0.385 OA
ATOM     35  H   UNL     1      24.286  35.306   8.345  1.00  0.00     0.211 HD
ENDBRANCH  22  34
ENDBRANCH  16  17
ENDBRANCH  11  16
BRANCH  13  36
ATOM     36  O   UNL     1      21.628  42.503   7.887  1.00  0.00    -0.385 OA
ATOM     37  H   UNL     1      21.218  42.739   7.025  1.00  0.00     0.211 HD
ENDBRANCH  13  36
BRANCH  14  38
ATOM     38  O   UNL     1      23.206  44.172   6.335  1.00  0.00    -0.387 OA
ATOM     39  H   UNL     1      23.530  44.537   5.469  1.00  0.00     0.211 HD
ENDBRANCH  14  38
BRANCH  15  40
ATOM     40  O   UNL     1      25.780  42.995   6.672  1.00  0.00    -0.387 OA
ATOM     41  H   UNL     1      25.831  43.955   6.464  1.00  0.00     0.211 HD
ENDBRANCH  15  40
ENDBRANCH   9  10
ENDBRANCH   8   9
ENDBRANCH   3   8
BRANCH   3  42
ATOM     42  C   UNL     1      29.168  40.879   5.515  1.00  0.00     0.364 C 
ATOM     43  O   UNL     1      29.990  41.530   6.186  1.00  0.00    -0.246 OA
BRANCH  42  44
ATOM     44  O   UNL     1      29.082  41.180   4.160  1.00  0.00    -0.477 OA
ATOM     45  H   UNL     1      28.196  41.512   3.796  1.00  0.00     0.296 HD
ENDBRANCH  42  44
ENDBRANCH   3  42
BRANCH   6  46
ATOM     46  O   UNL     1      26.759  36.869   5.531  1.00  0.00    -0.391 OA
ATOM     47  H   UNL     1      26.546  36.798   4.567  1.00  0.00     0.211 HD
ENDBRANCH   6  46
BRANCH   7  48
ATOM     48  N   UNL     1      28.537  36.058   7.841  1.00  0.00    -0.348 N 
ATOM     49  C   UNL     1      27.431  35.312   8.336  1.00  0.00     0.217 C 
ATOM     50  H   UNL     1      29.481  35.628   7.885  1.00  0.00     0.163 HD
ATOM     51  C   UNL     1      27.655  33.955   8.899  1.00  0.00     0.114 C 
ATOM     52  O   UNL     1      26.245  35.786   8.307  1.00  0.00    -0.275 OA
ENDBRANCH   7  48
ENDBRANCH   1   2
BRANCH   1  53
ATOM     53  O   UNL     1      31.177  37.087   8.473  1.00  0.00    -0.388 OA
ATOM     54  H   UNL     1      30.739  36.318   8.005  1.00  0.00     0.211 HD
ENDBRANCH   1  53
BRANCH   1  55
ATOM     55  C   UNL     1      31.042  39.379   8.956  1.00  0.00     0.165 C 
BRANCH  55  56
ATOM     56  O   UNL     1      31.771  39.736   7.859  1.00  0.00    -0.388 OA
ATOM     57  H   UNL     1      31.395  40.490   7.339  1.00  0.00     0.211 HD
ENDBRANCH  55  56
BRANCH  55  58
ATOM     58  C   UNL     1      31.935  39.200  10.152  1.00  0.00     0.154 C 
BRANCH  58  59
ATOM     59  N   UNL     1      31.358  38.496  11.260  1.00  0.00    -0.319 N 
ATOM     60  C   UNL     1      30.961  39.081  12.472  1.00  0.00     0.407 C 
ATOM     61  H   UNL     1      31.233  37.447  11.121  1.00  0.00     0.167 HD
ATOM     62  O   UNL     1      31.067  40.296  12.708  1.00  0.00    -0.225 OA
BRANCH  60  63
ATOM     63  O   UNL     1      30.410  38.287  13.503  1.00  0.00    -0.443 OA
BRANCH  63  64
ATOM     64  C   UNL     1      29.060  38.535  13.923  1.00  0.00     0.294 C 
BRANCH  64  65
ATOM     65  C   UNL     1      28.140  37.972  12.902  1.00  0.00     0.120 A 
ATOM     66  C   UNL     1      27.206  36.978  13.075  1.00  0.00     0.138 A 
ATOM     67  N   UNL     1      28.071  38.338  11.620  1.00  0.00    -0.132 NA
ATOM     68  N   UNL     1      26.611  36.786  11.879  1.00  0.00    -0.252 N 
ATOM     69  N   UNL     1      27.158  37.628  11.021  1.00  0.00    -0.067 NA
BRANCH  68  70
ATOM     70  C   UNL     1      25.572  35.828  11.642  1.00  0.00     0.151 C 
BRANCH  70  71
ATOM     71  C   UNL     1      25.184  35.011  12.841  1.00  0.00     0.086 C 
BRANCH  71  72
ATOM     72  C   UNL     1      24.344  33.819  12.382  1.00  0.00     0.251 C 
BRANCH  72  73
ATOM     73  O   UNL     1      23.271  34.339  11.684  1.00  0.00    -0.353 OA
BRANCH  73  74
ATOM     74  C   UNL     1      22.211  34.675  12.515  1.00  0.00     0.160 C 
ATOM     75  C   UNL     1      20.907  34.078  12.022  1.00  0.00     0.035 C 
ENDBRANCH  73  74
ENDBRANCH  72  73
BRANCH  72  76
ATOM     76  O   UNL     1      24.039  32.976  13.408  1.00  0.00    -0.353 OA
BRANCH  76  77
ATOM     77  C   UNL     1      24.239  31.638  13.204  1.00  0.00     0.160 C 
ATOM     78  C   UNL     1      22.902  30.957  13.026  1.00  0.00     0.035 C 
ENDBRANCH  76  77
ENDBRANCH  72  76
ENDBRANCH  71  72
ENDBRANCH  70  71
ENDBRANCH  68  70
ENDBRANCH  64  65
ENDBRANCH  63  64
ENDBRANCH  60  63
ENDBRANCH  58  59
ENDBRANCH  55  58
ENDBRANCH   1  55
TORSDOF 36
BEGIN_RES LYS A 131
REMARK  4 active torsions:
REMARK  status: ('A' for Active; 'I' for Inactive)
REMARK    1  A    between atoms: CA   and  CB  
REMARK    2  A    between atoms: CB   and  CG  
REMARK    3  A    between atoms: CG   and  CD  
REMARK    4  A    between atoms: CD   and  CE  
ROOT
ATOM      1  CA  LYS A 131      29.867  25.555  16.977  1.00 20.52     0.186 C 
ENDROOT
BRANCH   1   2
ATOM      2  CB  LYS A 131      28.345  25.722  17.026  1.00 20.94     0.034 C 
BRANCH   2   3
ATOM      3  CG  LYS A 131      27.601  24.403  16.888  1.00 22.96     0.005 C 
BRANCH   3   4
ATOM      4  CD  LYS A 131      26.654  24.164  18.032  1.00 24.33     0.041 C 
BRANCH   4   5
ATOM      5  CE  LYS A 131      25.907  25.455  18.352  1.00 26.91     0.338 C 
ATOM      6  NZ  LYS A 131      25.944  25.729  19.808  1.00 27.40     0.618 N 
ENDBRANCH   4   5
ENDBRANCH   3   4
ENDBRANCH   2   3
ENDBRANCH   1   2
END_RES LYS A 131
BEGIN_RES LYS A 135
REMARK  4 active torsions:
REMARK  status: ('A' for Active; 'I' for Inactive)
REMARK    5  A    between atoms: CA   and  CB  
REMARK    6  A    between atoms: CB   and  CG  
REMARK    7  A    between atoms: CG   and  CD  
REMARK    8  A    between atoms: CD   and  CE  
ROOT
ATOM      7  CA  LYS A 135      33.193  34.663   9.290  1.00 25.02     0.186 C 
ENDROOT
BRANCH   7   8
ATOM      8  CB  LYS A 135      32.060  35.360  10.034  1.00 26.63     0.034 C 
BRANCH   8   9
ATOM      9  CG  LYS A 135      30.972  34.422  10.489  1.00 29.45     0.005 C 
BRANCH   9  10
ATOM     10  CD  LYS A 135      30.020  35.128  11.444  1.00 32.00     0.041 C 
BRANCH  10  11
ATOM     11  CE  LYS A 135      30.134  34.543  12.838  1.00 34.25     0.338 C 
ATOM     12  NZ  LYS A 135      31.363  35.030  13.525  1.00 35.99     0.618 N 
ENDBRANCH  10  11
ENDBRANCH   9  10
ENDBRANCH   8   9
ENDBRANCH   7   8
END_RES LYS A 135
