REMARK VINA RESULT:    -5.327      3.144      5.442
REMARK INTER + INTRA:         -22.938
REMARK INTER:                 -12.261
REMARK INTRA:                 -10.677
REMARK UNBOUND:                -9.203
REMARK SMILES CC(=O)N[C@@H]1[C@@H](O)C[C@](OC[C@H]2O[C@@H](O[C@H]3[C@H](O)[C@@H](O)[C@H](OCCN=[N+]=[N-])O[C@@H]3CO)[C@H](O)[C@@H](O)[C@H]2O)(C(=O)O)O[C@H]1C(O)[C@H](O)CNC(=O)OCc1cn(Cc2ccc(C#N)cc2)nn1
REMARK SMILES IDX 9 1 8 2 6 3 5 4 42 5 41 6 10 7 11 8 12 9 14 10 13 11 32 12
REMARK SMILES IDX 34 13 36 14 15 15 16 16 29 17 28 18 21 19 17 20 19 21 30 22
REMARK SMILES IDX 31 23 22 25 23 26 24 27 25 28 26 29 27 30 18 31 20 33 33 35
REMARK SMILES IDX 35 37 37 39 38 41 39 42 40 43 7 45 43 47 44 48 45 50 46 51
REMARK SMILES IDX 47 53 48 54 49 55 50 57 51 58 52 59 53 60 54 61 66 62 55 63
REMARK SMILES IDX 65 64 56 65 57 66 58 67 64 68 59 69 63 70 60 71 61 72 62 73
REMARK SMILES IDX 4 74 2 75 1 77 3 78
REMARK H PARENT 31 24 18 32 20 34 33 36 35 38 37 40 40 44 7 46 44 49 46 52
REMARK H PARENT 48 56 4 76
REMARK Flexibility Score: inf
ROOT
ATOM      1  C   UNL     1      19.738  34.720  11.636  1.00  0.00     0.272 C 
ATOM      2  C   UNL     1      19.085  35.336  12.823  1.00  0.00     0.113 C 
ATOM      3  C   UNL     1      19.973  35.553  13.997  1.00  0.00     0.145 C 
ATOM      4  C   UNL     1      21.050  34.455  13.981  1.00  0.00     0.142 C 
ATOM      5  C   UNL     1      20.438  33.280  13.280  1.00  0.00     0.178 C 
ATOM      6  O   UNL     1      20.384  33.511  11.935  1.00  0.00    -0.332 OA
ENDROOT
BRANCH   1   7
ATOM      7  O   UNL     1      20.575  35.540  10.910  1.00  0.00    -0.338 OA
BRANCH   7   8
ATOM      8  C   UNL     1      20.074  36.763  10.618  1.00  0.00     0.199 C 
BRANCH   8   9
ATOM      9  C   UNL     1      21.036  37.591   9.748  1.00  0.00     0.179 C 
ATOM     10  C   UNL     1      23.302  37.868   9.415  1.00  0.00     0.282 C 
ATOM     11  O   UNL     1      22.315  37.335  10.243  1.00  0.00    -0.341 OA
ATOM     12  C   UNL     1      23.296  37.282   8.041  1.00  0.00     0.202 C 
ATOM     13  C   UNL     1      22.150  36.306   7.917  1.00  0.00     0.179 C 
ATOM     14  C   UNL     1      20.906  37.074   8.339  1.00  0.00     0.177 C 
BRANCH  10  15
ATOM     15  O   UNL     1      24.527  37.572  10.007  1.00  0.00    -0.341 OA
BRANCH  15  16
ATOM     16  C   UNL     1      24.404  36.898  11.220  1.00  0.00     0.184 C 
ATOM     17  C   UNL     1      25.189  37.604  12.267  1.00  0.00     0.178 C 
ATOM     18  O   UNL     1      26.442  37.122  12.516  1.00  0.00    -0.341 OA
ATOM     19  C   UNL     1      26.926  36.186  11.639  1.00  0.00     0.281 C 
ATOM     20  C   UNL     1      24.671  35.432  11.095  1.00  0.00     0.180 C 
ATOM     21  C   UNL     1      26.001  34.989  11.643  1.00  0.00     0.202 C 
BRANCH  17  22
ATOM     22  C   UNL     1      24.349  37.709  13.538  1.00  0.00     0.191 C 
BRANCH  22  23
ATOM     23  O   UNL     1      23.082  37.200  13.250  1.00  0.00    -0.394 OA
ATOM     24  H   UNL     1      22.862  37.309  12.276  1.00  0.00     0.210 HD
ENDBRANCH  22  23
ENDBRANCH  17  22
BRANCH  19  25
ATOM     25  O   UNL     1      28.168  35.765  12.158  1.00  0.00    -0.350 OA
BRANCH  25  26
ATOM     26  C   UNL     1      29.065  36.823  12.209  1.00  0.00     0.169 C 
BRANCH  26  27
ATOM     27  C   UNL     1      30.042  36.649  13.355  1.00  0.00     0.119 C 
BRANCH  27  28
ATOM     28  N   UNL     1      31.320  37.281  13.087  1.00  0.00    -0.092 NA
ATOM     29  N   UNL     1      31.540  37.780  11.995  1.00  0.00     0.001 N 
ATOM     30  N   UNL     1      31.793  38.663  11.161  1.00  0.00    -0.003 NA
ENDBRANCH  27  28
ENDBRANCH  26  27
ENDBRANCH  25  26
ENDBRANCH  19  25
BRANCH  20  31
ATOM     31  O   UNL     1      23.634  34.642  11.607  1.00  0.00    -0.387 OA
ATOM     32  H   UNL     1      22.750  34.995  11.295  1.00  0.00     0.211 HD
ENDBRANCH  20  31
BRANCH  21  33
ATOM     33  O   UNL     1      26.546  33.938  10.903  1.00  0.00    -0.385 OA
ATOM     34  H   UNL     1      27.521  34.112  10.838  1.00  0.00     0.211 HD
ENDBRANCH  21  33
ENDBRANCH  15  16
ENDBRANCH  10  15
BRANCH  12  35
ATOM     35  O   UNL     1      23.197  38.203   7.022  1.00  0.00    -0.385 OA
ATOM     36  H   UNL     1      24.044  38.729   6.960  1.00  0.00     0.211 HD
ENDBRANCH  12  35
BRANCH  13  37
ATOM     37  O   UNL     1      22.410  35.225   8.743  1.00  0.00    -0.387 OA
ATOM     38  H   UNL     1      21.701  35.021   9.392  1.00  0.00     0.211 HD
ENDBRANCH  13  37
BRANCH  14  39
ATOM     39  O   UNL     1      19.738  36.385   8.121  1.00  0.00    -0.387 OA
ATOM     40  H   UNL     1      19.179  36.410   8.927  1.00  0.00     0.211 HD
ENDBRANCH  14  39
ENDBRANCH   8   9
ENDBRANCH   7   8
ENDBRANCH   1   7
BRANCH   1  41
ATOM     41  C   UNL     1      18.626  34.288  10.723  1.00  0.00     0.364 C 
ATOM     42  O   UNL     1      17.454  34.322  11.111  1.00  0.00    -0.246 OA
BRANCH  41  43
ATOM     43  O   UNL     1      18.943  33.859   9.456  1.00  0.00    -0.477 OA
ATOM     44  H   UNL     1      19.785  33.346   9.226  1.00  0.00     0.296 HD
ENDBRANCH  41  43
ENDBRANCH   1  41
BRANCH   3  45
ATOM     45  O   UNL     1      20.494  36.806  14.147  1.00  0.00    -0.391 OA
ATOM     46  H   UNL     1      20.427  37.323  13.318  1.00  0.00     0.211 HD
ENDBRANCH   3  45
BRANCH   5  47
ATOM     47  C   UNL     1      21.147  31.956  13.593  1.00  0.00     0.176 C 
BRANCH  47  48
ATOM     48  O   UNL     1      20.393  31.391  14.647  1.00  0.00    -0.388 OA
ATOM     49  H   UNL     1      19.986  32.132  15.161  1.00  0.00     0.211 HD
ENDBRANCH  47  48
BRANCH  47  50
ATOM     50  C   UNL     1      21.133  31.043  12.449  1.00  0.00     0.165 C 
BRANCH  50  51
ATOM     51  O   UNL     1      19.797  30.677  12.102  1.00  0.00    -0.388 OA
ATOM     52  H   UNL     1      19.495  30.119  12.886  1.00  0.00     0.211 HD
ENDBRANCH  50  51
BRANCH  50  53
ATOM     53  C   UNL     1      21.967  29.827  12.531  1.00  0.00     0.154 C 
BRANCH  53  54
ATOM     54  N   UNL     1      22.842  29.580  13.591  1.00  0.00    -0.319 N 
ATOM     55  C   UNL     1      24.108  30.127  13.870  1.00  0.00     0.407 C 
ATOM     56  H   UNL     1      22.518  28.860  14.327  1.00  0.00     0.167 HD
ATOM     57  O   UNL     1      24.650  30.989  13.164  1.00  0.00    -0.225 OA
BRANCH  55  58
ATOM     58  O   UNL     1      24.840  29.715  14.994  1.00  0.00    -0.443 OA
BRANCH  58  59
ATOM     59  C   UNL     1      24.974  30.581  16.109  1.00  0.00     0.294 C 
BRANCH  59  60
ATOM     60  C   UNL     1      26.358  31.173  16.076  1.00  0.00     0.120 A 
ATOM     61  C   UNL     1      27.499  30.491  16.445  1.00  0.00     0.138 A 
ATOM     62  N   UNL     1      26.754  32.408  15.718  1.00  0.00    -0.132 NA
ATOM     63  N   UNL     1      28.554  31.335  16.299  1.00  0.00    -0.248 N 
ATOM     64  N   UNL     1      28.059  32.449  15.869  1.00  0.00    -0.067 NA
BRANCH  63  65
ATOM     65  C   UNL     1      29.917  30.943  16.620  1.00  0.00     0.181 C 
BRANCH  65  66
ATOM     66  C   UNL     1      30.726  32.207  16.471  1.00  0.00    -0.026 A 
ATOM     67  C   UNL     1      30.863  33.024  17.565  1.00  0.00     0.007 A 
ATOM     68  C   UNL     1      31.310  32.521  15.241  1.00  0.00     0.007 A 
ATOM     69  C   UNL     1      31.579  34.199  17.521  1.00  0.00     0.020 A 
ATOM     70  C   UNL     1      32.023  33.692  15.198  1.00  0.00     0.020 A 
ATOM     71  C   UNL     1      32.155  34.497  16.282  1.00  0.00     0.052 A 
BRANCH  71  72
ATOM     72  C   UNL     1      32.902  35.747  16.203  1.00  0.00     0.099 C 
ATOM     73  N   UNL     1      33.515  36.734  16.138  1.00  0.00    -0.192 NA
ENDBRANCH  71  72
ENDBRANCH  65  66
ENDBRANCH  63  65
ENDBRANCH  59  60
ENDBRANCH  58  59
ENDBRANCH  55  58
ENDBRANCH  53  54
ENDBRANCH  50  53
ENDBRANCH  47  50
ENDBRANCH   5  47
BRANCH   4  74
ATOM     74  N   UNL     1      21.504  34.188  15.323  1.00  0.00    -0.348 N 
ATOM     75  C   UNL     1      22.898  34.225  15.589  1.00  0.00     0.217 C 
ATOM     76  H   UNL     1      20.858  33.975  16.098  1.00  0.00     0.163 HD
ATOM     77  C   UNL     1      23.438  33.964  16.936  1.00  0.00     0.114 C 
ATOM     78  O   UNL     1      23.736  34.487  14.662  1.00  0.00    -0.275 OA
ENDBRANCH   4  74
TORSDOF 32
BEGIN_RES LYS A 131
REMARK  4 active torsions:
REMARK  status: ('A' for Active; 'I' for Inactive)
REMARK    1  A    between atoms: CA   and  CB  
REMARK    2  A    between atoms: CB   and  CG  
REMARK    3  A    between atoms: CG   and  CD  
REMARK    4  A    between atoms: CD   and  CE  
ROOT
ATOM      1  CA  LYS A 131      29.867  25.555  16.977  1.00 20.52     0.186 C 
ENDROOT
BRANCH   1   2
ATOM      2  CB  LYS A 131      28.345  25.722  17.026  1.00 20.94     0.034 C 
BRANCH   2   3
ATOM      3  CG  LYS A 131      27.599  24.429  16.735  1.00 22.96     0.005 C 
BRANCH   3   4
ATOM      4  CD  LYS A 131      26.991  23.835  17.976  1.00 24.33     0.041 C 
BRANCH   4   5
ATOM      5  CE  LYS A 131      25.585  23.333  17.663  1.00 26.91     0.338 C 
ATOM      6  NZ  LYS A 131      24.838  24.341  16.874  1.00 27.40     0.618 N 
ENDBRANCH   4   5
ENDBRANCH   3   4
ENDBRANCH   2   3
ENDBRANCH   1   2
END_RES LYS A 131
BEGIN_RES LYS A 135
REMARK  4 active torsions:
REMARK  status: ('A' for Active; 'I' for Inactive)
REMARK    5  A    between atoms: CA   and  CB  
REMARK    6  A    between atoms: CB   and  CG  
REMARK    7  A    between atoms: CG   and  CD  
REMARK    8  A    between atoms: CD   and  CE  
ROOT
ATOM      7  CA  LYS A 135      33.193  34.663   9.290  1.00 25.02     0.186 C 
ENDROOT
BRANCH   7   8
ATOM      8  CB  LYS A 135      32.060  35.360  10.034  1.00 26.63     0.034 C 
BRANCH   8   9
ATOM      9  CG  LYS A 135      30.828  35.573   9.193  1.00 29.45     0.005 C 
BRANCH   9  10
ATOM     10  CD  LYS A 135      29.955  34.328   9.193  1.00 32.00     0.041 C 
BRANCH  10  11
ATOM     11  CE  LYS A 135      28.753  34.520   8.289  1.00 34.25     0.338 C 
ATOM     12  NZ  LYS A 135      28.258  35.923   8.345  1.00 35.99     0.618 N 
ENDBRANCH  10  11
ENDBRANCH   9  10
ENDBRANCH   8   9
ENDBRANCH   7   8
END_RES LYS A 135
