REMARK VINA RESULT:    -5.328      3.365      7.126
REMARK INTER + INTRA:         -23.381
REMARK INTER:                 -12.711
REMARK INTRA:                 -10.671
REMARK UNBOUND:                -9.487
REMARK SMILES CC(=O)N[C@@H]1[C@@H](O)C[C@](OC[C@H]2O[C@@H](O[C@H]3[C@H](O)[C@@H](O)[C@H](OCCN=[N+]=[N-])O[C@@H]3CO)[C@H](O)[C@@H](O)[C@H]2O)(C(=O)O)O[C@H]1C(O)[C@H](O)CNC(=O)OCc1cn(Cc2ccc(C(=O)O)cc2)nn1
REMARK SMILES IDX 43 1 42 2 9 3 8 4 41 5 6 6 5 7 10 8 11 9 12 10 14 11 13 12
REMARK SMILES IDX 32 13 34 14 36 15 15 16 16 17 29 18 28 19 21 20 17 21 19 22
REMARK SMILES IDX 30 23 31 24 22 26 23 27 24 28 25 29 26 30 27 31 18 32 20 34
REMARK SMILES IDX 33 36 35 38 37 40 38 42 39 43 40 44 7 46 4 48 2 49 1 51 3 52
REMARK SMILES IDX 44 53 45 55 46 56 47 58 48 59 49 60 50 62 51 63 52 64 53 65
REMARK SMILES IDX 54 66 67 67 55 68 66 69 56 70 57 71 58 72 65 73 59 74 64 75
REMARK SMILES IDX 60 76 61 77 62 78 63 79
REMARK H PARENT 31 25 18 33 20 35 33 37 35 39 37 41 40 45 7 47 4 50 44 54
REMARK H PARENT 46 57 48 61 63 80
REMARK Flexibility Score: inf
ROOT
ATOM      1  C   UNL     1      29.196  39.523   9.039  1.00  0.00     0.176 C 
ENDROOT
BRANCH   1   2
ATOM      2  C   UNL     1      29.259  40.035   7.583  1.00  0.00     0.178 C 
ATOM      3  C   UNL     1      27.549  40.409   5.990  1.00  0.00     0.272 C 
ATOM      4  C   UNL     1      28.240  39.468   5.086  1.00  0.00     0.113 C 
ATOM      5  O   UNL     1      28.007  40.412   7.282  1.00  0.00    -0.332 OA
ATOM      6  C   UNL     1      28.944  38.342   5.815  1.00  0.00     0.145 C 
ATOM      7  C   UNL     1      29.902  38.984   6.774  1.00  0.00     0.142 C 
BRANCH   3   8
ATOM      8  O   UNL     1      26.210  40.134   6.078  1.00  0.00    -0.338 OA
BRANCH   8   9
ATOM      9  C   UNL     1      25.307  40.977   5.534  1.00  0.00     0.199 C 
BRANCH   9  10
ATOM     10  C   UNL     1      24.091  41.134   6.479  1.00  0.00     0.179 C 
ATOM     11  C   UNL     1      22.699  39.870   7.855  1.00  0.00     0.282 C 
ATOM     12  O   UNL     1      23.663  39.893   6.849  1.00  0.00    -0.341 OA
ATOM     13  C   UNL     1      22.139  41.205   8.194  1.00  0.00     0.202 C 
ATOM     14  C   UNL     1      23.286  42.121   8.567  1.00  0.00     0.179 C 
ATOM     15  C   UNL     1      24.466  42.001   7.653  1.00  0.00     0.177 C 
BRANCH  11  16
ATOM     16  O   UNL     1      23.267  39.266   8.977  1.00  0.00    -0.341 OA
BRANCH  16  17
ATOM     17  C   UNL     1      22.750  38.025   9.207  1.00  0.00     0.184 C 
ATOM     18  C   UNL     1      23.387  36.970   8.379  1.00  0.00     0.178 C 
ATOM     19  O   UNL     1      23.028  35.691   8.830  1.00  0.00    -0.341 OA
ATOM     20  C   UNL     1      21.669  35.637   9.147  1.00  0.00     0.281 C 
ATOM     21  C   UNL     1      21.251  38.108   8.858  1.00  0.00     0.180 C 
ATOM     22  C   UNL     1      20.844  36.698   8.482  1.00  0.00     0.202 C 
BRANCH  18  23
ATOM     23  C   UNL     1      24.885  37.075   8.442  1.00  0.00     0.191 C 
BRANCH  23  24
ATOM     24  O   UNL     1      25.284  37.612   7.196  1.00  0.00    -0.394 OA
ATOM     25  H   UNL     1      26.244  37.791   7.196  1.00  0.00     0.210 HD
ENDBRANCH  23  24
ENDBRANCH  18  23
BRANCH  20  26
ATOM     26  O   UNL     1      21.526  35.642  10.514  1.00  0.00    -0.350 OA
BRANCH  26  27
ATOM     27  C   UNL     1      22.431  34.865  11.201  1.00  0.00     0.169 C 
BRANCH  27  28
ATOM     28  C   UNL     1      22.052  34.520  12.602  1.00  0.00     0.119 C 
BRANCH  28  29
ATOM     29  N   UNL     1      22.504  35.639  13.445  1.00  0.00    -0.092 NA
ATOM     30  N   UNL     1      22.045  36.771  13.340  1.00  0.00     0.001 N 
ATOM     31  N   UNL     1      21.536  37.821  12.965  1.00  0.00    -0.003 NA
ENDBRANCH  28  29
ENDBRANCH  27  28
ENDBRANCH  26  27
ENDBRANCH  20  26
BRANCH  21  32
ATOM     32  O   UNL     1      20.533  38.578   9.936  1.00  0.00    -0.387 OA
ATOM     33  H   UNL     1      20.635  39.579  10.041  1.00  0.00     0.211 HD
ENDBRANCH  21  32
BRANCH  22  34
ATOM     34  O   UNL     1      20.835  36.568   7.112  1.00  0.00    -0.385 OA
ATOM     35  H   UNL     1      21.724  36.430   6.739  1.00  0.00     0.211 HD
ENDBRANCH  22  34
ENDBRANCH  16  17
ENDBRANCH  11  16
BRANCH  13  36
ATOM     36  O   UNL     1      21.412  41.754   7.126  1.00  0.00    -0.385 OA
ATOM     37  H   UNL     1      21.824  42.642   6.943  1.00  0.00     0.211 HD
ENDBRANCH  13  36
BRANCH  14  38
ATOM     38  O   UNL     1      23.697  41.909   9.883  1.00  0.00    -0.387 OA
ATOM     39  H   UNL     1      24.363  41.166   9.881  1.00  0.00     0.211 HD
ENDBRANCH  14  38
BRANCH  15  40
ATOM     40  O   UNL     1      25.600  41.511   8.315  1.00  0.00    -0.387 OA
ATOM     41  H   UNL     1      26.329  41.466   7.643  1.00  0.00     0.211 HD
ENDBRANCH  15  40
ENDBRANCH   9  10
ENDBRANCH   8   9
ENDBRANCH   3   8
BRANCH   3  42
ATOM     42  C   UNL     1      27.776  41.810   5.477  1.00  0.00     0.364 C 
ATOM     43  O   UNL     1      27.628  42.802   6.234  1.00  0.00    -0.246 OA
BRANCH  42  44
ATOM     44  O   UNL     1      28.153  42.053   4.167  1.00  0.00    -0.477 OA
ATOM     45  H   UNL     1      28.748  41.344   3.711  1.00  0.00     0.296 HD
ENDBRANCH  42  44
ENDBRANCH   3  42
BRANCH   6  46
ATOM     46  O   UNL     1      27.977  37.565   6.414  1.00  0.00    -0.391 OA
ATOM     47  H   UNL     1      27.093  38.011   6.340  1.00  0.00     0.211 HD
ENDBRANCH   6  46
BRANCH   7  48
ATOM     48  N   UNL     1      30.997  39.563   6.007  1.00  0.00    -0.348 N 
ATOM     49  C   UNL     1      32.317  39.688   6.566  1.00  0.00     0.217 C 
ATOM     50  H   UNL     1      30.906  39.919   5.031  1.00  0.00     0.163 HD
ATOM     51  C   UNL     1      33.415  40.289   5.745  1.00  0.00     0.114 C 
ATOM     52  O   UNL     1      32.511  39.291   7.726  1.00  0.00    -0.275 OA
ENDBRANCH   7  48
ENDBRANCH   1   2
BRANCH   1  53
ATOM     53  O   UNL     1      29.502  38.209   9.175  1.00  0.00    -0.388 OA
ATOM     54  H   UNL     1      29.422  37.827  10.077  1.00  0.00     0.211 HD
ENDBRANCH   1  53
BRANCH   1  55
ATOM     55  C   UNL     1      29.969  40.427   9.969  1.00  0.00     0.165 C 
BRANCH  55  56
ATOM     56  O   UNL     1      31.258  40.005  10.042  1.00  0.00    -0.388 OA
ATOM     57  H   UNL     1      31.918  40.668  10.324  1.00  0.00     0.211 HD
ENDBRANCH  55  56
BRANCH  55  58
ATOM     58  C   UNL     1      29.217  40.628  11.227  1.00  0.00     0.154 C 
BRANCH  58  59
ATOM     59  N   UNL     1      27.958  39.937  11.230  1.00  0.00    -0.319 N 
ATOM     60  C   UNL     1      26.700  40.574  11.151  1.00  0.00     0.407 C 
ATOM     61  H   UNL     1      27.943  38.881  11.297  1.00  0.00     0.167 HD
ATOM     62  O   UNL     1      26.588  41.806  11.069  1.00  0.00    -0.225 OA
BRANCH  60  63
ATOM     63  O   UNL     1      25.484  39.861  11.155  1.00  0.00    -0.443 OA
BRANCH  63  64
ATOM     64  C   UNL     1      24.960  39.372  12.377  1.00  0.00     0.294 C 
BRANCH  64  65
ATOM     65  C   UNL     1      25.355  37.979  12.651  1.00  0.00     0.120 A 
ATOM     66  C   UNL     1      25.468  36.918  11.796  1.00  0.00     0.138 A 
ATOM     67  N   UNL     1      25.664  37.516  13.876  1.00  0.00    -0.132 NA
ATOM     68  N   UNL     1      25.841  35.842  12.524  1.00  0.00    -0.248 N 
ATOM     69  N   UNL     1      25.953  36.231  13.781  1.00  0.00    -0.067 NA
BRANCH  68  70
ATOM     70  C   UNL     1      26.062  34.523  11.991  1.00  0.00     0.181 C 
BRANCH  70  71
ATOM     71  C   UNL     1      27.108  34.550  10.949  1.00  0.00    -0.026 A 
ATOM     72  C   UNL     1      28.429  34.719  11.304  1.00  0.00     0.006 A 
ATOM     73  C   UNL     1      26.765  34.425   9.605  1.00  0.00     0.006 A 
ATOM     74  C   UNL     1      29.355  34.754  10.277  1.00  0.00     0.016 A 
ATOM     75  C   UNL     1      27.692  34.462   8.588  1.00  0.00     0.016 A 
ATOM     76  C   UNL     1      29.009  34.630   8.946  1.00  0.00     0.059 A 
BRANCH  76  77
ATOM     77  C   UNL     1      30.032  34.681   7.914  1.00  0.00     0.335 C 
ATOM     78  O   UNL     1      31.172  34.251   8.142  1.00  0.00    -0.246 OA
BRANCH  77  79
ATOM     79  O   UNL     1      29.731  35.210   6.679  1.00  0.00    -0.478 OA
ATOM     80  H   UNL     1      30.440  35.632   6.081  1.00  0.00     0.297 HD
ENDBRANCH  77  79
ENDBRANCH  76  77
ENDBRANCH  70  71
ENDBRANCH  68  70
ENDBRANCH  64  65
ENDBRANCH  63  64
ENDBRANCH  60  63
ENDBRANCH  58  59
ENDBRANCH  55  58
ENDBRANCH   1  55
TORSDOF 33
BEGIN_RES LYS A 131
REMARK  4 active torsions:
REMARK  status: ('A' for Active; 'I' for Inactive)
REMARK    1  A    between atoms: CA   and  CB  
REMARK    2  A    between atoms: CB   and  CG  
REMARK    3  A    between atoms: CG   and  CD  
REMARK    4  A    between atoms: CD   and  CE  
ROOT
ATOM      1  CA  LYS A 131      29.867  25.555  16.977  1.00 20.52     0.186 C 
ENDROOT
BRANCH   1   2
ATOM      2  CB  LYS A 131      28.345  25.722  17.026  1.00 20.94     0.034 C 
BRANCH   2   3
ATOM      3  CG  LYS A 131      27.601  24.401  16.901  1.00 22.96     0.005 C 
BRANCH   3   4
ATOM      4  CD  LYS A 131      26.152  24.529  17.281  1.00 24.33     0.041 C 
BRANCH   4   5
ATOM      5  CE  LYS A 131      25.636  23.183  17.779  1.00 26.91     0.338 C 
ATOM      6  NZ  LYS A 131      25.513  23.189  19.256  1.00 27.40     0.618 N 
ENDBRANCH   4   5
ENDBRANCH   3   4
ENDBRANCH   2   3
ENDBRANCH   1   2
END_RES LYS A 131
BEGIN_RES LYS A 135
REMARK  4 active torsions:
REMARK  status: ('A' for Active; 'I' for Inactive)
REMARK    5  A    between atoms: CA   and  CB  
REMARK    6  A    between atoms: CB   and  CG  
REMARK    7  A    between atoms: CG   and  CD  
REMARK    8  A    between atoms: CD   and  CE  
ROOT
ATOM      7  CA  LYS A 135      33.193  34.663   9.290  1.00 25.02     0.186 C 
ENDROOT
BRANCH   7   8
ATOM      8  CB  LYS A 135      32.060  35.360  10.034  1.00 26.63     0.034 C 
BRANCH   8   9
ATOM      9  CG  LYS A 135      32.525  36.482  10.926  1.00 29.45     0.005 C 
BRANCH   9  10
ATOM     10  CD  LYS A 135      31.876  36.382  12.298  1.00 32.00     0.041 C 
BRANCH  10  11
ATOM     11  CE  LYS A 135      30.828  37.464  12.471  1.00 34.25     0.338 C 
ATOM     12  NZ  LYS A 135      31.089  38.272  13.694  1.00 35.99     0.618 N 
ENDBRANCH  10  11
ENDBRANCH   9  10
ENDBRANCH   8   9
ENDBRANCH   7   8
END_RES LYS A 135
