REMARK VINA RESULT:    -4.847      2.707      8.377
REMARK INTER + INTRA:         -23.801
REMARK INTER:                 -13.816
REMARK INTRA:                  -9.985
REMARK UNBOUND:               -10.737
REMARK SMILES CC(=O)N[C@@H]1[C@@H](O)C[C@](OC[C@H]2O[C@@H](O[C@H]3[C@H](O)[C@@H](O)[C@H](OCCN=[N+]=[N-])O[C@@H]3CO)[C@H](O)[C@@H](O)[C@H]2O)(C(=O)O)O[C@H]1C(O)[C@H](O)CNC(=O)OCc1cn(CCNC(=O)NCc2ccco2)nn1
REMARK SMILES IDX 43 1 42 2 9 3 8 4 41 5 6 6 5 7 10 8 11 9 12 10 14 11 13 12
REMARK SMILES IDX 32 13 34 14 36 15 15 16 16 17 29 18 28 19 21 20 17 21 19 22
REMARK SMILES IDX 30 23 31 24 22 26 23 27 24 28 25 29 26 30 27 31 18 32 20 34
REMARK SMILES IDX 33 36 35 38 37 40 38 42 39 43 40 44 7 46 4 48 2 49 1 51 3 52
REMARK SMILES IDX 44 53 45 55 46 56 47 58 48 59 49 60 50 62 51 63 52 64 53 65
REMARK SMILES IDX 54 66 69 67 55 68 68 69 56 70 57 71 58 72 59 73 60 75 61 76
REMARK SMILES IDX 62 78 63 79 64 80 67 81 65 82 66 83
REMARK H PARENT 31 25 18 33 20 35 33 37 35 39 37 41 40 45 7 47 4 50 44 54
REMARK H PARENT 46 57 48 61 58 74 61 77
REMARK Flexibility Score: inf
ROOT
ATOM      1  C   UNL     1      31.869  29.164  20.845  1.00  0.00     0.176 C 
ENDROOT
BRANCH   1   2
ATOM      2  C   UNL     1      31.320  29.890  22.032  1.00  0.00     0.178 C 
ATOM      3  C   UNL     1      31.243  32.202  21.479  1.00  0.00     0.272 C 
ATOM      4  C   UNL     1      32.764  32.106  21.826  1.00  0.00     0.113 C 
ATOM      5  O   UNL     1      30.633  31.023  21.721  1.00  0.00    -0.332 OA
ATOM      6  C   UNL     1      33.022  31.325  23.052  1.00  0.00     0.145 C 
ATOM      7  C   UNL     1      32.241  30.041  23.187  1.00  0.00     0.142 C 
BRANCH   3   8
ATOM      8  O   UNL     1      31.241  32.422  20.118  1.00  0.00    -0.338 OA
BRANCH   8   9
ATOM      9  C   UNL     1      30.127  32.762  19.477  1.00  0.00     0.199 C 
BRANCH   9  10
ATOM     10  C   UNL     1      29.971  33.022  18.059  1.00  0.00     0.179 C 
ATOM     11  C   UNL     1      30.792  33.867  16.091  1.00  0.00     0.282 C 
ATOM     12  O   UNL     1      31.109  33.401  17.367  1.00  0.00    -0.341 OA
ATOM     13  C   UNL     1      29.485  33.408  15.558  1.00  0.00     0.202 C 
ATOM     14  C   UNL     1      29.023  32.057  16.020  1.00  0.00     0.179 C 
ATOM     15  C   UNL     1      29.533  31.706  17.386  1.00  0.00     0.177 C 
BRANCH  11  16
ATOM     16  O   UNL     1      31.789  33.589  15.170  1.00  0.00    -0.341 OA
BRANCH  16  17
ATOM     17  C   UNL     1      32.261  34.745  14.516  1.00  0.00     0.184 C 
ATOM     18  C   UNL     1      32.126  35.888  15.478  1.00  0.00     0.178 C 
ATOM     19  O   UNL     1      31.826  37.087  14.835  1.00  0.00    -0.341 OA
ATOM     20  C   UNL     1      30.547  36.945  14.311  1.00  0.00     0.281 C 
ATOM     21  C   UNL     1      31.501  34.885  13.240  1.00  0.00     0.180 C 
ATOM     22  C   UNL     1      30.598  36.054  13.115  1.00  0.00     0.202 C 
BRANCH  18  23
ATOM     23  C   UNL     1      33.480  36.099  16.156  1.00  0.00     0.191 C 
BRANCH  23  24
ATOM     24  O   UNL     1      33.693  37.493  16.222  1.00  0.00    -0.394 OA
ATOM     25  H   UNL     1      34.015  37.650  17.158  1.00  0.00     0.210 HD
ENDBRANCH  23  24
ENDBRANCH  18  23
BRANCH  20  26
ATOM     26  O   UNL     1      30.162  38.215  13.874  1.00  0.00    -0.350 OA
BRANCH  26  27
ATOM     27  C   UNL     1      30.954  38.653  12.812  1.00  0.00     0.169 C 
BRANCH  27  28
ATOM     28  C   UNL     1      30.193  39.805  12.151  1.00  0.00     0.119 C 
BRANCH  28  29
ATOM     29  N   UNL     1      29.795  39.334  10.836  1.00  0.00    -0.092 NA
ATOM     30  N   UNL     1      29.109  38.310  10.708  1.00  0.00     0.001 N 
ATOM     31  N   UNL     1      28.184  37.484  10.625  1.00  0.00    -0.003 NA
ENDBRANCH  28  29
ENDBRANCH  27  28
ENDBRANCH  26  27
ENDBRANCH  20  26
BRANCH  21  32
ATOM     32  O   UNL     1      32.444  34.891  12.192  1.00  0.00    -0.387 OA
ATOM     33  H   UNL     1      32.278  34.185  11.542  1.00  0.00     0.211 HD
ENDBRANCH  21  32
BRANCH  22  34
ATOM     34  O   UNL     1      29.277  35.573  12.931  1.00  0.00    -0.385 OA
ATOM     35  H   UNL     1      29.250  35.247  11.980  1.00  0.00     0.211 HD
ENDBRANCH  22  34
ENDBRANCH  16  17
ENDBRANCH  11  16
BRANCH  13  36
ATOM     36  O   UNL     1      28.479  34.377  15.675  1.00  0.00    -0.385 OA
ATOM     37  H   UNL     1      27.603  33.976  15.872  1.00  0.00     0.211 HD
ENDBRANCH  13  36
BRANCH  14  38
ATOM     38  O   UNL     1      29.346  31.052  15.099  1.00  0.00    -0.387 OA
ATOM     39  H   UNL     1      28.779  31.239  14.300  1.00  0.00     0.211 HD
ENDBRANCH  14  38
BRANCH  15  40
ATOM     40  O   UNL     1      30.552  30.784  17.385  1.00  0.00    -0.387 OA
ATOM     41  H   UNL     1      30.511  30.282  18.220  1.00  0.00     0.211 HD
ENDBRANCH  15  40
ENDBRANCH   9  10
ENDBRANCH   8   9
ENDBRANCH   3   8
BRANCH   3  42
ATOM     42  C   UNL     1      30.802  33.379  22.222  1.00  0.00     0.364 C 
ATOM     43  O   UNL     1      29.858  33.324  23.024  1.00  0.00    -0.246 OA
BRANCH  42  44
ATOM     44  O   UNL     1      31.395  34.639  22.090  1.00  0.00    -0.477 OA
ATOM     45  H   UNL     1      31.894  34.863  21.227  1.00  0.00     0.296 HD
ENDBRANCH  42  44
ENDBRANCH   3  42
BRANCH   6  46
ATOM     46  O   UNL     1      34.396  31.018  23.077  1.00  0.00    -0.391 OA
ATOM     47  H   UNL     1      34.698  30.820  22.154  1.00  0.00     0.211 HD
ENDBRANCH   6  46
BRANCH   7  48
ATOM     48  N   UNL     1      31.512  30.072  24.456  1.00  0.00    -0.348 N 
ATOM     49  C   UNL     1      32.115  29.661  25.653  1.00  0.00     0.217 C 
ATOM     50  H   UNL     1      30.527  30.411  24.445  1.00  0.00     0.163 HD
ATOM     51  C   UNL     1      31.413  29.672  26.971  1.00  0.00     0.114 C 
ATOM     52  O   UNL     1      33.321  29.259  25.592  1.00  0.00    -0.275 OA
ENDBRANCH   7  48
ENDBRANCH   1   2
BRANCH   1  53
ATOM     53  O   UNL     1      31.025  29.469  19.718  1.00  0.00    -0.388 OA
ATOM     54  H   UNL     1      31.107  30.426  19.588  1.00  0.00     0.211 HD
ENDBRANCH   1  53
BRANCH   1  55
ATOM     55  C   UNL     1      31.815  27.665  20.896  1.00  0.00     0.165 C 
BRANCH  55  56
ATOM     56  O   UNL     1      32.166  26.991  19.751  1.00  0.00    -0.388 OA
ATOM     57  H   UNL     1      32.976  26.432  19.852  1.00  0.00     0.211 HD
ENDBRANCH  55  56
BRANCH  55  58
ATOM     58  C   UNL     1      30.458  27.178  21.414  1.00  0.00     0.154 C 
BRANCH  58  59
ATOM     59  N   UNL     1      29.527  26.990  20.326  1.00  0.00    -0.319 N 
ATOM     60  C   UNL     1      28.400  27.818  20.119  1.00  0.00     0.407 C 
ATOM     61  H   UNL     1      29.697  26.211  19.662  1.00  0.00     0.167 HD
ATOM     62  O   UNL     1      28.181  28.771  20.912  1.00  0.00    -0.225 OA
BRANCH  60  63
ATOM     63  O   UNL     1      27.519  27.612  19.062  1.00  0.00    -0.443 OA
BRANCH  63  64
ATOM     64  C   UNL     1      26.163  28.022  19.211  1.00  0.00     0.294 C 
BRANCH  64  65
ATOM     65  C   UNL     1      26.023  29.234  18.347  1.00  0.00     0.120 A 
ATOM     66  C   UNL     1      25.799  29.221  16.997  1.00  0.00     0.138 A 
ATOM     67  N   UNL     1      26.089  30.529  18.744  1.00  0.00    -0.132 NA
ATOM     68  N   UNL     1      25.739  30.488  16.617  1.00  0.00    -0.250 N 
ATOM     69  N   UNL     1      25.915  31.275  17.678  1.00  0.00    -0.067 NA
BRANCH  68  70
ATOM     70  C   UNL     1      25.523  30.937  15.241  1.00  0.00     0.167 C 
BRANCH  70  71
ATOM     71  C   UNL     1      25.526  32.466  15.266  1.00  0.00     0.141 C 
BRANCH  71  72
ATOM     72  N   UNL     1      24.982  32.907  14.014  1.00  0.00    -0.336 N 
ATOM     73  C   UNL     1      25.574  33.897  13.204  1.00  0.00     0.315 C 
ATOM     74  H   UNL     1      24.084  32.447  13.706  1.00  0.00     0.165 HD
ATOM     75  O   UNL     1      26.626  34.476  13.552  1.00  0.00    -0.249 OA
ATOM     76  N   UNL     1      24.946  34.234  11.958  1.00  0.00    -0.331 N 
ATOM     77  H   UNL     1      24.063  33.721  11.706  1.00  0.00     0.165 HD
BRANCH  76  78
ATOM     78  C   UNL     1      25.520  35.235  11.103  1.00  0.00     0.193 C 
BRANCH  78  79
ATOM     79  C   UNL     1      24.522  35.694  10.100  1.00  0.00     0.122 A 
ATOM     80  C   UNL     1      24.774  36.653   9.127  1.00  0.00     0.047 A 
ATOM     81  O   UNL     1      23.303  35.291   9.974  1.00  0.00    -0.467 OA
ATOM     82  C   UNL     1      23.615  36.784   8.420  1.00  0.00     0.042 A 
ATOM     83  C   UNL     1      22.715  35.917   8.978  1.00  0.00     0.195 A 
ENDBRANCH  78  79
ENDBRANCH  76  78
ENDBRANCH  71  72
ENDBRANCH  70  71
ENDBRANCH  68  70
ENDBRANCH  64  65
ENDBRANCH  63  64
ENDBRANCH  60  63
ENDBRANCH  58  59
ENDBRANCH  55  58
ENDBRANCH   1  55
TORSDOF 34
BEGIN_RES LYS A 131
REMARK  4 active torsions:
REMARK  status: ('A' for Active; 'I' for Inactive)
REMARK    1  A    between atoms: CA   and  CB  
REMARK    2  A    between atoms: CB   and  CG  
REMARK    3  A    between atoms: CG   and  CD  
REMARK    4  A    between atoms: CD   and  CE  
ROOT
ATOM      1  CA  LYS A 131      29.867  25.555  16.977  1.00 20.52     0.186 C 
ENDROOT
BRANCH   1   2
ATOM      2  CB  LYS A 131      28.345  25.722  17.026  1.00 20.94     0.034 C 
BRANCH   2   3
ATOM      3  CG  LYS A 131      27.599  24.477  16.571  1.00 22.96     0.005 C 
BRANCH   3   4
ATOM      4  CD  LYS A 131      27.148  23.632  17.730  1.00 24.33     0.041 C 
BRANCH   4   5
ATOM      5  CE  LYS A 131      26.158  24.421  18.581  1.00 26.91     0.338 C 
ATOM      6  NZ  LYS A 131      25.511  23.536  19.578  1.00 27.40     0.618 N 
ENDBRANCH   4   5
ENDBRANCH   3   4
ENDBRANCH   2   3
ENDBRANCH   1   2
END_RES LYS A 131
BEGIN_RES LYS A 135
REMARK  4 active torsions:
REMARK  status: ('A' for Active; 'I' for Inactive)
REMARK    5  A    between atoms: CA   and  CB  
REMARK    6  A    between atoms: CB   and  CG  
REMARK    7  A    between atoms: CG   and  CD  
REMARK    8  A    between atoms: CD   and  CE  
ROOT
ATOM      7  CA  LYS A 135      33.193  34.663   9.290  1.00 25.02     0.186 C 
ENDROOT
BRANCH   7   8
ATOM      8  CB  LYS A 135      32.060  35.360  10.034  1.00 26.63     0.034 C 
BRANCH   8   9
ATOM      9  CG  LYS A 135      30.798  35.494   9.221  1.00 29.45     0.005 C 
BRANCH   9  10
ATOM     10  CD  LYS A 135      30.169  34.130   8.979  1.00 32.00     0.041 C 
BRANCH  10  11
ATOM     11  CE  LYS A 135      28.719  34.126   9.423  1.00 34.25     0.338 C 
ATOM     12  NZ  LYS A 135      27.821  34.589   8.329  1.00 35.99     0.618 N 
ENDBRANCH  10  11
ENDBRANCH   9  10
ENDBRANCH   8   9
ENDBRANCH   7   8
END_RES LYS A 135
