REMARK VINA RESULT:    -3.657      2.673      7.435
REMARK INTER + INTRA:         -23.523
REMARK INTER:                 -11.847
REMARK INTRA:                 -11.676
REMARK UNBOUND:               -13.881
REMARK SMILES CCOC(=O)c1cccc(-n2cc(COC(=O)NC[C@@H](O)C(O)[C@@H]3O[C@@](OC[C@H]4O[C@@H](O[C@H]5[C@H](O)[C@@H](O)[C@H](OCCN=[N+]=[N-])O[C@@H]5CO)[C@H](O)[C@@H](O)[C@H]4O)(C(=O)O)C[C@H](O)[C@H]3NC(C)=O)nn2)c1
REMARK SMILES IDX 22 1 24 2 26 3 58 4 25 5 59 6 61 7 27 8 28 9 29 10 31 11
REMARK SMILES IDX 30 12 49 13 51 14 53 15 32 16 33 17 46 18 45 19 38 20 34 21
REMARK SMILES IDX 36 22 47 23 48 24 39 26 40 27 41 28 42 29 43 30 44 31 35 32
REMARK SMILES IDX 37 34 50 36 52 38 54 40 55 42 56 43 57 44 60 46 62 48 63 49
REMARK SMILES IDX 64 51 65 52 23 53 20 55 21 56 19 58 18 59 16 60 17 62 15 63
REMARK SMILES IDX 14 64 13 65 12 66 66 67 11 68 67 69 10 70 68 71 9 72 6 73
REMARK SMILES IDX 8 74 7 75 4 76 5 77 3 78 2 79 1 80
REMARK H PARENT 48 25 35 33 37 35 50 37 52 39 54 41 57 45 60 47 62 50 23 54
REMARK H PARENT 21 57 18 61
REMARK Flexibility Score: inf
ROOT
ATOM      1  C   UNL     1      24.462  37.693  13.270  1.00  0.00     0.176 C 
ENDROOT
BRANCH   1   2
ATOM      2  C   UNL     1      24.951  37.044  12.044  1.00  0.00     0.178 C 
ATOM      3  C   UNL     1      26.857  35.771  11.462  1.00  0.00     0.272 C 
ATOM      4  C   UNL     1      26.096  35.778  10.175  1.00  0.00     0.113 C 
ATOM      5  O   UNL     1      26.340  36.931  12.145  1.00  0.00    -0.332 OA
ATOM      6  C   UNL     1      25.690  37.170   9.719  1.00  0.00     0.145 C 
ATOM      7  C   UNL     1      24.634  37.699  10.746  1.00  0.00     0.142 C 
BRANCH   3   8
ATOM      8  O   UNL     1      28.170  36.047  11.241  1.00  0.00    -0.338 OA
BRANCH   8   9
ATOM      9  C   UNL     1      28.884  36.988  11.808  1.00  0.00     0.199 C 
BRANCH   9  10
ATOM     10  C   UNL     1      29.848  36.848  12.907  1.00  0.00     0.179 C 
ATOM     11  C   UNL     1      30.143  36.012  15.072  1.00  0.00     0.282 C 
ATOM     12  O   UNL     1      29.278  36.555  14.094  1.00  0.00    -0.341 OA
ATOM     13  C   UNL     1      31.579  36.248  14.721  1.00  0.00     0.202 C 
ATOM     14  C   UNL     1      31.955  35.732  13.370  1.00  0.00     0.179 C 
ATOM     15  C   UNL     1      30.739  35.625  12.516  1.00  0.00     0.177 C 
BRANCH  11  16
ATOM     16  O   UNL     1      29.755  34.712  15.211  1.00  0.00    -0.341 OA
BRANCH  16  17
ATOM     17  C   UNL     1      29.520  34.214  16.445  1.00  0.00     0.184 C 
ATOM     18  C   UNL     1      29.962  32.774  16.473  1.00  0.00     0.178 C 
ATOM     19  O   UNL     1      29.794  32.214  17.740  1.00  0.00    -0.341 OA
ATOM     20  C   UNL     1      28.396  32.101  17.975  1.00  0.00     0.281 C 
ATOM     21  C   UNL     1      28.026  34.220  16.812  1.00  0.00     0.180 C 
ATOM     22  C   UNL     1      27.913  33.513  18.160  1.00  0.00     0.202 C 
BRANCH  18  23
ATOM     23  C   UNL     1      31.408  32.644  16.087  1.00  0.00     0.191 C 
BRANCH  23  24
ATOM     24  O   UNL     1      31.522  32.375  14.699  1.00  0.00    -0.394 OA
ATOM     25  H   UNL     1      32.443  32.566  14.387  1.00  0.00     0.210 HD
ENDBRANCH  23  24
ENDBRANCH  18  23
BRANCH  20  26
ATOM     26  O   UNL     1      28.219  31.293  19.061  1.00  0.00    -0.350 OA
BRANCH  26  27
ATOM     27  C   UNL     1      27.861  29.999  18.707  1.00  0.00     0.169 C 
BRANCH  27  28
ATOM     28  C   UNL     1      27.753  29.789  17.227  1.00  0.00     0.119 C 
BRANCH  28  29
ATOM     29  N   UNL     1      27.295  28.417  16.971  1.00  0.00    -0.092 NA
ATOM     30  N   UNL     1      26.308  28.017  17.603  1.00  0.00     0.001 N 
ATOM     31  N   UNL     1      25.205  27.564  17.968  1.00  0.00    -0.003 NA
ENDBRANCH  28  29
ENDBRANCH  27  28
ENDBRANCH  26  27
ENDBRANCH  20  26
BRANCH  21  32
ATOM     32  O   UNL     1      27.572  35.511  17.038  1.00  0.00    -0.387 OA
ATOM     33  H   UNL     1      26.587  35.470  17.096  1.00  0.00     0.211 HD
ENDBRANCH  21  32
BRANCH  22  34
ATOM     34  O   UNL     1      26.607  33.563  18.639  1.00  0.00    -0.385 OA
ATOM     35  H   UNL     1      25.943  33.142  18.014  1.00  0.00     0.211 HD
ENDBRANCH  22  34
ENDBRANCH  16  17
ENDBRANCH  11  16
BRANCH  13  36
ATOM     36  O   UNL     1      31.869  37.618  14.873  1.00  0.00    -0.385 OA
ATOM     37  H   UNL     1      31.445  38.002  15.674  1.00  0.00     0.211 HD
ENDBRANCH  13  36
BRANCH  14  38
ATOM     38  O   UNL     1      32.758  34.615  13.406  1.00  0.00    -0.387 OA
ATOM     39  H   UNL     1      33.579  34.828  12.887  1.00  0.00     0.211 HD
ENDBRANCH  14  38
BRANCH  15  40
ATOM     40  O   UNL     1      30.079  34.446  12.666  1.00  0.00    -0.387 OA
ATOM     41  H   UNL     1      30.706  33.693  12.524  1.00  0.00     0.211 HD
ENDBRANCH  15  40
ENDBRANCH   9  10
ENDBRANCH   8   9
ENDBRANCH   3   8
BRANCH   3  42
ATOM     42  C   UNL     1      26.630  34.630  12.336  1.00  0.00     0.364 C 
ATOM     43  O   UNL     1      25.815  33.734  12.069  1.00  0.00    -0.246 OA
BRANCH  42  44
ATOM     44  O   UNL     1      27.337  34.505  13.533  1.00  0.00    -0.477 OA
ATOM     45  H   UNL     1      28.243  34.090  13.602  1.00  0.00     0.296 HD
ENDBRANCH  42  44
ENDBRANCH   3  42
BRANCH   6  46
ATOM     46  O   UNL     1      26.777  38.000   9.833  1.00  0.00    -0.391 OA
ATOM     47  H   UNL     1      26.912  38.238  10.782  1.00  0.00     0.211 HD
ENDBRANCH   6  46
BRANCH   7  48
ATOM     48  N   UNL     1      23.345  37.325  10.214  1.00  0.00    -0.348 N 
ATOM     49  C   UNL     1      22.244  38.232  10.077  1.00  0.00     0.217 C 
ATOM     50  H   UNL     1      23.139  36.334   9.884  1.00  0.00     0.163 HD
ATOM     51  C   UNL     1      20.929  37.811   9.525  1.00  0.00     0.114 C 
ATOM     52  O   UNL     1      22.376  39.421  10.430  1.00  0.00    -0.275 OA
ENDBRANCH   7  48
ENDBRANCH   1   2
BRANCH   1  53
ATOM     53  O   UNL     1      23.265  38.350  13.180  1.00  0.00    -0.388 OA
ATOM     54  H   UNL     1      23.367  39.302  12.944  1.00  0.00     0.211 HD
ENDBRANCH   1  53
BRANCH   1  55
ATOM     55  C   UNL     1      24.559  36.899  14.548  1.00  0.00     0.165 C 
BRANCH  55  56
ATOM     56  O   UNL     1      25.897  36.647  14.869  1.00  0.00    -0.388 OA
ATOM     57  H   UNL     1      26.205  37.277  15.571  1.00  0.00     0.211 HD
ENDBRANCH  55  56
BRANCH  55  58
ATOM     58  C   UNL     1      23.656  35.706  14.617  1.00  0.00     0.154 C 
BRANCH  58  59
ATOM     59  N   UNL     1      24.393  34.465  14.687  1.00  0.00    -0.319 N 
ATOM     60  C   UNL     1      24.542  33.763  15.903  1.00  0.00     0.407 C 
ATOM     61  H   UNL     1      24.841  34.053  13.810  1.00  0.00     0.167 HD
ATOM     62  O   UNL     1      24.067  34.118  17.005  1.00  0.00    -0.225 OA
BRANCH  60  63
ATOM     63  O   UNL     1      25.282  32.564  15.943  1.00  0.00    -0.443 OA
BRANCH  63  64
ATOM     64  C   UNL     1      24.731  31.285  15.903  1.00  0.00     0.294 C 
BRANCH  64  65
ATOM     65  C   UNL     1      24.003  30.934  14.677  1.00  0.00     0.121 A 
ATOM     66  C   UNL     1      22.628  31.021  14.485  1.00  0.00     0.144 A 
ATOM     67  N   UNL     1      24.506  30.475  13.537  1.00  0.00    -0.131 NA
ATOM     68  N   UNL     1      22.367  30.611  13.245  1.00  0.00    -0.220 N 
ATOM     69  N   UNL     1      23.506  30.284  12.678  1.00  0.00    -0.062 NA
BRANCH  68  70
ATOM     70  C   UNL     1      21.089  30.547  12.650  1.00  0.00     0.067 A 
ATOM     71  C   UNL     1      20.501  29.331  12.312  1.00  0.00     0.044 A 
ATOM     72  C   UNL     1      20.357  31.674  12.386  1.00  0.00     0.028 A 
ATOM     73  C   UNL     1      19.260  29.218  11.745  1.00  0.00     0.062 A 
ATOM     74  C   UNL     1      19.096  31.602  11.814  1.00  0.00     0.003 A 
ATOM     75  C   UNL     1      18.546  30.383  11.492  1.00  0.00     0.016 A 
BRANCH  73  76
ATOM     76  C   UNL     1      18.709  27.920  11.415  1.00  0.00     0.338 C 
ATOM     77  O   UNL     1      17.930  27.811  10.449  1.00  0.00    -0.246 OA
BRANCH  76  78
ATOM     78  O   UNL     1      19.045  26.819  12.161  1.00  0.00    -0.462 OA
BRANCH  78  79
ATOM     79  C   UNL     1      18.382  26.430  13.341  1.00  0.00     0.230 C 
ATOM     80  C   UNL     1      19.393  26.118  14.422  1.00  0.00     0.049 C 
ENDBRANCH  78  79
ENDBRANCH  76  78
ENDBRANCH  73  76
ENDBRANCH  68  70
ENDBRANCH  64  65
ENDBRANCH  63  64
ENDBRANCH  60  63
ENDBRANCH  58  59
ENDBRANCH  55  58
ENDBRANCH   1  55
TORSDOF 33
BEGIN_RES LYS A 131
REMARK  4 active torsions:
REMARK  status: ('A' for Active; 'I' for Inactive)
REMARK    1  A    between atoms: CA   and  CB  
REMARK    2  A    between atoms: CB   and  CG  
REMARK    3  A    between atoms: CG   and  CD  
REMARK    4  A    between atoms: CD   and  CE  
ROOT
ATOM      1  CA  LYS A 131      29.867  25.555  16.977  1.00 20.52     0.186 C 
ENDROOT
BRANCH   1   2
ATOM      2  CB  LYS A 131      28.345  25.722  17.026  1.00 20.94     0.034 C 
BRANCH   2   3
ATOM      3  CG  LYS A 131      27.601  24.402  16.897  1.00 22.96     0.005 C 
BRANCH   3   4
ATOM      4  CD  LYS A 131      26.607  24.200  18.007  1.00 24.33     0.041 C 
BRANCH   4   5
ATOM      5  CE  LYS A 131      25.423  23.391  17.489  1.00 26.91     0.338 C 
ATOM      6  NZ  LYS A 131      24.450  24.276  16.805  1.00 27.40     0.618 N 
ENDBRANCH   4   5
ENDBRANCH   3   4
ENDBRANCH   2   3
ENDBRANCH   1   2
END_RES LYS A 131
BEGIN_RES LYS A 135
REMARK  4 active torsions:
REMARK  status: ('A' for Active; 'I' for Inactive)
REMARK    5  A    between atoms: CA   and  CB  
REMARK    6  A    between atoms: CB   and  CG  
REMARK    7  A    between atoms: CG   and  CD  
REMARK    8  A    between atoms: CD   and  CE  
ROOT
ATOM      7  CA  LYS A 135      33.193  34.663   9.290  1.00 25.02     0.186 C 
ENDROOT
BRANCH   7   8
ATOM      8  CB  LYS A 135      32.060  35.360  10.034  1.00 26.63     0.034 C 
BRANCH   8   9
ATOM      9  CG  LYS A 135      30.886  35.707   9.155  1.00 29.45     0.005 C 
BRANCH   9  10
ATOM     10  CD  LYS A 135      30.197  34.445   8.658  1.00 32.00     0.041 C 
BRANCH  10  11
ATOM     11  CE  LYS A 135      28.880  34.787   7.987  1.00 34.25     0.338 C 
ATOM     12  NZ  LYS A 135      28.803  36.239   7.664  1.00 35.99     0.618 N 
ENDBRANCH  10  11
ENDBRANCH   9  10
ENDBRANCH   8   9
ENDBRANCH   7   8
END_RES LYS A 135
