REMARK VINA RESULT:    -4.463      5.514     10.476
REMARK INTER + INTRA:         -22.940
REMARK INTER:                 -11.002
REMARK INTRA:                 -11.938
REMARK UNBOUND:               -10.521
REMARK SMILES CC(=O)N[C@@H]1[C@@H](O)C[C@](OC[C@H]2O[C@@H](O[C@H]3[C@H](O)[C@@H](O)[C@H](OCCN=[N+]=[N-])O[C@@H]3CO)[C@H](O)[C@@H](O)[C@H]2O)(C(=O)O)O[C@H]1C(O)[C@H](O)CNC(=O)OCc1cn(CCCCCC(=O)O)nn1
REMARK SMILES IDX 47 1 45 2 43 3 42 4 9 5 8 6 41 7 6 8 5 9 10 10 11 11 12 12
REMARK SMILES IDX 14 13 13 14 32 15 34 16 36 17 15 18 16 19 29 20 28 21 21 22
REMARK SMILES IDX 17 23 19 24 30 25 31 26 22 28 23 29 24 30 25 31 26 32 27 33
REMARK SMILES IDX 18 34 20 36 33 38 35 40 37 42 38 44 39 45 40 46 7 48 4 50
REMARK SMILES IDX 2 51 1 53 3 54 44 55 46 57 48 59 49 60 50 62 51 63 52 64
REMARK SMILES IDX 53 65 54 66 65 67 55 68 64 69 56 70 57 71 58 72 59 73 60 74
REMARK SMILES IDX 61 75 62 76 63 77
REMARK H PARENT 31 27 18 35 20 37 33 39 35 41 37 43 40 47 7 49 4 52 44 56
REMARK H PARENT 46 58 48 61 63 78
REMARK Flexibility Score: inf
ROOT
ATOM      1  C   UNL     1      26.441  34.780  15.146  1.00  0.00     0.154 C 
ENDROOT
BRANCH   1   2
ATOM      2  C   UNL     1      26.772  35.632  13.944  1.00  0.00     0.165 C 
BRANCH   2   3
ATOM      3  C   UNL     1      28.254  35.824  13.944  1.00  0.00     0.176 C 
BRANCH   3   4
ATOM      4  C   UNL     1      28.754  37.069  13.299  1.00  0.00     0.178 C 
ATOM      5  C   UNL     1      28.263  38.760  11.894  1.00  0.00     0.272 C 
ATOM      6  C   UNL     1      29.411  39.420  12.586  1.00  0.00     0.113 C 
ATOM      7  O   UNL     1      28.147  37.392  12.096  1.00  0.00    -0.332 OA
ATOM      8  C   UNL     1      30.581  38.582  12.934  1.00  0.00     0.145 C 
ATOM      9  C   UNL     1      30.240  37.088  13.015  1.00  0.00     0.142 C 
BRANCH   5  10
ATOM     10  O   UNL     1      28.188  39.090  10.542  1.00  0.00    -0.338 OA
BRANCH  10  11
ATOM     11  C   UNL     1      29.074  38.492   9.704  1.00  0.00     0.199 C 
BRANCH  11  12
ATOM     12  C   UNL     1      28.265  37.901   8.565  1.00  0.00     0.179 C 
ATOM     13  C   UNL     1      26.526  36.655   7.912  1.00  0.00     0.282 C 
ATOM     14  O   UNL     1      26.960  37.581   8.906  1.00  0.00    -0.341 OA
ATOM     15  C   UNL     1      27.036  36.913   6.566  1.00  0.00     0.202 C 
ATOM     16  C   UNL     1      27.573  38.289   6.284  1.00  0.00     0.179 C 
ATOM     17  C   UNL     1      28.146  38.972   7.496  1.00  0.00     0.177 C 
BRANCH  13  18
ATOM     18  O   UNL     1      25.166  36.404   8.074  1.00  0.00    -0.341 OA
BRANCH  18  19
ATOM     19  C   UNL     1      24.439  37.418   8.576  1.00  0.00     0.184 C 
ATOM     20  C   UNL     1      23.505  36.993   9.668  1.00  0.00     0.178 C 
ATOM     21  O   UNL     1      23.143  38.184  10.332  1.00  0.00    -0.341 OA
ATOM     22  C   UNL     1      22.356  38.959   9.549  1.00  0.00     0.281 C 
ATOM     23  C   UNL     1      23.452  37.967   7.488  1.00  0.00     0.180 C 
ATOM     24  C   UNL     1      22.196  38.457   8.164  1.00  0.00     0.202 C 
BRANCH  20  25
ATOM     25  C   UNL     1      24.137  36.093  10.697  1.00  0.00     0.191 C 
BRANCH  25  26
ATOM     26  O   UNL     1      25.407  36.525  11.017  1.00  0.00    -0.394 OA
ATOM     27  H   UNL     1      25.322  37.190  11.750  1.00  0.00     0.210 HD
ENDBRANCH  25  26
ENDBRANCH  20  25
BRANCH  22  28
ATOM     28  O   UNL     1      22.729  40.309   9.546  1.00  0.00    -0.350 OA
BRANCH  28  29
ATOM     29  C   UNL     1      23.968  40.520  10.093  1.00  0.00     0.169 C 
BRANCH  29  30
ATOM     30  C   UNL     1      24.524  41.850   9.603  1.00  0.00     0.119 C 
BRANCH  30  31
ATOM     31  N   UNL     1      24.048  42.146   8.262  1.00  0.00    -0.092 NA
ATOM     32  N   UNL     1      24.737  41.815   7.279  1.00  0.00     0.001 N 
ATOM     33  N   UNL     1      25.516  41.943   6.333  1.00  0.00    -0.003 NA
ENDBRANCH  30  31
ENDBRANCH  29  30
ENDBRANCH  28  29
ENDBRANCH  22  28
BRANCH  23  34
ATOM     34  O   UNL     1      24.051  39.063   6.868  1.00  0.00    -0.387 OA
ATOM     35  H   UNL     1      24.645  38.731   6.134  1.00  0.00     0.211 HD
ENDBRANCH  23  34
BRANCH  24  36
ATOM     36  O   UNL     1      21.114  37.585   7.993  1.00  0.00    -0.385 OA
ATOM     37  H   UNL     1      20.730  37.634   7.082  1.00  0.00     0.211 HD
ENDBRANCH  24  36
ENDBRANCH  18  19
ENDBRANCH  13  18
BRANCH  15  38
ATOM     38  O   UNL     1      28.098  36.026   6.226  1.00  0.00    -0.385 OA
ATOM     39  H   UNL     1      27.859  35.496   5.444  1.00  0.00     0.211 HD
ENDBRANCH  15  38
BRANCH  16  40
ATOM     40  O   UNL     1      26.596  39.150   5.754  1.00  0.00    -0.387 OA
ATOM     41  H   UNL     1      25.688  38.884   5.986  1.00  0.00     0.211 HD
ENDBRANCH  16  40
BRANCH  17  42
ATOM     42  O   UNL     1      27.200  39.906   7.990  1.00  0.00    -0.387 OA
ATOM     43  H   UNL     1      26.758  39.438   8.766  1.00  0.00     0.211 HD
ENDBRANCH  17  42
ENDBRANCH  11  12
ENDBRANCH  10  11
ENDBRANCH   5  10
BRANCH   5  44
ATOM     44  C   UNL     1      27.026  39.338  12.489  1.00  0.00     0.364 C 
ATOM     45  O   UNL     1      25.896  38.930  12.138  1.00  0.00    -0.246 OA
BRANCH  44  46
ATOM     46  O   UNL     1      27.112  40.329  13.435  1.00  0.00    -0.477 OA
ATOM     47  H   UNL     1      26.350  41.002  13.621  1.00  0.00     0.296 HD
ENDBRANCH  44  46
ENDBRANCH   5  44
BRANCH   8  48
ATOM     48  O   UNL     1      31.729  38.815  12.183  1.00  0.00    -0.391 OA
ATOM     49  H   UNL     1      31.525  39.525  11.534  1.00  0.00     0.211 HD
ENDBRANCH   8  48
BRANCH   9  50
ATOM     50  N   UNL     1      31.044  36.415  13.974  1.00  0.00    -0.348 N 
ATOM     51  C   UNL     1      32.317  35.922  13.599  1.00  0.00     0.217 C 
ATOM     52  H   UNL     1      30.720  36.280  14.941  1.00  0.00     0.163 HD
ATOM     53  C   UNL     1      33.180  35.217  14.583  1.00  0.00     0.114 C 
ATOM     54  O   UNL     1      32.774  36.056  12.426  1.00  0.00    -0.275 OA
ENDBRANCH   9  50
ENDBRANCH   3   4
BRANCH   3  55
ATOM     55  O   UNL     1      28.911  34.716  13.361  1.00  0.00    -0.388 OA
ATOM     56  H   UNL     1      28.399  34.396  12.585  1.00  0.00     0.211 HD
ENDBRANCH   3  55
ENDBRANCH   2   3
BRANCH   2  57
ATOM     57  O   UNL     1      26.118  36.850  14.087  1.00  0.00    -0.388 OA
ATOM     58  H   UNL     1      25.234  36.756  13.650  1.00  0.00     0.211 HD
ENDBRANCH   2  57
ENDBRANCH   1   2
BRANCH   1  59
ATOM     59  N   UNL     1      26.694  33.386  14.966  1.00  0.00    -0.319 N 
ATOM     60  C   UNL     1      25.581  32.486  15.003  1.00  0.00     0.407 C 
ATOM     61  H   UNL     1      27.638  32.999  14.813  1.00  0.00     0.167 HD
ATOM     62  O   UNL     1      24.417  32.919  15.187  1.00  0.00    -0.225 OA
BRANCH  60  63
ATOM     63  O   UNL     1      25.737  31.129  14.842  1.00  0.00    -0.443 OA
BRANCH  63  64
ATOM     64  C   UNL     1      26.032  30.240  15.862  1.00  0.00     0.294 C 
BRANCH  64  65
ATOM     65  C   UNL     1      27.339  30.390  16.515  1.00  0.00     0.120 A 
ATOM     66  C   UNL     1      27.631  30.239  17.846  1.00  0.00     0.138 A 
ATOM     67  N   UNL     1      28.492  30.726  15.894  1.00  0.00    -0.132 NA
ATOM     68  N   UNL     1      28.933  30.482  18.004  1.00  0.00    -0.252 N 
ATOM     69  N   UNL     1      29.418  30.771  16.813  1.00  0.00    -0.067 NA
BRANCH  68  70
ATOM     70  C   UNL     1      29.665  30.424  19.261  1.00  0.00     0.146 C 
BRANCH  70  71
ATOM     71  C   UNL     1      30.443  31.730  19.416  1.00  0.00     0.024 C 
BRANCH  71  72
ATOM     72  C   UNL     1      29.588  32.809  20.013  1.00  0.00     0.002 C 
BRANCH  72  73
ATOM     73  C   UNL     1      29.781  34.091  19.255  1.00  0.00     0.012 C 
BRANCH  73  74
ATOM     74  C   UNL     1      28.899  34.210  18.056  1.00  0.00     0.122 C 
BRANCH  74  75
ATOM     75  C   UNL     1      29.737  34.416  16.842  1.00  0.00     0.303 C 
ATOM     76  O   UNL     1      30.390  35.474  16.706  1.00  0.00    -0.252 OA
BRANCH  75  77
ATOM     77  O   UNL     1      29.809  33.447  15.847  1.00  0.00    -0.481 OA
ATOM     78  H   UNL     1      30.558  32.752  15.874  1.00  0.00     0.296 HD
ENDBRANCH  75  77
ENDBRANCH  74  75
ENDBRANCH  73  74
ENDBRANCH  72  73
ENDBRANCH  71  72
ENDBRANCH  70  71
ENDBRANCH  68  70
ENDBRANCH  64  65
ENDBRANCH  63  64
ENDBRANCH  60  63
ENDBRANCH   1  59
TORSDOF 36
BEGIN_RES LYS A 131
REMARK  4 active torsions:
REMARK  status: ('A' for Active; 'I' for Inactive)
REMARK    1  A    between atoms: CA   and  CB  
REMARK    2  A    between atoms: CB   and  CG  
REMARK    3  A    between atoms: CG   and  CD  
REMARK    4  A    between atoms: CD   and  CE  
ROOT
ATOM      1  CA  LYS A 131      29.867  25.555  16.977  1.00 20.52     0.186 C 
ENDROOT
BRANCH   1   2
ATOM      2  CB  LYS A 131      28.345  25.722  17.026  1.00 20.94     0.034 C 
BRANCH   2   3
ATOM      3  CG  LYS A 131      27.601  24.402  16.891  1.00 22.96     0.005 C 
BRANCH   3   4
ATOM      4  CD  LYS A 131      26.527  24.249  17.932  1.00 24.33     0.041 C 
BRANCH   4   5
ATOM      5  CE  LYS A 131      25.159  24.273  17.259  1.00 26.91     0.338 C 
ATOM      6  NZ  LYS A 131      24.457  25.544  17.555  1.00 27.40     0.618 N 
ENDBRANCH   4   5
ENDBRANCH   3   4
ENDBRANCH   2   3
ENDBRANCH   1   2
END_RES LYS A 131
BEGIN_RES LYS A 135
REMARK  4 active torsions:
REMARK  status: ('A' for Active; 'I' for Inactive)
REMARK    5  A    between atoms: CA   and  CB  
REMARK    6  A    between atoms: CB   and  CG  
REMARK    7  A    between atoms: CG   and  CD  
REMARK    8  A    between atoms: CD   and  CE  
ROOT
ATOM      7  CA  LYS A 135      33.193  34.663   9.290  1.00 25.02     0.186 C 
ENDROOT
BRANCH   7   8
ATOM      8  CB  LYS A 135      32.060  35.360  10.034  1.00 26.63     0.034 C 
BRANCH   8   9
ATOM      9  CG  LYS A 135      30.922  34.441  10.397  1.00 29.45     0.005 C 
BRANCH   9  10
ATOM     10  CD  LYS A 135      29.786  34.571   9.395  1.00 32.00     0.041 C 
BRANCH  10  11
ATOM     11  CE  LYS A 135      28.445  34.514  10.101  1.00 34.25     0.338 C 
ATOM     12  NZ  LYS A 135      27.465  33.705   9.325  1.00 35.99     0.618 N 
ENDBRANCH  10  11
ENDBRANCH   9  10
ENDBRANCH   8   9
ENDBRANCH   7   8
END_RES LYS A 135
