REMARK VINA RESULT:    -3.622      6.236     11.005
REMARK INTER + INTRA:         -21.954
REMARK INTER:                 -10.820
REMARK INTRA:                 -11.135
REMARK UNBOUND:               -13.037
REMARK SMILES CC(=O)N[C@@H]1[C@@H](O)C[C@](OC[C@H]2O[C@@H](O[C@H]3[C@H](O)[C@@H](O)[C@H](OCCN=[N+]=[N-])O[C@@H]3CO)[C@H](O)[C@@H](O)[C@H]2O)(C(=O)O)O[C@H]1C(O)[C@H](O)CNC(=O)OCc1cn([C@H]2C[C@H]3CC[C@@H](C2)N3C)nn1
REMARK SMILES IDX 9 1 8 2 6 3 5 4 42 5 41 6 10 7 11 8 12 9 14 10 13 11 32 12
REMARK SMILES IDX 34 13 36 14 15 15 16 16 29 17 28 18 21 19 17 20 19 21 30 22
REMARK SMILES IDX 31 23 22 25 23 26 24 27 25 28 26 29 27 30 18 31 20 33 33 35
REMARK SMILES IDX 35 37 37 39 38 41 39 42 40 43 7 45 43 47 44 48 45 50 46 51
REMARK SMILES IDX 47 53 48 54 49 55 50 57 51 58 52 59 53 60 54 61 66 62 55 63
REMARK SMILES IDX 65 64 56 65 62 66 57 67 61 68 58 69 63 70 60 71 59 72 64 73
REMARK SMILES IDX 4 74 2 75 1 77 3 78
REMARK H PARENT 31 24 18 32 20 34 33 36 35 38 37 40 40 44 7 46 44 49 46 52
REMARK H PARENT 48 56 4 76
REMARK Flexibility Score: inf
ROOT
ATOM      1  C   UNL     1      31.973  34.493  15.219  1.00  0.00     0.272 C 
ATOM      2  C   UNL     1      32.695  35.246  16.323  1.00  0.00     0.113 C 
ATOM      3  C   UNL     1      31.836  35.620  17.492  1.00  0.00     0.145 C 
ATOM      4  C   UNL     1      30.456  35.861  17.006  1.00  0.00     0.142 C 
ATOM      5  C   UNL     1      30.558  36.325  15.550  1.00  0.00     0.178 C 
ATOM      6  O   UNL     1      30.779  35.059  14.868  1.00  0.00    -0.332 OA
ENDROOT
BRANCH   1   7
ATOM      7  O   UNL     1      31.894  33.183  15.583  1.00  0.00    -0.338 OA
BRANCH   7   8
ATOM      8  C   UNL     1      30.933  32.391  15.069  1.00  0.00     0.199 C 
BRANCH   8   9
ATOM      9  C   UNL     1      29.952  31.756  15.980  1.00  0.00     0.179 C 
ATOM     10  C   UNL     1      29.761  31.260  18.175  1.00  0.00     0.282 C 
ATOM     11  O   UNL     1      30.157  32.277  17.298  1.00  0.00    -0.341 OA
ATOM     12  C   UNL     1      28.395  30.767  17.943  1.00  0.00     0.202 C 
ATOM     13  C   UNL     1      27.717  31.128  16.677  1.00  0.00     0.179 C 
ATOM     14  C   UNL     1      28.502  32.017  15.737  1.00  0.00     0.177 C 
BRANCH  10  15
ATOM     15  O   UNL     1      29.966  31.746  19.443  1.00  0.00    -0.341 OA
BRANCH  15  16
ATOM     16  C   UNL     1      31.025  31.109  20.097  1.00  0.00     0.184 C 
ATOM     17  C   UNL     1      30.796  29.665  20.396  1.00  0.00     0.178 C 
ATOM     18  O   UNL     1      29.991  29.366  21.448  1.00  0.00    -0.341 OA
ATOM     19  C   UNL     1      30.193  30.104  22.563  1.00  0.00     0.281 C 
ATOM     20  C   UNL     1      31.241  31.906  21.364  1.00  0.00     0.180 C 
ATOM     21  C   UNL     1      30.035  31.590  22.246  1.00  0.00     0.202 C 
BRANCH  17  22
ATOM     22  C   UNL     1      32.111  28.876  20.364  1.00  0.00     0.191 C 
BRANCH  22  23
ATOM     23  O   UNL     1      32.137  27.810  21.234  1.00  0.00    -0.394 OA
ATOM     24  H   UNL     1      31.381  27.805  21.858  1.00  0.00     0.210 HD
ENDBRANCH  22  23
ENDBRANCH  17  22
BRANCH  19  25
ATOM     25  O   UNL     1      31.302  29.846  23.312  1.00  0.00    -0.350 OA
BRANCH  25  26
ATOM     26  C   UNL     1      31.163  29.086  24.432  1.00  0.00     0.169 C 
BRANCH  26  27
ATOM     27  C   UNL     1      32.318  28.170  24.650  1.00  0.00     0.119 C 
BRANCH  27  28
ATOM     28  N   UNL     1      33.585  28.909  24.743  1.00  0.00    -0.092 NA
ATOM     29  N   UNL     1      34.319  29.012  23.744  1.00  0.00     0.001 N 
ATOM     30  N   UNL     1      34.651  29.454  22.626  1.00  0.00    -0.003 NA
ENDBRANCH  27  28
ENDBRANCH  26  27
ENDBRANCH  25  26
ENDBRANCH  19  25
BRANCH  20  31
ATOM     31  O   UNL     1      32.393  31.576  22.038  1.00  0.00    -0.387 OA
ATOM     32  H   UNL     1      32.552  30.620  22.090  1.00  0.00     0.211 HD
ENDBRANCH  20  31
BRANCH  21  33
ATOM     33  O   UNL     1      28.843  31.802  21.558  1.00  0.00    -0.385 OA
ATOM     34  H   UNL     1      28.946  32.660  21.065  1.00  0.00     0.211 HD
ENDBRANCH  21  33
ENDBRANCH  15  16
ENDBRANCH  10  15
BRANCH  12  35
ATOM     35  O   UNL     1      28.443  29.352  18.013  1.00  0.00    -0.385 OA
ATOM     36  H   UNL     1      29.295  28.990  17.687  1.00  0.00     0.211 HD
ENDBRANCH  12  35
BRANCH  13  37
ATOM     37  O   UNL     1      26.493  31.800  16.922  1.00  0.00    -0.387 OA
ATOM     38  H   UNL     1      25.760  31.214  16.547  1.00  0.00     0.211 HD
ENDBRANCH  13  37
BRANCH  14  39
ATOM     39  O   UNL     1      28.194  33.344  16.121  1.00  0.00    -0.387 OA
ATOM     40  H   UNL     1      27.186  33.366  16.084  1.00  0.00     0.211 HD
ENDBRANCH  14  39
ENDBRANCH   8   9
ENDBRANCH   7   8
ENDBRANCH   1   7
BRANCH   1  41
ATOM     41  C   UNL     1      32.880  34.641  14.036  1.00  0.00     0.364 C 
ATOM     42  O   UNL     1      32.531  35.235  13.020  1.00  0.00    -0.246 OA
BRANCH  41  43
ATOM     43  O   UNL     1      34.171  34.097  14.059  1.00  0.00    -0.477 OA
ATOM     44  H   UNL     1      34.257  33.132  14.407  1.00  0.00     0.296 HD
ENDBRANCH  41  43
ENDBRANCH   1  41
BRANCH   3  45
ATOM     45  O   UNL     1      31.907  34.537  18.400  1.00  0.00    -0.391 OA
ATOM     46  H   UNL     1      31.956  33.680  17.906  1.00  0.00     0.211 HD
ENDBRANCH   3  45
BRANCH   5  47
ATOM     47  C   UNL     1      29.312  36.889  14.992  1.00  0.00     0.176 C 
BRANCH  47  48
ATOM     48  O   UNL     1      28.326  35.811  15.045  1.00  0.00    -0.388 OA
ATOM     49  H   UNL     1      28.015  35.748  15.984  1.00  0.00     0.211 HD
ENDBRANCH  47  48
BRANCH  47  50
ATOM     50  C   UNL     1      29.306  37.121  13.488  1.00  0.00     0.165 C 
BRANCH  50  51
ATOM     51  O   UNL     1      30.655  37.367  13.137  1.00  0.00    -0.388 OA
ATOM     52  H   UNL     1      31.229  36.592  13.355  1.00  0.00     0.211 HD
ENDBRANCH  50  51
BRANCH  50  53
ATOM     53  C   UNL     1      28.439  38.193  12.963  1.00  0.00     0.154 C 
BRANCH  53  54
ATOM     54  N   UNL     1      27.063  37.655  12.946  1.00  0.00    -0.319 N 
ATOM     55  C   UNL     1      26.503  37.099  11.770  1.00  0.00     0.407 C 
ATOM     56  H   UNL     1      26.509  37.694  13.820  1.00  0.00     0.167 HD
ATOM     57  O   UNL     1      27.214  37.054  10.716  1.00  0.00    -0.225 OA
BRANCH  55  58
ATOM     58  O   UNL     1      25.206  36.611  11.768  1.00  0.00    -0.443 OA
BRANCH  58  59
ATOM     59  C   UNL     1      24.618  36.271  13.004  1.00  0.00     0.294 C 
BRANCH  59  60
ATOM     60  C   UNL     1      24.885  34.881  13.423  1.00  0.00     0.120 A 
ATOM     61  C   UNL     1      24.255  33.769  12.904  1.00  0.00     0.138 A 
ATOM     62  N   UNL     1      25.725  34.413  14.353  1.00  0.00    -0.132 NA
ATOM     63  N   UNL     1      24.713  32.670  13.516  1.00  0.00    -0.249 N 
ATOM     64  N   UNL     1      25.618  33.082  14.405  1.00  0.00    -0.067 NA
BRANCH  63  65
ATOM     65  C   UNL     1      24.260  31.318  13.225  1.00  0.00     0.112 C 
ATOM     66  C   UNL     1      22.809  31.401  12.893  1.00  0.00     0.046 C 
ATOM     67  C   UNL     1      24.616  30.445  14.384  1.00  0.00     0.046 C 
ATOM     68  C   UNL     1      21.959  30.340  13.513  1.00  0.00     0.058 C 
ATOM     69  C   UNL     1      23.578  29.439  14.773  1.00  0.00     0.058 C 
ATOM     70  N   UNL     1      22.668  29.112  13.695  1.00  0.00    -0.300 NA
ATOM     71  C   UNL     1      21.631  30.754  14.945  1.00  0.00     0.021 C 
ATOM     72  C   UNL     1      22.666  30.069  15.806  1.00  0.00     0.021 C 
ATOM     73  C   UNL     1      23.345  28.619  12.520  1.00  0.00     0.105 C 
ENDBRANCH  63  65
ENDBRANCH  59  60
ENDBRANCH  58  59
ENDBRANCH  55  58
ENDBRANCH  53  54
ENDBRANCH  50  53
ENDBRANCH  47  50
ENDBRANCH   5  47
BRANCH   4  74
ATOM     74  N   UNL     1      29.575  36.525  17.870  1.00  0.00    -0.348 N 
ATOM     75  C   UNL     1      28.556  35.841  18.616  1.00  0.00     0.217 C 
ATOM     76  H   UNL     1      29.647  37.553  18.038  1.00  0.00     0.163 HD
ATOM     77  C   UNL     1      27.670  36.637  19.528  1.00  0.00     0.114 C 
ATOM     78  O   UNL     1      28.397  34.618  18.522  1.00  0.00    -0.275 OA
ENDBRANCH   4  74
TORSDOF 30
BEGIN_RES LYS A 131
REMARK  4 active torsions:
REMARK  status: ('A' for Active; 'I' for Inactive)
REMARK    1  A    between atoms: CA   and  CB  
REMARK    2  A    between atoms: CB   and  CG  
REMARK    3  A    between atoms: CG   and  CD  
REMARK    4  A    between atoms: CD   and  CE  
ROOT
ATOM      1  CA  LYS A 131      29.867  25.555  16.977  1.00 20.52     0.186 C 
ENDROOT
BRANCH   1   2
ATOM      2  CB  LYS A 131      28.345  25.722  17.026  1.00 20.94     0.034 C 
BRANCH   2   3
ATOM      3  CG  LYS A 131      27.601  24.401  16.898  1.00 22.96     0.005 C 
BRANCH   3   4
ATOM      4  CD  LYS A 131      26.563  24.230  17.972  1.00 24.33     0.041 C 
BRANCH   4   5
ATOM      5  CE  LYS A 131      25.210  23.941  17.330  1.00 26.91     0.338 C 
ATOM      6  NZ  LYS A 131      24.399  25.179  17.248  1.00 27.40     0.618 N 
ENDBRANCH   4   5
ENDBRANCH   3   4
ENDBRANCH   2   3
ENDBRANCH   1   2
END_RES LYS A 131
BEGIN_RES LYS A 135
REMARK  4 active torsions:
REMARK  status: ('A' for Active; 'I' for Inactive)
REMARK    5  A    between atoms: CA   and  CB  
REMARK    6  A    between atoms: CB   and  CG  
REMARK    7  A    between atoms: CG   and  CD  
REMARK    8  A    between atoms: CD   and  CE  
ROOT
ATOM      7  CA  LYS A 135      33.193  34.663   9.290  1.00 25.02     0.186 C 
ENDROOT
BRANCH   7   8
ATOM      8  CB  LYS A 135      32.060  35.360  10.034  1.00 26.63     0.034 C 
BRANCH   8   9
ATOM      9  CG  LYS A 135      30.739  35.301   9.312  1.00 29.45     0.005 C 
BRANCH   9  10
ATOM     10  CD  LYS A 135      29.728  34.488  10.107  1.00 32.00     0.041 C 
BRANCH  10  11
ATOM     11  CE  LYS A 135      28.567  34.071   9.225  1.00 34.25     0.338 C 
ATOM     12  NZ  LYS A 135      28.603  34.786   7.919  1.00 35.99     0.618 N 
ENDBRANCH  10  11
ENDBRANCH   9  10
ENDBRANCH   8   9
ENDBRANCH   7   8
END_RES LYS A 135
