REMARK VINA RESULT:    -4.435      5.725      9.381
REMARK INTER + INTRA:         -21.535
REMARK INTER:                  -8.840
REMARK INTRA:                 -12.695
REMARK UNBOUND:               -10.230
REMARK SMILES CC(=O)N[C@@H]1[C@@H](O)C[C@](OC[C@H]2O[C@@H](O[C@H]3[C@H](O)[C@@H](O)[C@H](OCCN=[N+]=[N-])O[C@@H]3CO)[C@H](O)[C@@H](O)[C@H]2O)(C(=O)O)O[C@H]1C(O)[C@H](O)CNC(=O)OCc1cn(C(C)(C)CO)nn1
REMARK SMILES IDX 9 1 8 2 6 3 5 4 42 5 41 6 10 7 11 8 12 9 14 10 13 11 32 12
REMARK SMILES IDX 34 13 36 14 15 15 16 16 29 17 28 18 21 19 17 20 19 21 30 22
REMARK SMILES IDX 31 23 22 25 23 26 24 27 25 28 26 29 27 30 18 31 20 33 33 35
REMARK SMILES IDX 35 37 37 39 38 41 39 42 40 43 7 45 43 47 44 48 45 50 46 51
REMARK SMILES IDX 47 53 48 54 49 55 50 57 51 58 52 59 53 60 54 61 62 62 55 63
REMARK SMILES IDX 61 64 56 65 57 66 58 67 59 68 60 69 4 71 2 72 1 74 3 75
REMARK H PARENT 31 24 18 32 20 34 33 36 35 38 37 40 40 44 7 46 44 49 46 52
REMARK H PARENT 48 56 60 70 4 73
REMARK Flexibility Score: inf
ROOT
ATOM      1  C   UNL     1      26.084  39.516   7.264  1.00  0.00     0.272 C 
ATOM      2  C   UNL     1      26.961  40.689   6.913  1.00  0.00     0.113 C 
ATOM      3  C   UNL     1      27.736  40.326   5.669  1.00  0.00     0.145 C 
ATOM      4  C   UNL     1      28.758  39.261   6.129  1.00  0.00     0.142 C 
ATOM      5  C   UNL     1      27.972  38.178   6.804  1.00  0.00     0.178 C 
ATOM      6  O   UNL     1      26.609  38.321   6.640  1.00  0.00    -0.332 OA
ENDROOT
BRANCH   1   7
ATOM      7  O   UNL     1      24.831  39.584   6.748  1.00  0.00    -0.338 OA
BRANCH   7   8
ATOM      8  C   UNL     1      24.020  40.617   6.895  1.00  0.00     0.199 C 
BRANCH   8   9
ATOM      9  C   UNL     1      22.718  40.593   7.584  1.00  0.00     0.179 C 
ATOM     10  C   UNL     1      21.383  39.159   8.801  1.00  0.00     0.282 C 
ATOM     11  O   UNL     1      22.666  39.406   8.390  1.00  0.00    -0.341 OA
ATOM     12  C   UNL     1      20.444  40.312   8.778  1.00  0.00     0.202 C 
ATOM     13  C   UNL     1      21.098  41.649   9.050  1.00  0.00     0.179 C 
ATOM     14  C   UNL     1      22.533  41.684   8.632  1.00  0.00     0.177 C 
BRANCH  10  15
ATOM     15  O   UNL     1      21.450  38.518  10.042  1.00  0.00    -0.341 OA
BRANCH  15  16
ATOM     16  C   UNL     1      22.583  37.758  10.215  1.00  0.00     0.184 C 
ATOM     17  C   UNL     1      22.304  36.279  10.361  1.00  0.00     0.178 C 
ATOM     18  O   UNL     1      22.995  35.688  11.399  1.00  0.00    -0.341 OA
ATOM     19  C   UNL     1      22.721  36.165  12.651  1.00  0.00     0.281 C 
ATOM     20  C   UNL     1      23.220  38.246  11.529  1.00  0.00     0.180 C 
ATOM     21  C   UNL     1      22.351  37.631  12.610  1.00  0.00     0.202 C 
BRANCH  17  22
ATOM     22  C   UNL     1      22.810  35.631   9.079  1.00  0.00     0.191 C 
BRANCH  22  23
ATOM     23  O   UNL     1      24.045  36.183   8.733  1.00  0.00    -0.394 OA
ATOM     24  H   UNL     1      23.977  37.045   8.283  1.00  0.00     0.210 HD
ENDBRANCH  22  23
ENDBRANCH  17  22
BRANCH  19  25
ATOM     25  O   UNL     1      23.829  35.920  13.443  1.00  0.00    -0.350 OA
BRANCH  25  26
ATOM     26  C   UNL     1      24.075  34.614  13.730  1.00  0.00     0.169 C 
BRANCH  26  27
ATOM     27  C   UNL     1      25.517  34.188  13.501  1.00  0.00     0.119 C 
BRANCH  27  28
ATOM     28  N   UNL     1      26.244  35.190  12.747  1.00  0.00    -0.092 NA
ATOM     29  N   UNL     1      26.352  35.016  11.525  1.00  0.00     0.001 N 
ATOM     30  N   UNL     1      26.209  35.131  10.288  1.00  0.00    -0.003 NA
ENDBRANCH  27  28
ENDBRANCH  26  27
ENDBRANCH  25  26
ENDBRANCH  19  25
BRANCH  20  31
ATOM     31  O   UNL     1      24.514  37.716  11.528  1.00  0.00    -0.387 OA
ATOM     32  H   UNL     1      25.089  38.422  11.131  1.00  0.00     0.211 HD
ENDBRANCH  20  31
BRANCH  21  33
ATOM     33  O   UNL     1      21.021  37.708  12.163  1.00  0.00    -0.385 OA
ATOM     34  H   UNL     1      20.771  36.860  11.687  1.00  0.00     0.211 HD
ENDBRANCH  21  33
ENDBRANCH  15  16
ENDBRANCH  10  15
BRANCH  12  35
ATOM     35  O   UNL     1      19.625  40.369   7.650  1.00  0.00    -0.385 OA
ATOM     36  H   UNL     1      20.053  39.819   6.963  1.00  0.00     0.211 HD
ENDBRANCH  12  35
BRANCH  13  37
ATOM     37  O   UNL     1      20.955  42.013  10.400  1.00  0.00    -0.387 OA
ATOM     38  H   UNL     1      21.521  42.801  10.616  1.00  0.00     0.211 HD
ENDBRANCH  13  37
BRANCH  14  39
ATOM     39  O   UNL     1      23.291  41.292   9.759  1.00  0.00    -0.387 OA
ATOM     40  H   UNL     1      24.089  40.803   9.468  1.00  0.00     0.211 HD
ENDBRANCH  14  39
ENDBRANCH   8   9
ENDBRANCH   7   8
ENDBRANCH   1   7
BRANCH   1  41
ATOM     41  C   UNL     1      26.130  39.177   8.686  1.00  0.00     0.364 C 
ATOM     42  O   UNL     1      26.134  40.034   9.573  1.00  0.00    -0.246 OA
BRANCH  41  43
ATOM     43  O   UNL     1      26.175  37.847   9.140  1.00  0.00    -0.477 OA
ATOM     44  H   UNL     1      25.287  37.390   9.311  1.00  0.00     0.296 HD
ENDBRANCH  41  43
ENDBRANCH   1  41
BRANCH   3  45
ATOM     45  O   UNL     1      26.866  39.637   4.820  1.00  0.00    -0.391 OA
ATOM     46  H   UNL     1      26.530  38.820   5.240  1.00  0.00     0.211 HD
ENDBRANCH   3  45
BRANCH   5  47
ATOM     47  C   UNL     1      28.297  36.884   6.034  1.00  0.00     0.176 C 
BRANCH  47  48
ATOM     48  O   UNL     1      27.349  36.742   4.992  1.00  0.00    -0.388 OA
ATOM     49  H   UNL     1      27.506  35.943   4.462  1.00  0.00     0.211 HD
ENDBRANCH  47  48
BRANCH  47  50
ATOM     50  C   UNL     1      28.089  35.647   6.892  1.00  0.00     0.165 C 
BRANCH  50  51
ATOM     51  O   UNL     1      26.875  35.607   7.495  1.00  0.00    -0.388 OA
ATOM     52  H   UNL     1      26.872  35.684   8.478  1.00  0.00     0.211 HD
ENDBRANCH  50  51
BRANCH  50  53
ATOM     53  C   UNL     1      29.207  35.530   7.909  1.00  0.00     0.154 C 
BRANCH  53  54
ATOM     54  N   UNL     1      28.875  35.873   9.242  1.00  0.00    -0.319 N 
ATOM     55  C   UNL     1      29.325  37.021   9.902  1.00  0.00     0.407 C 
ATOM     56  H   UNL     1      28.232  35.218   9.807  1.00  0.00     0.167 HD
ATOM     57  O   UNL     1      30.061  37.857   9.354  1.00  0.00    -0.225 OA
BRANCH  55  58
ATOM     58  O   UNL     1      28.959  37.291  11.243  1.00  0.00    -0.443 OA
BRANCH  58  59
ATOM     59  C   UNL     1      29.305  38.508  11.865  1.00  0.00     0.294 C 
BRANCH  59  60
ATOM     60  C   UNL     1      28.140  39.282  12.338  1.00  0.00     0.120 A 
ATOM     61  C   UNL     1      28.042  40.652  12.473  1.00  0.00     0.139 A 
ATOM     62  N   UNL     1      26.948  38.799  12.724  1.00  0.00    -0.132 NA
ATOM     63  N   UNL     1      26.806  40.964  12.934  1.00  0.00    -0.244 N 
ATOM     64  N   UNL     1      26.161  39.818  13.078  1.00  0.00    -0.066 NA
BRANCH  63  65
ATOM     65  C   UNL     1      26.320  42.295  13.200  1.00  0.00     0.082 C 
ATOM     66  C   UNL     1      27.452  43.275  13.111  1.00  0.00     0.039 C 
ATOM     67  C   UNL     1      25.771  42.379  14.632  1.00  0.00     0.039 C 
BRANCH  65  68
ATOM     68  C   UNL     1      25.215  42.733  12.282  1.00  0.00     0.186 C 
BRANCH  68  69
ATOM     69  O   UNL     1      25.524  42.605  10.948  1.00  0.00    -0.394 OA
ATOM     70  H   UNL     1      26.468  42.659  10.732  1.00  0.00     0.210 HD
ENDBRANCH  68  69
ENDBRANCH  65  68
ENDBRANCH  63  65
ENDBRANCH  59  60
ENDBRANCH  58  59
ENDBRANCH  55  58
ENDBRANCH  53  54
ENDBRANCH  50  53
ENDBRANCH  47  50
ENDBRANCH   5  47
BRANCH   4  71
ATOM     71  N   UNL     1      29.689  39.956   6.959  1.00  0.00    -0.348 N 
ATOM     72  C   UNL     1      31.053  40.197   6.669  1.00  0.00     0.217 C 
ATOM     73  H   UNL     1      29.368  40.344   7.896  1.00  0.00     0.163 HD
ATOM     74  C   UNL     1      31.947  40.932   7.603  1.00  0.00     0.114 C 
ATOM     75  O   UNL     1      31.529  39.782   5.600  1.00  0.00    -0.275 OA
ENDBRANCH   4  71
TORSDOF 32
BEGIN_RES LYS A 131
REMARK  4 active torsions:
REMARK  status: ('A' for Active; 'I' for Inactive)
REMARK    1  A    between atoms: CA   and  CB  
REMARK    2  A    between atoms: CB   and  CG  
REMARK    3  A    between atoms: CG   and  CD  
REMARK    4  A    between atoms: CD   and  CE  
ROOT
ATOM      1  CA  LYS A 131      29.867  25.555  16.977  1.00 20.52     0.186 C 
ENDROOT
BRANCH   1   2
ATOM      2  CB  LYS A 131      28.345  25.722  17.026  1.00 20.94     0.034 C 
BRANCH   2   3
ATOM      3  CG  LYS A 131      27.601  24.402  16.890  1.00 22.96     0.005 C 
BRANCH   3   4
ATOM      4  CD  LYS A 131      26.530  24.246  17.934  1.00 24.33     0.041 C 
BRANCH   4   5
ATOM      5  CE  LYS A 131      25.160  24.257  17.262  1.00 26.91     0.338 C 
ATOM      6  NZ  LYS A 131      24.575  22.896  17.254  1.00 27.40     0.618 N 
ENDBRANCH   4   5
ENDBRANCH   3   4
ENDBRANCH   2   3
ENDBRANCH   1   2
END_RES LYS A 131
BEGIN_RES LYS A 135
REMARK  4 active torsions:
REMARK  status: ('A' for Active; 'I' for Inactive)
REMARK    5  A    between atoms: CA   and  CB  
REMARK    6  A    between atoms: CB   and  CG  
REMARK    7  A    between atoms: CG   and  CD  
REMARK    8  A    between atoms: CD   and  CE  
ROOT
ATOM      7  CA  LYS A 135      33.193  34.663   9.290  1.00 25.02     0.186 C 
ENDROOT
BRANCH   7   8
ATOM      8  CB  LYS A 135      32.060  35.360  10.034  1.00 26.63     0.034 C 
BRANCH   8   9
ATOM      9  CG  LYS A 135      32.524  36.164  11.221  1.00 29.45     0.005 C 
BRANCH   9  10
ATOM     10  CD  LYS A 135      31.844  35.683  12.494  1.00 32.00     0.041 C 
BRANCH  10  11
ATOM     11  CE  LYS A 135      30.801  34.629  12.175  1.00 34.25     0.338 C 
ATOM     12  NZ  LYS A 135      29.730  34.604  13.210  1.00 35.99     0.618 N 
ENDBRANCH  10  11
ENDBRANCH   9  10
ENDBRANCH   8   9
ENDBRANCH   7   8
END_RES LYS A 135
