REMARK VINA RESULT:    -4.899      3.067      8.844
REMARK INTER + INTRA:         -24.419
REMARK INTER:                 -13.000
REMARK INTRA:                 -11.418
REMARK UNBOUND:               -11.071
REMARK SMILES CC(=O)N[C@@H]1[C@@H](O)C[C@](OC[C@H]2O[C@@H](O[C@H]3[C@H](O)[C@@H](O)[C@H](OCCN=[N+]=[N-])O[C@@H]3CO)[C@H](O)[C@@H](O)[C@H]2O)(C(=O)O)O[C@H]1C(O)[C@H](O)CNC(=O)OCc1cn(CC(O)CCc2ccccc2)nn1
REMARK SMILES IDX 43 1 42 2 9 3 8 4 41 5 6 6 5 7 10 8 11 9 12 10 14 11 13 12
REMARK SMILES IDX 32 13 34 14 36 15 15 16 16 17 29 18 28 19 21 20 17 21 19 22
REMARK SMILES IDX 30 23 31 24 22 26 23 27 24 28 25 29 26 30 27 31 18 32 20 34
REMARK SMILES IDX 33 36 35 38 37 40 38 42 39 43 40 44 7 46 4 48 2 49 1 51 3 52
REMARK SMILES IDX 44 53 45 55 46 56 47 58 48 59 49 60 50 62 51 63 52 64 53 65
REMARK SMILES IDX 54 66 68 67 55 68 67 69 56 70 57 71 58 72 59 74 60 75 61 76
REMARK SMILES IDX 62 77 66 78 63 79 65 80 64 81
REMARK H PARENT 31 25 18 33 20 35 33 37 35 39 37 41 40 45 7 47 4 50 44 54
REMARK H PARENT 46 57 48 61 58 73
REMARK Flexibility Score: inf
ROOT
ATOM      1  C   UNL     1      22.611  36.094   8.401  1.00  0.00     0.176 C 
ENDROOT
BRANCH   1   2
ATOM      2  C   UNL     1      21.301  36.832   8.736  1.00  0.00     0.178 C 
ATOM      3  C   UNL     1      20.975  39.179   8.853  1.00  0.00     0.272 C 
ATOM      4  C   UNL     1      21.470  39.096  10.259  1.00  0.00     0.113 C 
ATOM      5  O   UNL     1      21.338  38.044   8.179  1.00  0.00    -0.332 OA
ATOM      6  C   UNL     1      20.901  37.917  10.963  1.00  0.00     0.145 C 
ATOM      7  C   UNL     1      21.015  36.645  10.177  1.00  0.00     0.142 C 
BRANCH   3   8
ATOM      8  O   UNL     1      21.462  40.340   8.221  1.00  0.00    -0.338 OA
BRANCH   8   9
ATOM      9  C   UNL     1      22.221  41.166   8.969  1.00  0.00     0.199 C 
BRANCH   9  10
ATOM     10  C   UNL     1      23.523  41.557   8.229  1.00  0.00     0.179 C 
ATOM     11  C   UNL     1      25.198  40.831   6.881  1.00  0.00     0.282 C 
ATOM     12  O   UNL     1      24.154  40.487   7.703  1.00  0.00    -0.341 OA
ATOM     13  C   UNL     1      24.541  41.627   5.719  1.00  0.00     0.202 C 
ATOM     14  C   UNL     1      24.283  42.989   6.370  1.00  0.00     0.179 C 
ATOM     15  C   UNL     1      23.190  42.719   7.367  1.00  0.00     0.177 C 
BRANCH  11  16
ATOM     16  O   UNL     1      25.785  39.741   6.343  1.00  0.00    -0.341 OA
BRANCH  16  17
ATOM     17  C   UNL     1      27.096  39.456   6.646  1.00  0.00     0.184 C 
ATOM     18  C   UNL     1      27.396  37.995   6.698  1.00  0.00     0.178 C 
ATOM     19  O   UNL     1      27.927  37.507   7.849  1.00  0.00    -0.341 OA
ATOM     20  C   UNL     1      28.723  38.324   8.595  1.00  0.00     0.281 C 
ATOM     21  C   UNL     1      27.448  40.253   7.869  1.00  0.00     0.180 C 
ATOM     22  C   UNL     1      27.876  39.482   9.064  1.00  0.00     0.202 C 
BRANCH  18  23
ATOM     23  C   UNL     1      28.345  37.642   5.572  1.00  0.00     0.191 C 
BRANCH  23  24
ATOM     24  O   UNL     1      29.189  36.593   5.928  1.00  0.00    -0.394 OA
ATOM     25  H   UNL     1      30.122  36.960   5.866  1.00  0.00     0.210 HD
ENDBRANCH  23  24
ENDBRANCH  18  23
BRANCH  20  26
ATOM     26  O   UNL     1      29.878  38.734   7.950  1.00  0.00    -0.350 OA
BRANCH  26  27
ATOM     27  C   UNL     1      30.993  38.294   8.666  1.00  0.00     0.169 C 
BRANCH  27  28
ATOM     28  C   UNL     1      31.926  39.496   8.806  1.00  0.00     0.119 C 
BRANCH  28  29
ATOM     29  N   UNL     1      31.668  40.219  10.022  1.00  0.00    -0.092 NA
ATOM     30  N   UNL     1      30.888  41.193   9.996  1.00  0.00     0.001 N 
ATOM     31  N   UNL     1      30.350  42.314   9.905  1.00  0.00    -0.003 NA
ENDBRANCH  28  29
ENDBRANCH  27  28
ENDBRANCH  26  27
ENDBRANCH  20  26
BRANCH  21  32
ATOM     32  O   UNL     1      28.505  41.164   7.598  1.00  0.00    -0.387 OA
ATOM     33  H   UNL     1      29.115  41.259   8.365  1.00  0.00     0.211 HD
ENDBRANCH  21  32
BRANCH  22  34
ATOM     34  O   UNL     1      26.773  38.952   9.741  1.00  0.00    -0.385 OA
ATOM     35  H   UNL     1      26.219  38.387   9.165  1.00  0.00     0.211 HD
ENDBRANCH  22  34
ENDBRANCH  16  17
ENDBRANCH  11  16
BRANCH  13  36
ATOM     36  O   UNL     1      25.306  41.689   4.602  1.00  0.00    -0.385 OA
ATOM     37  H   UNL     1      25.113  42.386   3.953  1.00  0.00     0.211 HD
ENDBRANCH  13  36
BRANCH  14  38
ATOM     38  O   UNL     1      23.912  43.935   5.419  1.00  0.00    -0.387 OA
ATOM     39  H   UNL     1      23.279  44.581   5.807  1.00  0.00     0.211 HD
ENDBRANCH  14  38
BRANCH  15  40
ATOM     40  O   UNL     1      22.037  42.448   6.622  1.00  0.00    -0.387 OA
ATOM     41  H   UNL     1      21.282  42.203   7.205  1.00  0.00     0.211 HD
ENDBRANCH  15  40
ENDBRANCH   9  10
ENDBRANCH   8   9
ENDBRANCH   3   8
BRANCH   3  42
ATOM     42  C   UNL     1      19.507  39.392   8.871  1.00  0.00     0.364 C 
ATOM     43  O   UNL     1      18.784  38.717   8.083  1.00  0.00    -0.246 OA
BRANCH  42  44
ATOM     44  O   UNL     1      18.884  40.284   9.698  1.00  0.00    -0.477 OA
ATOM     45  H   UNL     1      18.179  39.960  10.344  1.00  0.00     0.296 HD
ENDBRANCH  42  44
ENDBRANCH   3  42
BRANCH   6  46
ATOM     46  O   UNL     1      21.603  37.832  12.196  1.00  0.00    -0.391 OA
ATOM     47  H   UNL     1      21.049  37.451  12.907  1.00  0.00     0.211 HD
ENDBRANCH   6  46
BRANCH   7  48
ATOM     48  N   UNL     1      19.921  35.737  10.408  1.00  0.00    -0.348 N 
ATOM     49  C   UNL     1      20.032  34.543  11.171  1.00  0.00     0.217 C 
ATOM     50  H   UNL     1      18.961  35.935   9.995  1.00  0.00     0.163 HD
ATOM     51  C   UNL     1      18.833  33.695  11.341  1.00  0.00     0.114 C 
ATOM     52  O   UNL     1      21.108  34.218  11.685  1.00  0.00    -0.275 OA
ENDBRANCH   7  48
ENDBRANCH   1   2
BRANCH   1  53
ATOM     53  O   UNL     1      22.688  34.919   9.122  1.00  0.00    -0.388 OA
ATOM     54  H   UNL     1      23.057  35.044  10.029  1.00  0.00     0.211 HD
ENDBRANCH   1  53
BRANCH   1  55
ATOM     55  C   UNL     1      23.826  36.943   8.397  1.00  0.00     0.165 C 
BRANCH  55  56
ATOM     56  O   UNL     1      23.960  37.574   7.186  1.00  0.00    -0.388 OA
ATOM     57  H   UNL     1      23.716  38.520   7.207  1.00  0.00     0.211 HD
ENDBRANCH  55  56
BRANCH  55  58
ATOM     58  C   UNL     1      25.005  36.043   8.683  1.00  0.00     0.154 C 
BRANCH  58  59
ATOM     59  N   UNL     1      25.682  36.244   9.908  1.00  0.00    -0.319 N 
ATOM     60  C   UNL     1      25.365  35.693  11.178  1.00  0.00     0.407 C 
ATOM     61  H   UNL     1      26.551  36.883   9.937  1.00  0.00     0.167 HD
ATOM     62  O   UNL     1      24.406  34.922  11.302  1.00  0.00    -0.225 OA
BRANCH  60  63
ATOM     63  O   UNL     1      26.117  36.003  12.300  1.00  0.00    -0.443 OA
BRANCH  63  64
ATOM     64  C   UNL     1      26.495  37.252  12.747  1.00  0.00     0.294 C 
BRANCH  64  65
ATOM     65  C   UNL     1      27.925  37.589  12.675  1.00  0.00     0.120 A 
ATOM     66  C   UNL     1      29.002  36.724  12.828  1.00  0.00     0.138 A 
ATOM     67  N   UNL     1      28.446  38.819  12.481  1.00  0.00    -0.132 NA
ATOM     68  N   UNL     1      30.101  37.466  12.722  1.00  0.00    -0.250 N 
ATOM     69  N   UNL     1      29.758  38.712  12.514  1.00  0.00    -0.067 NA
BRANCH  68  70
ATOM     70  C   UNL     1      31.473  36.907  12.852  1.00  0.00     0.177 C 
BRANCH  70  71
ATOM     71  C   UNL     1      31.732  36.770  14.314  1.00  0.00     0.136 C 
BRANCH  71  72
ATOM     72  O   UNL     1      32.135  37.988  14.888  1.00  0.00    -0.391 OA
ATOM     73  H   UNL     1      31.575  38.738  14.596  1.00  0.00     0.211 HD
ENDBRANCH  71  72
BRANCH  71  74
ATOM     74  C   UNL     1      32.656  35.681  14.693  1.00  0.00     0.038 C 
BRANCH  74  75
ATOM     75  C   UNL     1      32.688  35.116  16.037  1.00  0.00     0.038 C 
BRANCH  75  76
ATOM     76  C   UNL     1      31.936  33.917  16.343  1.00  0.00    -0.048 A 
ATOM     77  C   UNL     1      31.687  32.959  15.364  1.00  0.00     0.004 A 
ATOM     78  C   UNL     1      31.367  33.713  17.601  1.00  0.00     0.004 A 
ATOM     79  C   UNL     1      30.916  31.868  15.637  1.00  0.00     0.000 A 
ATOM     80  C   UNL     1      30.595  32.603  17.842  1.00  0.00     0.000 A 
ATOM     81  C   UNL     1      30.345  31.648  16.866  1.00  0.00     0.000 A 
ENDBRANCH  75  76
ENDBRANCH  74  75
ENDBRANCH  71  74
ENDBRANCH  70  71
ENDBRANCH  68  70
ENDBRANCH  64  65
ENDBRANCH  63  64
ENDBRANCH  60  63
ENDBRANCH  58  59
ENDBRANCH  55  58
ENDBRANCH   1  55
TORSDOF 35
BEGIN_RES LYS A 131
REMARK  4 active torsions:
REMARK  status: ('A' for Active; 'I' for Inactive)
REMARK    1  A    between atoms: CA   and  CB  
REMARK    2  A    between atoms: CB   and  CG  
REMARK    3  A    between atoms: CG   and  CD  
REMARK    4  A    between atoms: CD   and  CE  
ROOT
ATOM      1  CA  LYS A 131      29.867  25.555  16.977  1.00 20.52     0.186 C 
ENDROOT
BRANCH   1   2
ATOM      2  CB  LYS A 131      28.345  25.722  17.026  1.00 20.94     0.034 C 
BRANCH   2   3
ATOM      3  CG  LYS A 131      27.601  24.402  16.889  1.00 22.96     0.005 C 
BRANCH   3   4
ATOM      4  CD  LYS A 131      26.169  24.511  17.333  1.00 24.33     0.041 C 
BRANCH   4   5
ATOM      5  CE  LYS A 131      25.612  23.116  17.602  1.00 26.91     0.338 C 
ATOM      6  NZ  LYS A 131      25.233  22.975  19.028  1.00 27.40     0.618 N 
ENDBRANCH   4   5
ENDBRANCH   3   4
ENDBRANCH   2   3
ENDBRANCH   1   2
END_RES LYS A 131
BEGIN_RES LYS A 135
REMARK  4 active torsions:
REMARK  status: ('A' for Active; 'I' for Inactive)
REMARK    5  A    between atoms: CA   and  CB  
REMARK    6  A    between atoms: CB   and  CG  
REMARK    7  A    between atoms: CG   and  CD  
REMARK    8  A    between atoms: CD   and  CE  
ROOT
ATOM      7  CA  LYS A 135      33.193  34.663   9.290  1.00 25.02     0.186 C 
ENDROOT
BRANCH   7   8
ATOM      8  CB  LYS A 135      32.060  35.360  10.034  1.00 26.63     0.034 C 
BRANCH   8   9
ATOM      9  CG  LYS A 135      30.758  34.602   9.997  1.00 29.45     0.005 C 
BRANCH   9  10
ATOM     10  CD  LYS A 135      30.270  34.443   8.565  1.00 32.00     0.041 C 
BRANCH  10  11
ATOM     11  CE  LYS A 135      28.757  34.359   8.525  1.00 34.25     0.338 C 
ATOM     12  NZ  LYS A 135      28.217  33.783   9.788  1.00 35.99     0.618 N 
ENDBRANCH  10  11
ENDBRANCH   9  10
ENDBRANCH   8   9
ENDBRANCH   7   8
END_RES LYS A 135
