REMARK VINA RESULT:    -5.504      3.037      8.073
REMARK INTER + INTRA:         -21.773
REMARK INTER:                 -10.420
REMARK INTRA:                 -11.354
REMARK UNBOUND:                -8.226
REMARK SMILES CC(=O)N[C@@H]1[C@@H](O)C[C@](OC[C@H]2O[C@@H](O[C@H]3[C@H](O)[C@@H](O)[C@H](OCCN=[N+]=[N-])O[C@@H]3CO)[C@H](O)[C@@H](O)[C@H]2O)(C(=O)O)O[C@H]1C(O)[C@H](O)CNC(=O)OCc1cn(-c2ccccc2Br)nn1
REMARK SMILES IDX 9 1 8 2 6 3 5 4 42 5 41 6 10 7 11 8 12 9 14 10 13 11 32 12
REMARK SMILES IDX 34 13 36 14 15 15 16 16 29 17 28 18 21 19 17 20 19 21 30 22
REMARK SMILES IDX 31 23 22 25 23 26 24 27 25 28 26 29 27 30 18 31 20 33 33 35
REMARK SMILES IDX 35 37 37 39 38 41 39 42 40 43 7 45 43 47 44 48 45 50 46 51
REMARK SMILES IDX 47 53 48 54 49 55 50 57 51 58 52 59 53 60 54 61 64 62 55 63
REMARK SMILES IDX 63 64 56 65 57 66 61 67 58 68 60 69 62 70 59 71 4 72 2 73
REMARK SMILES IDX 1 75 3 76
REMARK H PARENT 31 24 18 32 20 34 33 36 35 38 37 40 40 44 7 46 44 49 46 52
REMARK H PARENT 48 56 4 74
REMARK Flexibility Score: inf
ROOT
ATOM      1  C   UNL     1      24.264  35.681  10.281  1.00  0.00     0.272 C 
ATOM      2  C   UNL     1      23.387  35.578   9.091  1.00  0.00     0.113 C 
ATOM      3  C   UNL     1      22.320  36.624   9.089  1.00  0.00     0.145 C 
ATOM      4  C   UNL     1      22.760  37.998   9.450  1.00  0.00     0.142 C 
ATOM      5  C   UNL     1      24.123  38.017  10.048  1.00  0.00     0.178 C 
ATOM      6  O   UNL     1      24.500  36.944  10.783  1.00  0.00    -0.332 OA
ENDROOT
BRANCH   1   7
ATOM      7  O   UNL     1      25.526  35.132  10.141  1.00  0.00    -0.338 OA
BRANCH   7   8
ATOM      8  C   UNL     1      25.787  34.441   9.006  1.00  0.00     0.199 C 
BRANCH   8   9
ATOM      9  C   UNL     1      27.149  34.949   8.472  1.00  0.00     0.179 C 
ATOM     10  C   UNL     1      28.562  36.742   8.832  1.00  0.00     0.282 C 
ATOM     11  O   UNL     1      27.292  36.275   8.625  1.00  0.00    -0.341 OA
ATOM     12  C   UNL     1      29.599  36.014   8.006  1.00  0.00     0.202 C 
ATOM     13  C   UNL     1      29.541  34.522   8.260  1.00  0.00     0.179 C 
ATOM     14  C   UNL     1      28.270  34.143   8.995  1.00  0.00     0.177 C 
BRANCH  10  15
ATOM     15  O   UNL     1      28.905  36.806  10.175  1.00  0.00    -0.341 OA
BRANCH  15  16
ATOM     16  C   UNL     1      28.145  37.679  10.918  1.00  0.00     0.184 C 
ATOM     17  C   UNL     1      28.815  39.003  11.196  1.00  0.00     0.178 C 
ATOM     18  O   UNL     1      27.808  39.882  11.563  1.00  0.00    -0.341 OA
ATOM     19  C   UNL     1      27.075  39.509  12.644  1.00  0.00     0.281 C 
ATOM     20  C   UNL     1      27.845  37.109  12.299  1.00  0.00     0.180 C 
ATOM     21  C   UNL     1      27.216  38.134  13.148  1.00  0.00     0.202 C 
BRANCH  17  22
ATOM     22  C   UNL     1      29.576  39.571  10.044  1.00  0.00     0.191 C 
BRANCH  22  23
ATOM     23  O   UNL     1      28.675  39.994   9.069  1.00  0.00    -0.394 OA
ATOM     24  H   UNL     1      28.756  40.955   8.940  1.00  0.00     0.210 HD
ENDBRANCH  22  23
ENDBRANCH  17  22
BRANCH  19  25
ATOM     25  O   UNL     1      25.720  39.718  12.295  1.00  0.00    -0.350 OA
BRANCH  25  26
ATOM     26  C   UNL     1      25.289  40.995  12.522  1.00  0.00     0.169 C 
BRANCH  26  27
ATOM     27  C   UNL     1      23.804  41.176  12.566  1.00  0.00     0.119 C 
BRANCH  27  28
ATOM     28  N   UNL     1      23.333  41.202  11.190  1.00  0.00    -0.092 NA
ATOM     29  N   UNL     1      23.813  41.996  10.394  1.00  0.00     0.001 N 
ATOM     30  N   UNL     1      24.326  42.734   9.562  1.00  0.00    -0.003 NA
ENDBRANCH  27  28
ENDBRANCH  26  27
ENDBRANCH  25  26
ENDBRANCH  19  25
BRANCH  20  31
ATOM     31  O   UNL     1      27.034  35.989  12.222  1.00  0.00    -0.387 OA
ATOM     32  H   UNL     1      26.191  36.081  12.724  1.00  0.00     0.211 HD
ENDBRANCH  20  31
BRANCH  21  33
ATOM     33  O   UNL     1      27.936  38.115  14.380  1.00  0.00    -0.385 OA
ATOM     34  H   UNL     1      28.690  37.482  14.336  1.00  0.00     0.211 HD
ENDBRANCH  21  33
ENDBRANCH  15  16
ENDBRANCH  10  15
BRANCH  12  35
ATOM     35  O   UNL     1      29.484  36.324   6.650  1.00  0.00    -0.385 OA
ATOM     36  H   UNL     1      28.538  36.388   6.371  1.00  0.00     0.211 HD
ENDBRANCH  12  35
BRANCH  13  37
ATOM     37  O   UNL     1      30.688  34.080   8.888  1.00  0.00    -0.387 OA
ATOM     38  H   UNL     1      31.467  34.597   8.598  1.00  0.00     0.211 HD
ENDBRANCH  13  37
BRANCH  14  39
ATOM     39  O   UNL     1      28.502  34.299  10.351  1.00  0.00    -0.387 OA
ATOM     40  H   UNL     1      29.422  34.052  10.616  1.00  0.00     0.211 HD
ENDBRANCH  14  39
ENDBRANCH   8   9
ENDBRANCH   7   8
ENDBRANCH   1   7
BRANCH   1  41
ATOM     41  C   UNL     1      23.518  34.984  11.404  1.00  0.00     0.364 C 
ATOM     42  O   UNL     1      24.012  35.083  12.548  1.00  0.00    -0.246 OA
BRANCH  41  43
ATOM     43  O   UNL     1      22.368  34.276  11.223  1.00  0.00    -0.477 OA
ATOM     44  H   UNL     1      22.381  33.245  11.261  1.00  0.00     0.296 HD
ENDBRANCH  41  43
ENDBRANCH   1  41
BRANCH   3  45
ATOM     45  O   UNL     1      21.695  36.610   7.821  1.00  0.00    -0.391 OA
ATOM     46  H   UNL     1      21.592  37.558   7.533  1.00  0.00     0.211 HD
ENDBRANCH   3  45
BRANCH   5  47
ATOM     47  C   UNL     1      25.167  38.510   9.047  1.00  0.00     0.176 C 
BRANCH  47  48
ATOM     48  O   UNL     1      25.635  39.770   9.321  1.00  0.00    -0.388 OA
ATOM     49  H   UNL     1      25.043  40.477   8.927  1.00  0.00     0.211 HD
ENDBRANCH  47  48
BRANCH  47  50
ATOM     50  C   UNL     1      24.602  38.519   7.617  1.00  0.00     0.165 C 
BRANCH  50  51
ATOM     51  O   UNL     1      25.487  37.845   6.815  1.00  0.00    -0.388 OA
ATOM     52  H   UNL     1      25.111  37.258   6.137  1.00  0.00     0.211 HD
ENDBRANCH  50  51
BRANCH  50  53
ATOM     53  C   UNL     1      24.396  39.923   7.150  1.00  0.00     0.154 C 
BRANCH  53  54
ATOM     54  N   UNL     1      25.314  40.294   6.127  1.00  0.00    -0.319 N 
ATOM     55  C   UNL     1      26.437  41.141   6.240  1.00  0.00     0.407 C 
ATOM     56  H   UNL     1      25.152  39.895   5.149  1.00  0.00     0.167 HD
ATOM     57  O   UNL     1      26.737  41.652   7.323  1.00  0.00    -0.225 OA
BRANCH  55  58
ATOM     58  O   UNL     1      27.231  41.417   5.128  1.00  0.00    -0.443 OA
BRANCH  58  59
ATOM     59  C   UNL     1      28.053  40.478   4.478  1.00  0.00     0.294 C 
BRANCH  59  60
ATOM     60  C   UNL     1      29.225  40.106   5.335  1.00  0.00     0.121 A 
ATOM     61  C   UNL     1      30.487  40.693   5.245  1.00  0.00     0.144 A 
ATOM     62  N   UNL     1      29.314  39.193   6.288  1.00  0.00    -0.131 NA
ATOM     63  N   UNL     1      31.270  40.096   6.155  1.00  0.00    -0.219 N 
ATOM     64  N   UNL     1      30.557  39.192   6.783  1.00  0.00    -0.062 NA
BRANCH  63  65
ATOM     65  C   UNL     1      32.635  40.378   6.409  1.00  0.00     0.081 A 
ATOM     66  C   UNL     1      33.645  39.701   5.761  1.00  0.00     0.029 A 
ATOM     67  C   UNL     1      32.981  41.344   7.315  1.00  0.00     0.043 A 
ATOM     68  C   UNL     1      34.975  40.007   6.036  1.00  0.00     0.002 A 
ATOM     69  C   UNL     1      34.292  41.649   7.591  1.00  0.00     0.018 A 
ATOM     70  Br  UNL     1      31.613  42.299   8.235  1.00  0.00    -0.048 Br
ATOM     71  C   UNL     1      35.309  40.982   6.951  1.00  0.00     0.001 A 
ENDBRANCH  63  65
ENDBRANCH  59  60
ENDBRANCH  58  59
ENDBRANCH  55  58
ENDBRANCH  53  54
ENDBRANCH  50  53
ENDBRANCH  47  50
ENDBRANCH   5  47
BRANCH   4  72
ATOM     72  N   UNL     1      21.826  38.688  10.311  1.00  0.00    -0.348 N 
ATOM     73  C   UNL     1      20.682  39.337   9.785  1.00  0.00     0.217 C 
ATOM     74  H   UNL     1      21.983  38.716  11.337  1.00  0.00     0.163 HD
ATOM     75  C   UNL     1      19.769  40.026  10.747  1.00  0.00     0.114 C 
ATOM     76  O   UNL     1      20.425  39.346   8.567  1.00  0.00    -0.275 OA
ENDBRANCH   4  72
TORSDOF 30
BEGIN_RES LYS A 131
REMARK  4 active torsions:
REMARK  status: ('A' for Active; 'I' for Inactive)
REMARK    1  A    between atoms: CA   and  CB  
REMARK    2  A    between atoms: CB   and  CG  
REMARK    3  A    between atoms: CG   and  CD  
REMARK    4  A    between atoms: CD   and  CE  
ROOT
ATOM      1  CA  LYS A 131      29.867  25.555  16.977  1.00 20.52     0.186 C 
ENDROOT
BRANCH   1   2
ATOM      2  CB  LYS A 131      28.345  25.722  17.026  1.00 20.94     0.034 C 
BRANCH   2   3
ATOM      3  CG  LYS A 131      27.601  24.403  16.886  1.00 22.96     0.005 C 
BRANCH   3   4
ATOM      4  CD  LYS A 131      26.188  24.493  17.393  1.00 24.33     0.041 C 
BRANCH   4   5
ATOM      5  CE  LYS A 131      26.009  23.540  18.571  1.00 26.91     0.338 C 
ATOM      6  NZ  LYS A 131      25.053  24.103  19.553  1.00 27.40     0.618 N 
ENDBRANCH   4   5
ENDBRANCH   3   4
ENDBRANCH   2   3
ENDBRANCH   1   2
END_RES LYS A 131
BEGIN_RES LYS A 135
REMARK  4 active torsions:
REMARK  status: ('A' for Active; 'I' for Inactive)
REMARK    5  A    between atoms: CA   and  CB  
REMARK    6  A    between atoms: CB   and  CG  
REMARK    7  A    between atoms: CG   and  CD  
REMARK    8  A    between atoms: CD   and  CE  
ROOT
ATOM      7  CA  LYS A 135      33.193  34.663   9.290  1.00 25.02     0.186 C 
ENDROOT
BRANCH   7   8
ATOM      8  CB  LYS A 135      32.060  35.360  10.034  1.00 26.63     0.034 C 
BRANCH   8   9
ATOM      9  CG  LYS A 135      32.039  35.066  11.512  1.00 29.45     0.005 C 
BRANCH   9  10
ATOM     10  CD  LYS A 135      32.676  36.203  12.295  1.00 32.00     0.041 C 
BRANCH  10  11
ATOM     11  CE  LYS A 135      31.834  37.460  12.188  1.00 34.25     0.338 C 
ATOM     12  NZ  LYS A 135      31.295  37.860  13.517  1.00 35.99     0.618 N 
ENDBRANCH  10  11
ENDBRANCH   9  10
ENDBRANCH   8   9
ENDBRANCH   7   8
END_RES LYS A 135
