REMARK VINA RESULT:    -3.012      2.461      8.340
REMARK INTER + INTRA:         -22.200
REMARK INTER:                  -8.342
REMARK INTRA:                 -13.858
REMARK UNBOUND:               -13.729
REMARK SMILES CCOC(CCn1cc(COC(=O)NC[C@@H](O)C(O)[C@@H]2O[C@@](OC[C@H]3O[C@@H](O[C@H]4[C@H](O)[C@@H](O)[C@H](OCCN=[N+]=[N-])O[C@@H]4CO)[C@H](O)[C@@H](O)[C@H]3O)(C(=O)O)C[C@H](O)[C@H]2NC(C)=O)nn1)OCC
REMARK SMILES IDX 18 1 20 2 22 3 54 4 21 5 55 6 57 7 23 8 24 9 25 10 27 11
REMARK SMILES IDX 26 12 45 13 47 14 49 15 28 16 29 17 42 18 41 19 34 20 30 21
REMARK SMILES IDX 32 22 43 23 44 24 35 26 36 27 37 28 38 29 39 30 40 31 31 32
REMARK SMILES IDX 33 34 46 36 48 38 50 40 51 42 52 43 53 44 56 46 58 48 59 49
REMARK SMILES IDX 60 51 61 52 19 53 16 55 17 56 15 58 14 59 12 60 13 62 11 63
REMARK SMILES IDX 10 64 9 65 8 66 62 67 7 68 63 69 6 70 5 71 4 72 3 73 2 74
REMARK SMILES IDX 1 75 64 76 65 77 66 78
REMARK H PARENT 44 25 31 33 33 35 46 37 48 39 50 41 53 45 56 47 58 50 19 54
REMARK H PARENT 17 57 14 61
REMARK Flexibility Score: inf
ROOT
ATOM      1  C   UNL     1      22.359  37.249   9.485  1.00  0.00     0.176 C 
ENDROOT
BRANCH   1   2
ATOM      2  C   UNL     1      23.723  37.793   9.792  1.00  0.00     0.178 C 
ATOM      3  C   UNL     1      25.992  37.415   9.551  1.00  0.00     0.272 C 
ATOM      4  C   UNL     1      26.010  38.761  10.184  1.00  0.00     0.113 C 
ATOM      5  O   UNL     1      24.690  36.900   9.360  1.00  0.00    -0.332 OA
ATOM      6  C   UNL     1      25.112  38.948  11.357  1.00  0.00     0.145 C 
ATOM      7  C   UNL     1      23.964  37.932  11.299  1.00  0.00     0.142 C 
BRANCH   3   8
ATOM      8  O   UNL     1      26.742  36.445  10.084  1.00  0.00    -0.338 OA
BRANCH   8   9
ATOM      9  C   UNL     1      26.272  35.199  10.271  1.00  0.00     0.199 C 
BRANCH   9  10
ATOM     10  C   UNL     1      26.283  34.824  11.736  1.00  0.00     0.179 C 
ATOM     11  C   UNL     1      26.796  35.444  13.833  1.00  0.00     0.282 C 
ATOM     12  O   UNL     1      26.289  35.911  12.591  1.00  0.00    -0.341 OA
ATOM     13  C   UNL     1      25.765  34.578  14.454  1.00  0.00     0.202 C 
ATOM     14  C   UNL     1      25.415  33.448  13.515  1.00  0.00     0.179 C 
ATOM     15  C   UNL     1      25.135  33.889  12.102  1.00  0.00     0.177 C 
BRANCH  11  16
ATOM     16  O   UNL     1      27.190  36.546  14.599  1.00  0.00    -0.341 OA
BRANCH  16  17
ATOM     17  C   UNL     1      28.547  36.583  14.659  1.00  0.00     0.184 C 
ATOM     18  C   UNL     1      29.199  36.902  15.948  1.00  0.00     0.178 C 
ATOM     19  O   UNL     1      30.539  36.500  15.867  1.00  0.00    -0.341 OA
ATOM     20  C   UNL     1      31.234  37.304  14.951  1.00  0.00     0.281 C 
ATOM     21  C   UNL     1      29.109  37.656  13.672  1.00  0.00     0.180 C 
ATOM     22  C   UNL     1      30.597  37.294  13.578  1.00  0.00     0.202 C 
BRANCH  18  23
ATOM     23  C   UNL     1      28.559  36.165  17.086  1.00  0.00     0.191 C 
BRANCH  23  24
ATOM     24  O   UNL     1      28.545  34.785  16.883  1.00  0.00    -0.394 OA
ATOM     25  H   UNL     1      28.998  34.292  17.589  1.00  0.00     0.210 HD
ENDBRANCH  23  24
ENDBRANCH  18  23
BRANCH  20  26
ATOM     26  O   UNL     1      32.503  36.764  14.836  1.00  0.00    -0.350 OA
BRANCH  26  27
ATOM     27  C   UNL     1      32.777  35.677  15.610  1.00  0.00     0.169 C 
BRANCH  27  28
ATOM     28  C   UNL     1      32.837  34.432  14.764  1.00  0.00     0.119 C 
BRANCH  28  29
ATOM     29  N   UNL     1      31.977  33.409  15.356  1.00  0.00    -0.092 NA
ATOM     30  N   UNL     1      30.879  33.257  14.782  1.00  0.00     0.001 N 
ATOM     31  N   UNL     1      29.656  33.216  14.629  1.00  0.00    -0.003 NA
ENDBRANCH  28  29
ENDBRANCH  27  28
ENDBRANCH  26  27
ENDBRANCH  20  26
BRANCH  21  32
ATOM     32  O   UNL     1      28.509  37.564  12.444  1.00  0.00    -0.387 OA
ATOM     33  H   UNL     1      29.105  37.195  11.748  1.00  0.00     0.211 HD
ENDBRANCH  21  32
BRANCH  22  34
ATOM     34  O   UNL     1      31.269  38.165  12.763  1.00  0.00    -0.385 OA
ATOM     35  H   UNL     1      30.849  39.072  12.894  1.00  0.00     0.211 HD
ENDBRANCH  22  34
ENDBRANCH  16  17
ENDBRANCH  11  16
BRANCH  13  36
ATOM     36  O   UNL     1      26.245  33.966  15.622  1.00  0.00    -0.385 OA
ATOM     37  H   UNL     1      26.840  33.210  15.419  1.00  0.00     0.211 HD
ENDBRANCH  13  36
BRANCH  14  38
ATOM     38  O   UNL     1      24.407  32.639  14.028  1.00  0.00    -0.387 OA
ATOM     39  H   UNL     1      23.635  33.181  14.344  1.00  0.00     0.211 HD
ENDBRANCH  14  38
BRANCH  15  40
ATOM     40  O   UNL     1      23.933  34.568  11.983  1.00  0.00    -0.387 OA
ATOM     41  H   UNL     1      23.849  34.986  11.097  1.00  0.00     0.211 HD
ENDBRANCH  15  40
ENDBRANCH   9  10
ENDBRANCH   8   9
ENDBRANCH   3   8
BRANCH   3  42
ATOM     42  C   UNL     1      26.484  37.604   8.149  1.00  0.00     0.364 C 
ATOM     43  O   UNL     1      25.914  37.076   7.177  1.00  0.00    -0.246 OA
BRANCH  42  44
ATOM     44  O   UNL     1      27.604  38.383   7.874  1.00  0.00    -0.477 OA
ATOM     45  H   UNL     1      28.457  37.914   7.589  1.00  0.00     0.296 HD
ENDBRANCH  42  44
ENDBRANCH   3  42
BRANCH   6  46
ATOM     46  O   UNL     1      25.738  38.911  12.578  1.00  0.00    -0.391 OA
ATOM     47  H   UNL     1      25.717  39.767  13.073  1.00  0.00     0.211 HD
ENDBRANCH   6  46
BRANCH   7  48
ATOM     48  N   UNL     1      22.813  38.369  12.020  1.00  0.00    -0.348 N 
ATOM     49  C   UNL     1      22.422  37.632  13.173  1.00  0.00     0.217 C 
ATOM     50  H   UNL     1      22.248  39.197  11.749  1.00  0.00     0.163 HD
ATOM     51  C   UNL     1      21.227  38.061  13.946  1.00  0.00     0.114 C 
ATOM     52  O   UNL     1      23.078  36.606  13.559  1.00  0.00    -0.275 OA
ENDBRANCH   7  48
ENDBRANCH   1   2
BRANCH   1  53
ATOM     53  O   UNL     1      21.528  38.361   9.259  1.00  0.00    -0.388 OA
ATOM     54  H   UNL     1      21.135  38.320   8.339  1.00  0.00     0.211 HD
ENDBRANCH   1  53
BRANCH   1  55
ATOM     55  C   UNL     1      22.444  36.494   8.173  1.00  0.00     0.165 C 
BRANCH  55  56
ATOM     56  O   UNL     1      22.706  37.338   7.133  1.00  0.00    -0.388 OA
ATOM     57  H   UNL     1      23.156  36.914   6.359  1.00  0.00     0.211 HD
ENDBRANCH  55  56
BRANCH  55  58
ATOM     58  C   UNL     1      21.176  35.726   7.929  1.00  0.00     0.154 C 
BRANCH  58  59
ATOM     59  N   UNL     1      20.582  35.121   9.085  1.00  0.00    -0.319 N 
ATOM     60  C   UNL     1      19.206  34.920   9.278  1.00  0.00     0.407 C 
ATOM     61  H   UNL     1      21.266  34.809   9.841  1.00  0.00     0.167 HD
ATOM     62  O   UNL     1      18.347  35.247   8.442  1.00  0.00    -0.225 OA
BRANCH  60  63
ATOM     63  O   UNL     1      18.731  34.319  10.465  1.00  0.00    -0.443 OA
BRANCH  63  64
ATOM     64  C   UNL     1      18.796  35.062  11.692  1.00  0.00     0.294 C 
BRANCH  64  65
ATOM     65  C   UNL     1      19.866  34.477  12.540  1.00  0.00     0.120 A 
ATOM     66  C   UNL     1      20.003  34.581  13.903  1.00  0.00     0.138 A 
ATOM     67  N   UNL     1      20.896  33.745  12.109  1.00  0.00    -0.132 NA
ATOM     68  N   UNL     1      21.121  33.903  14.238  1.00  0.00    -0.252 N 
ATOM     69  N   UNL     1      21.636  33.408  13.128  1.00  0.00    -0.067 NA
BRANCH  68  70
ATOM     70  C   UNL     1      21.612  33.773  15.579  1.00  0.00     0.151 C 
BRANCH  70  71
ATOM     71  C   UNL     1      21.584  35.040  16.385  1.00  0.00     0.086 C 
BRANCH  71  72
ATOM     72  C   UNL     1      22.990  35.330  16.907  1.00  0.00     0.251 C 
BRANCH  72  73
ATOM     73  O   UNL     1      23.594  34.104  17.115  1.00  0.00    -0.353 OA
BRANCH  73  74
ATOM     74  C   UNL     1      23.980  33.922  18.436  1.00  0.00     0.160 C 
ATOM     75  C   UNL     1      23.352  32.678  19.033  1.00  0.00     0.035 C 
ENDBRANCH  73  74
ENDBRANCH  72  73
BRANCH  72  76
ATOM     76  O   UNL     1      22.981  36.182  17.971  1.00  0.00    -0.353 OA
BRANCH  76  77
ATOM     77  C   UNL     1      23.421  37.460  17.758  1.00  0.00     0.160 C 
ATOM     78  C   UNL     1      24.465  37.451  16.666  1.00  0.00     0.035 C 
ENDBRANCH  76  77
ENDBRANCH  72  76
ENDBRANCH  71  72
ENDBRANCH  70  71
ENDBRANCH  68  70
ENDBRANCH  64  65
ENDBRANCH  63  64
ENDBRANCH  60  63
ENDBRANCH  58  59
ENDBRANCH  55  58
ENDBRANCH   1  55
TORSDOF 36
BEGIN_RES LYS A 131
REMARK  4 active torsions:
REMARK  status: ('A' for Active; 'I' for Inactive)
REMARK    1  A    between atoms: CA   and  CB  
REMARK    2  A    between atoms: CB   and  CG  
REMARK    3  A    between atoms: CG   and  CD  
REMARK    4  A    between atoms: CD   and  CE  
ROOT
ATOM      1  CA  LYS A 131      29.867  25.555  16.977  1.00 20.52     0.186 C 
ENDROOT
BRANCH   1   2
ATOM      2  CB  LYS A 131      28.345  25.722  17.026  1.00 20.94     0.034 C 
BRANCH   2   3
ATOM      3  CG  LYS A 131      27.601  24.402  16.897  1.00 22.96     0.005 C 
BRANCH   3   4
ATOM      4  CD  LYS A 131      26.153  24.527  17.280  1.00 24.33     0.041 C 
BRANCH   4   5
ATOM      5  CE  LYS A 131      25.638  23.179  17.774  1.00 26.91     0.338 C 
ATOM      6  NZ  LYS A 131      25.517  23.179  19.251  1.00 27.40     0.618 N 
ENDBRANCH   4   5
ENDBRANCH   3   4
ENDBRANCH   2   3
ENDBRANCH   1   2
END_RES LYS A 131
BEGIN_RES LYS A 135
REMARK  4 active torsions:
REMARK  status: ('A' for Active; 'I' for Inactive)
REMARK    5  A    between atoms: CA   and  CB  
REMARK    6  A    between atoms: CB   and  CG  
REMARK    7  A    between atoms: CG   and  CD  
REMARK    8  A    between atoms: CD   and  CE  
ROOT
ATOM      7  CA  LYS A 135      33.193  34.663   9.290  1.00 25.02     0.186 C 
ENDROOT
BRANCH   7   8
ATOM      8  CB  LYS A 135      32.060  35.360  10.034  1.00 26.63     0.034 C 
BRANCH   8   9
ATOM      9  CG  LYS A 135      30.709  34.735   9.797  1.00 29.45     0.005 C 
BRANCH   9  10
ATOM     10  CD  LYS A 135      30.495  34.468   8.315  1.00 32.00     0.041 C 
BRANCH  10  11
ATOM     11  CE  LYS A 135      29.074  34.815   7.911  1.00 34.25     0.338 C 
ATOM     12  NZ  LYS A 135      29.046  35.520   6.600  1.00 35.99     0.618 N 
ENDBRANCH  10  11
ENDBRANCH   9  10
ENDBRANCH   8   9
ENDBRANCH   7   8
END_RES LYS A 135
