REMARK VINA RESULT:    -4.658      1.969      3.556
REMARK INTER + INTRA:         -23.184
REMARK INTER:                 -10.564
REMARK INTRA:                 -12.620
REMARK UNBOUND:               -11.447
REMARK SMILES CC(=O)N[C@@H]1[C@@H](O)C[C@](OC[C@H]2O[C@@H](O[C@H]3[C@H](O)[C@@H](O)[C@H](OCCN=[N+]=[N-])O[C@@H]3CO)[C@H](O)[C@@H](O)[C@H]2O)(C(=O)O)O[C@H]1C(O)[C@H](O)CNC(=O)OCc1cn(-c2ccccc2C(C)C)nn1
REMARK SMILES IDX 9 1 8 2 6 3 5 4 42 5 41 6 10 7 11 8 12 9 14 10 13 11 32 12
REMARK SMILES IDX 34 13 36 14 15 15 16 16 29 17 28 18 21 19 17 20 19 21 30 22
REMARK SMILES IDX 31 23 22 25 23 26 24 27 25 28 26 29 27 30 18 31 20 33 33 35
REMARK SMILES IDX 35 37 37 39 38 41 39 42 40 43 7 45 43 47 44 48 45 50 46 51
REMARK SMILES IDX 47 53 48 54 49 55 50 57 51 58 52 59 53 60 54 61 66 62 55 63
REMARK SMILES IDX 65 64 56 65 61 66 57 67 60 68 58 69 59 70 62 71 63 72 64 73
REMARK SMILES IDX 4 74 2 75 1 77 3 78
REMARK H PARENT 31 24 18 32 20 34 33 36 35 38 37 40 40 44 7 46 44 49 46 52
REMARK H PARENT 48 56 4 76
REMARK Flexibility Score: inf
ROOT
ATOM      1  C   UNL     1      29.052  38.262   6.853  1.00  0.00     0.272 C 
ATOM      2  C   UNL     1      28.678  36.800   6.769  1.00  0.00     0.113 C 
ATOM      3  C   UNL     1      27.346  36.710   6.039  1.00  0.00     0.145 C 
ATOM      4  C   UNL     1      26.286  37.318   6.974  1.00  0.00     0.142 C 
ATOM      5  C   UNL     1      26.792  38.638   7.419  1.00  0.00     0.178 C 
ATOM      6  O   UNL     1      27.864  39.019   6.626  1.00  0.00    -0.332 OA
ENDROOT
BRANCH   1   7
ATOM      7  O   UNL     1      29.862  38.644   5.847  1.00  0.00    -0.338 OA
BRANCH   7   8
ATOM      8  C   UNL     1      30.114  39.797   5.333  1.00  0.00     0.199 C 
BRANCH   8   9
ATOM      9  C   UNL     1      31.296  40.645   5.677  1.00  0.00     0.179 C 
ATOM     10  C   UNL     1      32.263  41.911   7.297  1.00  0.00     0.282 C 
ATOM     11  O   UNL     1      31.126  41.392   6.816  1.00  0.00    -0.341 OA
ATOM     12  C   UNL     1      33.453  41.940   6.349  1.00  0.00     0.202 C 
ATOM     13  C   UNL     1      33.741  40.578   5.775  1.00  0.00     0.179 C 
ATOM     14  C   UNL     1      32.515  39.725   5.919  1.00  0.00     0.177 C 
BRANCH  10  15
ATOM     15  O   UNL     1      32.709  41.474   8.507  1.00  0.00    -0.341 OA
BRANCH  15  16
ATOM     16  C   UNL     1      31.888  41.564   9.603  1.00  0.00     0.184 C 
ATOM     17  C   UNL     1      31.700  42.959  10.099  1.00  0.00     0.178 C 
ATOM     18  O   UNL     1      32.073  43.139  11.385  1.00  0.00    -0.341 OA
ATOM     19  C   UNL     1      31.557  42.349  12.365  1.00  0.00     0.281 C 
ATOM     20  C   UNL     1      32.192  40.631  10.703  1.00  0.00     0.180 C 
ATOM     21  C   UNL     1      31.251  40.940  11.855  1.00  0.00     0.202 C 
BRANCH  17  22
ATOM     22  C   UNL     1      30.258  43.471   9.947  1.00  0.00     0.191 C 
BRANCH  22  23
ATOM     23  O   UNL     1      29.549  42.498   9.206  1.00  0.00    -0.394 OA
ATOM     24  H   UNL     1      29.677  42.748   8.237  1.00  0.00     0.210 HD
ENDBRANCH  22  23
ENDBRANCH  17  22
BRANCH  19  25
ATOM     25  O   UNL     1      30.392  42.878  12.852  1.00  0.00    -0.350 OA
BRANCH  25  26
ATOM     26  C   UNL     1      30.302  43.126  14.185  1.00  0.00     0.169 C 
BRANCH  26  27
ATOM     27  C   UNL     1      29.201  42.488  14.947  1.00  0.00     0.119 C 
BRANCH  27  28
ATOM     28  N   UNL     1      28.846  41.216  14.415  1.00  0.00    -0.092 NA
ATOM     29  N   UNL     1      28.461  40.242  15.031  1.00  0.00     0.001 N 
ATOM     30  N   UNL     1      27.948  39.411  15.771  1.00  0.00    -0.003 NA
ENDBRANCH  27  28
ENDBRANCH  26  27
ENDBRANCH  25  26
ENDBRANCH  19  25
BRANCH  20  31
ATOM     31  O   UNL     1      31.993  39.287  10.394  1.00  0.00    -0.387 OA
ATOM     32  H   UNL     1      32.036  38.771  11.229  1.00  0.00     0.211 HD
ENDBRANCH  20  31
BRANCH  21  33
ATOM     33  O   UNL     1      31.455  40.050  12.912  1.00  0.00    -0.385 OA
ATOM     34  H   UNL     1      31.364  40.573  13.749  1.00  0.00     0.211 HD
ENDBRANCH  21  33
ENDBRANCH  15  16
ENDBRANCH  10  15
BRANCH  12  35
ATOM     35  O   UNL     1      33.176  42.853   5.346  1.00  0.00    -0.385 OA
ATOM     36  H   UNL     1      32.181  43.016   5.299  1.00  0.00     0.211 HD
ENDBRANCH  12  35
BRANCH  13  37
ATOM     37  O   UNL     1      34.836  40.019   6.448  1.00  0.00    -0.387 OA
ATOM     38  H   UNL     1      35.617  40.131   5.851  1.00  0.00     0.211 HD
ENDBRANCH  13  37
BRANCH  14  39
ATOM     39  O   UNL     1      32.419  39.257   7.213  1.00  0.00    -0.387 OA
ATOM     40  H   UNL     1      33.245  38.751   7.416  1.00  0.00     0.211 HD
ENDBRANCH  14  39
ENDBRANCH   8   9
ENDBRANCH   7   8
ENDBRANCH   1   7
BRANCH   1  41
ATOM     41  C   UNL     1      29.565  38.619   8.180  1.00  0.00     0.364 C 
ATOM     42  O   UNL     1      30.241  37.715   8.791  1.00  0.00    -0.246 OA
BRANCH  41  43
ATOM     43  O   UNL     1      29.421  39.794   8.870  1.00  0.00    -0.477 OA
ATOM     44  H   UNL     1      30.156  40.394   9.196  1.00  0.00     0.296 HD
ENDBRANCH  41  43
ENDBRANCH   1  41
BRANCH   3  45
ATOM     45  O   UNL     1      27.364  37.553   4.922  1.00  0.00    -0.391 OA
ATOM     46  H   UNL     1      26.435  37.610   4.587  1.00  0.00     0.211 HD
ENDBRANCH   3  45
BRANCH   5  47
ATOM     47  C   UNL     1      25.838  39.793   7.373  1.00  0.00     0.176 C 
BRANCH  47  48
ATOM     48  O   UNL     1      25.717  40.063   5.964  1.00  0.00    -0.388 OA
ATOM     49  H   UNL     1      26.213  40.938   5.887  1.00  0.00     0.211 HD
ENDBRANCH  47  48
BRANCH  47  50
ATOM     50  C   UNL     1      26.303  41.078   7.980  1.00  0.00     0.165 C 
BRANCH  50  51
ATOM     51  O   UNL     1      27.504  41.525   7.498  1.00  0.00    -0.388 OA
ATOM     52  H   UNL     1      27.803  42.251   8.104  1.00  0.00     0.211 HD
ENDBRANCH  50  51
BRANCH  50  53
ATOM     53  C   UNL     1      26.057  41.179   9.438  1.00  0.00     0.154 C 
BRANCH  53  54
ATOM     54  N   UNL     1      27.077  40.591  10.285  1.00  0.00    -0.319 N 
ATOM     55  C   UNL     1      26.802  39.476  11.113  1.00  0.00     0.407 C 
ATOM     56  H   UNL     1      28.051  40.960  10.321  1.00  0.00     0.167 HD
ATOM     57  O   UNL     1      25.681  38.922  11.184  1.00  0.00    -0.225 OA
BRANCH  55  58
ATOM     58  O   UNL     1      27.782  38.880  11.943  1.00  0.00    -0.443 OA
BRANCH  58  59
ATOM     59  C   UNL     1      28.132  37.543  11.758  1.00  0.00     0.294 C 
BRANCH  59  60
ATOM     60  C   UNL     1      29.430  37.293  12.447  1.00  0.00     0.121 A 
ATOM     61  C   UNL     1      29.702  37.008  13.766  1.00  0.00     0.144 A 
ATOM     62  N   UNL     1      30.664  37.301  11.851  1.00  0.00    -0.131 NA
ATOM     63  N   UNL     1      31.021  36.850  13.965  1.00  0.00    -0.220 N 
ATOM     64  N   UNL     1      31.579  37.039  12.761  1.00  0.00    -0.062 NA
BRANCH  63  65
ATOM     65  C   UNL     1      31.728  36.542  15.162  1.00  0.00     0.070 A 
ATOM     66  C   UNL     1      31.663  35.266  15.675  1.00  0.00    -0.020 A 
ATOM     67  C   UNL     1      32.479  37.464  15.856  1.00  0.00     0.029 A 
ATOM     68  C   UNL     1      32.324  34.931  16.840  1.00  0.00     0.006 A 
ATOM     69  C   UNL     1      33.148  37.145  17.023  1.00  0.00     0.002 A 
ATOM     70  C   UNL     1      33.070  35.861  17.524  1.00  0.00     0.000 A 
BRANCH  66  71
ATOM     71  C   UNL     1      30.877  34.243  14.956  1.00  0.00     0.015 C 
ATOM     72  C   UNL     1      29.528  34.113  15.646  1.00  0.00     0.012 C 
ATOM     73  C   UNL     1      31.589  32.885  15.063  1.00  0.00     0.012 C 
ENDBRANCH  66  71
ENDBRANCH  63  65
ENDBRANCH  59  60
ENDBRANCH  58  59
ENDBRANCH  55  58
ENDBRANCH  53  54
ENDBRANCH  50  53
ENDBRANCH  47  50
ENDBRANCH   5  47
BRANCH   4  74
ATOM     74  N   UNL     1      26.101  36.385   8.062  1.00  0.00    -0.348 N 
ATOM     75  C   UNL     1      24.953  36.295   8.864  1.00  0.00     0.217 C 
ATOM     76  H   UNL     1      26.901  35.717   8.279  1.00  0.00     0.163 HD
ATOM     77  C   UNL     1      24.919  35.272   9.963  1.00  0.00     0.114 C 
ATOM     78  O   UNL     1      23.984  37.042   8.674  1.00  0.00    -0.275 OA
ENDBRANCH   4  74
TORSDOF 31
BEGIN_RES LYS A 131
REMARK  4 active torsions:
REMARK  status: ('A' for Active; 'I' for Inactive)
REMARK    1  A    between atoms: CA   and  CB  
REMARK    2  A    between atoms: CB   and  CG  
REMARK    3  A    between atoms: CG   and  CD  
REMARK    4  A    between atoms: CD   and  CE  
ROOT
ATOM      1  CA  LYS A 131      29.867  25.555  16.977  1.00 20.52     0.186 C 
ENDROOT
BRANCH   1   2
ATOM      2  CB  LYS A 131      28.345  25.722  17.026  1.00 20.94     0.034 C 
BRANCH   2   3
ATOM      3  CG  LYS A 131      27.601  24.402  16.894  1.00 22.96     0.005 C 
BRANCH   3   4
ATOM      4  CD  LYS A 131      26.152  24.528  17.272  1.00 24.33     0.041 C 
BRANCH   4   5
ATOM      5  CE  LYS A 131      25.638  23.183  17.776  1.00 26.91     0.338 C 
ATOM      6  NZ  LYS A 131      24.307  22.886  17.196  1.00 27.40     0.618 N 
ENDBRANCH   4   5
ENDBRANCH   3   4
ENDBRANCH   2   3
ENDBRANCH   1   2
END_RES LYS A 131
BEGIN_RES LYS A 135
REMARK  4 active torsions:
REMARK  status: ('A' for Active; 'I' for Inactive)
REMARK    5  A    between atoms: CA   and  CB  
REMARK    6  A    between atoms: CB   and  CG  
REMARK    7  A    between atoms: CG   and  CD  
REMARK    8  A    between atoms: CD   and  CE  
ROOT
ATOM      7  CA  LYS A 135      33.193  34.663   9.290  1.00 25.02     0.186 C 
ENDROOT
BRANCH   7   8
ATOM      8  CB  LYS A 135      32.060  35.360  10.034  1.00 26.63     0.034 C 
BRANCH   8   9
ATOM      9  CG  LYS A 135      30.837  34.498  10.214  1.00 29.45     0.005 C 
BRANCH   9  10
ATOM     10  CD  LYS A 135      30.215  34.162   8.867  1.00 32.00     0.041 C 
BRANCH  10  11
ATOM     11  CE  LYS A 135      28.705  34.073   8.986  1.00 34.25     0.338 C 
ATOM     12  NZ  LYS A 135      28.268  34.224  10.401  1.00 35.99     0.618 N 
ENDBRANCH  10  11
ENDBRANCH   9  10
ENDBRANCH   8   9
ENDBRANCH   7   8
END_RES LYS A 135
