REMARK VINA RESULT:    -5.376      3.402      7.055
REMARK INTER + INTRA:         -24.634
REMARK INTER:                 -14.635
REMARK INTRA:                  -9.999
REMARK UNBOUND:               -10.617
REMARK SMILES CC(=O)N[C@@H]1[C@@H](O)C[C@](OC[C@H]2O[C@@H](O[C@H]3[C@H](O)[C@@H](O)[C@H](OCCN=[N+]=[N-])O[C@@H]3CO)[C@H](O)[C@@H](O)[C@H]2O)(C(=O)O)O[C@H]1C(O)[C@H](O)CNC(=O)OCc1cn(-c2ccc(S(=O)(=O)c3ccc(N)cc3)cc2)nn1
REMARK SMILES IDX 43 1 42 2 9 3 8 4 41 5 6 6 5 7 10 8 11 9 12 10 14 11 13 12
REMARK SMILES IDX 32 13 34 14 36 15 15 16 16 17 29 18 28 19 21 20 17 21 19 22
REMARK SMILES IDX 30 23 31 24 22 26 23 27 24 28 25 29 26 30 27 31 18 32 20 34
REMARK SMILES IDX 33 36 35 38 37 40 38 42 39 43 40 44 7 46 4 48 2 49 1 51 3 52
REMARK SMILES IDX 44 53 45 55 46 56 47 58 48 59 49 60 50 62 51 63 52 64 53 65
REMARK SMILES IDX 54 66 73 67 55 68 72 69 56 70 57 71 71 72 58 73 70 74 59 75
REMARK SMILES IDX 60 76 61 77 62 78 63 79 64 80 69 81 65 82 68 83 66 84 67 85
REMARK H PARENT 31 25 18 33 20 35 33 37 35 39 37 41 40 45 7 47 4 50 44 54
REMARK H PARENT 46 57 48 61 67 86 67 87
REMARK Flexibility Score: inf
ROOT
ATOM      1  C   UNL     1      29.903  38.956   6.974  1.00  0.00     0.176 C 
ENDROOT
BRANCH   1   2
ATOM      2  C   UNL     1      28.515  39.551   7.215  1.00  0.00     0.178 C 
ATOM      3  C   UNL     1      26.306  39.020   7.648  1.00  0.00     0.272 C 
ATOM      4  C   UNL     1      25.850  40.019   6.635  1.00  0.00     0.113 C 
ATOM      5  O   UNL     1      27.597  38.553   7.340  1.00  0.00    -0.332 OA
ATOM      6  C   UNL     1      26.864  40.057   5.503  1.00  0.00     0.145 C 
ATOM      7  C   UNL     1      28.175  40.502   6.056  1.00  0.00     0.142 C 
BRANCH   3   8
ATOM      8  O   UNL     1      25.534  37.857   7.719  1.00  0.00    -0.338 OA
BRANCH   8   9
ATOM      9  C   UNL     1      24.188  38.015   7.580  1.00  0.00     0.199 C 
BRANCH   9  10
ATOM     10  C   UNL     1      23.481  36.779   8.090  1.00  0.00     0.179 C 
ATOM     11  C   UNL     1      23.120  35.494   9.943  1.00  0.00     0.282 C 
ATOM     12  O   UNL     1      23.645  36.729   9.479  1.00  0.00    -0.341 OA
ATOM     13  C   UNL     1      21.628  35.632   9.833  1.00  0.00     0.202 C 
ATOM     14  C   UNL     1      21.250  35.702   8.370  1.00  0.00     0.179 C 
ATOM     15  C   UNL     1      22.043  36.812   7.702  1.00  0.00     0.177 C 
BRANCH  11  16
ATOM     16  O   UNL     1      23.602  35.285  11.208  1.00  0.00    -0.341 OA
BRANCH  16  17
ATOM     17  C   UNL     1      24.931  35.756  11.324  1.00  0.00     0.184 C 
ATOM     18  C   UNL     1      25.838  34.567  11.349  1.00  0.00     0.178 C 
ATOM     19  O   UNL     1      26.710  34.513  12.404  1.00  0.00    -0.341 OA
ATOM     20  C   UNL     1      26.198  34.686  13.656  1.00  0.00     0.281 C 
ATOM     21  C   UNL     1      24.952  36.510  12.647  1.00  0.00     0.180 C 
ATOM     22  C   UNL     1      24.888  35.438  13.717  1.00  0.00     0.202 C 
BRANCH  18  23
ATOM     23  C   UNL     1      26.717  34.687  10.089  1.00  0.00     0.191 C 
BRANCH  23  24
ATOM     24  O   UNL     1      26.594  35.905   9.469  1.00  0.00    -0.394 OA
ATOM     25  H   UNL     1      25.828  36.451   9.775  1.00  0.00     0.210 HD
ENDBRANCH  23  24
ENDBRANCH  18  23
BRANCH  20  26
ATOM     26  O   UNL     1      27.117  35.430  14.388  1.00  0.00    -0.350 OA
BRANCH  26  27
ATOM     27  C   UNL     1      28.070  34.701  15.046  1.00  0.00     0.169 C 
BRANCH  27  28
ATOM     28  C   UNL     1      28.078  35.016  16.505  1.00  0.00     0.119 C 
BRANCH  28  29
ATOM     29  N   UNL     1      26.748  34.743  17.074  1.00  0.00    -0.092 NA
ATOM     30  N   UNL     1      26.018  35.659  17.450  1.00  0.00     0.001 N 
ATOM     31  N   UNL     1      25.130  36.528  17.413  1.00  0.00    -0.003 NA
ENDBRANCH  28  29
ENDBRANCH  27  28
ENDBRANCH  26  27
ENDBRANCH  20  26
BRANCH  21  32
ATOM     32  O   UNL     1      26.130  37.208  12.780  1.00  0.00    -0.387 OA
ATOM     33  H   UNL     1      26.363  37.321  13.741  1.00  0.00     0.211 HD
ENDBRANCH  21  32
BRANCH  22  34
ATOM     34  O   UNL     1      23.783  34.629  13.593  1.00  0.00    -0.385 OA
ATOM     35  H   UNL     1      23.751  34.146  12.725  1.00  0.00     0.211 HD
ENDBRANCH  22  34
ENDBRANCH  16  17
ENDBRANCH  11  16
BRANCH  13  36
ATOM     36  O   UNL     1      20.946  34.611  10.491  1.00  0.00    -0.385 OA
ATOM     37  H   UNL     1      20.428  35.053  11.237  1.00  0.00     0.211 HD
ENDBRANCH  13  36
BRANCH  14  38
ATOM     38  O   UNL     1      19.907  36.093   8.280  1.00  0.00    -0.387 OA
ATOM     39  H   UNL     1      19.796  37.002   8.614  1.00  0.00     0.211 HD
ENDBRANCH  14  38
BRANCH  15  40
ATOM     40  O   UNL     1      21.466  38.049   7.947  1.00  0.00    -0.387 OA
ATOM     41  H   UNL     1      20.728  38.213   7.315  1.00  0.00     0.211 HD
ENDBRANCH  15  40
ENDBRANCH   9  10
ENDBRANCH   8   9
ENDBRANCH   3   8
BRANCH   3  42
ATOM     42  C   UNL     1      26.363  39.561   9.032  1.00  0.00     0.364 C 
ATOM     43  O   UNL     1      26.206  40.764   9.349  1.00  0.00    -0.246 OA
BRANCH  42  44
ATOM     44  O   UNL     1      26.610  38.691  10.081  1.00  0.00    -0.477 OA
ATOM     45  H   UNL     1      26.253  37.723  10.076  1.00  0.00     0.296 HD
ENDBRANCH  42  44
ENDBRANCH   3  42
BRANCH   6  46
ATOM     46  O   UNL     1      27.011  38.732   5.077  1.00  0.00    -0.391 OA
ATOM     47  H   UNL     1      26.815  38.085   5.808  1.00  0.00     0.211 HD
ENDBRANCH   6  46
BRANCH   7  48
ATOM     48  N   UNL     1      28.229  41.857   6.504  1.00  0.00    -0.348 N 
ATOM     49  C   UNL     1      29.352  42.715   6.338  1.00  0.00     0.217 C 
ATOM     50  H   UNL     1      27.391  42.265   6.987  1.00  0.00     0.163 HD
ATOM     51  C   UNL     1      29.285  44.107   6.848  1.00  0.00     0.114 C 
ATOM     52  O   UNL     1      30.352  42.259   5.767  1.00  0.00    -0.275 OA
ENDBRANCH   7  48
ENDBRANCH   1   2
BRANCH   1  53
ATOM     53  O   UNL     1      30.247  39.022   5.634  1.00  0.00    -0.388 OA
ATOM     54  H   UNL     1      29.513  39.459   5.109  1.00  0.00     0.211 HD
ENDBRANCH   1  53
BRANCH   1  55
ATOM     55  C   UNL     1      30.926  39.500   7.895  1.00  0.00     0.165 C 
BRANCH  55  56
ATOM     56  O   UNL     1      31.995  38.613   8.040  1.00  0.00    -0.388 OA
ATOM     57  H   UNL     1      31.846  37.742   7.638  1.00  0.00     0.211 HD
ENDBRANCH  55  56
BRANCH  55  58
ATOM     58  C   UNL     1      30.364  39.697   9.287  1.00  0.00     0.154 C 
BRANCH  58  59
ATOM     59  N   UNL     1      31.109  39.020  10.310  1.00  0.00    -0.319 N 
ATOM     60  C   UNL     1      30.450  38.048  11.104  1.00  0.00     0.407 C 
ATOM     61  H   UNL     1      32.107  39.224  10.480  1.00  0.00     0.167 HD
ATOM     62  O   UNL     1      29.230  37.805  10.873  1.00  0.00    -0.225 OA
BRANCH  60  63
ATOM     63  O   UNL     1      31.044  37.339  12.123  1.00  0.00    -0.443 OA
BRANCH  63  64
ATOM     64  C   UNL     1      32.345  36.796  12.064  1.00  0.00     0.294 C 
BRANCH  64  65
ATOM     65  C   UNL     1      32.497  35.813  13.166  1.00  0.00     0.121 A 
ATOM     66  C   UNL     1      31.595  35.402  14.126  1.00  0.00     0.144 A 
ATOM     67  N   UNL     1      33.628  35.084  13.423  1.00  0.00    -0.131 NA
ATOM     68  N   UNL     1      32.189  34.457  14.918  1.00  0.00    -0.220 N 
ATOM     69  N   UNL     1      33.405  34.303  14.456  1.00  0.00    -0.062 NA
BRANCH  68  70
ATOM     70  C   UNL     1      31.627  33.758  16.009  1.00  0.00     0.066 A 
ATOM     71  C   UNL     1      31.044  32.501  15.822  1.00  0.00     0.030 A 
ATOM     72  C   UNL     1      31.613  34.249  17.289  1.00  0.00     0.030 A 
ATOM     73  C   UNL     1      30.484  31.782  16.848  1.00  0.00     0.023 A 
ATOM     74  C   UNL     1      31.045  33.523  18.338  1.00  0.00     0.023 A 
ATOM     75  C   UNL     1      30.477  32.286  18.129  1.00  0.00     0.072 A 
BRANCH  75  76
ATOM     76  S   UNL     1      29.769  31.375  19.447  1.00  0.00     0.206 S 
ATOM     77  O   UNL     1      28.972  30.224  18.857  1.00  0.00    -0.219 OA
ATOM     78  O   UNL     1      28.934  32.213  20.355  1.00  0.00    -0.219 OA
BRANCH  76  79
ATOM     79  C   UNL     1      31.068  30.619  20.371  1.00  0.00     0.072 A 
ATOM     80  C   UNL     1      31.281  29.270  20.286  1.00  0.00     0.023 A 
ATOM     81  C   UNL     1      31.880  31.371  21.187  1.00  0.00     0.023 A 
ATOM     82  C   UNL     1      32.288  28.695  21.007  1.00  0.00     0.027 A 
ATOM     83  C   UNL     1      32.887  30.779  21.906  1.00  0.00     0.027 A 
ATOM     84  C   UNL     1      33.124  29.435  21.841  1.00  0.00     0.031 A 
BRANCH  84  85
ATOM     85  N   UNL     1      34.151  28.799  22.570  1.00  0.00    -0.399 N 
ATOM     86  H   UNL     1      34.755  29.328  23.215  1.00  0.00     0.156 HD
ATOM     87  H   UNL     1      34.303  27.782  22.458  1.00  0.00     0.156 HD
ENDBRANCH  84  85
ENDBRANCH  76  79
ENDBRANCH  75  76
ENDBRANCH  68  70
ENDBRANCH  64  65
ENDBRANCH  63  64
ENDBRANCH  60  63
ENDBRANCH  58  59
ENDBRANCH  55  58
ENDBRANCH   1  55
TORSDOF 33
BEGIN_RES LYS A 131
REMARK  4 active torsions:
REMARK  status: ('A' for Active; 'I' for Inactive)
REMARK    1  A    between atoms: CA   and  CB  
REMARK    2  A    between atoms: CB   and  CG  
REMARK    3  A    between atoms: CG   and  CD  
REMARK    4  A    between atoms: CD   and  CE  
ROOT
ATOM      1  CA  LYS A 131      29.867  25.555  16.977  1.00 20.52     0.186 C 
ENDROOT
BRANCH   1   2
ATOM      2  CB  LYS A 131      28.345  25.722  17.026  1.00 20.94     0.034 C 
BRANCH   2   3
ATOM      3  CG  LYS A 131      27.601  24.404  16.874  1.00 22.96     0.005 C 
BRANCH   3   4
ATOM      4  CD  LYS A 131      26.162  24.514  17.297  1.00 24.33     0.041 C 
BRANCH   4   5
ATOM      5  CE  LYS A 131      25.610  23.122  17.588  1.00 26.91     0.338 C 
ATOM      6  NZ  LYS A 131      25.070  23.056  18.967  1.00 27.40     0.618 N 
ENDBRANCH   4   5
ENDBRANCH   3   4
ENDBRANCH   2   3
ENDBRANCH   1   2
END_RES LYS A 131
BEGIN_RES LYS A 135
REMARK  4 active torsions:
REMARK  status: ('A' for Active; 'I' for Inactive)
REMARK    5  A    between atoms: CA   and  CB  
REMARK    6  A    between atoms: CB   and  CG  
REMARK    7  A    between atoms: CG   and  CD  
REMARK    8  A    between atoms: CD   and  CE  
ROOT
ATOM      7  CA  LYS A 135      33.193  34.663   9.290  1.00 25.02     0.186 C 
ENDROOT
BRANCH   7   8
ATOM      8  CB  LYS A 135      32.060  35.360  10.034  1.00 26.63     0.034 C 
BRANCH   8   9
ATOM      9  CG  LYS A 135      30.733  34.656   9.908  1.00 29.45     0.005 C 
BRANCH   9  10
ATOM     10  CD  LYS A 135      30.348  34.496   8.445  1.00 32.00     0.041 C 
BRANCH  10  11
ATOM     11  CE  LYS A 135      29.628  35.734   7.946  1.00 34.25     0.338 C 
ATOM     12  NZ  LYS A 135      28.863  35.445   6.701  1.00 35.99     0.618 N 
ENDBRANCH  10  11
ENDBRANCH   9  10
ENDBRANCH   8   9
ENDBRANCH   7   8
END_RES LYS A 135
