REMARK VINA RESULT:    -7.101      3.874      8.148
REMARK INTER + INTRA:         -20.345
REMARK INTER:                 -10.407
REMARK INTRA:                  -9.938
REMARK UNBOUND:                -1.206
REMARK SMILES CC(=O)N[C@@H]1[C@@H](O)C[C@](OC[C@H]2O[C@@H](O[C@H]3[C@H](O)[C@@H](O)[C@H](OCCN=[N+]=[N-])O[C@@H]3CO)[C@H](O)[C@@H](O)[C@H]2O)(C(=O)O)O[C@H]1C(O)[C@H](O)CNC(=O)OCc1cn(C2CCc3ccccc3NC2=O)nn1
REMARK SMILES IDX 43 1 42 2 9 3 8 4 41 5 6 6 5 7 10 8 11 9 12 10 14 11 13 12
REMARK SMILES IDX 32 13 34 14 36 15 15 16 16 17 29 18 28 19 21 20 17 21 19 22
REMARK SMILES IDX 30 23 31 24 22 26 23 27 24 28 25 29 26 30 27 31 18 32 20 34
REMARK SMILES IDX 33 36 35 38 37 40 38 42 39 43 40 44 7 46 4 48 2 49 1 51 3 52
REMARK SMILES IDX 44 53 45 55 46 56 47 58 48 59 49 60 50 62 51 63 52 64 53 65
REMARK SMILES IDX 54 66 69 67 55 68 68 69 56 70 57 71 66 73 65 74 67 75 64 77
REMARK SMILES IDX 59 78 63 79 60 80 62 81 61 82 58 83
REMARK H PARENT 31 25 18 33 20 35 33 37 35 39 37 41 40 45 7 47 4 50 44 54
REMARK H PARENT 46 57 48 61 65 76
REMARK Flexibility Score: 90.00
ROOT
ATOM      1  C   UNL     1      28.214  35.245  13.342  1.00  0.00     0.176 C 
ENDROOT
BRANCH   1   2
ATOM      2  C   UNL     1      29.733  35.509  13.349  1.00  0.00     0.178 C 
ATOM      3  C   UNL     1      31.030  35.525  15.350  1.00  0.00     0.272 C 
ATOM      4  C   UNL     1      31.269  36.973  15.206  1.00  0.00     0.113 C 
ATOM      5  O   UNL     1      30.389  34.869  14.298  1.00  0.00    -0.332 OA
ATOM      6  C   UNL     1      30.161  37.677  14.498  1.00  0.00     0.145 C 
ATOM      7  C   UNL     1      29.966  36.983  13.158  1.00  0.00     0.142 C 
BRANCH   3   8
ATOM      8  O   UNL     1      30.364  35.142  16.461  1.00  0.00    -0.338 OA
BRANCH   8   9
ATOM      9  C   UNL     1      30.489  33.971  17.064  1.00  0.00     0.199 C 
BRANCH   9  10
ATOM     10  C   UNL     1      29.530  32.863  17.006  1.00  0.00     0.179 C 
ATOM     11  C   UNL     1      27.312  32.497  16.458  1.00  0.00     0.282 C 
ATOM     12  O   UNL     1      28.381  33.380  16.318  1.00  0.00    -0.341 OA
ATOM     13  C   UNL     1      27.653  31.119  16.867  1.00  0.00     0.202 C 
ATOM     14  C   UNL     1      28.979  30.585  16.443  1.00  0.00     0.179 C 
ATOM     15  C   UNL     1      29.927  31.704  16.092  1.00  0.00     0.177 C 
BRANCH  11  16
ATOM     16  O   UNL     1      26.519  32.576  15.294  1.00  0.00    -0.341 OA
BRANCH  16  17
ATOM     17  C   UNL     1      25.181  32.652  15.575  1.00  0.00     0.184 C 
ATOM     18  C   UNL     1      24.259  32.239  14.458  1.00  0.00     0.178 C 
ATOM     19  O   UNL     1      22.972  32.253  15.000  1.00  0.00    -0.341 OA
ATOM     20  C   UNL     1      22.479  33.544  15.117  1.00  0.00     0.281 C 
ATOM     21  C   UNL     1      24.780  34.067  15.966  1.00  0.00     0.180 C 
ATOM     22  C   UNL     1      23.561  34.569  15.282  1.00  0.00     0.202 C 
BRANCH  18  23
ATOM     23  C   UNL     1      24.521  30.818  14.003  1.00  0.00     0.191 C 
BRANCH  23  24
ATOM     24  O   UNL     1      24.922  30.001  15.058  1.00  0.00    -0.394 OA
ATOM     25  H   UNL     1      24.351  29.212  15.174  1.00  0.00     0.210 HD
ENDBRANCH  23  24
ENDBRANCH  18  23
BRANCH  20  26
ATOM     26  O   UNL     1      21.561  33.572  16.150  1.00  0.00    -0.350 OA
BRANCH  26  27
ATOM     27  C   UNL     1      20.272  33.774  15.689  1.00  0.00     0.169 C 
BRANCH  27  28
ATOM     28  C   UNL     1      20.049  35.073  14.984  1.00  0.00     0.119 C 
BRANCH  28  29
ATOM     29  N   UNL     1      19.157  35.899  15.780  1.00  0.00    -0.092 NA
ATOM     30  N   UNL     1      19.047  37.124  15.586  1.00  0.00     0.001 N 
ATOM     31  N   UNL     1      18.692  38.148  14.986  1.00  0.00    -0.003 NA
ENDBRANCH  28  29
ENDBRANCH  27  28
ENDBRANCH  26  27
ENDBRANCH  20  26
BRANCH  21  32
ATOM     32  O   UNL     1      24.716  34.212  17.361  1.00  0.00    -0.387 OA
ATOM     33  H   UNL     1      23.846  34.629  17.593  1.00  0.00     0.211 HD
ENDBRANCH  21  32
BRANCH  22  34
ATOM     34  O   UNL     1      23.845  35.150  14.024  1.00  0.00    -0.385 OA
ATOM     35  H   UNL     1      24.701  35.618  14.019  1.00  0.00     0.211 HD
ENDBRANCH  22  34
ENDBRANCH  16  17
ENDBRANCH  11  16
BRANCH  13  36
ATOM     36  O   UNL     1      27.416  30.956  18.235  1.00  0.00    -0.385 OA
ATOM     37  H   UNL     1      26.628  30.368  18.369  1.00  0.00     0.211 HD
ENDBRANCH  13  36
BRANCH  14  38
ATOM     38  O   UNL     1      28.888  29.627  15.436  1.00  0.00    -0.387 OA
ATOM     39  H   UNL     1      29.257  30.052  14.618  1.00  0.00     0.211 HD
ENDBRANCH  14  38
BRANCH  15  40
ATOM     40  O   UNL     1      29.726  32.095  14.745  1.00  0.00    -0.387 OA
ATOM     41  H   UNL     1      29.702  31.260  14.229  1.00  0.00     0.211 HD
ENDBRANCH  15  40
ENDBRANCH   9  10
ENDBRANCH   8   9
ENDBRANCH   3   8
BRANCH   3  42
ATOM     42  C   UNL     1      32.392  34.871  15.280  1.00  0.00     0.364 C 
ATOM     43  O   UNL     1      33.383  35.403  15.724  1.00  0.00    -0.246 OA
BRANCH  42  44
ATOM     44  O   UNL     1      32.523  33.613  14.682  1.00  0.00    -0.477 OA
ATOM     45  H   UNL     1      33.401  33.274  14.324  1.00  0.00     0.296 HD
ENDBRANCH  42  44
ENDBRANCH   3  42
BRANCH   6  46
ATOM     46  O   UNL     1      29.004  37.532  15.283  1.00  0.00    -0.391 OA
ATOM     47  H   UNL     1      28.993  38.117  16.058  1.00  0.00     0.211 HD
ENDBRANCH   6  46
BRANCH   7  48
ATOM     48  N   UNL     1      31.067  37.320  12.319  1.00  0.00    -0.348 N 
ATOM     49  C   UNL     1      30.861  38.021  11.097  1.00  0.00     0.217 C 
ATOM     50  H   UNL     1      32.048  37.060  12.576  1.00  0.00     0.163 HD
ATOM     51  C   UNL     1      31.978  38.393  10.187  1.00  0.00     0.114 C 
ATOM     52  O   UNL     1      29.701  38.325  10.796  1.00  0.00    -0.275 OA
ENDBRANCH   7  48
ENDBRANCH   1   2
BRANCH   1  53
ATOM     53  O   UNL     1      27.715  35.382  14.641  1.00  0.00    -0.388 OA
ATOM     54  H   UNL     1      27.007  34.735  14.858  1.00  0.00     0.211 HD
ENDBRANCH   1  53
BRANCH   1  55
ATOM     55  C   UNL     1      27.462  36.171  12.457  1.00  0.00     0.165 C 
BRANCH  55  56
ATOM     56  O   UNL     1      26.174  36.474  12.879  1.00  0.00    -0.388 OA
ATOM     57  H   UNL     1      26.245  37.172  13.583  1.00  0.00     0.211 HD
ENDBRANCH  55  56
BRANCH  55  58
ATOM     58  C   UNL     1      27.386  35.792  11.014  1.00  0.00     0.154 C 
BRANCH  58  59
ATOM     59  N   UNL     1      26.879  36.802  10.136  1.00  0.00    -0.319 N 
ATOM     60  C   UNL     1      26.016  36.550   9.045  1.00  0.00     0.407 C 
ATOM     61  H   UNL     1      27.163  37.788  10.309  1.00  0.00     0.167 HD
ATOM     62  O   UNL     1      25.633  35.385   8.778  1.00  0.00    -0.225 OA
BRANCH  60  63
ATOM     63  O   UNL     1      25.593  37.603   8.269  1.00  0.00    -0.443 OA
BRANCH  63  64
ATOM     64  C   UNL     1      24.529  38.427   8.596  1.00  0.00     0.294 C 
BRANCH  64  65
ATOM     65  C   UNL     1      23.908  38.000   9.852  1.00  0.00     0.120 A 
ATOM     66  C   UNL     1      22.733  37.302   9.988  1.00  0.00     0.139 A 
ATOM     67  N   UNL     1      24.347  38.203  11.118  1.00  0.00    -0.132 NA
ATOM     68  N   UNL     1      22.484  37.096  11.305  1.00  0.00    -0.240 N 
ATOM     69  N   UNL     1      23.482  37.656  11.957  1.00  0.00    -0.066 NA
BRANCH  68  70
ATOM     70  C   UNL     1      21.331  36.386  11.885  1.00  0.00     0.198 C 
BRANCH  70  71
ATOM     71  C   UNL     1      20.138  37.216  11.591  1.00  0.00     0.042 CG0
ATOM     72  G   UNL     1      18.809  36.555  11.707  1.00  0.00     0.000 G0
ENDBRANCH  70  71
BRANCH  70  73
ATOM     73  C   UNL     1      21.354  35.043  11.299  1.00  0.00     0.249 C 
ATOM     74  N   UNL     1      20.617  34.505  10.211  1.00  0.00    -0.324 N 
ATOM     75  O   UNL     1      22.156  34.242  11.849  1.00  0.00    -0.272 OA
ATOM     76  H   UNL     1      21.005  33.684   9.699  1.00  0.00     0.170 HD
BRANCH  74  77
ATOM     77  C   UNL     1      19.349  35.030   9.762  1.00  0.00     0.044 A 
ATOM     78  C   UNL     1      18.506  35.940  10.388  1.00  0.00    -0.024 A 
ATOM     79  C   UNL     1      18.991  34.512   8.536  1.00  0.00     0.026 A 
ATOM     80  C   UNL     1      17.320  36.338   9.815  1.00  0.00     0.006 A 
ATOM     81  C   UNL     1      17.806  34.895   7.938  1.00  0.00     0.002 A 
ATOM     82  C   UNL     1      16.978  35.813   8.593  1.00  0.00     0.000 A 
BRANCH  78  83
ATOM     83  C   UNL     1      18.803  36.557  11.712  1.00  0.00     0.040 CG0
ATOM     84  G   UNL     1      20.130  37.221  11.592  1.00  0.00     0.000 G0
ENDBRANCH  78  83
ENDBRANCH  74  77
ENDBRANCH  70  73
ENDBRANCH  68  70
ENDBRANCH  64  65
ENDBRANCH  63  64
ENDBRANCH  60  63
ENDBRANCH  58  59
ENDBRANCH  55  58
ENDBRANCH   1  55
TORSDOF 30
BEGIN_RES LYS A 131
REMARK  4 active torsions:
REMARK  status: ('A' for Active; 'I' for Inactive)
REMARK    1  A    between atoms: CA   and  CB  
REMARK    2  A    between atoms: CB   and  CG  
REMARK    3  A    between atoms: CG   and  CD  
REMARK    4  A    between atoms: CD   and  CE  
ROOT
ATOM      1  CA  LYS A 131      29.867  25.555  16.977  1.00 20.52     0.186 C 
ENDROOT
BRANCH   1   2
ATOM      2  CB  LYS A 131      28.345  25.722  17.026  1.00 20.94     0.034 C 
BRANCH   2   3
ATOM      3  CG  LYS A 131      27.602  24.398  16.933  1.00 22.96     0.005 C 
BRANCH   3   4
ATOM      4  CD  LYS A 131      26.537  24.271  17.986  1.00 24.33     0.041 C 
BRANCH   4   5
ATOM      5  CE  LYS A 131      25.180  24.073  17.317  1.00 26.91     0.338 C 
ATOM      6  NZ  LYS A 131      24.104  24.010  18.334  1.00 27.40     0.618 N 
ENDBRANCH   4   5
ENDBRANCH   3   4
ENDBRANCH   2   3
ENDBRANCH   1   2
END_RES LYS A 131
BEGIN_RES LYS A 135
REMARK  4 active torsions:
REMARK  status: ('A' for Active; 'I' for Inactive)
REMARK    5  A    between atoms: CA   and  CB  
REMARK    6  A    between atoms: CB   and  CG  
REMARK    7  A    between atoms: CG   and  CD  
REMARK    8  A    between atoms: CD   and  CE  
ROOT
ATOM      7  CA  LYS A 135      33.193  34.663   9.290  1.00 25.02     0.186 C 
ENDROOT
BRANCH   7   8
ATOM      8  CB  LYS A 135      32.060  35.360  10.034  1.00 26.63     0.034 C 
BRANCH   8   9
ATOM      9  CG  LYS A 135      30.699  34.790   9.729  1.00 29.45     0.005 C 
BRANCH   9  10
ATOM     10  CD  LYS A 135      30.490  34.672   8.227  1.00 32.00     0.041 C 
BRANCH  10  11
ATOM     11  CE  LYS A 135      29.029  34.875   7.875  1.00 34.25     0.338 C 
ATOM     12  NZ  LYS A 135      28.885  35.626   6.597  1.00 35.99     0.618 N 
ENDBRANCH  10  11
ENDBRANCH   9  10
ENDBRANCH   8   9
ENDBRANCH   7   8
END_RES LYS A 135
