REMARK VINA RESULT:    -7.810      5.865     11.931
REMARK INTER + INTRA:         -22.257
REMARK INTER:                 -11.348
REMARK INTRA:                 -10.910
REMARK UNBOUND:                -1.206
REMARK SMILES CC(=O)N[C@@H]1[C@@H](O)C[C@](OC[C@H]2O[C@@H](O[C@H]3[C@H](O)[C@@H](O)[C@H](OCCN=[N+]=[N-])O[C@@H]3CO)[C@H](O)[C@@H](O)[C@H]2O)(C(=O)O)O[C@H]1C(O)[C@H](O)CNC(=O)OCc1cn(C2CCc3ccccc3NC2=O)nn1
REMARK SMILES IDX 43 1 42 2 9 3 8 4 41 5 6 6 5 7 10 8 11 9 12 10 14 11 13 12
REMARK SMILES IDX 32 13 34 14 36 15 15 16 16 17 29 18 28 19 21 20 17 21 19 22
REMARK SMILES IDX 30 23 31 24 22 26 23 27 24 28 25 29 26 30 27 31 18 32 20 34
REMARK SMILES IDX 33 36 35 38 37 40 38 42 39 43 40 44 7 46 4 48 2 49 1 51 3 52
REMARK SMILES IDX 44 53 45 55 46 56 47 58 48 59 49 60 50 62 51 63 52 64 53 65
REMARK SMILES IDX 54 66 69 67 55 68 68 69 56 70 57 71 66 73 65 74 67 75 64 77
REMARK SMILES IDX 59 78 63 79 60 80 62 81 61 82 58 83
REMARK H PARENT 31 25 18 33 20 35 33 37 35 39 37 41 40 45 7 47 4 50 44 54
REMARK H PARENT 46 57 48 61 65 76
REMARK Flexibility Score: 90.00
ROOT
ATOM      1  C   UNL     1      32.565  35.457  17.823  1.00  0.00     0.176 C 
ENDROOT
BRANCH   1   2
ATOM      2  C   UNL     1      31.730  36.227  16.780  1.00  0.00     0.178 C 
ATOM      3  C   UNL     1      30.809  35.185  14.842  1.00  0.00     0.272 C 
ATOM      4  C   UNL     1      31.716  35.957  13.973  1.00  0.00     0.113 C 
ATOM      5  O   UNL     1      30.789  35.505  16.201  1.00  0.00    -0.332 OA
ATOM      6  C   UNL     1      33.003  36.306  14.641  1.00  0.00     0.145 C 
ATOM      7  C   UNL     1      32.661  37.044  15.927  1.00  0.00     0.142 C 
BRANCH   3   8
ATOM      8  O   UNL     1      30.947  33.843  14.800  1.00  0.00    -0.338 OA
BRANCH   8   9
ATOM      9  C   UNL     1      29.955  32.971  14.734  1.00  0.00     0.199 C 
BRANCH   9  10
ATOM     10  C   UNL     1      29.384  32.225  15.859  1.00  0.00     0.179 C 
ATOM     11  C   UNL     1      30.062  31.300  17.869  1.00  0.00     0.282 C 
ATOM     12  O   UNL     1      30.399  32.218  16.875  1.00  0.00    -0.341 OA
ATOM     13  C   UNL     1      28.647  30.877  17.915  1.00  0.00     0.202 C 
ATOM     14  C   UNL     1      27.622  31.859  17.463  1.00  0.00     0.179 C 
ATOM     15  C   UNL     1      28.238  32.923  16.590  1.00  0.00     0.177 C 
BRANCH  11  16
ATOM     16  O   UNL     1      30.563  31.779  19.097  1.00  0.00    -0.341 OA
BRANCH  16  17
ATOM     17  C   UNL     1      30.176  31.005  20.159  1.00  0.00     0.184 C 
ATOM     18  C   UNL     1      29.827  31.756  21.417  1.00  0.00     0.178 C 
ATOM     19  O   UNL     1      29.327  30.802  22.305  1.00  0.00    -0.341 OA
ATOM     20  C   UNL     1      30.344  30.049  22.873  1.00  0.00     0.281 C 
ATOM     21  C   UNL     1      31.261  30.007  20.538  1.00  0.00     0.180 C 
ATOM     22  C   UNL     1      31.555  29.947  21.993  1.00  0.00     0.202 C 
BRANCH  18  23
ATOM     23  C   UNL     1      28.713  32.758  21.187  1.00  0.00     0.191 C 
BRANCH  23  24
ATOM     24  O   UNL     1      29.058  33.706  20.226  1.00  0.00    -0.394 OA
ATOM     25  H   UNL     1      29.911  33.513  19.782  1.00  0.00     0.210 HD
ENDBRANCH  23  24
ENDBRANCH  18  23
BRANCH  20  26
ATOM     26  O   UNL     1      29.834  28.811  23.217  1.00  0.00    -0.350 OA
BRANCH  26  27
ATOM     27  C   UNL     1      28.476  28.867  23.478  1.00  0.00     0.169 C 
BRANCH  27  28
ATOM     28  C   UNL     1      27.722  27.611  23.179  1.00  0.00     0.119 C 
BRANCH  28  29
ATOM     29  N   UNL     1      28.281  26.993  21.989  1.00  0.00    -0.092 NA
ATOM     30  N   UNL     1      27.976  27.377  20.845  1.00  0.00     0.001 N 
ATOM     31  N   UNL     1      27.970  28.142  19.870  1.00  0.00    -0.003 NA
ENDBRANCH  28  29
ENDBRANCH  27  28
ENDBRANCH  26  27
ENDBRANCH  20  26
BRANCH  21  32
ATOM     32  O   UNL     1      31.008  28.743  19.985  1.00  0.00    -0.387 OA
ATOM     33  H   UNL     1      30.523  28.867  19.128  1.00  0.00     0.211 HD
ENDBRANCH  21  32
BRANCH  22  34
ATOM     34  O   UNL     1      32.504  30.916  22.396  1.00  0.00    -0.385 OA
ATOM     35  H   UNL     1      32.121  31.577  23.002  1.00  0.00     0.211 HD
ENDBRANCH  22  34
ENDBRANCH  16  17
ENDBRANCH  11  16
BRANCH  13  36
ATOM     36  O   UNL     1      28.505  29.626  17.306  1.00  0.00    -0.385 OA
ATOM     37  H   UNL     1      27.557  29.488  17.048  1.00  0.00     0.211 HD
ENDBRANCH  13  36
BRANCH  14  38
ATOM     38  O   UNL     1      26.875  32.394  18.510  1.00  0.00    -0.387 OA
ATOM     39  H   UNL     1      27.500  32.482  19.277  1.00  0.00     0.211 HD
ENDBRANCH  14  38
BRANCH  15  40
ATOM     40  O   UNL     1      28.774  33.954  17.400  1.00  0.00    -0.387 OA
ATOM     41  H   UNL     1      28.739  33.612  18.320  1.00  0.00     0.211 HD
ENDBRANCH  15  40
ENDBRANCH   9  10
ENDBRANCH   8   9
ENDBRANCH   3   8
BRANCH   3  42
ATOM     42  C   UNL     1      29.407  35.600  14.452  1.00  0.00     0.364 C 
ATOM     43  O   UNL     1      28.601  35.981  15.268  1.00  0.00    -0.246 OA
BRANCH  42  44
ATOM     44  O   UNL     1      29.020  35.543  13.109  1.00  0.00    -0.477 OA
ATOM     45  H   UNL     1      28.432  34.811  12.748  1.00  0.00     0.296 HD
ENDBRANCH  42  44
ENDBRANCH   3  42
BRANCH   6  46
ATOM     46  O   UNL     1      33.658  35.100  14.942  1.00  0.00    -0.391 OA
ATOM     47  H   UNL     1      33.074  34.325  14.890  1.00  0.00     0.211 HD
ENDBRANCH   6  46
BRANCH   7  48
ATOM     48  N   UNL     1      32.187  38.342  15.582  1.00  0.00    -0.348 N 
ATOM     49  C   UNL     1      32.223  39.404  16.528  1.00  0.00     0.217 C 
ATOM     50  H   UNL     1      31.798  38.546  14.631  1.00  0.00     0.163 HD
ATOM     51  C   UNL     1      31.737  40.776  16.215  1.00  0.00     0.114 C 
ATOM     52  O   UNL     1      32.681  39.160  17.650  1.00  0.00    -0.275 OA
ENDBRANCH   7  48
ENDBRANCH   1   2
BRANCH   1  53
ATOM     53  O   UNL     1      33.634  36.255  18.241  1.00  0.00    -0.388 OA
ATOM     54  H   UNL     1      33.414  37.212  18.284  1.00  0.00     0.211 HD
ENDBRANCH   1  53
BRANCH   1  55
ATOM     55  C   UNL     1      31.783  35.065  19.024  1.00  0.00     0.165 C 
BRANCH  55  56
ATOM     56  O   UNL     1      30.575  35.731  19.184  1.00  0.00    -0.388 OA
ATOM     57  H   UNL     1      30.580  36.149  20.086  1.00  0.00     0.211 HD
ENDBRANCH  55  56
BRANCH  55  58
ATOM     58  C   UNL     1      32.504  35.119  20.331  1.00  0.00     0.154 C 
BRANCH  58  59
ATOM     59  N   UNL     1      33.762  34.438  20.371  1.00  0.00    -0.319 N 
ATOM     60  C   UNL     1      34.251  33.734  21.496  1.00  0.00     0.407 C 
ATOM     61  H   UNL     1      34.358  34.459  19.519  1.00  0.00     0.167 HD
ATOM     62  O   UNL     1      33.585  33.667  22.558  1.00  0.00    -0.225 OA
BRANCH  60  63
ATOM     63  O   UNL     1      35.477  33.116  21.417  1.00  0.00    -0.443 OA
BRANCH  63  64
ATOM     64  C   UNL     1      36.687  33.786  21.490  1.00  0.00     0.294 C 
BRANCH  64  65
ATOM     65  C   UNL     1      37.274  33.946  20.159  1.00  0.00     0.120 A 
ATOM     66  C   UNL     1      37.253  35.081  19.386  1.00  0.00     0.139 A 
ATOM     67  N   UNL     1      37.943  33.028  19.419  1.00  0.00    -0.132 NA
ATOM     68  N   UNL     1      37.896  34.840  18.217  1.00  0.00    -0.240 N 
ATOM     69  N   UNL     1      38.298  33.588  18.274  1.00  0.00    -0.066 NA
BRANCH  68  70
ATOM     70  C   UNL     1      38.102  35.791  17.111  1.00  0.00     0.198 C 
BRANCH  70  71
ATOM     71  C   UNL     1      39.416  35.456  16.511  1.00  0.00     0.042 CG0
ATOM     72  G   UNL     1      39.667  35.933  15.123  1.00  0.00     0.000 G0
ENDBRANCH  70  71
BRANCH  70  73
ATOM     73  C   UNL     1      36.931  35.648  16.240  1.00  0.00     0.249 C 
ATOM     74  N   UNL     1      36.753  34.876  15.062  1.00  0.00    -0.324 N 
ATOM     75  O   UNL     1      35.925  36.319  16.597  1.00  0.00    -0.272 OA
ATOM     76  H   UNL     1      35.787  34.600  14.785  1.00  0.00     0.170 HD
BRANCH  74  77
ATOM     77  C   UNL     1      37.838  34.442  14.214  1.00  0.00     0.044 A 
ATOM     78  C   UNL     1      39.159  34.875  14.190  1.00  0.00    -0.024 A 
ATOM     79  C   UNL     1      37.433  33.463  13.333  1.00  0.00     0.026 A 
ATOM     80  C   UNL     1      40.074  34.350  13.308  1.00  0.00     0.006 A 
ATOM     81  C   UNL     1      38.332  32.918  12.437  1.00  0.00     0.002 A 
ATOM     82  C   UNL     1      39.654  33.374  12.437  1.00  0.00     0.000 A 
BRANCH  78  83
ATOM     83  C   UNL     1      39.694  35.927  15.100  1.00  0.00     0.040 CG0
ATOM     84  G   UNL     1      39.425  35.472  16.492  1.00  0.00     0.000 G0
ENDBRANCH  78  83
ENDBRANCH  74  77
ENDBRANCH  70  73
ENDBRANCH  68  70
ENDBRANCH  64  65
ENDBRANCH  63  64
ENDBRANCH  60  63
ENDBRANCH  58  59
ENDBRANCH  55  58
ENDBRANCH   1  55
TORSDOF 30
BEGIN_RES LYS A 131
REMARK  4 active torsions:
REMARK  status: ('A' for Active; 'I' for Inactive)
REMARK    1  A    between atoms: CA   and  CB  
REMARK    2  A    between atoms: CB   and  CG  
REMARK    3  A    between atoms: CG   and  CD  
REMARK    4  A    between atoms: CD   and  CE  
ROOT
ATOM      1  CA  LYS A 131      29.867  25.555  16.977  1.00 20.52     0.186 C 
ENDROOT
BRANCH   1   2
ATOM      2  CB  LYS A 131      28.345  25.722  17.026  1.00 20.94     0.034 C 
BRANCH   2   3
ATOM      3  CG  LYS A 131      27.602  24.398  16.934  1.00 22.96     0.005 C 
BRANCH   3   4
ATOM      4  CD  LYS A 131      26.180  24.513  17.408  1.00 24.33     0.041 C 
BRANCH   4   5
ATOM      5  CE  LYS A 131      25.786  23.240  18.151  1.00 26.91     0.338 C 
ATOM      6  NZ  LYS A 131      25.443  23.548  19.560  1.00 27.40     0.618 N 
ENDBRANCH   4   5
ENDBRANCH   3   4
ENDBRANCH   2   3
ENDBRANCH   1   2
END_RES LYS A 131
BEGIN_RES LYS A 135
REMARK  4 active torsions:
REMARK  status: ('A' for Active; 'I' for Inactive)
REMARK    5  A    between atoms: CA   and  CB  
REMARK    6  A    between atoms: CB   and  CG  
REMARK    7  A    between atoms: CG   and  CD  
REMARK    8  A    between atoms: CD   and  CE  
ROOT
ATOM      7  CA  LYS A 135      33.193  34.663   9.290  1.00 25.02     0.186 C 
ENDROOT
BRANCH   7   8
ATOM      8  CB  LYS A 135      32.060  35.360  10.034  1.00 26.63     0.034 C 
BRANCH   8   9
ATOM      9  CG  LYS A 135      30.746  34.626   9.955  1.00 29.45     0.005 C 
BRANCH   9  10
ATOM     10  CD  LYS A 135      30.298  34.482   8.509  1.00 32.00     0.041 C 
BRANCH  10  11
ATOM     11  CE  LYS A 135      28.789  34.596   8.406  1.00 34.25     0.338 C 
ATOM     12  NZ  LYS A 135      28.116  33.752   9.432  1.00 35.99     0.618 N 
ENDBRANCH  10  11
ENDBRANCH   9  10
ENDBRANCH   8   9
ENDBRANCH   7   8
END_RES LYS A 135
