REMARK VINA RESULT:    -3.893      4.504      9.839
REMARK INTER + INTRA:         -23.791
REMARK INTER:                 -10.608
REMARK INTRA:                 -13.183
REMARK UNBOUND:               -13.184
REMARK SMILES CC(=O)N[C@@H]1[C@@H](O)C[C@](OC[C@H]2O[C@@H](O[C@H]3[C@H](O)[C@@H](O)[C@H](OCCN=[N+]=[N-])O[C@@H]3CO)[C@H](O)[C@@H](O)[C@H]2O)(C(=O)O)O[C@H]1C(O)[C@H](O)CNC(=O)OCc1cn(CC(O)Cn2ccnc2[N+](=O)[O-])nn1
REMARK SMILES IDX 43 1 42 2 9 3 8 4 41 5 6 6 5 7 10 8 11 9 12 10 14 11 13 12
REMARK SMILES IDX 32 13 34 14 36 15 15 16 16 17 29 18 28 19 21 20 17 21 19 22
REMARK SMILES IDX 30 23 31 24 22 26 23 27 24 28 25 29 26 30 27 31 18 32 20 34
REMARK SMILES IDX 33 36 35 38 37 40 38 42 39 43 40 44 7 46 4 48 2 49 1 51 3 52
REMARK SMILES IDX 44 53 45 55 46 56 47 58 48 59 49 60 50 62 51 63 52 64 53 65
REMARK SMILES IDX 54 66 69 67 55 68 68 69 56 70 57 71 58 72 59 74 60 75 61 76
REMARK SMILES IDX 64 77 62 78 63 79 65 80 66 81 67 82
REMARK H PARENT 31 25 18 33 20 35 33 37 35 39 37 41 40 45 7 47 4 50 44 54
REMARK H PARENT 46 57 48 61 58 73
REMARK Flexibility Score: inf
ROOT
ATOM      1  C   UNL     1      27.824  35.594  14.168  1.00  0.00     0.176 C 
ENDROOT
BRANCH   1   2
ATOM      2  C   UNL     1      29.280  36.109  14.378  1.00  0.00     0.178 C 
ATOM      3  C   UNL     1      30.727  37.445  13.165  1.00  0.00     0.272 C 
ATOM      4  C   UNL     1      31.865  36.521  13.483  1.00  0.00     0.113 C 
ATOM      5  O   UNL     1      29.523  36.748  13.161  1.00  0.00    -0.332 OA
ATOM      6  C   UNL     1      31.399  35.074  13.571  1.00  0.00     0.145 C 
ATOM      7  C   UNL     1      30.196  34.963  14.499  1.00  0.00     0.142 C 
BRANCH   3   8
ATOM      8  O   UNL     1      30.798  37.977  11.883  1.00  0.00    -0.338 OA
BRANCH   8   9
ATOM      9  C   UNL     1      29.684  38.042  11.134  1.00  0.00     0.199 C 
BRANCH   9  10
ATOM     10  C   UNL     1      29.819  38.941   9.921  1.00  0.00     0.179 C 
ATOM     11  C   UNL     1      28.906  39.448   7.947  1.00  0.00     0.282 C 
ATOM     12  O   UNL     1      28.563  39.147   9.288  1.00  0.00    -0.341 OA
ATOM     13  C   UNL     1      29.762  40.689   7.885  1.00  0.00     0.202 C 
ATOM     14  C   UNL     1      29.689  41.348   9.261  1.00  0.00     0.179 C 
ATOM     15  C   UNL     1      30.280  40.342  10.253  1.00  0.00     0.177 C 
BRANCH  11  16
ATOM     16  O   UNL     1      27.788  39.612   7.155  1.00  0.00    -0.341 OA
BRANCH  16  17
ATOM     17  C   UNL     1      26.746  38.952   7.765  1.00  0.00     0.184 C 
ATOM     18  C   UNL     1      26.249  37.740   6.992  1.00  0.00     0.178 C 
ATOM     19  O   UNL     1      25.513  37.008   7.929  1.00  0.00    -0.341 OA
ATOM     20  C   UNL     1      24.359  37.616   8.340  1.00  0.00     0.281 C 
ATOM     21  C   UNL     1      25.518  39.837   7.923  1.00  0.00     0.180 C 
ATOM     22  C   UNL     1      24.383  39.090   8.514  1.00  0.00     0.202 C 
BRANCH  18  23
ATOM     23  C   UNL     1      27.329  36.915   6.391  1.00  0.00     0.191 C 
BRANCH  23  24
ATOM     24  O   UNL     1      27.455  37.266   5.053  1.00  0.00    -0.394 OA
ATOM     25  H   UNL     1      26.978  36.648   4.444  1.00  0.00     0.210 HD
ENDBRANCH  23  24
ENDBRANCH  18  23
BRANCH  20  26
ATOM     26  O   UNL     1      24.058  37.060   9.613  1.00  0.00    -0.350 OA
BRANCH  26  27
ATOM     27  C   UNL     1      24.060  37.996  10.616  1.00  0.00     0.169 C 
BRANCH  27  28
ATOM     28  C   UNL     1      24.934  37.415  11.736  1.00  0.00     0.119 C 
BRANCH  28  29
ATOM     29  N   UNL     1      26.225  38.029  11.789  1.00  0.00    -0.092 NA
ATOM     30  N   UNL     1      26.374  39.259  11.604  1.00  0.00     0.001 N 
ATOM     31  N   UNL     1      26.678  40.415  11.847  1.00  0.00    -0.003 NA
ENDBRANCH  28  29
ENDBRANCH  27  28
ENDBRANCH  26  27
ENDBRANCH  20  26
BRANCH  21  32
ATOM     32  O   UNL     1      25.840  40.920   8.768  1.00  0.00    -0.387 OA
ATOM     33  H   UNL     1      25.211  41.630   8.548  1.00  0.00     0.211 HD
ENDBRANCH  21  32
BRANCH  22  34
ATOM     34  O   UNL     1      23.214  39.591   7.886  1.00  0.00    -0.385 OA
ATOM     35  H   UNL     1      22.398  39.254   8.340  1.00  0.00     0.211 HD
ENDBRANCH  22  34
ENDBRANCH  16  17
ENDBRANCH  11  16
BRANCH  13  36
ATOM     36  O   UNL     1      31.071  40.310   7.586  1.00  0.00    -0.385 OA
ATOM     37  H   UNL     1      31.329  40.585   6.662  1.00  0.00     0.211 HD
ENDBRANCH  13  36
BRANCH  14  38
ATOM     38  O   UNL     1      28.351  41.467   9.589  1.00  0.00    -0.387 OA
ATOM     39  H   UNL     1      27.968  40.591   9.767  1.00  0.00     0.211 HD
ENDBRANCH  14  38
BRANCH  15  40
ATOM     40  O   UNL     1      29.864  40.761  11.497  1.00  0.00    -0.387 OA
ATOM     41  H   UNL     1      30.438  40.413  12.225  1.00  0.00     0.211 HD
ENDBRANCH  15  40
ENDBRANCH   9  10
ENDBRANCH   8   9
ENDBRANCH   3   8
BRANCH   3  42
ATOM     42  C   UNL     1      30.641  38.538  14.142  1.00  0.00     0.364 C 
ATOM     43  O   UNL     1      29.661  39.361  14.156  1.00  0.00    -0.246 OA
BRANCH  42  44
ATOM     44  O   UNL     1      31.592  38.777  15.115  1.00  0.00    -0.477 OA
ATOM     45  H   UNL     1      32.237  39.572  15.090  1.00  0.00     0.296 HD
ENDBRANCH  42  44
ENDBRANCH   3  42
BRANCH   6  46
ATOM     46  O   UNL     1      31.140  34.537  12.326  1.00  0.00    -0.391 OA
ATOM     47  H   UNL     1      30.506  33.778  12.378  1.00  0.00     0.211 HD
ENDBRANCH   6  46
BRANCH   7  48
ATOM     48  N   UNL     1      30.603  34.553  15.806  1.00  0.00    -0.348 N 
ATOM     49  C   UNL     1      30.619  33.274  16.351  1.00  0.00     0.217 C 
ATOM     50  H   UNL     1      30.969  35.341  16.493  1.00  0.00     0.163 HD
ATOM     51  C   UNL     1      31.123  33.027  17.763  1.00  0.00     0.114 C 
ATOM     52  O   UNL     1      30.240  32.265  15.753  1.00  0.00    -0.275 OA
ENDBRANCH   7  48
ENDBRANCH   1   2
BRANCH   1  53
ATOM     53  O   UNL     1      27.654  35.426  12.771  1.00  0.00    -0.388 OA
ATOM     54  H   UNL     1      26.726  35.502  12.499  1.00  0.00     0.211 HD
ENDBRANCH   1  53
BRANCH   1  55
ATOM     55  C   UNL     1      26.775  36.445  14.714  1.00  0.00     0.165 C 
BRANCH  55  56
ATOM     56  O   UNL     1      27.035  37.786  14.826  1.00  0.00    -0.388 OA
ATOM     57  H   UNL     1      26.234  38.344  14.950  1.00  0.00     0.211 HD
ENDBRANCH  55  56
BRANCH  55  58
ATOM     58  C   UNL     1      26.223  35.931  16.066  1.00  0.00     0.154 C 
BRANCH  58  59
ATOM     59  N   UNL     1      25.475  34.720  15.749  1.00  0.00    -0.319 N 
ATOM     60  C   UNL     1      25.961  33.420  16.105  1.00  0.00     0.407 C 
ATOM     61  H   UNL     1      24.558  34.781  15.252  1.00  0.00     0.167 HD
ATOM     62  O   UNL     1      27.053  33.312  16.704  1.00  0.00    -0.225 OA
BRANCH  60  63
ATOM     63  O   UNL     1      25.251  32.279  15.797  1.00  0.00    -0.443 OA
BRANCH  63  64
ATOM     64  C   UNL     1      25.128  31.674  14.546  1.00  0.00     0.294 C 
BRANCH  64  65
ATOM     65  C   UNL     1      24.408  32.577  13.614  1.00  0.00     0.120 A 
ATOM     66  C   UNL     1      23.048  32.592  13.362  1.00  0.00     0.138 A 
ATOM     67  N   UNL     1      24.906  33.552  12.840  1.00  0.00    -0.132 NA
ATOM     68  N   UNL     1      22.784  33.566  12.456  1.00  0.00    -0.249 N 
ATOM     69  N   UNL     1      23.926  34.129  12.158  1.00  0.00    -0.067 NA
BRANCH  68  70
ATOM     70  C   UNL     1      21.435  33.882  11.997  1.00  0.00     0.181 C 
BRANCH  70  71
ATOM     71  C   UNL     1      21.581  35.157  11.170  1.00  0.00     0.170 C 
BRANCH  71  72
ATOM     72  O   UNL     1      22.273  34.856  10.021  1.00  0.00    -0.388 OA
ATOM     73  H   UNL     1      22.421  33.882   9.956  1.00  0.00     0.211 HD
ENDBRANCH  71  72
BRANCH  71  74
ATOM     74  C   UNL     1      20.239  35.770  10.914  1.00  0.00     0.239 C 
BRANCH  74  75
ATOM     75  N   UNL     1      20.406  37.140  10.457  1.00  0.00    -0.227 N 
ATOM     76  C   UNL     1      20.541  38.187  11.334  1.00  0.00     0.204 A 
ATOM     77  C   UNL     1      20.477  37.598   9.207  1.00  0.00     0.434 A 
ATOM     78  C   UNL     1      20.701  39.327  10.578  1.00  0.00     0.245 A 
ATOM     79  N   UNL     1      20.660  38.946   9.287  1.00  0.00    -0.074 NA
BRANCH  77  80
ATOM     80  N   UNL     1      20.370  36.839   8.015  1.00  0.00    -0.047 N 
ATOM     81  O   UNL     1      19.281  36.809   7.359  1.00  0.00    -0.390 OA
ATOM     82  O   UNL     1      21.393  36.096   7.496  1.00  0.00    -0.390 OA
ENDBRANCH  77  80
ENDBRANCH  74  75
ENDBRANCH  71  74
ENDBRANCH  70  71
ENDBRANCH  68  70
ENDBRANCH  64  65
ENDBRANCH  63  64
ENDBRANCH  60  63
ENDBRANCH  58  59
ENDBRANCH  55  58
ENDBRANCH   1  55
TORSDOF 35
BEGIN_RES LYS A 131
REMARK  4 active torsions:
REMARK  status: ('A' for Active; 'I' for Inactive)
REMARK    1  A    between atoms: CA   and  CB  
REMARK    2  A    between atoms: CB   and  CG  
REMARK    3  A    between atoms: CG   and  CD  
REMARK    4  A    between atoms: CD   and  CE  
ROOT
ATOM      1  CA  LYS A 131      29.867  25.555  16.977  1.00 20.52     0.186 C 
ENDROOT
BRANCH   1   2
ATOM      2  CB  LYS A 131      28.345  25.722  17.026  1.00 20.94     0.034 C 
BRANCH   2   3
ATOM      3  CG  LYS A 131      27.601  24.403  16.882  1.00 22.96     0.005 C 
BRANCH   3   4
ATOM      4  CD  LYS A 131      26.533  24.238  17.927  1.00 24.33     0.041 C 
BRANCH   4   5
ATOM      5  CE  LYS A 131      25.212  23.880  17.253  1.00 26.91     0.338 C 
ATOM      6  NZ  LYS A 131      24.844  22.475  17.549  1.00 27.40     0.618 N 
ENDBRANCH   4   5
ENDBRANCH   3   4
ENDBRANCH   2   3
ENDBRANCH   1   2
END_RES LYS A 131
BEGIN_RES LYS A 135
REMARK  4 active torsions:
REMARK  status: ('A' for Active; 'I' for Inactive)
REMARK    5  A    between atoms: CA   and  CB  
REMARK    6  A    between atoms: CB   and  CG  
REMARK    7  A    between atoms: CG   and  CD  
REMARK    8  A    between atoms: CD   and  CE  
ROOT
ATOM      7  CA  LYS A 135      33.193  34.663   9.290  1.00 25.02     0.186 C 
ENDROOT
BRANCH   7   8
ATOM      8  CB  LYS A 135      32.060  35.360  10.034  1.00 26.63     0.034 C 
BRANCH   8   9
ATOM      9  CG  LYS A 135      30.798  35.495   9.221  1.00 29.45     0.005 C 
BRANCH   9  10
ATOM     10  CD  LYS A 135      30.151  34.135   9.006  1.00 32.00     0.041 C 
BRANCH  10  11
ATOM     11  CE  LYS A 135      28.683  34.294   8.657  1.00 34.25     0.338 C 
ATOM     12  NZ  LYS A 135      27.815  33.677   9.698  1.00 35.99     0.618 N 
ENDBRANCH  10  11
ENDBRANCH   9  10
ENDBRANCH   8   9
ENDBRANCH   7   8
END_RES LYS A 135
