REMARK VINA RESULT:    -4.395      2.884      4.353
REMARK INTER + INTRA:         -22.740
REMARK INTER:                 -11.454
REMARK INTRA:                 -11.286
REMARK UNBOUND:               -11.408
REMARK SMILES CC(=O)N[C@@H]1[C@@H](O)C[C@](OC[C@H]2O[C@@H](O[C@H]3[C@H](O)[C@@H](O)[C@H](OCCN=[N+]=[N-])O[C@@H]3CO)[C@H](O)[C@@H](O)[C@H]2O)(C(=O)O)O[C@H]1C(O)[C@H](O)CNC(=O)OCc1cn(CS(=O)(=O)c2ccccc2)nn1
REMARK SMILES IDX 9 1 8 2 6 3 5 4 42 5 41 6 10 7 11 8 12 9 14 10 13 11 32 12
REMARK SMILES IDX 34 13 36 14 15 15 16 16 29 17 28 18 21 19 17 20 19 21 30 22
REMARK SMILES IDX 31 23 22 25 23 26 24 27 25 28 26 29 27 30 18 31 20 33 33 35
REMARK SMILES IDX 35 37 37 39 38 41 39 42 40 43 7 45 43 47 44 48 45 50 46 51
REMARK SMILES IDX 47 53 48 54 49 55 50 57 51 58 52 59 53 60 54 61 67 62 55 63
REMARK SMILES IDX 66 64 56 65 57 66 58 67 59 68 60 69 61 70 65 71 62 72 64 73
REMARK SMILES IDX 63 74 4 75 2 76 1 78 3 79
REMARK H PARENT 31 24 18 32 20 34 33 36 35 38 37 40 40 44 7 46 44 49 46 52
REMARK H PARENT 48 56 4 77
REMARK Flexibility Score: inf
ROOT
ATOM      1  C   UNL     1      29.833  29.948  21.243  1.00  0.00     0.272 C 
ATOM      2  C   UNL     1      30.743  28.828  20.944  1.00  0.00     0.113 C 
ATOM      3  C   UNL     1      30.102  27.455  20.972  1.00  0.00     0.145 C 
ATOM      4  C   UNL     1      29.358  27.356  22.258  1.00  0.00     0.142 C 
ATOM      5  C   UNL     1      28.457  28.531  22.518  1.00  0.00     0.178 C 
ATOM      6  O   UNL     1      28.961  29.762  22.303  1.00  0.00    -0.332 OA
ENDROOT
BRANCH   1   7
ATOM      7  O   UNL     1      29.211  30.469  20.128  1.00  0.00    -0.338 OA
BRANCH   7   8
ATOM      8  C   UNL     1      30.004  30.927  19.128  1.00  0.00     0.199 C 
BRANCH   8   9
ATOM      9  C   UNL     1      29.303  32.061  18.349  1.00  0.00     0.179 C 
ATOM     10  C   UNL     1      30.630  33.176  16.737  1.00  0.00     0.282 C 
ATOM     11  O   UNL     1      30.237  32.966  18.028  1.00  0.00    -0.341 OA
ATOM     12  C   UNL     1      30.533  31.946  15.918  1.00  0.00     0.202 C 
ATOM     13  C   UNL     1      29.179  31.310  16.012  1.00  0.00     0.179 C 
ATOM     14  C   UNL     1      28.435  31.599  17.252  1.00  0.00     0.177 C 
BRANCH  10  15
ATOM     15  O   UNL     1      31.945  33.660  16.834  1.00  0.00    -0.341 OA
BRANCH  15  16
ATOM     16  C   UNL     1      32.105  35.001  16.748  1.00  0.00     0.184 C 
ATOM     17  C   UNL     1      33.215  35.396  15.820  1.00  0.00     0.178 C 
ATOM     18  O   UNL     1      33.008  36.728  15.473  1.00  0.00    -0.341 OA
ATOM     19  C   UNL     1      32.736  37.566  16.519  1.00  0.00     0.281 C 
ATOM     20  C   UNL     1      32.548  35.603  18.104  1.00  0.00     0.180 C 
ATOM     21  C   UNL     1      32.942  37.009  17.873  1.00  0.00     0.202 C 
BRANCH  17  22
ATOM     22  C   UNL     1      33.345  34.591  14.575  1.00  0.00     0.191 C 
BRANCH  22  23
ATOM     23  O   UNL     1      32.119  34.553  13.922  1.00  0.00    -0.394 OA
ATOM     24  H   UNL     1      31.785  33.627  13.887  1.00  0.00     0.210 HD
ENDBRANCH  22  23
ENDBRANCH  17  22
BRANCH  19  25
ATOM     25  O   UNL     1      31.405  37.953  16.385  1.00  0.00    -0.350 OA
BRANCH  25  26
ATOM     26  C   UNL     1      31.000  38.785  17.455  1.00  0.00     0.169 C 
BRANCH  26  27
ATOM     27  C   UNL     1      29.552  38.493  17.785  1.00  0.00     0.119 C 
BRANCH  27  28
ATOM     28  N   UNL     1      29.249  37.151  17.295  1.00  0.00    -0.092 NA
ATOM     29  N   UNL     1      28.645  36.378  18.066  1.00  0.00     0.001 N 
ATOM     30  N   UNL     1      28.287  35.586  18.957  1.00  0.00    -0.003 NA
ENDBRANCH  27  28
ENDBRANCH  26  27
ENDBRANCH  25  26
ENDBRANCH  19  25
BRANCH  20  31
ATOM     31  O   UNL     1      31.514  35.529  19.022  1.00  0.00    -0.387 OA
ATOM     32  H   UNL     1      30.949  36.335  18.912  1.00  0.00     0.211 HD
ENDBRANCH  20  31
BRANCH  21  33
ATOM     33  O   UNL     1      34.326  37.118  18.157  1.00  0.00    -0.385 OA
ATOM     34  H   UNL     1      34.800  36.268  18.041  1.00  0.00     0.211 HD
ENDBRANCH  21  33
ENDBRANCH  15  16
ENDBRANCH  10  15
BRANCH  12  35
ATOM     35  O   UNL     1      30.678  32.245  14.526  1.00  0.00    -0.385 OA
ATOM     36  H   UNL     1      31.292  33.018  14.497  1.00  0.00     0.211 HD
ENDBRANCH  12  35
BRANCH  13  37
ATOM     37  O   UNL     1      29.267  29.914  15.785  1.00  0.00    -0.387 OA
ATOM     38  H   UNL     1      30.126  29.573  16.165  1.00  0.00     0.211 HD
ENDBRANCH  13  37
BRANCH  14  39
ATOM     39  O   UNL     1      27.669  30.473  17.606  1.00  0.00    -0.387 OA
ATOM     40  H   UNL     1      26.986  30.342  16.900  1.00  0.00     0.211 HD
ENDBRANCH  14  39
ENDBRANCH   8   9
ENDBRANCH   7   8
ENDBRANCH   1   7
BRANCH   1  41
ATOM     41  C   UNL     1      30.729  31.052  21.781  1.00  0.00     0.364 C 
ATOM     42  O   UNL     1      31.922  30.781  21.995  1.00  0.00    -0.246 OA
BRANCH  41  43
ATOM     43  O   UNL     1      30.218  32.317  22.018  1.00  0.00    -0.477 OA
ATOM     44  H   UNL     1      30.578  32.883  22.802  1.00  0.00     0.296 HD
ENDBRANCH  41  43
ENDBRANCH   1  41
BRANCH   3  45
ATOM     45  O   UNL     1      29.344  27.293  19.846  1.00  0.00    -0.391 OA
ATOM     46  H   UNL     1      28.713  28.063  19.792  1.00  0.00     0.211 HD
ENDBRANCH   3  45
BRANCH   5  47
ATOM     47  C   UNL     1      27.065  28.332  21.964  1.00  0.00     0.176 C 
BRANCH  47  48
ATOM     48  O   UNL     1      26.915  28.782  20.655  1.00  0.00    -0.388 OA
ATOM     49  H   UNL     1      26.807  28.082  19.995  1.00  0.00     0.211 HD
ENDBRANCH  47  48
BRANCH  47  50
ATOM     50  C   UNL     1      26.595  26.888  22.056  1.00  0.00     0.165 C 
BRANCH  50  51
ATOM     51  O   UNL     1      26.668  26.223  20.854  1.00  0.00    -0.388 OA
ATOM     52  H   UNL     1      27.006  26.740  20.107  1.00  0.00     0.211 HD
ENDBRANCH  50  51
BRANCH  50  53
ATOM     53  C   UNL     1      25.279  26.711  22.714  1.00  0.00     0.154 C 
BRANCH  53  54
ATOM     54  N   UNL     1      24.214  27.575  22.303  1.00  0.00    -0.319 N 
ATOM     55  C   UNL     1      23.451  27.461  21.120  1.00  0.00     0.407 C 
ATOM     56  H   UNL     1      23.970  28.387  22.950  1.00  0.00     0.167 HD
ATOM     57  O   UNL     1      23.653  26.540  20.307  1.00  0.00    -0.225 OA
BRANCH  55  58
ATOM     58  O   UNL     1      22.462  28.401  20.875  1.00  0.00    -0.443 OA
BRANCH  58  59
ATOM     59  C   UNL     1      22.607  29.776  21.069  1.00  0.00     0.294 C 
BRANCH  59  60
ATOM     60  C   UNL     1      23.543  30.322  20.068  1.00  0.00     0.120 A 
ATOM     61  C   UNL     1      23.211  30.555  18.745  1.00  0.00     0.139 A 
ATOM     62  N   UNL     1      24.826  30.700  20.183  1.00  0.00    -0.132 NA
ATOM     63  N   UNL     1      24.282  31.059  18.103  1.00  0.00    -0.237 N 
ATOM     64  N   UNL     1      25.248  31.132  19.013  1.00  0.00    -0.066 NA
BRANCH  63  65
ATOM     65  C   UNL     1      24.359  31.444  16.722  1.00  0.00     0.287 C 
BRANCH  65  66
ATOM     66  S   UNL     1      24.891  29.993  15.813  1.00  0.00     0.198 S 
ATOM     67  O   UNL     1      25.166  28.867  16.735  1.00  0.00    -0.222 OA
ATOM     68  O   UNL     1      26.133  30.397  15.036  1.00  0.00    -0.222 OA
BRANCH  66  69
ATOM     69  C   UNL     1      23.617  29.586  14.694  1.00  0.00     0.069 A 
ATOM     70  C   UNL     1      23.688  29.908  13.355  1.00  0.00     0.020 A 
ATOM     71  C   UNL     1      22.486  28.923  15.117  1.00  0.00     0.020 A 
ATOM     72  C   UNL     1      22.688  29.590  12.475  1.00  0.00     0.001 A 
ATOM     73  C   UNL     1      21.476  28.598  14.249  1.00  0.00     0.001 A 
ATOM     74  C   UNL     1      21.580  28.935  12.923  1.00  0.00     0.000 A 
ENDBRANCH  66  69
ENDBRANCH  65  66
ENDBRANCH  63  65
ENDBRANCH  59  60
ENDBRANCH  58  59
ENDBRANCH  55  58
ENDBRANCH  53  54
ENDBRANCH  50  53
ENDBRANCH  47  50
ENDBRANCH   5  47
BRANCH   4  75
ATOM     75  N   UNL     1      30.324  27.311  23.349  1.00  0.00    -0.348 N 
ATOM     76  C   UNL     1      30.435  26.178  24.203  1.00  0.00     0.217 C 
ATOM     77  H   UNL     1      30.984  28.121  23.557  1.00  0.00     0.163 HD
ATOM     78  C   UNL     1      31.450  26.183  25.317  1.00  0.00     0.114 C 
ATOM     79  O   UNL     1      29.693  25.168  24.038  1.00  0.00    -0.275 OA
ENDBRANCH   4  75
TORSDOF 32
BEGIN_RES LYS A 131
REMARK  4 active torsions:
REMARK  status: ('A' for Active; 'I' for Inactive)
REMARK    1  A    between atoms: CA   and  CB  
REMARK    2  A    between atoms: CB   and  CG  
REMARK    3  A    between atoms: CG   and  CD  
REMARK    4  A    between atoms: CD   and  CE  
ROOT
ATOM      1  CA  LYS A 131      29.867  25.555  16.977  1.00 20.52     0.186 C 
ENDROOT
BRANCH   1   2
ATOM      2  CB  LYS A 131      28.345  25.722  17.026  1.00 20.94     0.034 C 
BRANCH   2   3
ATOM      3  CG  LYS A 131      27.599  24.471  16.587  1.00 22.96     0.005 C 
BRANCH   3   4
ATOM      4  CD  LYS A 131      27.188  23.618  17.754  1.00 24.33     0.041 C 
BRANCH   4   5
ATOM      5  CE  LYS A 131      25.674  23.429  17.739  1.00 26.91     0.338 C 
ATOM      6  NZ  LYS A 131      25.024  24.513  16.964  1.00 27.40     0.618 N 
ENDBRANCH   4   5
ENDBRANCH   3   4
ENDBRANCH   2   3
ENDBRANCH   1   2
END_RES LYS A 131
BEGIN_RES LYS A 135
REMARK  4 active torsions:
REMARK  status: ('A' for Active; 'I' for Inactive)
REMARK    5  A    between atoms: CA   and  CB  
REMARK    6  A    between atoms: CB   and  CG  
REMARK    7  A    between atoms: CG   and  CD  
REMARK    8  A    between atoms: CD   and  CE  
ROOT
ATOM      7  CA  LYS A 135      33.193  34.663   9.290  1.00 25.02     0.186 C 
ENDROOT
BRANCH   7   8
ATOM      8  CB  LYS A 135      32.060  35.360  10.034  1.00 26.63     0.034 C 
BRANCH   8   9
ATOM      9  CG  LYS A 135      30.707  34.746   9.783  1.00 29.45     0.005 C 
BRANCH   9  10
ATOM     10  CD  LYS A 135      30.492  34.508   8.297  1.00 32.00     0.041 C 
BRANCH  10  11
ATOM     11  CE  LYS A 135      29.072  34.863   7.900  1.00 34.25     0.338 C 
ATOM     12  NZ  LYS A 135      28.086  34.251   8.834  1.00 35.99     0.618 N 
ENDBRANCH  10  11
ENDBRANCH   9  10
ENDBRANCH   8   9
ENDBRANCH   7   8
END_RES LYS A 135
