REMARK VINA RESULT:    -4.819      4.456      9.602
REMARK INTER + INTRA:         -23.060
REMARK INTER:                  -9.467
REMARK INTRA:                 -13.593
REMARK UNBOUND:               -11.198
REMARK SMILES CC(=O)N[C@@H]1[C@@H](O)C[C@](OC[C@H]2O[C@@H](O[C@H]3[C@H](O)[C@@H](O)[C@H](OCCN=[N+]=[N-])O[C@@H]3CO)[C@H](O)[C@@H](O)[C@H]2O)(C(=O)O)O[C@H]1C(O)[C@H](O)CNC(=O)OCc1cn(C23CC4CC(CC(C4)C2)C3)nn1
REMARK SMILES IDX 9 1 8 2 6 3 5 4 42 5 41 6 10 7 11 8 12 9 14 10 13 11 32 12
REMARK SMILES IDX 34 13 36 14 15 15 16 16 29 17 28 18 21 19 17 20 19 21 30 22
REMARK SMILES IDX 31 23 22 25 23 26 24 27 25 28 26 29 27 30 18 31 20 33 33 35
REMARK SMILES IDX 35 37 37 39 38 41 39 42 40 43 7 45 43 47 44 48 45 50 46 51
REMARK SMILES IDX 47 53 48 54 49 55 50 57 51 58 52 59 53 60 54 61 67 62 55 63
REMARK SMILES IDX 66 64 56 65 65 66 64 67 57 68 60 69 62 70 58 71 59 72 61 73
REMARK SMILES IDX 63 74 4 75 2 76 1 78 3 79
REMARK H PARENT 31 24 18 32 20 34 33 36 35 38 37 40 40 44 7 46 44 49 46 52
REMARK H PARENT 48 56 4 77
REMARK Flexibility Score: inf
ROOT
ATOM      1  C   UNL     1      29.803  35.194  17.492  1.00  0.00     0.272 C 
ATOM      2  C   UNL     1      28.324  35.267  17.661  1.00  0.00     0.113 C 
ATOM      3  C   UNL     1      27.653  35.639  16.354  1.00  0.00     0.145 C 
ATOM      4  C   UNL     1      27.958  37.132  16.162  1.00  0.00     0.142 C 
ATOM      5  C   UNL     1      29.421  37.281  16.454  1.00  0.00     0.178 C 
ATOM      6  O   UNL     1      30.149  36.118  16.440  1.00  0.00    -0.332 OA
ENDROOT
BRANCH   1   7
ATOM      7  O   UNL     1      30.325  34.043  17.092  1.00  0.00    -0.338 OA
BRANCH   7   8
ATOM      8  C   UNL     1      30.810  33.045  17.786  1.00  0.00     0.199 C 
BRANCH   8   9
ATOM      9  C   UNL     1      30.256  31.659  17.755  1.00  0.00     0.179 C 
ATOM     10  C   UNL     1      28.465  30.346  18.093  1.00  0.00     0.282 C 
ATOM     11  O   UNL     1      28.869  31.696  18.147  1.00  0.00    -0.341 OA
ATOM     12  C   UNL     1      27.994  30.123  16.693  1.00  0.00     0.202 C 
ATOM     13  C   UNL     1      28.904  30.918  15.776  1.00  0.00     0.179 C 
ATOM     14  C   UNL     1      30.292  31.059  16.353  1.00  0.00     0.177 C 
BRANCH  10  15
ATOM     15  O   UNL     1      27.520  30.069  19.074  1.00  0.00    -0.341 OA
BRANCH  15  16
ATOM     16  C   UNL     1      26.566  31.043  19.077  1.00  0.00     0.184 C 
ATOM     17  C   UNL     1      26.386  31.822  20.330  1.00  0.00     0.178 C 
ATOM     18  O   UNL     1      25.700  33.002  19.960  1.00  0.00    -0.341 OA
ATOM     19  C   UNL     1      24.354  32.717  19.629  1.00  0.00     0.281 C 
ATOM     20  C   UNL     1      25.175  30.489  18.748  1.00  0.00     0.180 C 
ATOM     21  C   UNL     1      24.253  31.648  18.594  1.00  0.00     0.202 C 
BRANCH  17  22
ATOM     22  C   UNL     1      27.608  32.125  21.111  1.00  0.00     0.191 C 
BRANCH  22  23
ATOM     23  O   UNL     1      28.243  33.218  20.498  1.00  0.00    -0.394 OA
ATOM     24  H   UNL     1      27.602  33.763  19.972  1.00  0.00     0.210 HD
ENDBRANCH  22  23
ENDBRANCH  17  22
BRANCH  19  25
ATOM     25  O   UNL     1      23.866  33.890  19.102  1.00  0.00    -0.350 OA
BRANCH  25  26
ATOM     26  C   UNL     1      24.770  34.797  18.687  1.00  0.00     0.169 C 
BRANCH  26  27
ATOM     27  C   UNL     1      24.472  36.181  19.169  1.00  0.00     0.119 C 
BRANCH  27  28
ATOM     28  N   UNL     1      25.689  36.813  19.694  1.00  0.00    -0.092 NA
ATOM     29  N   UNL     1      26.363  36.166  20.484  1.00  0.00     0.001 N 
ATOM     30  N   UNL     1      27.021  35.780  21.474  1.00  0.00    -0.003 NA
ENDBRANCH  27  28
ENDBRANCH  26  27
ENDBRANCH  25  26
ENDBRANCH  19  25
BRANCH  20  31
ATOM     31  O   UNL     1      25.188  29.765  17.556  1.00  0.00    -0.387 OA
ATOM     32  H   UNL     1      25.810  29.011  17.649  1.00  0.00     0.211 HD
ENDBRANCH  20  31
BRANCH  21  33
ATOM     33  O   UNL     1      22.955  31.139  18.593  1.00  0.00    -0.385 OA
ATOM     34  H   UNL     1      22.755  30.700  17.744  1.00  0.00     0.211 HD
ENDBRANCH  21  33
ENDBRANCH  15  16
ENDBRANCH  10  15
BRANCH  12  35
ATOM     35  O   UNL     1      27.885  28.812  16.303  1.00  0.00    -0.385 OA
ATOM     36  H   UNL     1      28.615  28.276  16.693  1.00  0.00     0.211 HD
ENDBRANCH  12  35
BRANCH  13  37
ATOM     37  O   UNL     1      28.369  32.153  15.431  1.00  0.00    -0.387 OA
ATOM     38  H   UNL     1      29.110  32.840  15.428  1.00  0.00     0.211 HD
ENDBRANCH  13  37
BRANCH  14  39
ATOM     39  O   UNL     1      31.005  31.928  15.540  1.00  0.00    -0.387 OA
ATOM     40  H   UNL     1      30.922  31.688  14.581  1.00  0.00     0.211 HD
ENDBRANCH  14  39
ENDBRANCH   8   9
ENDBRANCH   7   8
ENDBRANCH   1   7
BRANCH   1  41
ATOM     41  C   UNL     1      30.473  35.795  18.657  1.00  0.00     0.364 C 
ATOM     42  O   UNL     1      31.621  36.256  18.688  1.00  0.00    -0.246 OA
BRANCH  41  43
ATOM     43  O   UNL     1      29.691  35.827  19.849  1.00  0.00    -0.477 OA
ATOM     44  H   UNL     1      29.989  35.276  20.625  1.00  0.00     0.296 HD
ENDBRANCH  41  43
ENDBRANCH   1  41
BRANCH   3  45
ATOM     45  O   UNL     1      28.265  34.958  15.310  1.00  0.00    -0.391 OA
ATOM     46  H   UNL     1      27.793  34.093  15.208  1.00  0.00     0.211 HD
ENDBRANCH   3  45
BRANCH   5  47
ATOM     47  C   UNL     1      30.121  38.156  15.346  1.00  0.00     0.176 C 
BRANCH  47  48
ATOM     48  O   UNL     1      28.995  38.703  14.696  1.00  0.00    -0.388 OA
ATOM     49  H   UNL     1      29.228  38.707  13.734  1.00  0.00     0.211 HD
ENDBRANCH  47  48
BRANCH  47  50
ATOM     50  C   UNL     1      30.865  37.300  14.423  1.00  0.00     0.165 C 
BRANCH  50  51
ATOM     51  O   UNL     1      32.259  37.492  14.407  1.00  0.00    -0.388 OA
ATOM     52  H   UNL     1      32.709  36.609  14.567  1.00  0.00     0.211 HD
ENDBRANCH  50  51
BRANCH  50  53
ATOM     53  C   UNL     1      30.385  37.204  13.025  1.00  0.00     0.154 C 
BRANCH  53  54
ATOM     54  N   UNL     1      29.436  36.179  12.787  1.00  0.00    -0.319 N 
ATOM     55  C   UNL     1      28.075  36.313  12.477  1.00  0.00     0.407 C 
ATOM     56  H   UNL     1      29.829  35.158  12.860  1.00  0.00     0.167 HD
ATOM     57  O   UNL     1      27.543  37.431  12.396  1.00  0.00    -0.225 OA
BRANCH  55  58
ATOM     58  O   UNL     1      27.314  35.140  12.256  1.00  0.00    -0.443 OA
BRANCH  58  59
ATOM     59  C   UNL     1      25.931  35.199  12.498  1.00  0.00     0.294 C 
BRANCH  59  60
ATOM     60  C   UNL     1      25.501  33.985  13.208  1.00  0.00     0.120 A 
ATOM     61  C   UNL     1      24.478  33.158  12.821  1.00  0.00     0.138 A 
ATOM     62  N   UNL     1      26.004  33.459  14.340  1.00  0.00    -0.132 NA
ATOM     63  N   UNL     1      24.397  32.171  13.717  1.00  0.00    -0.246 N 
ATOM     64  N   UNL     1      25.332  32.379  14.623  1.00  0.00    -0.066 NA
BRANCH  63  65
ATOM     65  C   UNL     1      23.426  31.098  13.634  1.00  0.00     0.065 C 
ATOM     66  C   UNL     1      23.038  30.694  15.021  1.00  0.00     0.034 C 
ATOM     67  C   UNL     1      22.246  31.529  12.786  1.00  0.00     0.034 C 
ATOM     68  C   UNL     1      24.051  29.895  12.950  1.00  0.00     0.034 C 
ATOM     69  C   UNL     1      22.001  29.600  14.983  1.00  0.00    -0.008 C 
ATOM     70  C   UNL     1      21.200  30.454  12.815  1.00  0.00    -0.008 C 
ATOM     71  C   UNL     1      22.999  28.813  12.886  1.00  0.00    -0.008 C 
ATOM     72  C   UNL     1      22.581  28.404  14.270  1.00  0.00     0.007 C 
ATOM     73  C   UNL     1      20.805  30.125  14.222  1.00  0.00     0.007 C 
ATOM     74  C   UNL     1      21.775  29.229  12.119  1.00  0.00     0.007 C 
ENDBRANCH  63  65
ENDBRANCH  59  60
ENDBRANCH  58  59
ENDBRANCH  55  58
ENDBRANCH  53  54
ENDBRANCH  50  53
ENDBRANCH  47  50
ENDBRANCH   5  47
BRANCH   4  75
ATOM     75  N   UNL     1      27.169  37.879  17.148  1.00  0.00    -0.348 N 
ATOM     76  C   UNL     1      26.309  38.940  16.753  1.00  0.00     0.217 C 
ATOM     77  H   UNL     1      27.235  37.637  18.168  1.00  0.00     0.163 HD
ATOM     78  C   UNL     1      25.512  39.701  17.782  1.00  0.00     0.114 C 
ATOM     79  O   UNL     1      26.235  39.221  15.537  1.00  0.00    -0.275 OA
ENDBRANCH   4  75
TORSDOF 30
BEGIN_RES LYS A 131
REMARK  4 active torsions:
REMARK  status: ('A' for Active; 'I' for Inactive)
REMARK    1  A    between atoms: CA   and  CB  
REMARK    2  A    between atoms: CB   and  CG  
REMARK    3  A    between atoms: CG   and  CD  
REMARK    4  A    between atoms: CD   and  CE  
ROOT
ATOM      1  CA  LYS A 131      29.867  25.555  16.977  1.00 20.52     0.186 C 
ENDROOT
BRANCH   1   2
ATOM      2  CB  LYS A 131      28.345  25.722  17.026  1.00 20.94     0.034 C 
BRANCH   2   3
ATOM      3  CG  LYS A 131      27.601  24.402  16.890  1.00 22.96     0.005 C 
BRANCH   3   4
ATOM      4  CD  LYS A 131      26.632  24.180  18.019  1.00 24.33     0.041 C 
BRANCH   4   5
ATOM      5  CE  LYS A 131      25.360  23.536  17.477  1.00 26.91     0.338 C 
ATOM      6  NZ  LYS A 131      24.471  24.563  16.885  1.00 27.40     0.618 N 
ENDBRANCH   4   5
ENDBRANCH   3   4
ENDBRANCH   2   3
ENDBRANCH   1   2
END_RES LYS A 131
BEGIN_RES LYS A 135
REMARK  4 active torsions:
REMARK  status: ('A' for Active; 'I' for Inactive)
REMARK    5  A    between atoms: CA   and  CB  
REMARK    6  A    between atoms: CB   and  CG  
REMARK    7  A    between atoms: CG   and  CD  
REMARK    8  A    between atoms: CD   and  CE  
ROOT
ATOM      7  CA  LYS A 135      33.193  34.663   9.290  1.00 25.02     0.186 C 
ENDROOT
BRANCH   7   8
ATOM      8  CB  LYS A 135      32.060  35.360  10.034  1.00 26.63     0.034 C 
BRANCH   8   9
ATOM      9  CG  LYS A 135      30.710  34.732   9.800  1.00 29.45     0.005 C 
BRANCH   9  10
ATOM     10  CD  LYS A 135      30.469  34.515   8.315  1.00 32.00     0.041 C 
BRANCH  10  11
ATOM     11  CE  LYS A 135      29.028  34.827   7.958  1.00 34.25     0.338 C 
ATOM     12  NZ  LYS A 135      28.088  34.215   8.937  1.00 35.99     0.618 N 
ENDBRANCH  10  11
ENDBRANCH   9  10
ENDBRANCH   8   9
ENDBRANCH   7   8
END_RES LYS A 135
