REMARK VINA RESULT:    -4.496      4.558      9.406
REMARK INTER + INTRA:         -22.899
REMARK INTER:                 -10.491
REMARK INTRA:                 -12.408
REMARK UNBOUND:               -11.308
REMARK SMILES CC(=O)N[C@@H]1[C@@H](O)C[C@](OC[C@H]2O[C@@H](O[C@H]3[C@H](O)[C@@H](O)[C@H](OCCN=[N+]=[N-])O[C@@H]3CO)[C@H](O)[C@@H](O)[C@H]2O)(C(=O)O)O[C@H]1C(O)[C@H](O)CNC(=O)OCc1cn(CCN2CCCC2)nn1
REMARK SMILES IDX 9 1 8 2 6 3 5 4 42 5 41 6 10 7 11 8 12 9 14 10 13 11 32 12
REMARK SMILES IDX 34 13 36 14 15 15 16 16 29 17 28 18 21 19 17 20 19 21 30 22
REMARK SMILES IDX 31 23 22 25 23 26 24 27 25 28 26 29 27 30 18 31 20 33 33 35
REMARK SMILES IDX 35 37 37 39 38 41 39 42 40 43 7 45 43 47 44 48 45 50 46 51
REMARK SMILES IDX 47 53 48 54 49 55 50 57 51 58 52 59 53 60 54 61 64 62 55 63
REMARK SMILES IDX 63 64 56 65 57 66 58 67 59 68 62 69 60 70 61 71 4 72 2 73
REMARK SMILES IDX 1 75 3 76
REMARK H PARENT 31 24 18 32 20 34 33 36 35 38 37 40 40 44 7 46 44 49 46 52
REMARK H PARENT 48 56 4 74
REMARK Flexibility Score: inf
ROOT
ATOM      1  C   UNL     1      28.548  31.221  20.912  1.00  0.00     0.272 C 
ATOM      2  C   UNL     1      29.621  31.931  20.148  1.00  0.00     0.113 C 
ATOM      3  C   UNL     1      30.424  30.942  19.294  1.00  0.00     0.145 C 
ATOM      4  C   UNL     1      31.139  30.008  20.311  1.00  0.00     0.142 C 
ATOM      5  C   UNL     1      30.082  29.442  21.185  1.00  0.00     0.178 C 
ATOM      6  O   UNL     1      28.807  29.851  20.779  1.00  0.00    -0.332 OA
ENDROOT
BRANCH   1   7
ATOM      7  O   UNL     1      27.297  31.359  20.306  1.00  0.00    -0.338 OA
BRANCH   7   8
ATOM      8  C   UNL     1      26.570  30.245  20.096  1.00  0.00     0.199 C 
BRANCH   8   9
ATOM      9  C   UNL     1      26.229  30.022  18.625  1.00  0.00     0.179 C 
ATOM     10  C   UNL     1      26.277  31.006  16.553  1.00  0.00     0.282 C 
ATOM     11  O   UNL     1      26.891  30.888  17.771  1.00  0.00    -0.341 OA
ATOM     12  C   UNL     1      25.755  29.686  16.097  1.00  0.00     0.202 C 
ATOM     13  C   UNL     1      26.586  28.581  16.724  1.00  0.00     0.179 C 
ATOM     14  C   UNL     1      26.448  28.574  18.233  1.00  0.00     0.177 C 
BRANCH  10  15
ATOM     15  O   UNL     1      26.965  31.714  15.613  1.00  0.00    -0.341 OA
BRANCH  15  16
ATOM     16  C   UNL     1      28.015  32.472  15.910  1.00  0.00     0.184 C 
ATOM     17  C   UNL     1      27.912  33.957  15.624  1.00  0.00     0.178 C 
ATOM     18  O   UNL     1      28.822  34.595  16.473  1.00  0.00    -0.341 OA
ATOM     19  C   UNL     1      30.103  34.372  15.890  1.00  0.00     0.281 C 
ATOM     20  C   UNL     1      29.343  32.047  15.308  1.00  0.00     0.180 C 
ATOM     21  C   UNL     1      30.377  32.888  16.032  1.00  0.00     0.202 C 
BRANCH  17  22
ATOM     22  C   UNL     1      26.541  34.524  15.774  1.00  0.00     0.191 C 
BRANCH  22  23
ATOM     23  O   UNL     1      25.826  34.235  14.615  1.00  0.00    -0.394 OA
ATOM     24  H   UNL     1      25.695  33.250  14.532  1.00  0.00     0.210 HD
ENDBRANCH  22  23
ENDBRANCH  17  22
BRANCH  19  25
ATOM     25  O   UNL     1      30.984  35.035  16.682  1.00  0.00    -0.350 OA
BRANCH  25  26
ATOM     26  C   UNL     1      31.721  36.050  16.177  1.00  0.00     0.169 C 
BRANCH  26  27
ATOM     27  C   UNL     1      33.148  35.784  15.847  1.00  0.00     0.119 C 
BRANCH  27  28
ATOM     28  N   UNL     1      33.350  34.910  14.717  1.00  0.00    -0.092 NA
ATOM     29  N   UNL     1      33.017  35.282  13.601  1.00  0.00     0.001 N 
ATOM     30  N   UNL     1      32.718  35.808  12.524  1.00  0.00    -0.003 NA
ENDBRANCH  27  28
ENDBRANCH  26  27
ENDBRANCH  25  26
ENDBRANCH  19  25
BRANCH  20  31
ATOM     31  O   UNL     1      29.633  30.724  15.608  1.00  0.00    -0.387 OA
ATOM     32  H   UNL     1      30.123  30.250  14.909  1.00  0.00     0.211 HD
ENDBRANCH  20  31
BRANCH  21  33
ATOM     33  O   UNL     1      31.671  32.549  15.713  1.00  0.00    -0.385 OA
ATOM     34  H   UNL     1      32.375  33.074  16.130  1.00  0.00     0.211 HD
ENDBRANCH  21  33
ENDBRANCH  15  16
ENDBRANCH  10  15
BRANCH  12  35
ATOM     35  O   UNL     1      24.426  29.454  16.471  1.00  0.00    -0.385 OA
ATOM     36  H   UNL     1      24.013  28.764  15.874  1.00  0.00     0.211 HD
ENDBRANCH  12  35
BRANCH  13  37
ATOM     37  O   UNL     1      27.940  28.788  16.442  1.00  0.00    -0.387 OA
ATOM     38  H   UNL     1      28.069  28.891  15.446  1.00  0.00     0.211 HD
ENDBRANCH  13  37
BRANCH  14  39
ATOM     39  O   UNL     1      27.646  28.077  18.740  1.00  0.00    -0.387 OA
ATOM     40  H   UNL     1      28.178  27.807  17.935  1.00  0.00     0.211 HD
ENDBRANCH  14  39
ENDBRANCH   8   9
ENDBRANCH   7   8
ENDBRANCH   1   7
BRANCH   1  41
ATOM     41  C   UNL     1      28.484  31.585  22.352  1.00  0.00     0.364 C 
ATOM     42  O   UNL     1      27.590  31.030  23.061  1.00  0.00    -0.246 OA
BRANCH  41  43
ATOM     43  O   UNL     1      29.305  32.473  22.996  1.00  0.00    -0.477 OA
ATOM     44  H   UNL     1      29.176  33.451  23.119  1.00  0.00     0.296 HD
ENDBRANCH  41  43
ENDBRANCH   1  41
BRANCH   3  45
ATOM     45  O   UNL     1      29.601  30.140  18.544  1.00  0.00    -0.391 OA
ATOM     46  H   UNL     1      29.407  30.513  17.642  1.00  0.00     0.211 HD
ENDBRANCH   3  45
BRANCH   5  47
ATOM     47  C   UNL     1      30.029  27.938  21.056  1.00  0.00     0.176 C 
BRANCH  47  48
ATOM     48  O   UNL     1      31.112  27.378  20.404  1.00  0.00    -0.388 OA
ATOM     49  H   UNL     1      31.956  27.378  20.906  1.00  0.00     0.211 HD
ENDBRANCH  47  48
BRANCH  47  50
ATOM     50  C   UNL     1      29.630  27.135  22.231  1.00  0.00     0.165 C 
BRANCH  50  51
ATOM     51  O   UNL     1      30.337  25.978  22.463  1.00  0.00    -0.388 OA
ATOM     52  H   UNL     1      30.668  25.510  21.664  1.00  0.00     0.211 HD
ENDBRANCH  50  51
BRANCH  50  53
ATOM     53  C   UNL     1      28.181  27.139  22.594  1.00  0.00     0.154 C 
BRANCH  53  54
ATOM     54  N   UNL     1      27.311  26.959  21.492  1.00  0.00    -0.319 N 
ATOM     55  C   UNL     1      25.993  26.399  21.626  1.00  0.00     0.407 C 
ATOM     56  H   UNL     1      27.612  27.241  20.527  1.00  0.00     0.167 HD
ATOM     57  O   UNL     1      25.519  26.032  22.718  1.00  0.00    -0.225 OA
BRANCH  55  58
ATOM     58  O   UNL     1      25.178  26.248  20.505  1.00  0.00    -0.443 OA
BRANCH  58  59
ATOM     59  C   UNL     1      23.759  26.395  20.627  1.00  0.00     0.294 C 
BRANCH  59  60
ATOM     60  C   UNL     1      23.316  27.690  20.074  1.00  0.00     0.120 A 
ATOM     61  C   UNL     1      23.186  28.935  20.621  1.00  0.00     0.138 A 
ATOM     62  N   UNL     1      22.927  27.848  18.775  1.00  0.00    -0.132 NA
ATOM     63  N   UNL     1      22.745  29.786  19.695  1.00  0.00    -0.251 N 
ATOM     64  N   UNL     1      22.591  29.082  18.555  1.00  0.00    -0.067 NA
BRANCH  63  65
ATOM     65  C   UNL     1      22.456  31.182  19.785  1.00  0.00     0.161 C 
BRANCH  65  66
ATOM     66  C   UNL     1      23.144  32.023  18.775  1.00  0.00     0.108 C 
BRANCH  66  67
ATOM     67  N   UNL     1      22.388  32.771  17.861  1.00  0.00    -0.301 NA
ATOM     68  C   UNL     1      22.683  34.127  17.619  1.00  0.00     0.084 C 
ATOM     69  C   UNL     1      22.018  32.102  16.651  1.00  0.00     0.084 C 
ATOM     70  C   UNL     1      22.711  34.335  16.112  1.00  0.00     0.017 C 
ATOM     71  C   UNL     1      22.046  33.114  15.547  1.00  0.00     0.017 C 
ENDBRANCH  66  67
ENDBRANCH  65  66
ENDBRANCH  63  65
ENDBRANCH  59  60
ENDBRANCH  58  59
ENDBRANCH  55  58
ENDBRANCH  53  54
ENDBRANCH  50  53
ENDBRANCH  47  50
ENDBRANCH   5  47
BRANCH   4  72
ATOM     72  N   UNL     1      32.115  30.839  20.992  1.00  0.00    -0.348 N 
ATOM     73  C   UNL     1      33.196  30.322  21.762  1.00  0.00     0.217 C 
ATOM     74  H   UNL     1      32.056  31.872  20.938  1.00  0.00     0.163 HD
ATOM     75  C   UNL     1      34.144  31.277  22.434  1.00  0.00     0.114 C 
ATOM     76  O   UNL     1      33.337  29.102  21.865  1.00  0.00    -0.275 OA
ENDBRANCH   4  72
TORSDOF 32
BEGIN_RES LYS A 131
REMARK  4 active torsions:
REMARK  status: ('A' for Active; 'I' for Inactive)
REMARK    1  A    between atoms: CA   and  CB  
REMARK    2  A    between atoms: CB   and  CG  
REMARK    3  A    between atoms: CG   and  CD  
REMARK    4  A    between atoms: CD   and  CE  
ROOT
ATOM      1  CA  LYS A 131      29.867  25.555  16.977  1.00 20.52     0.186 C 
ENDROOT
BRANCH   1   2
ATOM      2  CB  LYS A 131      28.345  25.722  17.026  1.00 20.94     0.034 C 
BRANCH   2   3
ATOM      3  CG  LYS A 131      27.601  24.404  16.876  1.00 22.96     0.005 C 
BRANCH   3   4
ATOM      4  CD  LYS A 131      26.594  24.194  17.973  1.00 24.33     0.041 C 
BRANCH   4   5
ATOM      5  CE  LYS A 131      25.613  23.101  17.561  1.00 26.91     0.338 C 
ATOM      6  NZ  LYS A 131      24.400  23.695  16.950  1.00 27.40     0.618 N 
ENDBRANCH   4   5
ENDBRANCH   3   4
ENDBRANCH   2   3
ENDBRANCH   1   2
END_RES LYS A 131
BEGIN_RES LYS A 135
REMARK  4 active torsions:
REMARK  status: ('A' for Active; 'I' for Inactive)
REMARK    5  A    between atoms: CA   and  CB  
REMARK    6  A    between atoms: CB   and  CG  
REMARK    7  A    between atoms: CG   and  CD  
REMARK    8  A    between atoms: CD   and  CE  
ROOT
ATOM      7  CA  LYS A 135      33.193  34.663   9.290  1.00 25.02     0.186 C 
ENDROOT
BRANCH   7   8
ATOM      8  CB  LYS A 135      32.060  35.360  10.034  1.00 26.63     0.034 C 
BRANCH   8   9
ATOM      9  CG  LYS A 135      30.806  35.515   9.213  1.00 29.45     0.005 C 
BRANCH   9  10
ATOM     10  CD  LYS A 135      30.170  34.160   8.942  1.00 32.00     0.041 C 
BRANCH  10  11
ATOM     11  CE  LYS A 135      28.704  34.320   8.591  1.00 34.25     0.338 C 
ATOM     12  NZ  LYS A 135      27.832  33.719   9.638  1.00 35.99     0.618 N 
ENDBRANCH  10  11
ENDBRANCH   9  10
ENDBRANCH   8   9
ENDBRANCH   7   8
END_RES LYS A 135
