REMARK VINA RESULT:    -3.686      3.839     10.286
REMARK INTER + INTRA:         -21.755
REMARK INTER:                  -9.198
REMARK INTRA:                 -12.557
REMARK UNBOUND:               -12.359
REMARK SMILES CC(=O)N[C@@H]1[C@@H](O)C[C@](OC[C@H]2O[C@@H](O[C@H]3[C@H](O)[C@@H](O)[C@H](OCCN=[N+]=[N-])O[C@@H]3CO)[C@H](O)[C@@H](O)[C@H]2O)(C(=O)O)O[C@H]1C(O)[C@H](O)CNC(=O)OCc1cn(CC(=O)O)nn1
REMARK SMILES IDX 9 1 8 2 6 3 5 4 42 5 41 6 10 7 11 8 12 9 14 10 13 11 32 12
REMARK SMILES IDX 34 13 36 14 15 15 16 16 29 17 28 18 21 19 17 20 19 21 30 22
REMARK SMILES IDX 31 23 22 25 23 26 24 27 25 28 26 29 27 30 18 31 20 33 33 35
REMARK SMILES IDX 35 37 37 39 38 41 39 42 40 43 7 45 43 47 44 48 45 50 46 51
REMARK SMILES IDX 47 53 48 54 49 55 50 57 51 58 52 59 53 60 54 61 61 62 55 63
REMARK SMILES IDX 60 64 56 65 57 66 58 67 59 68 4 70 2 71 1 73 3 74
REMARK H PARENT 31 24 18 32 20 34 33 36 35 38 37 40 40 44 7 46 44 49 46 52
REMARK H PARENT 48 56 59 69 4 72
REMARK Flexibility Score: inf
ROOT
ATOM      1  C   UNL     1      31.022  34.441  15.354  1.00  0.00     0.272 C 
ATOM      2  C   UNL     1      32.404  34.760  14.861  1.00  0.00     0.113 C 
ATOM      3  C   UNL     1      33.081  35.909  15.481  1.00  0.00     0.145 C 
ATOM      4  C   UNL     1      32.189  36.879  16.247  1.00  0.00     0.142 C 
ATOM      5  C   UNL     1      30.809  36.709  15.692  1.00  0.00     0.178 C 
ATOM      6  O   UNL     1      30.457  35.404  16.130  1.00  0.00    -0.332 OA
ENDROOT
BRANCH   1   7
ATOM      7  O   UNL     1      30.992  33.221  16.065  1.00  0.00    -0.338 OA
BRANCH   7   8
ATOM      8  C   UNL     1      31.190  33.335  17.406  1.00  0.00     0.199 C 
BRANCH   8   9
ATOM      9  C   UNL     1      30.256  32.364  18.146  1.00  0.00     0.179 C 
ATOM     10  C   UNL     1      29.992  31.921  20.394  1.00  0.00     0.282 C 
ATOM     11  O   UNL     1      30.844  31.804  19.251  1.00  0.00    -0.341 OA
ATOM     12  C   UNL     1      29.922  33.380  20.660  1.00  0.00     0.202 C 
ATOM     13  C   UNL     1      28.958  33.955  19.609  1.00  0.00     0.179 C 
ATOM     14  C   UNL     1      28.925  33.035  18.418  1.00  0.00     0.177 C 
BRANCH  10  15
ATOM     15  O   UNL     1      30.505  31.123  21.373  1.00  0.00    -0.341 OA
BRANCH  15  16
ATOM     16  C   UNL     1      29.853  29.896  21.503  1.00  0.00     0.184 C 
ATOM     17  C   UNL     1      29.465  29.718  22.941  1.00  0.00     0.178 C 
ATOM     18  O   UNL     1      29.438  28.394  23.288  1.00  0.00    -0.341 OA
ATOM     19  C   UNL     1      28.987  27.510  22.341  1.00  0.00     0.281 C 
ATOM     20  C   UNL     1      30.757  28.749  21.107  1.00  0.00     0.180 C 
ATOM     21  C   UNL     1      29.891  27.486  21.121  1.00  0.00     0.202 C 
BRANCH  17  22
ATOM     22  C   UNL     1      28.096  30.331  23.170  1.00  0.00     0.191 C 
BRANCH  22  23
ATOM     23  O   UNL     1      28.323  31.670  23.497  1.00  0.00    -0.394 OA
ATOM     24  H   UNL     1      28.861  32.114  22.806  1.00  0.00     0.210 HD
ENDBRANCH  22  23
ENDBRANCH  17  22
BRANCH  19  25
ATOM     25  O   UNL     1      27.679  27.752  22.024  1.00  0.00    -0.350 OA
BRANCH  25  26
ATOM     26  C   UNL     1      27.323  27.384  20.751  1.00  0.00     0.169 C 
BRANCH  26  27
ATOM     27  C   UNL     1      25.926  26.837  20.620  1.00  0.00     0.119 C 
BRANCH  27  28
ATOM     28  N   UNL     1      25.455  26.285  21.892  1.00  0.00    -0.092 NA
ATOM     29  N   UNL     1      25.438  25.040  21.963  1.00  0.00     0.001 N 
ATOM     30  N   UNL     1      24.963  23.922  22.240  1.00  0.00    -0.003 NA
ENDBRANCH  27  28
ENDBRANCH  26  27
ENDBRANCH  25  26
ENDBRANCH  19  25
BRANCH  20  31
ATOM     31  O   UNL     1      31.277  28.869  19.843  1.00  0.00    -0.387 OA
ATOM     32  H   UNL     1      31.659  28.060  19.465  1.00  0.00     0.211 HD
ENDBRANCH  20  31
BRANCH  21  33
ATOM     33  O   UNL     1      30.670  26.345  21.143  1.00  0.00    -0.385 OA
ATOM     34  H   UNL     1      31.487  26.467  21.692  1.00  0.00     0.211 HD
ENDBRANCH  21  33
ENDBRANCH  15  16
ENDBRANCH  10  15
BRANCH  12  35
ATOM     35  O   UNL     1      29.608  33.772  21.930  1.00  0.00    -0.385 OA
ATOM     36  H   UNL     1      29.417  33.001  22.488  1.00  0.00     0.211 HD
ENDBRANCH  12  35
BRANCH  13  37
ATOM     37  O   UNL     1      29.446  35.204  19.257  1.00  0.00    -0.387 OA
ATOM     38  H   UNL     1      30.107  35.561  19.914  1.00  0.00     0.211 HD
ENDBRANCH  13  37
BRANCH  14  39
ATOM     39  O   UNL     1      28.614  33.831  17.316  1.00  0.00    -0.387 OA
ATOM     40  H   UNL     1      27.964  33.401  16.712  1.00  0.00     0.211 HD
ENDBRANCH  14  39
ENDBRANCH   8   9
ENDBRANCH   7   8
ENDBRANCH   1   7
BRANCH   1  41
ATOM     41  C   UNL     1      30.155  34.216  14.176  1.00  0.00     0.364 C 
ATOM     42  O   UNL     1      30.589  34.324  13.013  1.00  0.00    -0.246 OA
BRANCH  41  43
ATOM     43  O   UNL     1      28.820  33.873  14.309  1.00  0.00    -0.477 OA
ATOM     44  H   UNL     1      28.157  34.422  14.871  1.00  0.00     0.296 HD
ENDBRANCH  41  43
ENDBRANCH   1  41
BRANCH   3  45
ATOM     45  O   UNL     1      34.229  35.578  16.210  1.00  0.00    -0.391 OA
ATOM     46  H   UNL     1      34.800  36.338  16.413  1.00  0.00     0.211 HD
ENDBRANCH   3  45
BRANCH   5  47
ATOM     47  C   UNL     1      29.762  37.666  16.149  1.00  0.00     0.176 C 
BRANCH  47  48
ATOM     48  O   UNL     1      29.655  37.428  17.560  1.00  0.00    -0.388 OA
ATOM     49  H   UNL     1      29.232  38.222  17.994  1.00  0.00     0.211 HD
ENDBRANCH  47  48
BRANCH  47  50
ATOM     50  C   UNL     1      28.397  37.434  15.539  1.00  0.00     0.165 C 
BRANCH  50  51
ATOM     51  O   UNL     1      27.882  36.204  16.027  1.00  0.00    -0.388 OA
ATOM     52  H   UNL     1      27.975  35.547  15.304  1.00  0.00     0.211 HD
ENDBRANCH  50  51
BRANCH  50  53
ATOM     53  C   UNL     1      28.407  37.406  14.061  1.00  0.00     0.154 C 
BRANCH  53  54
ATOM     54  N   UNL     1      27.532  36.407  13.519  1.00  0.00    -0.319 N 
ATOM     55  C   UNL     1      26.256  36.606  12.946  1.00  0.00     0.407 C 
ATOM     56  H   UNL     1      27.830  35.365  13.519  1.00  0.00     0.167 HD
ATOM     57  O   UNL     1      25.749  37.728  12.868  1.00  0.00    -0.225 OA
BRANCH  55  58
ATOM     58  O   UNL     1      25.496  35.546  12.438  1.00  0.00    -0.443 OA
BRANCH  58  59
ATOM     59  C   UNL     1      24.530  34.891  13.242  1.00  0.00     0.294 C 
BRANCH  59  60
ATOM     60  C   UNL     1      25.192  33.950  14.198  1.00  0.00     0.120 A 
ATOM     61  C   UNL     1      25.185  32.564  14.135  1.00  0.00     0.139 A 
ATOM     62  N   UNL     1      25.912  34.256  15.288  1.00  0.00    -0.132 NA
ATOM     63  N   UNL     1      25.893  32.094  15.177  1.00  0.00    -0.241 N 
ATOM     64  N   UNL     1      26.324  33.140  15.864  1.00  0.00    -0.066 NA
BRANCH  63  65
ATOM     65  C   UNL     1      26.160  30.694  15.520  1.00  0.00     0.268 C 
BRANCH  65  66
ATOM     66  C   UNL     1      27.535  30.607  16.044  1.00  0.00     0.325 C 
ATOM     67  O   UNL     1      27.788  29.892  17.025  1.00  0.00    -0.250 OA
BRANCH  66  68
ATOM     68  O   UNL     1      28.544  31.327  15.438  1.00  0.00    -0.480 OA
ATOM     69  H   UNL     1      28.995  32.106  15.869  1.00  0.00     0.296 HD
ENDBRANCH  66  68
ENDBRANCH  65  66
ENDBRANCH  63  65
ENDBRANCH  59  60
ENDBRANCH  58  59
ENDBRANCH  55  58
ENDBRANCH  53  54
ENDBRANCH  50  53
ENDBRANCH  47  50
ENDBRANCH   5  47
BRANCH   4  70
ATOM     70  N   UNL     1      32.742  38.189  16.261  1.00  0.00    -0.348 N 
ATOM     71  C   UNL     1      33.565  38.668  17.339  1.00  0.00     0.217 C 
ATOM     72  H   UNL     1      32.581  38.848  15.473  1.00  0.00     0.163 HD
ATOM     73  C   UNL     1      34.100  40.047  17.269  1.00  0.00     0.114 C 
ATOM     74  O   UNL     1      33.829  37.937  18.322  1.00  0.00    -0.275 OA
ENDBRANCH   4  70
TORSDOF 32
BEGIN_RES LYS A 131
REMARK  4 active torsions:
REMARK  status: ('A' for Active; 'I' for Inactive)
REMARK    1  A    between atoms: CA   and  CB  
REMARK    2  A    between atoms: CB   and  CG  
REMARK    3  A    between atoms: CG   and  CD  
REMARK    4  A    between atoms: CD   and  CE  
ROOT
ATOM      1  CA  LYS A 131      29.867  25.555  16.977  1.00 20.52     0.186 C 
ENDROOT
BRANCH   1   2
ATOM      2  CB  LYS A 131      28.345  25.722  17.026  1.00 20.94     0.034 C 
BRANCH   2   3
ATOM      3  CG  LYS A 131      27.601  24.402  16.896  1.00 22.96     0.005 C 
BRANCH   3   4
ATOM      4  CD  LYS A 131      26.638  24.181  18.029  1.00 24.33     0.041 C 
BRANCH   4   5
ATOM      5  CE  LYS A 131      25.276  24.760  17.659  1.00 26.91     0.338 C 
ATOM      6  NZ  LYS A 131      24.478  23.768  16.901  1.00 27.40     0.618 N 
ENDBRANCH   4   5
ENDBRANCH   3   4
ENDBRANCH   2   3
ENDBRANCH   1   2
END_RES LYS A 131
BEGIN_RES LYS A 135
REMARK  4 active torsions:
REMARK  status: ('A' for Active; 'I' for Inactive)
REMARK    5  A    between atoms: CA   and  CB  
REMARK    6  A    between atoms: CB   and  CG  
REMARK    7  A    between atoms: CG   and  CD  
REMARK    8  A    between atoms: CD   and  CE  
ROOT
ATOM      7  CA  LYS A 135      33.193  34.663   9.290  1.00 25.02     0.186 C 
ENDROOT
BRANCH   7   8
ATOM      8  CB  LYS A 135      32.060  35.360  10.034  1.00 26.63     0.034 C 
BRANCH   8   9
ATOM      9  CG  LYS A 135      30.785  35.457   9.236  1.00 29.45     0.005 C 
BRANCH   9  10
ATOM     10  CD  LYS A 135      30.164  34.082   9.048  1.00 32.00     0.041 C 
BRANCH  10  11
ATOM     11  CE  LYS A 135      28.650  34.175   9.054  1.00 34.25     0.338 C 
ATOM     12  NZ  LYS A 135      28.125  34.273  10.445  1.00 35.99     0.618 N 
ENDBRANCH  10  11
ENDBRANCH   9  10
ENDBRANCH   8   9
ENDBRANCH   7   8
END_RES LYS A 135
