REMARK VINA RESULT:    -4.469      3.221      6.415
REMARK INTER + INTRA:         -22.473
REMARK INTER:                 -11.772
REMARK INTRA:                 -10.701
REMARK UNBOUND:               -10.427
REMARK SMILES CCN(CC)CCn1cc(COC(=O)NC[C@@H](O)C(O)[C@@H]2O[C@@](OC[C@H]3O[C@@H](O[C@H]4[C@H](O)[C@@H](O)[C@H](OCCN=[N+]=[N-])O[C@@H]4CO)[C@H](O)[C@@H](O)[C@H]3O)(C(=O)O)C[C@H](O)[C@H]2NC(C)=O)nn1
REMARK SMILES IDX 19 1 21 2 23 3 55 4 22 5 56 6 58 7 24 8 25 9 26 10 28 11
REMARK SMILES IDX 27 12 46 13 48 14 50 15 29 16 30 17 43 18 42 19 35 20 31 21
REMARK SMILES IDX 33 22 44 23 45 24 36 26 37 27 38 28 39 29 40 30 41 31 32 32
REMARK SMILES IDX 34 34 47 36 49 38 51 40 52 42 53 43 54 44 57 46 59 48 60 49
REMARK SMILES IDX 61 51 62 52 20 53 17 55 18 56 16 58 15 59 13 60 14 62 12 63
REMARK SMILES IDX 11 64 10 65 9 66 63 67 8 68 64 69 7 70 6 71 3 72 2 73 1 74
REMARK SMILES IDX 4 75 5 76
REMARK H PARENT 45 25 32 33 34 35 47 37 49 39 51 41 54 45 57 47 59 50 20 54
REMARK H PARENT 18 57 15 61
REMARK Flexibility Score: inf
ROOT
ATOM      1  C   UNL     1      26.585  39.074   6.742  1.00  0.00     0.176 C 
ENDROOT
BRANCH   1   2
ATOM      2  C   UNL     1      27.715  39.791   7.433  1.00  0.00     0.178 C 
ATOM      3  C   UNL     1      29.854  39.542   8.245  1.00  0.00     0.272 C 
ATOM      4  C   UNL     1      29.641  41.056   8.392  1.00  0.00     0.113 C 
ATOM      5  O   UNL     1      28.800  38.960   7.576  1.00  0.00    -0.332 OA
ATOM      6  C   UNL     1      28.371  41.415   9.093  1.00  0.00     0.145 C 
ATOM      7  C   UNL     1      27.360  40.292   8.816  1.00  0.00     0.142 C 
BRANCH   3   8
ATOM      8  O   UNL     1      30.071  39.053   9.511  1.00  0.00    -0.338 OA
BRANCH   8   9
ATOM      9  C   UNL     1      29.590  37.793   9.766  1.00  0.00     0.199 C 
BRANCH   9  10
ATOM     10  C   UNL     1      28.741  37.769  11.049  1.00  0.00     0.179 C 
ATOM     11  C   UNL     1      28.706  36.252  12.847  1.00  0.00     0.282 C 
ATOM     12  O   UNL     1      28.743  36.491  11.481  1.00  0.00    -0.341 OA
ATOM     13  C   UNL     1      28.063  37.350  13.597  1.00  0.00     0.202 C 
ATOM     14  C   UNL     1      28.672  38.702  13.348  1.00  0.00     0.179 C 
ATOM     15  C   UNL     1      29.406  38.692  12.025  1.00  0.00     0.177 C 
BRANCH  11  16
ATOM     16  O   UNL     1      30.008  35.908  13.182  1.00  0.00    -0.341 OA
BRANCH  16  17
ATOM     17  C   UNL     1      30.183  35.530  14.466  1.00  0.00     0.184 C 
ATOM     18  C   UNL     1      31.634  35.387  14.846  1.00  0.00     0.178 C 
ATOM     19  O   UNL     1      31.690  35.097  16.240  1.00  0.00    -0.341 OA
ATOM     20  C   UNL     1      31.433  33.754  16.406  1.00  0.00     0.281 C 
ATOM     21  C   UNL     1      29.514  34.202  14.805  1.00  0.00     0.180 C 
ATOM     22  C   UNL     1      30.438  33.230  15.465  1.00  0.00     0.202 C 
BRANCH  18  23
ATOM     23  C   UNL     1      32.513  36.531  14.495  1.00  0.00     0.191 C 
BRANCH  23  24
ATOM     24  O   UNL     1      31.858  37.703  14.852  1.00  0.00    -0.394 OA
ATOM     25  H   UNL     1      32.444  38.499  14.868  1.00  0.00     0.210 HD
ENDBRANCH  23  24
ENDBRANCH  18  23
BRANCH  20  26
ATOM     26  O   UNL     1      31.203  33.430  17.740  1.00  0.00    -0.350 OA
BRANCH  26  27
ATOM     27  C   UNL     1      30.485  32.289  17.939  1.00  0.00     0.169 C 
BRANCH  27  28
ATOM     28  C   UNL     1      29.803  32.247  19.294  1.00  0.00     0.119 C 
BRANCH  28  29
ATOM     29  N   UNL     1      30.688  31.715  20.311  1.00  0.00    -0.092 NA
ATOM     30  N   UNL     1      31.218  30.600  20.223  1.00  0.00     0.001 N 
ATOM     31  N   UNL     1      31.347  29.382  20.353  1.00  0.00    -0.003 NA
ENDBRANCH  28  29
ENDBRANCH  27  28
ENDBRANCH  26  27
ENDBRANCH  20  26
BRANCH  21  32
ATOM     32  O   UNL     1      28.441  34.455  15.638  1.00  0.00    -0.387 OA
ATOM     33  H   UNL     1      28.541  34.098  16.544  1.00  0.00     0.211 HD
ENDBRANCH  21  32
BRANCH  22  34
ATOM     34  O   UNL     1      31.083  32.407  14.509  1.00  0.00    -0.385 OA
ATOM     35  H   UNL     1      32.053  32.469  14.710  1.00  0.00     0.211 HD
ENDBRANCH  22  34
ENDBRANCH  16  17
ENDBRANCH  11  16
BRANCH  13  36
ATOM     36  O   UNL     1      26.704  37.437  13.177  1.00  0.00    -0.385 OA
ATOM     37  H   UNL     1      26.586  38.144  12.518  1.00  0.00     0.211 HD
ENDBRANCH  13  36
BRANCH  14  38
ATOM     38  O   UNL     1      29.477  39.157  14.380  1.00  0.00    -0.387 OA
ATOM     39  H   UNL     1      29.005  39.263  15.222  1.00  0.00     0.211 HD
ENDBRANCH  14  38
BRANCH  15  40
ATOM     40  O   UNL     1      30.698  38.240  12.258  1.00  0.00    -0.387 OA
ATOM     41  H   UNL     1      30.997  37.648  11.509  1.00  0.00     0.211 HD
ENDBRANCH  15  40
ENDBRANCH   9  10
ENDBRANCH   8   9
ENDBRANCH   3   8
BRANCH   3  42
ATOM     42  C   UNL     1      31.077  39.424   7.413  1.00  0.00     0.364 C 
ATOM     43  O   UNL     1      32.236  39.445   7.952  1.00  0.00    -0.246 OA
BRANCH  42  44
ATOM     44  O   UNL     1      31.080  39.289   6.039  1.00  0.00    -0.477 OA
ATOM     45  H   UNL     1      31.550  38.501   5.608  1.00  0.00     0.296 HD
ENDBRANCH  42  44
ENDBRANCH   3  42
BRANCH   6  46
ATOM     46  O   UNL     1      28.499  41.704  10.429  1.00  0.00    -0.391 OA
ATOM     47  H   UNL     1      27.586  41.732  10.814  1.00  0.00     0.211 HD
ENDBRANCH   6  46
BRANCH   7  48
ATOM     48  N   UNL     1      26.019  40.745   8.962  1.00  0.00    -0.348 N 
ATOM     49  C   UNL     1      25.210  40.156  10.001  1.00  0.00     0.217 C 
ATOM     50  H   UNL     1      25.557  41.473   8.388  1.00  0.00     0.163 HD
ATOM     51  C   UNL     1      23.802  40.577  10.211  1.00  0.00     0.114 C 
ATOM     52  O   UNL     1      25.669  39.265  10.764  1.00  0.00    -0.275 OA
ENDBRANCH   7  48
ENDBRANCH   1   2
BRANCH   1  53
ATOM     53  O   UNL     1      26.665  39.342   5.382  1.00  0.00    -0.388 OA
ATOM     54  H   UNL     1      27.570  39.055   5.042  1.00  0.00     0.211 HD
ENDBRANCH   1  53
BRANCH   1  55
ATOM     55  C   UNL     1      26.804  37.600   6.966  1.00  0.00     0.165 C 
BRANCH  55  56
ATOM     56  O   UNL     1      27.031  36.978   5.733  1.00  0.00    -0.388 OA
ATOM     57  H   UNL     1      27.997  36.784   5.663  1.00  0.00     0.211 HD
ENDBRANCH  55  56
BRANCH  55  58
ATOM     58  C   UNL     1      25.717  36.892   7.687  1.00  0.00     0.154 C 
BRANCH  58  59
ATOM     59  N   UNL     1      25.961  36.697   9.075  1.00  0.00    -0.319 N 
ATOM     60  C   UNL     1      25.094  35.833   9.826  1.00  0.00     0.407 C 
ATOM     61  H   UNL     1      26.732  37.159   9.558  1.00  0.00     0.167 HD
ATOM     62  O   UNL     1      24.130  35.259   9.282  1.00  0.00    -0.225 OA
BRANCH  60  63
ATOM     63  O   UNL     1      25.355  35.654  11.175  1.00  0.00    -0.443 OA
BRANCH  63  64
ATOM     64  C   UNL     1      24.279  35.227  12.027  1.00  0.00     0.294 C 
BRANCH  64  65
ATOM     65  C   UNL     1      24.841  34.304  13.022  1.00  0.00     0.120 A 
ATOM     66  C   UNL     1      24.431  32.974  13.165  1.00  0.00     0.138 A 
ATOM     67  N   UNL     1      25.784  34.480  13.943  1.00  0.00    -0.132 NA
ATOM     68  N   UNL     1      25.141  32.409  14.158  1.00  0.00    -0.251 N 
ATOM     69  N   UNL     1      25.946  33.334  14.609  1.00  0.00    -0.067 NA
BRANCH  68  70
ATOM     70  C   UNL     1      25.046  31.047  14.646  1.00  0.00     0.161 C 
BRANCH  70  71
ATOM     71  C   UNL     1      26.239  30.794  15.542  1.00  0.00     0.108 C 
BRANCH  71  72
ATOM     72  N   UNL     1      25.882  30.479  16.894  1.00  0.00    -0.302 NA
BRANCH  72  73
ATOM     73  C   UNL     1      25.856  29.062  17.135  1.00  0.00     0.081 C 
ATOM     74  C   UNL     1      27.268  28.516  16.954  1.00  0.00     0.021 C 
ENDBRANCH  72  73
BRANCH  72  75
ATOM     75  C   UNL     1      24.702  31.153  17.338  1.00  0.00     0.081 C 
ATOM     76  C   UNL     1      25.002  32.054  18.519  1.00  0.00     0.021 C 
ENDBRANCH  72  75
ENDBRANCH  71  72
ENDBRANCH  70  71
ENDBRANCH  68  70
ENDBRANCH  64  65
ENDBRANCH  63  64
ENDBRANCH  60  63
ENDBRANCH  58  59
ENDBRANCH  55  58
ENDBRANCH   1  55
TORSDOF 34
BEGIN_RES LYS A 131
REMARK  4 active torsions:
REMARK  status: ('A' for Active; 'I' for Inactive)
REMARK    1  A    between atoms: CA   and  CB  
REMARK    2  A    between atoms: CB   and  CG  
REMARK    3  A    between atoms: CG   and  CD  
REMARK    4  A    between atoms: CD   and  CE  
ROOT
ATOM      1  CA  LYS A 131      29.867  25.555  16.977  1.00 20.52     0.186 C 
ENDROOT
BRANCH   1   2
ATOM      2  CB  LYS A 131      28.345  25.722  17.026  1.00 20.94     0.034 C 
BRANCH   2   3
ATOM      3  CG  LYS A 131      27.601  24.401  16.907  1.00 22.96     0.005 C 
BRANCH   3   4
ATOM      4  CD  LYS A 131      26.176  24.509  17.373  1.00 24.33     0.041 C 
BRANCH   4   5
ATOM      5  CE  LYS A 131      26.139  25.161  18.751  1.00 26.91     0.338 C 
ATOM      6  NZ  LYS A 131      24.913  25.979  18.906  1.00 27.40     0.618 N 
ENDBRANCH   4   5
ENDBRANCH   3   4
ENDBRANCH   2   3
ENDBRANCH   1   2
END_RES LYS A 131
BEGIN_RES LYS A 135
REMARK  4 active torsions:
REMARK  status: ('A' for Active; 'I' for Inactive)
REMARK    5  A    between atoms: CA   and  CB  
REMARK    6  A    between atoms: CB   and  CG  
REMARK    7  A    between atoms: CG   and  CD  
REMARK    8  A    between atoms: CD   and  CE  
ROOT
ATOM      7  CA  LYS A 135      33.193  34.663   9.290  1.00 25.02     0.186 C 
ENDROOT
BRANCH   7   8
ATOM      8  CB  LYS A 135      32.060  35.360  10.034  1.00 26.63     0.034 C 
BRANCH   8   9
ATOM      9  CG  LYS A 135      30.754  34.610   9.983  1.00 29.45     0.005 C 
BRANCH   9  10
ATOM     10  CD  LYS A 135      30.337  34.356   8.542  1.00 32.00     0.041 C 
BRANCH  10  11
ATOM     11  CE  LYS A 135      28.837  34.513   8.386  1.00 34.25     0.338 C 
ATOM     12  NZ  LYS A 135      28.107  33.787   9.463  1.00 35.99     0.618 N 
ENDBRANCH  10  11
ENDBRANCH   9  10
ENDBRANCH   8   9
ENDBRANCH   7   8
END_RES LYS A 135
