REMARK VINA RESULT:    -7.641      6.349     13.529
REMARK INTER + INTRA:         -21.801
REMARK INTER:                 -10.433
REMARK INTRA:                 -11.368
REMARK UNBOUND:                -1.206
REMARK SMILES CC(=O)N[C@@H]1[C@@H](O)C[C@](OC[C@H]2O[C@@H](O[C@H]3[C@H](O)[C@@H](O)[C@H](OCCN=[N+]=[N-])O[C@@H]3CO)[C@H](O)[C@@H](O)[C@H]2O)(C(=O)O)O[C@H]1C(O)[C@H](O)CNC(=O)OCc1cn(C2CCc3ccccc3NC2=O)nn1
REMARK SMILES IDX 43 1 42 2 9 3 8 4 41 5 6 6 5 7 10 8 11 9 12 10 14 11 13 12
REMARK SMILES IDX 32 13 34 14 36 15 15 16 16 17 29 18 28 19 21 20 17 21 19 22
REMARK SMILES IDX 30 23 31 24 22 26 23 27 24 28 25 29 26 30 27 31 18 32 20 34
REMARK SMILES IDX 33 36 35 38 37 40 38 42 39 43 40 44 7 46 4 48 2 49 1 51 3 52
REMARK SMILES IDX 44 53 45 55 46 56 47 58 48 59 49 60 50 62 51 63 52 64 53 65
REMARK SMILES IDX 54 66 69 67 55 68 68 69 56 70 57 71 66 73 65 74 67 75 64 77
REMARK SMILES IDX 59 78 63 79 60 80 62 81 61 82 58 83
REMARK H PARENT 31 25 18 33 20 35 33 37 35 39 37 41 40 45 7 47 4 50 44 54
REMARK H PARENT 46 57 48 61 65 76
REMARK Flexibility Score: 90.00
ROOT
ATOM      1  C   UNL     1      30.505  28.485  20.869  1.00  0.00     0.176 C 
ENDROOT
BRANCH   1   2
ATOM      2  C   UNL     1      30.368  29.955  21.315  1.00  0.00     0.178 C 
ATOM      3  C   UNL     1      28.444  31.276  20.824  1.00  0.00     0.272 C 
ATOM      4  C   UNL     1      29.239  32.131  19.921  1.00  0.00     0.113 C 
ATOM      5  O   UNL     1      29.130  30.325  21.582  1.00  0.00    -0.332 OA
ATOM      6  C   UNL     1      30.380  31.406  19.291  1.00  0.00     0.145 C 
ATOM      7  C   UNL     1      31.216  30.812  20.415  1.00  0.00     0.142 C 
BRANCH   3   8
ATOM      8  O   UNL     1      27.423  30.602  20.254  1.00  0.00    -0.338 OA
BRANCH   8   9
ATOM      9  C   UNL     1      26.312  31.145  19.784  1.00  0.00     0.199 C 
BRANCH   9  10
ATOM     10  C   UNL     1      24.954  30.616  19.947  1.00  0.00     0.179 C 
ATOM     11  C   UNL     1      23.905  28.695  20.695  1.00  0.00     0.282 C 
ATOM     12  O   UNL     1      25.097  29.417  20.724  1.00  0.00    -0.341 OA
ATOM     13  C   UNL     1      22.698  29.442  20.285  1.00  0.00     0.202 C 
ATOM     14  C   UNL     1      22.652  30.897  20.601  1.00  0.00     0.179 C 
ATOM     15  C   UNL     1      24.036  31.444  20.845  1.00  0.00     0.177 C 
BRANCH  11  16
ATOM     16  O   UNL     1      23.774  28.012  21.923  1.00  0.00    -0.341 OA
BRANCH  16  17
ATOM     17  C   UNL     1      24.958  27.474  22.353  1.00  0.00     0.184 C 
ATOM     18  C   UNL     1      24.943  25.988  22.600  1.00  0.00     0.178 C 
ATOM     19  O   UNL     1      26.264  25.635  22.882  1.00  0.00    -0.341 OA
ATOM     20  C   UNL     1      26.624  25.987  24.174  1.00  0.00     0.281 C 
ATOM     21  C   UNL     1      25.420  28.124  23.648  1.00  0.00     0.180 C 
ATOM     22  C   UNL     1      25.851  27.162  24.695  1.00  0.00     0.202 C 
BRANCH  18  23
ATOM     23  C   UNL     1      24.543  25.211  21.362  1.00  0.00     0.191 C 
BRANCH  23  24
ATOM     24  O   UNL     1      25.651  24.701  20.690  1.00  0.00    -0.394 OA
ATOM     25  H   UNL     1      25.554  23.755  20.448  1.00  0.00     0.210 HD
ENDBRANCH  23  24
ENDBRANCH  18  23
BRANCH  20  26
ATOM     26  O   UNL     1      27.990  26.194  24.209  1.00  0.00    -0.350 OA
BRANCH  26  27
ATOM     27  C   UNL     1      28.653  25.158  24.844  1.00  0.00     0.169 C 
BRANCH  27  28
ATOM     28  C   UNL     1      28.111  24.790  26.188  1.00  0.00     0.119 C 
BRANCH  28  29
ATOM     29  N   UNL     1      28.543  25.779  27.161  1.00  0.00    -0.092 NA
ATOM     30  N   UNL     1      27.738  26.541  27.726  1.00  0.00     0.001 N 
ATOM     31  N   UNL     1      26.834  26.850  28.516  1.00  0.00    -0.003 NA
ENDBRANCH  28  29
ENDBRANCH  27  28
ENDBRANCH  26  27
ENDBRANCH  20  26
BRANCH  21  32
ATOM     32  O   UNL     1      26.376  29.123  23.405  1.00  0.00    -0.387 OA
ATOM     33  H   UNL     1      26.738  29.429  24.277  1.00  0.00     0.211 HD
ENDBRANCH  21  32
BRANCH  22  34
ATOM     34  O   UNL     1      24.771  26.696  25.481  1.00  0.00    -0.385 OA
ATOM     35  H   UNL     1      23.911  27.015  25.152  1.00  0.00     0.211 HD
ENDBRANCH  22  34
ENDBRANCH  16  17
ENDBRANCH  11  16
BRANCH  13  36
ATOM     36  O   UNL     1      22.401  29.168  18.947  1.00  0.00    -0.385 OA
ATOM     37  H   UNL     1      23.008  29.688  18.358  1.00  0.00     0.211 HD
ENDBRANCH  13  36
BRANCH  14  38
ATOM     38  O   UNL     1      21.766  31.208  21.631  1.00  0.00    -0.387 OA
ATOM     39  H   UNL     1      21.593  30.355  22.111  1.00  0.00     0.211 HD
ENDBRANCH  14  38
BRANCH  15  40
ATOM     40  O   UNL     1      24.403  31.228  22.197  1.00  0.00    -0.387 OA
ATOM     41  H   UNL     1      24.458  30.254  22.303  1.00  0.00     0.211 HD
ENDBRANCH  15  40
ENDBRANCH   9  10
ENDBRANCH   8   9
ENDBRANCH   3   8
BRANCH   3  42
ATOM     42  C   UNL     1      27.948  32.186  21.926  1.00  0.00     0.364 C 
ATOM     43  O   UNL     1      28.097  33.385  21.884  1.00  0.00    -0.246 OA
BRANCH  42  44
ATOM     44  O   UNL     1      27.297  31.634  23.034  1.00  0.00    -0.477 OA
ATOM     45  H   UNL     1      27.074  32.175  23.854  1.00  0.00     0.296 HD
ENDBRANCH  42  44
ENDBRANCH   3  42
BRANCH   6  46
ATOM     46  O   UNL     1      29.838  30.377  18.504  1.00  0.00    -0.391 OA
ATOM     47  H   UNL     1      30.100  29.490  18.801  1.00  0.00     0.211 HD
ENDBRANCH   6  46
BRANCH   7  48
ATOM     48  N   UNL     1      31.908  31.874  21.064  1.00  0.00    -0.348 N 
ATOM     49  C   UNL     1      33.116  31.627  21.775  1.00  0.00     0.217 C 
ATOM     50  H   UNL     1      31.546  32.857  21.038  1.00  0.00     0.163 HD
ATOM     51  C   UNL     1      33.874  32.702  22.470  1.00  0.00     0.114 C 
ATOM     52  O   UNL     1      33.539  30.465  21.804  1.00  0.00    -0.275 OA
ENDBRANCH   7  48
ENDBRANCH   1   2
BRANCH   1  53
ATOM     53  O   UNL     1      31.771  28.010  21.227  1.00  0.00    -0.388 OA
ATOM     54  H   UNL     1      31.983  28.141  22.177  1.00  0.00     0.211 HD
ENDBRANCH   1  53
BRANCH   1  55
ATOM     55  C   UNL     1      29.486  27.591  21.477  1.00  0.00     0.165 C 
BRANCH  55  56
ATOM     56  O   UNL     1      29.959  26.351  21.886  1.00  0.00    -0.388 OA
ATOM     57  H   UNL     1      30.027  26.367  22.878  1.00  0.00     0.211 HD
ENDBRANCH  55  56
BRANCH  55  58
ATOM     58  C   UNL     1      28.246  27.360  20.676  1.00  0.00     0.154 C 
BRANCH  58  59
ATOM     59  N   UNL     1      28.277  27.852  19.333  1.00  0.00    -0.319 N 
ATOM     60  C   UNL     1      27.238  27.668  18.392  1.00  0.00     0.407 C 
ATOM     61  H   UNL     1      29.119  28.381  19.025  1.00  0.00     0.167 HD
ATOM     62  O   UNL     1      26.195  27.039  18.695  1.00  0.00    -0.225 OA
BRANCH  60  63
ATOM     63  O   UNL     1      27.381  28.188  17.127  1.00  0.00    -0.443 OA
BRANCH  63  64
ATOM     64  C   UNL     1      26.660  29.270  16.650  1.00  0.00     0.294 C 
BRANCH  64  65
ATOM     65  C   UNL     1      27.555  30.368  16.279  1.00  0.00     0.120 A 
ATOM     66  C   UNL     1      27.272  31.710  16.340  1.00  0.00     0.139 A 
ATOM     67  N   UNL     1      28.821  30.296  15.802  1.00  0.00    -0.132 NA
ATOM     68  N   UNL     1      28.348  32.416  15.910  1.00  0.00    -0.240 N 
ATOM     69  N   UNL     1      29.264  31.525  15.593  1.00  0.00    -0.066 NA
BRANCH  68  70
ATOM     70  C   UNL     1      28.464  33.881  15.820  1.00  0.00     0.198 C 
BRANCH  70  71
ATOM     71  C   UNL     1      29.382  34.296  16.908  1.00  0.00     0.042 CG0
ATOM     72  G   UNL     1      30.046  35.620  16.764  1.00  0.00     0.000 G0
ENDBRANCH  70  71
BRANCH  70  73
ATOM     73  C   UNL     1      28.905  34.162  14.450  1.00  0.00     0.249 C 
ATOM     74  N   UNL     1      30.209  34.383  13.935  1.00  0.00    -0.324 N 
ATOM     75  O   UNL     1      27.978  34.214  13.598  1.00  0.00    -0.272 OA
ATOM     76  H   UNL     1      30.386  34.201  12.923  1.00  0.00     0.170 HD
BRANCH  74  77
ATOM     77  C   UNL     1      31.320  34.847  14.731  1.00  0.00     0.044 A 
ATOM     78  C   UNL     1      31.313  35.407  16.003  1.00  0.00    -0.024 A 
ATOM     79  C   UNL     1      32.520  34.681  14.074  1.00  0.00     0.026 A 
ATOM     80  C   UNL     1      32.475  35.800  16.625  1.00  0.00     0.006 A 
ATOM     81  C   UNL     1      33.703  35.066  14.676  1.00  0.00     0.002 A 
ATOM     82  C   UNL     1      33.663  35.626  15.957  1.00  0.00     0.000 A 
BRANCH  78  83
ATOM     83  C   UNL     1      30.070  35.628  16.795  1.00  0.00     0.040 CG0
ATOM     84  G   UNL     1      29.390  34.309  16.911  1.00  0.00     0.000 G0
ENDBRANCH  78  83
ENDBRANCH  74  77
ENDBRANCH  70  73
ENDBRANCH  68  70
ENDBRANCH  64  65
ENDBRANCH  63  64
ENDBRANCH  60  63
ENDBRANCH  58  59
ENDBRANCH  55  58
ENDBRANCH   1  55
TORSDOF 30
BEGIN_RES LYS A 131
REMARK  4 active torsions:
REMARK  status: ('A' for Active; 'I' for Inactive)
REMARK    1  A    between atoms: CA   and  CB  
REMARK    2  A    between atoms: CB   and  CG  
REMARK    3  A    between atoms: CG   and  CD  
REMARK    4  A    between atoms: CD   and  CE  
ROOT
ATOM      1  CA  LYS A 131      29.867  25.555  16.977  1.00 20.52     0.186 C 
ENDROOT
BRANCH   1   2
ATOM      2  CB  LYS A 131      28.345  25.722  17.026  1.00 20.94     0.034 C 
BRANCH   2   3
ATOM      3  CG  LYS A 131      27.599  24.481  16.559  1.00 22.96     0.005 C 
BRANCH   3   4
ATOM      4  CD  LYS A 131      26.958  23.742  17.701  1.00 24.33     0.041 C 
BRANCH   4   5
ATOM      5  CE  LYS A 131      25.451  23.670  17.479  1.00 26.91     0.338 C 
ATOM      6  NZ  LYS A 131      24.962  22.287  17.685  1.00 27.40     0.618 N 
ENDBRANCH   4   5
ENDBRANCH   3   4
ENDBRANCH   2   3
ENDBRANCH   1   2
END_RES LYS A 131
BEGIN_RES LYS A 135
REMARK  4 active torsions:
REMARK  status: ('A' for Active; 'I' for Inactive)
REMARK    5  A    between atoms: CA   and  CB  
REMARK    6  A    between atoms: CB   and  CG  
REMARK    7  A    between atoms: CG   and  CD  
REMARK    8  A    between atoms: CD   and  CE  
ROOT
ATOM      7  CA  LYS A 135      33.193  34.663   9.290  1.00 25.02     0.186 C 
ENDROOT
BRANCH   7   8
ATOM      8  CB  LYS A 135      32.060  35.360  10.034  1.00 26.63     0.034 C 
BRANCH   8   9
ATOM      9  CG  LYS A 135      30.784  34.559  10.076  1.00 29.45     0.005 C 
BRANCH   9  10
ATOM     10  CD  LYS A 135      30.326  34.205   8.670  1.00 32.00     0.041 C 
BRANCH  10  11
ATOM     11  CE  LYS A 135      28.856  34.532   8.490  1.00 34.25     0.338 C 
ATOM     12  NZ  LYS A 135      28.013  33.752   9.438  1.00 35.99     0.618 N 
ENDBRANCH  10  11
ENDBRANCH   9  10
ENDBRANCH   8   9
ENDBRANCH   7   8
END_RES LYS A 135
