REMARK VINA RESULT:    -3.994      2.552      5.620
REMARK INTER + INTRA:         -22.868
REMARK INTER:                 -12.626
REMARK INTRA:                 -10.243
REMARK UNBOUND:               -13.037
REMARK SMILES CC(=O)N[C@@H]1[C@@H](O)C[C@](OC[C@H]2O[C@@H](O[C@H]3[C@H](O)[C@@H](O)[C@H](OCCN=[N+]=[N-])O[C@@H]3CO)[C@H](O)[C@@H](O)[C@H]2O)(C(=O)O)O[C@H]1C(O)[C@H](O)CNC(=O)OCc1cn([C@H]2C[C@H]3CC[C@@H](C2)N3C)nn1
REMARK SMILES IDX 9 1 8 2 6 3 5 4 42 5 41 6 10 7 11 8 12 9 14 10 13 11 32 12
REMARK SMILES IDX 34 13 36 14 15 15 16 16 29 17 28 18 21 19 17 20 19 21 30 22
REMARK SMILES IDX 31 23 22 25 23 26 24 27 25 28 26 29 27 30 18 31 20 33 33 35
REMARK SMILES IDX 35 37 37 39 38 41 39 42 40 43 7 45 43 47 44 48 45 50 46 51
REMARK SMILES IDX 47 53 48 54 49 55 50 57 51 58 52 59 53 60 54 61 66 62 55 63
REMARK SMILES IDX 65 64 56 65 62 66 57 67 61 68 58 69 63 70 60 71 59 72 64 73
REMARK SMILES IDX 4 74 2 75 1 77 3 78
REMARK H PARENT 31 24 18 32 20 34 33 36 35 38 37 40 40 44 7 46 44 49 46 52
REMARK H PARENT 48 56 4 76
REMARK Flexibility Score: inf
ROOT
ATOM      1  C   UNL     1      23.581  36.546   9.799  1.00  0.00     0.272 C 
ATOM      2  C   UNL     1      22.441  37.177   9.020  1.00  0.00     0.113 C 
ATOM      3  C   UNL     1      22.860  38.216   8.025  1.00  0.00     0.145 C 
ATOM      4  C   UNL     1      24.072  38.898   8.538  1.00  0.00     0.142 C 
ATOM      5  C   UNL     1      24.026  38.826  10.067  1.00  0.00     0.178 C 
ATOM      6  O   UNL     1      24.470  37.459  10.295  1.00  0.00    -0.332 OA
ENDROOT
BRANCH   1   7
ATOM      7  O   UNL     1      24.140  35.577   9.020  1.00  0.00    -0.338 OA
BRANCH   7   8
ATOM      8  C   UNL     1      25.462  35.332   9.084  1.00  0.00     0.199 C 
BRANCH   8   9
ATOM      9  C   UNL     1      26.343  35.811   7.992  1.00  0.00     0.179 C 
ATOM     10  C   UNL     1      27.020  37.775   7.106  1.00  0.00     0.282 C 
ATOM     11  O   UNL     1      26.805  37.124   8.327  1.00  0.00    -0.341 OA
ATOM     12  C   UNL     1      27.915  37.052   6.192  1.00  0.00     0.202 C 
ATOM     13  C   UNL     1      28.230  35.634   6.481  1.00  0.00     0.179 C 
ATOM     14  C   UNL     1      27.610  35.063   7.738  1.00  0.00     0.177 C 
BRANCH  10  15
ATOM     15  O   UNL     1      27.451  39.041   7.419  1.00  0.00    -0.341 OA
BRANCH  15  16
ATOM     16  C   UNL     1      28.844  39.126   7.513  1.00  0.00     0.184 C 
ATOM     17  C   UNL     1      29.381  39.062   8.904  1.00  0.00     0.178 C 
ATOM     18  O   UNL     1      29.280  40.183   9.664  1.00  0.00    -0.341 OA
ATOM     19  C   UNL     1      29.592  41.340   9.037  1.00  0.00     0.281 C 
ATOM     20  C   UNL     1      29.204  40.433   6.843  1.00  0.00     0.180 C 
ATOM     21  C   UNL     1      28.716  41.519   7.798  1.00  0.00     0.202 C 
BRANCH  17  22
ATOM     22  C   UNL     1      30.765  38.401   8.935  1.00  0.00     0.191 C 
BRANCH  22  23
ATOM     23  O   UNL     1      30.829  37.220   8.232  1.00  0.00    -0.394 OA
ATOM     24  H   UNL     1      31.740  36.861   8.167  1.00  0.00     0.210 HD
ENDBRANCH  22  23
ENDBRANCH  17  22
BRANCH  19  25
ATOM     25  O   UNL     1      30.906  41.601   8.787  1.00  0.00    -0.350 OA
BRANCH  25  26
ATOM     26  C   UNL     1      31.437  42.759   9.266  1.00  0.00     0.169 C 
BRANCH  26  27
ATOM     27  C   UNL     1      31.367  42.849  10.752  1.00  0.00     0.119 C 
BRANCH  27  28
ATOM     28  N   UNL     1      32.160  41.793  11.397  1.00  0.00    -0.092 NA
ATOM     29  N   UNL     1      31.622  41.020  12.208  1.00  0.00     0.001 N 
ATOM     30  N   UNL     1      30.891  40.068  12.548  1.00  0.00    -0.003 NA
ENDBRANCH  27  28
ENDBRANCH  26  27
ENDBRANCH  25  26
ENDBRANCH  19  25
BRANCH  20  31
ATOM     31  O   UNL     1      30.552  40.592   6.628  1.00  0.00    -0.387 OA
ATOM     32  H   UNL     1      30.990  39.792   6.296  1.00  0.00     0.211 HD
ENDBRANCH  20  31
BRANCH  21  33
ATOM     33  O   UNL     1      27.378  41.326   8.134  1.00  0.00    -0.385 OA
ATOM     34  H   UNL     1      26.914  42.190   7.968  1.00  0.00     0.211 HD
ENDBRANCH  21  33
ENDBRANCH  15  16
ENDBRANCH  10  15
BRANCH  12  35
ATOM     35  O   UNL     1      27.328  37.105   4.902  1.00  0.00    -0.385 OA
ATOM     36  H   UNL     1      27.910  37.541   4.244  1.00  0.00     0.211 HD
ENDBRANCH  12  35
BRANCH  13  37
ATOM     37  O   UNL     1      29.627  35.432   6.605  1.00  0.00    -0.387 OA
ATOM     38  H   UNL     1      29.820  35.329   7.592  1.00  0.00     0.211 HD
ENDBRANCH  13  37
BRANCH  14  39
ATOM     39  O   UNL     1      28.533  35.337   8.776  1.00  0.00    -0.387 OA
ATOM     40  H   UNL     1      28.475  36.338   8.876  1.00  0.00     0.211 HD
ENDBRANCH  14  39
ENDBRANCH   8   9
ENDBRANCH   7   8
ENDBRANCH   1   7
BRANCH   1  41
ATOM     41  C   UNL     1      22.904  35.923  10.980  1.00  0.00     0.364 C 
ATOM     42  O   UNL     1      22.943  36.434  12.096  1.00  0.00    -0.246 OA
BRANCH  41  43
ATOM     43  O   UNL     1      22.195  34.723  10.840  1.00  0.00    -0.477 OA
ATOM     44  H   UNL     1      21.215  34.726  11.156  1.00  0.00     0.296 HD
ENDBRANCH  41  43
ENDBRANCH   1  41
BRANCH   3  45
ATOM     45  O   UNL     1      23.100  37.529   6.811  1.00  0.00    -0.391 OA
ATOM     46  H   UNL     1      24.020  37.162   6.803  1.00  0.00     0.211 HD
ENDBRANCH   3  45
BRANCH   5  47
ATOM     47  C   UNL     1      24.995  39.700  10.757  1.00  0.00     0.176 C 
BRANCH  47  48
ATOM     48  O   UNL     1      26.309  39.336  10.229  1.00  0.00    -0.388 OA
ATOM     49  H   UNL     1      26.502  38.415  10.539  1.00  0.00     0.211 HD
ENDBRANCH  47  48
BRANCH  47  50
ATOM     50  C   UNL     1      25.249  39.381  12.223  1.00  0.00     0.165 C 
BRANCH  50  51
ATOM     51  O   UNL     1      24.943  40.571  12.928  1.00  0.00    -0.388 OA
ATOM     52  H   UNL     1      24.572  41.260  12.323  1.00  0.00     0.211 HD
ENDBRANCH  50  51
BRANCH  50  53
ATOM     53  C   UNL     1      26.591  38.898  12.598  1.00  0.00     0.154 C 
BRANCH  53  54
ATOM     54  N   UNL     1      26.481  37.436  12.775  1.00  0.00    -0.319 N 
ATOM     55  C   UNL     1      27.329  36.541  12.076  1.00  0.00     0.407 C 
ATOM     56  H   UNL     1      25.763  37.072  13.426  1.00  0.00     0.167 HD
ATOM     57  O   UNL     1      28.210  37.020  11.292  1.00  0.00    -0.225 OA
BRANCH  55  58
ATOM     58  O   UNL     1      27.203  35.172  12.244  1.00  0.00    -0.443 OA
BRANCH  58  59
ATOM     59  C   UNL     1      25.985  34.669  12.745  1.00  0.00     0.294 C 
BRANCH  59  60
ATOM     60  C   UNL     1      26.132  33.909  14.003  1.00  0.00     0.120 A 
ATOM     61  C   UNL     1      27.332  33.666  14.638  1.00  0.00     0.138 A 
ATOM     62  N   UNL     1      25.203  33.306  14.752  1.00  0.00    -0.132 NA
ATOM     63  N   UNL     1      27.114  32.933  15.737  1.00  0.00    -0.249 N 
ATOM     64  N   UNL     1      25.799  32.720  15.795  1.00  0.00    -0.067 NA
BRANCH  63  65
ATOM     65  C   UNL     1      28.159  32.483  16.644  1.00  0.00     0.112 C 
ATOM     66  C   UNL     1      28.817  33.700  17.198  1.00  0.00     0.046 C 
ATOM     67  C   UNL     1      29.048  31.538  15.903  1.00  0.00     0.046 C 
ATOM     68  C   UNL     1      30.310  33.638  17.256  1.00  0.00     0.058 C 
ATOM     69  C   UNL     1      30.512  31.682  16.182  1.00  0.00     0.058 C 
ATOM     70  N   UNL     1      30.791  32.307  17.457  1.00  0.00    -0.300 NA
ATOM     71  C   UNL     1      30.866  33.991  15.879  1.00  0.00     0.021 C 
ATOM     72  C   UNL     1      31.093  32.667  15.188  1.00  0.00     0.021 C 
ATOM     73  C   UNL     1      30.196  31.605  18.568  1.00  0.00     0.105 C 
ENDBRANCH  63  65
ENDBRANCH  59  60
ENDBRANCH  58  59
ENDBRANCH  55  58
ENDBRANCH  53  54
ENDBRANCH  50  53
ENDBRANCH  47  50
ENDBRANCH   5  47
BRANCH   4  74
ATOM     74  N   UNL     1      24.440  40.103   7.926  1.00  0.00    -0.348 N 
ATOM     75  C   UNL     1      23.542  41.218   7.801  1.00  0.00     0.217 C 
ATOM     76  H   UNL     1      25.407  40.257   7.562  1.00  0.00     0.163 HD
ATOM     77  C   UNL     1      24.035  42.473   7.143  1.00  0.00     0.114 C 
ATOM     78  O   UNL     1      22.381  41.162   8.223  1.00  0.00    -0.275 OA
ENDBRANCH   4  74
TORSDOF 30
BEGIN_RES LYS A 131
REMARK  4 active torsions:
REMARK  status: ('A' for Active; 'I' for Inactive)
REMARK    1  A    between atoms: CA   and  CB  
REMARK    2  A    between atoms: CB   and  CG  
REMARK    3  A    between atoms: CG   and  CD  
REMARK    4  A    between atoms: CD   and  CE  
ROOT
ATOM      1  CA  LYS A 131      29.867  25.555  16.977  1.00 20.52     0.186 C 
ENDROOT
BRANCH   1   2
ATOM      2  CB  LYS A 131      28.345  25.722  17.026  1.00 20.94     0.034 C 
BRANCH   2   3
ATOM      3  CG  LYS A 131      27.602  24.399  16.922  1.00 22.96     0.005 C 
BRANCH   3   4
ATOM      4  CD  LYS A 131      26.155  24.530  17.309  1.00 24.33     0.041 C 
BRANCH   4   5
ATOM      5  CE  LYS A 131      25.878  23.673  18.540  1.00 26.91     0.338 C 
ATOM      6  NZ  LYS A 131      25.510  24.526  19.694  1.00 27.40     0.618 N 
ENDBRANCH   4   5
ENDBRANCH   3   4
ENDBRANCH   2   3
ENDBRANCH   1   2
END_RES LYS A 131
BEGIN_RES LYS A 135
REMARK  4 active torsions:
REMARK  status: ('A' for Active; 'I' for Inactive)
REMARK    5  A    between atoms: CA   and  CB  
REMARK    6  A    between atoms: CB   and  CG  
REMARK    7  A    between atoms: CG   and  CD  
REMARK    8  A    between atoms: CD   and  CE  
ROOT
ATOM      7  CA  LYS A 135      33.193  34.663   9.290  1.00 25.02     0.186 C 
ENDROOT
BRANCH   7   8
ATOM      8  CB  LYS A 135      32.060  35.360  10.034  1.00 26.63     0.034 C 
BRANCH   8   9
ATOM      9  CG  LYS A 135      30.993  34.417  10.527  1.00 29.45     0.005 C 
BRANCH   9  10
ATOM     10  CD  LYS A 135      30.673  34.686  11.990  1.00 32.00     0.041 C 
BRANCH  10  11
ATOM     11  CE  LYS A 135      31.693  35.634  12.592  1.00 34.25     0.338 C 
ATOM     12  NZ  LYS A 135      31.030  36.681  13.418  1.00 35.99     0.618 N 
ENDBRANCH  10  11
ENDBRANCH   9  10
ENDBRANCH   8   9
ENDBRANCH   7   8
END_RES LYS A 135
