REMARK VINA RESULT:    -4.609      4.881     11.239
REMARK INTER + INTRA:         -23.347
REMARK INTER:                 -12.975
REMARK INTRA:                 -10.372
REMARK UNBOUND:               -10.521
REMARK SMILES CC(=O)N[C@@H]1[C@@H](O)C[C@](OC[C@H]2O[C@@H](O[C@H]3[C@H](O)[C@@H](O)[C@H](OCCN=[N+]=[N-])O[C@@H]3CO)[C@H](O)[C@@H](O)[C@H]2O)(C(=O)O)O[C@H]1C(O)[C@H](O)CNC(=O)OCc1cn(CCCCCC(=O)O)nn1
REMARK SMILES IDX 47 1 45 2 43 3 42 4 9 5 8 6 41 7 6 8 5 9 10 10 11 11 12 12
REMARK SMILES IDX 14 13 13 14 32 15 34 16 36 17 15 18 16 19 29 20 28 21 21 22
REMARK SMILES IDX 17 23 19 24 30 25 31 26 22 28 23 29 24 30 25 31 26 32 27 33
REMARK SMILES IDX 18 34 20 36 33 38 35 40 37 42 38 44 39 45 40 46 7 48 4 50
REMARK SMILES IDX 2 51 1 53 3 54 44 55 46 57 48 59 49 60 50 62 51 63 52 64
REMARK SMILES IDX 53 65 54 66 65 67 55 68 64 69 56 70 57 71 58 72 59 73 60 74
REMARK SMILES IDX 61 75 62 76 63 77
REMARK H PARENT 31 27 18 35 20 37 33 39 35 41 37 43 40 47 7 49 4 52 44 56
REMARK H PARENT 46 58 48 61 63 78
REMARK Flexibility Score: inf
ROOT
ATOM      1  C   UNL     1      22.951  33.967  13.057  1.00  0.00     0.154 C 
ENDROOT
BRANCH   1   2
ATOM      2  C   UNL     1      24.270  34.432  13.624  1.00  0.00     0.165 C 
BRANCH   2   3
ATOM      3  C   UNL     1      24.296  35.920  13.496  1.00  0.00     0.176 C 
BRANCH   3   4
ATOM      4  C   UNL     1      25.579  36.516  13.030  1.00  0.00     0.178 C 
ATOM      5  C   UNL     1      27.826  36.433  13.170  1.00  0.00     0.272 C 
ATOM      6  C   UNL     1      27.748  37.190  11.883  1.00  0.00     0.113 C 
ATOM      7  O   UNL     1      26.647  36.367  13.899  1.00  0.00    -0.332 OA
ATOM      8  C   UNL     1      26.689  38.217  11.750  1.00  0.00     0.145 C 
ATOM      9  C   UNL     1      25.520  37.996  12.720  1.00  0.00     0.142 C 
BRANCH   5  10
ATOM     10  O   UNL     1      28.901  36.831  13.963  1.00  0.00    -0.338 OA
BRANCH  10  11
ATOM     11  C   UNL     1      30.090  37.041  13.343  1.00  0.00     0.199 C 
BRANCH  11  12
ATOM     12  C   UNL     1      31.161  36.459  14.246  1.00  0.00     0.179 C 
ATOM     13  C   UNL     1      31.689  35.482  16.188  1.00  0.00     0.282 C 
ATOM     14  O   UNL     1      30.680  35.556  15.182  1.00  0.00    -0.341 OA
ATOM     15  C   UNL     1      33.061  35.576  15.692  1.00  0.00     0.202 C 
ATOM     16  C   UNL     1      33.286  35.311  14.230  1.00  0.00     0.179 C 
ATOM     17  C   UNL     1      32.103  35.658  13.366  1.00  0.00     0.177 C 
BRANCH  13  18
ATOM     18  O   UNL     1      31.371  34.469  17.089  1.00  0.00    -0.341 OA
BRANCH  18  19
ATOM     19  C   UNL     1      30.315  33.703  16.762  1.00  0.00     0.184 C 
ATOM     20  C   UNL     1      29.507  33.272  17.948  1.00  0.00     0.178 C 
ATOM     21  O   UNL     1      28.270  32.848  17.419  1.00  0.00    -0.341 OA
ATOM     22  C   UNL     1      28.407  31.700  16.715  1.00  0.00     0.281 C 
ATOM     23  C   UNL     1      30.801  32.334  16.173  1.00  0.00     0.180 C 
ATOM     24  C   UNL     1      29.811  31.259  16.542  1.00  0.00     0.202 C 
BRANCH  20  25
ATOM     25  C   UNL     1      29.210  34.381  18.922  1.00  0.00     0.191 C 
BRANCH  25  26
ATOM     26  O   UNL     1      28.775  35.512  18.265  1.00  0.00    -0.394 OA
ATOM     27  H   UNL     1      29.537  36.148  18.226  1.00  0.00     0.210 HD
ENDBRANCH  25  26
ENDBRANCH  20  25
BRANCH  22  28
ATOM     28  O   UNL     1      27.738  31.716  15.484  1.00  0.00    -0.350 OA
BRANCH  28  29
ATOM     29  C   UNL     1      26.393  31.954  15.613  1.00  0.00     0.169 C 
BRANCH  29  30
ATOM     30  C   UNL     1      25.612  30.725  15.172  1.00  0.00     0.119 C 
BRANCH  30  31
ATOM     31  N   UNL     1      24.956  30.961  13.895  1.00  0.00    -0.092 NA
ATOM     32  N   UNL     1      24.147  30.121  13.457  1.00  0.00     0.001 N 
ATOM     33  N   UNL     1      23.724  29.191  12.769  1.00  0.00    -0.003 NA
ENDBRANCH  30  31
ENDBRANCH  29  30
ENDBRANCH  28  29
ENDBRANCH  22  28
BRANCH  23  34
ATOM     34  O   UNL     1      30.814  32.436  14.783  1.00  0.00    -0.387 OA
ATOM     35  H   UNL     1      30.880  33.403  14.532  1.00  0.00     0.211 HD
ENDBRANCH  23  34
BRANCH  24  36
ATOM     36  O   UNL     1      30.277  30.420  17.562  1.00  0.00    -0.385 OA
ATOM     37  H   UNL     1      30.867  29.703  17.219  1.00  0.00     0.211 HD
ENDBRANCH  24  36
ENDBRANCH  18  19
ENDBRANCH  13  18
BRANCH  15  38
ATOM     38  O   UNL     1      33.618  36.867  15.923  1.00  0.00    -0.385 OA
ATOM     39  H   UNL     1      33.365  37.192  16.806  1.00  0.00     0.211 HD
ENDBRANCH  15  38
BRANCH  16  40
ATOM     40  O   UNL     1      33.601  33.965  13.968  1.00  0.00    -0.387 OA
ATOM     41  H   UNL     1      33.569  33.745  13.020  1.00  0.00     0.211 HD
ENDBRANCH  16  40
BRANCH  17  42
ATOM     42  O   UNL     1      31.406  34.467  13.038  1.00  0.00    -0.387 OA
ATOM     43  H   UNL     1      31.674  34.267  12.087  1.00  0.00     0.211 HD
ENDBRANCH  17  42
ENDBRANCH  11  12
ENDBRANCH  10  11
ENDBRANCH   5  10
BRANCH   5  44
ATOM     44  C   UNL     1      28.129  35.020  12.808  1.00  0.00     0.364 C 
ATOM     45  O   UNL     1      28.075  34.639  11.618  1.00  0.00    -0.246 OA
BRANCH  44  46
ATOM     46  O   UNL     1      28.472  34.117  13.783  1.00  0.00    -0.477 OA
ATOM     47  H   UNL     1      27.872  33.319  14.052  1.00  0.00     0.296 HD
ENDBRANCH  44  46
ENDBRANCH   5  44
BRANCH   8  48
ATOM     48  O   UNL     1      27.131  39.536  11.759  1.00  0.00    -0.391 OA
ATOM     49  H   UNL     1      28.115  39.523  11.752  1.00  0.00     0.211 HD
ENDBRANCH   8  48
BRANCH   9  50
ATOM     50  N   UNL     1      24.289  38.447  12.172  1.00  0.00    -0.348 N 
ATOM     51  C   UNL     1      23.456  39.304  12.931  1.00  0.00     0.217 C 
ATOM     52  H   UNL     1      23.990  38.164  11.229  1.00  0.00     0.163 HD
ATOM     53  C   UNL     1      22.165  39.793  12.380  1.00  0.00     0.114 C 
ATOM     54  O   UNL     1      23.767  39.688  14.096  1.00  0.00    -0.275 OA
ENDBRANCH   9  50
ENDBRANCH   3   4
BRANCH   3  55
ATOM     55  O   UNL     1      23.923  36.543  14.709  1.00  0.00    -0.388 OA
ATOM     56  H   UNL     1      24.724  36.869  15.177  1.00  0.00     0.211 HD
ENDBRANCH   3  55
ENDBRANCH   2   3
BRANCH   2  57
ATOM     57  O   UNL     1      25.288  33.855  12.873  1.00  0.00    -0.388 OA
ATOM     58  H   UNL     1      26.037  34.503  12.856  1.00  0.00     0.211 HD
ENDBRANCH   2  57
ENDBRANCH   1   2
BRANCH   1  59
ATOM     59  N   UNL     1      22.252  34.960  12.305  1.00  0.00    -0.319 N 
ATOM     60  C   UNL     1      20.850  35.129  12.544  1.00  0.00     0.407 C 
ATOM     61  H   UNL     1      22.709  35.559  11.600  1.00  0.00     0.167 HD
ATOM     62  O   UNL     1      20.259  34.419  13.395  1.00  0.00    -0.225 OA
BRANCH  60  63
ATOM     63  O   UNL     1      20.102  36.060  11.861  1.00  0.00    -0.443 OA
BRANCH  63  64
ATOM     64  C   UNL     1      19.607  35.891  10.580  1.00  0.00     0.294 C 
BRANCH  64  65
ATOM     65  C   UNL     1      20.542  36.119   9.472  1.00  0.00     0.120 A 
ATOM     66  C   UNL     1      21.621  36.965   9.448  1.00  0.00     0.138 A 
ATOM     67  N   UNL     1      20.480  35.526   8.258  1.00  0.00    -0.132 NA
ATOM     68  N   UNL     1      22.181  36.871   8.241  1.00  0.00    -0.252 N 
ATOM     69  N   UNL     1      21.472  35.999   7.553  1.00  0.00    -0.067 NA
BRANCH  68  70
ATOM     70  C   UNL     1      23.362  37.594   7.790  1.00  0.00     0.146 C 
BRANCH  70  71
ATOM     71  C   UNL     1      24.475  37.366   8.812  1.00  0.00     0.024 C 
BRANCH  71  72
ATOM     72  C   UNL     1      25.138  36.035   8.610  1.00  0.00     0.002 C 
BRANCH  72  73
ATOM     73  C   UNL     1      26.620  36.221   8.460  1.00  0.00     0.012 C 
BRANCH  73  74
ATOM     74  C   UNL     1      27.258  35.206   7.570  1.00  0.00     0.122 C 
BRANCH  74  75
ATOM     75  C   UNL     1      27.975  35.896   6.462  1.00  0.00     0.303 C 
ATOM     76  O   UNL     1      27.402  36.803   5.817  1.00  0.00    -0.252 OA
BRANCH  75  77
ATOM     77  O   UNL     1      29.280  35.552   6.126  1.00  0.00    -0.481 OA
ATOM     78  H   UNL     1      29.954  35.348   6.868  1.00  0.00     0.296 HD
ENDBRANCH  75  77
ENDBRANCH  74  75
ENDBRANCH  73  74
ENDBRANCH  72  73
ENDBRANCH  71  72
ENDBRANCH  70  71
ENDBRANCH  68  70
ENDBRANCH  64  65
ENDBRANCH  63  64
ENDBRANCH  60  63
ENDBRANCH   1  59
TORSDOF 36
BEGIN_RES LYS A 131
REMARK  4 active torsions:
REMARK  status: ('A' for Active; 'I' for Inactive)
REMARK    1  A    between atoms: CA   and  CB  
REMARK    2  A    between atoms: CB   and  CG  
REMARK    3  A    between atoms: CG   and  CD  
REMARK    4  A    between atoms: CD   and  CE  
ROOT
ATOM      1  CA  LYS A 131      29.867  25.555  16.977  1.00 20.52     0.186 C 
ENDROOT
BRANCH   1   2
ATOM      2  CB  LYS A 131      28.345  25.722  17.026  1.00 20.94     0.034 C 
BRANCH   2   3
ATOM      3  CG  LYS A 131      27.602  24.398  16.930  1.00 22.96     0.005 C 
BRANCH   3   4
ATOM      4  CD  LYS A 131      26.571  24.248  18.013  1.00 24.33     0.041 C 
BRANCH   4   5
ATOM      5  CE  LYS A 131      25.997  25.617  18.364  1.00 26.91     0.338 C 
ATOM      6  NZ  LYS A 131      25.872  25.767  19.833  1.00 27.40     0.618 N 
ENDBRANCH   4   5
ENDBRANCH   3   4
ENDBRANCH   2   3
ENDBRANCH   1   2
END_RES LYS A 131
BEGIN_RES LYS A 135
REMARK  4 active torsions:
REMARK  status: ('A' for Active; 'I' for Inactive)
REMARK    5  A    between atoms: CA   and  CB  
REMARK    6  A    between atoms: CB   and  CG  
REMARK    7  A    between atoms: CG   and  CD  
REMARK    8  A    between atoms: CD   and  CE  
ROOT
ATOM      7  CA  LYS A 135      33.193  34.663   9.290  1.00 25.02     0.186 C 
ENDROOT
BRANCH   7   8
ATOM      8  CB  LYS A 135      32.060  35.360  10.034  1.00 26.63     0.034 C 
BRANCH   8   9
ATOM      9  CG  LYS A 135      30.763  35.388   9.267  1.00 29.45     0.005 C 
BRANCH   9  10
ATOM     10  CD  LYS A 135      29.971  36.644   9.597  1.00 32.00     0.041 C 
BRANCH  10  11
ATOM     11  CE  LYS A 135      30.743  37.884   9.186  1.00 34.25     0.338 C 
ATOM     12  NZ  LYS A 135      30.241  38.423   7.892  1.00 35.99     0.618 N 
ENDBRANCH  10  11
ENDBRANCH   9  10
ENDBRANCH   8   9
ENDBRANCH   7   8
END_RES LYS A 135
