REMARK VINA RESULT:    -4.107      6.821     13.576
REMARK INTER + INTRA:         -21.054
REMARK INTER:                  -9.320
REMARK INTRA:                 -11.735
REMARK UNBOUND:               -10.944
REMARK SMILES CC(=O)N[C@@H]1[C@@H](O)C[C@](OC[C@H]2O[C@@H](O[C@H]3[C@H](O)[C@@H](O)[C@H](OCCN=[N+]=[N-])O[C@@H]3CO)[C@H](O)[C@@H](O)[C@H]2O)(C(=O)O)O[C@H]1C(O)[C@H](O)CNC(=O)OCc1cn(-c2cccnc2)nn1
REMARK SMILES IDX 9 1 8 2 6 3 5 4 42 5 41 6 10 7 11 8 12 9 14 10 13 11 32 12
REMARK SMILES IDX 34 13 36 14 15 15 16 16 29 17 28 18 21 19 17 20 19 21 30 22
REMARK SMILES IDX 31 23 22 25 23 26 24 27 25 28 26 29 27 30 18 31 20 33 33 35
REMARK SMILES IDX 35 37 37 39 38 41 39 42 40 43 7 45 43 47 44 48 45 50 46 51
REMARK SMILES IDX 47 53 48 54 49 55 50 57 51 58 52 59 53 60 54 61 63 62 55 63
REMARK SMILES IDX 62 64 56 65 57 66 61 67 58 68 60 69 59 70 4 71 2 72 1 74
REMARK SMILES IDX 3 75
REMARK H PARENT 31 24 18 32 20 34 33 36 35 38 37 40 40 44 7 46 44 49 46 52
REMARK H PARENT 48 56 4 73
REMARK Flexibility Score: inf
ROOT
ATOM      1  C   UNL     1      24.615  40.499   7.656  1.00  0.00     0.272 C 
ATOM      2  C   UNL     1      24.945  41.115   6.358  1.00  0.00     0.113 C 
ATOM      3  C   UNL     1      26.296  41.741   6.357  1.00  0.00     0.145 C 
ATOM      4  C   UNL     1      27.346  40.945   7.089  1.00  0.00     0.142 C 
ATOM      5  C   UNL     1      26.831  39.677   7.668  1.00  0.00     0.178 C 
ATOM      6  O   UNL     1      25.622  39.832   8.332  1.00  0.00    -0.332 OA
ENDROOT
BRANCH   1   7
ATOM      7  O   UNL     1      23.590  39.561   7.553  1.00  0.00    -0.338 OA
BRANCH   7   8
ATOM      8  C   UNL     1      23.435  38.699   8.591  1.00  0.00     0.199 C 
BRANCH   8   9
ATOM      9  C   UNL     1      23.534  37.275   8.011  1.00  0.00     0.179 C 
ATOM     10  C   UNL     1      23.621  36.168  10.074  1.00  0.00     0.282 C 
ATOM     11  O   UNL     1      24.194  36.470   8.858  1.00  0.00    -0.341 OA
ATOM     12  C   UNL     1      22.167  35.888   9.908  1.00  0.00     0.202 C 
ATOM     13  C   UNL     1      21.932  35.516   8.437  1.00  0.00     0.179 C 
ATOM     14  C   UNL     1      22.170  36.756   7.590  1.00  0.00     0.177 C 
BRANCH  10  15
ATOM     15  O   UNL     1      23.910  37.237  10.920  1.00  0.00    -0.341 OA
BRANCH  15  16
ATOM     16  C   UNL     1      24.968  37.035  11.744  1.00  0.00     0.184 C 
ATOM     17  C   UNL     1      24.693  37.163  13.211  1.00  0.00     0.178 C 
ATOM     18  O   UNL     1      25.650  36.400  13.881  1.00  0.00    -0.341 OA
ATOM     19  C   UNL     1      26.940  36.568  13.390  1.00  0.00     0.281 C 
ATOM     20  C   UNL     1      26.125  37.996  11.491  1.00  0.00     0.180 C 
ATOM     21  C   UNL     1      27.128  37.870  12.647  1.00  0.00     0.202 C 
BRANCH  17  22
ATOM     22  C   UNL     1      23.337  36.768  13.670  1.00  0.00     0.191 C 
BRANCH  22  23
ATOM     23  O   UNL     1      23.021  35.476  13.341  1.00  0.00    -0.394 OA
ATOM     24  H   UNL     1      23.851  35.032  13.032  1.00  0.00     0.210 HD
ENDBRANCH  22  23
ENDBRANCH  17  22
BRANCH  19  25
ATOM     25  O   UNL     1      27.363  35.539  12.600  1.00  0.00    -0.350 OA
BRANCH  25  26
ATOM     26  C   UNL     1      28.679  35.366  12.362  1.00  0.00     0.169 C 
BRANCH  26  27
ATOM     27  C   UNL     1      29.601  35.231  13.523  1.00  0.00     0.119 C 
BRANCH  27  28
ATOM     28  N   UNL     1      30.972  34.990  13.234  1.00  0.00    -0.092 NA
ATOM     29  N   UNL     1      31.771  34.542  14.082  1.00  0.00     0.001 N 
ATOM     30  N   UNL     1      32.542  34.628  15.053  1.00  0.00    -0.003 NA
ENDBRANCH  27  28
ENDBRANCH  26  27
ENDBRANCH  25  26
ENDBRANCH  19  25
BRANCH  20  31
ATOM     31  O   UNL     1      26.791  37.619  10.334  1.00  0.00    -0.387 OA
ATOM     32  H   UNL     1      27.364  38.341   9.966  1.00  0.00     0.211 HD
ENDBRANCH  20  31
BRANCH  21  33
ATOM     33  O   UNL     1      27.042  38.951  13.522  1.00  0.00    -0.385 OA
ATOM     34  H   UNL     1      26.135  39.337  13.448  1.00  0.00     0.211 HD
ENDBRANCH  21  33
ENDBRANCH  15  16
ENDBRANCH  10  15
BRANCH  12  35
ATOM     35  O   UNL     1      21.832  34.713  10.607  1.00  0.00    -0.385 OA
ATOM     36  H   UNL     1      22.682  34.213  10.799  1.00  0.00     0.211 HD
ENDBRANCH  12  35
BRANCH  13  37
ATOM     37  O   UNL     1      20.701  34.953   8.220  1.00  0.00    -0.387 OA
ATOM     38  H   UNL     1      20.218  35.461   7.521  1.00  0.00     0.211 HD
ENDBRANCH  13  37
BRANCH  14  39
ATOM     39  O   UNL     1      21.162  37.684   7.759  1.00  0.00    -0.387 OA
ATOM     40  H   UNL     1      20.991  38.107   6.875  1.00  0.00     0.211 HD
ENDBRANCH  14  39
ENDBRANCH   8   9
ENDBRANCH   7   8
ENDBRANCH   1   7
BRANCH   1  41
ATOM     41  C   UNL     1      24.098  41.608   8.550  1.00  0.00     0.364 C 
ATOM     42  O   UNL     1      24.733  41.881   9.582  1.00  0.00    -0.246 OA
BRANCH  41  43
ATOM     43  O   UNL     1      22.960  42.322   8.269  1.00  0.00    -0.477 OA
ATOM     44  H   UNL     1      22.937  43.256   7.880  1.00  0.00     0.296 HD
ENDBRANCH  41  43
ENDBRANCH   1  41
BRANCH   3  45
ATOM     45  O   UNL     1      26.660  41.895   4.999  1.00  0.00    -0.391 OA
ATOM     46  H   UNL     1      26.613  42.825   4.706  1.00  0.00     0.211 HD
ENDBRANCH   3  45
BRANCH   5  47
ATOM     47  C   UNL     1      26.822  38.500   6.750  1.00  0.00     0.176 C 
BRANCH  47  48
ATOM     48  O   UNL     1      26.992  37.336   7.544  1.00  0.00    -0.388 OA
ATOM     49  H   UNL     1      27.966  37.138   7.608  1.00  0.00     0.211 HD
ENDBRANCH  47  48
BRANCH  47  50
ATOM     50  C   UNL     1      27.896  38.446   5.711  1.00  0.00     0.165 C 
BRANCH  50  51
ATOM     51  O   UNL     1      27.330  37.505   4.748  1.00  0.00    -0.388 OA
ATOM     52  H   UNL     1      27.319  36.640   5.226  1.00  0.00     0.211 HD
ENDBRANCH  50  51
BRANCH  50  53
ATOM     53  C   UNL     1      29.160  37.758   6.116  1.00  0.00     0.154 C 
BRANCH  53  54
ATOM     54  N   UNL     1      29.857  38.293   7.241  1.00  0.00    -0.319 N 
ATOM     55  C   UNL     1      30.833  39.330   6.997  1.00  0.00     0.407 C 
ATOM     56  H   UNL     1      29.732  38.035   8.215  1.00  0.00     0.167 HD
ATOM     57  O   UNL     1      31.009  39.703   5.819  1.00  0.00    -0.225 OA
BRANCH  55  58
ATOM     58  O   UNL     1      31.553  39.897   8.018  1.00  0.00    -0.443 OA
BRANCH  58  59
ATOM     59  C   UNL     1      31.619  39.261   9.270  1.00  0.00     0.294 C 
BRANCH  59  60
ATOM     60  C   UNL     1      30.580  39.834  10.152  1.00  0.00     0.121 A 
ATOM     61  C   UNL     1      30.721  40.669  11.237  1.00  0.00     0.144 A 
ATOM     62  N   UNL     1      29.234  39.627  10.039  1.00  0.00    -0.131 NA
ATOM     63  N   UNL     1      29.508  40.945  11.743  1.00  0.00    -0.219 N 
ATOM     64  N   UNL     1      28.631  40.299  10.997  1.00  0.00    -0.062 NA
BRANCH  63  65
ATOM     65  C   UNL     1      29.121  41.754  12.850  1.00  0.00     0.085 A 
ATOM     66  C   UNL     1      29.738  41.674  14.080  1.00  0.00     0.031 A 
ATOM     67  C   UNL     1      28.088  42.664  12.738  1.00  0.00     0.139 A 
ATOM     68  C   UNL     1      29.342  42.462  15.138  1.00  0.00     0.022 A 
ATOM     69  N   UNL     1      27.706  43.433  13.787  1.00  0.00    -0.262 NA
ATOM     70  C   UNL     1      28.307  43.356  14.988  1.00  0.00     0.111 A 
ENDBRANCH  63  65
ENDBRANCH  59  60
ENDBRANCH  58  59
ENDBRANCH  55  58
ENDBRANCH  53  54
ENDBRANCH  50  53
ENDBRANCH  47  50
ENDBRANCH   5  47
BRANCH   4  71
ATOM     71  N   UNL     1      27.966  41.751   8.137  1.00  0.00    -0.348 N 
ATOM     72  C   UNL     1      29.103  42.572   7.935  1.00  0.00     0.217 C 
ATOM     73  H   UNL     1      27.570  41.747   9.116  1.00  0.00     0.163 HD
ATOM     74  C   UNL     1      29.707  43.377   9.043  1.00  0.00     0.114 C 
ATOM     75  O   UNL     1      29.639  42.643   6.796  1.00  0.00    -0.275 OA
ENDBRANCH   4  71
TORSDOF 30
BEGIN_RES LYS A 131
REMARK  4 active torsions:
REMARK  status: ('A' for Active; 'I' for Inactive)
REMARK    1  A    between atoms: CA   and  CB  
REMARK    2  A    between atoms: CB   and  CG  
REMARK    3  A    between atoms: CG   and  CD  
REMARK    4  A    between atoms: CD   and  CE  
ROOT
ATOM      1  CA  LYS A 131      29.867  25.555  16.977  1.00 20.52     0.186 C 
ENDROOT
BRANCH   1   2
ATOM      2  CB  LYS A 131      28.345  25.722  17.026  1.00 20.94     0.034 C 
BRANCH   2   3
ATOM      3  CG  LYS A 131      27.602  24.400  16.914  1.00 22.96     0.005 C 
BRANCH   3   4
ATOM      4  CD  LYS A 131      26.154  24.530  17.299  1.00 24.33     0.041 C 
BRANCH   4   5
ATOM      5  CE  LYS A 131      25.938  25.850  18.030  1.00 26.91     0.338 C 
ATOM      6  NZ  LYS A 131      24.513  26.251  17.967  1.00 27.40     0.618 N 
ENDBRANCH   4   5
ENDBRANCH   3   4
ENDBRANCH   2   3
ENDBRANCH   1   2
END_RES LYS A 131
BEGIN_RES LYS A 135
REMARK  4 active torsions:
REMARK  status: ('A' for Active; 'I' for Inactive)
REMARK    5  A    between atoms: CA   and  CB  
REMARK    6  A    between atoms: CB   and  CG  
REMARK    7  A    between atoms: CG   and  CD  
REMARK    8  A    between atoms: CD   and  CE  
ROOT
ATOM      7  CA  LYS A 135      33.193  34.663   9.290  1.00 25.02     0.186 C 
ENDROOT
BRANCH   7   8
ATOM      8  CB  LYS A 135      32.060  35.360  10.034  1.00 26.63     0.034 C 
BRANCH   8   9
ATOM      9  CG  LYS A 135      30.812  35.531   9.207  1.00 29.45     0.005 C 
BRANCH   9  10
ATOM     10  CD  LYS A 135      30.077  34.207   9.064  1.00 32.00     0.041 C 
BRANCH  10  11
ATOM     11  CE  LYS A 135      28.653  34.436   8.596  1.00 34.25     0.338 C 
ATOM     12  NZ  LYS A 135      27.684  33.674   9.432  1.00 35.99     0.618 N 
ENDBRANCH  10  11
ENDBRANCH   9  10
ENDBRANCH   8   9
ENDBRANCH   7   8
END_RES LYS A 135
