REMARK VINA RESULT:    -4.192      4.088      7.858
REMARK INTER + INTRA:         -22.122
REMARK INTER:                  -9.107
REMARK INTRA:                 -13.015
REMARK UNBOUND:               -11.069
REMARK SMILES COCC(C(N)=O)n1cc(COC(=O)NC[C@@H](O)C(O)[C@@H]2O[C@@](OC[C@H]3O[C@@H](O[C@H]4[C@H](O)[C@@H](O)[C@H](OCCN=[N+]=[N-])O[C@@H]4CO)[C@H](O)[C@@H](O)[C@H]3O)(C(=O)O)C[C@H](O)[C@H]2NC(C)=O)nn1
REMARK SMILES IDX 23 1 55 2 56 3 58 4 21 5 22 6 24 7 25 8 26 9 28 10 27 11
REMARK SMILES IDX 46 12 48 13 50 14 29 15 30 16 43 17 42 18 35 19 31 20 33 21
REMARK SMILES IDX 44 22 45 23 36 25 37 26 38 27 39 28 40 29 41 30 32 31 34 33
REMARK SMILES IDX 47 35 49 37 51 39 52 41 53 42 54 43 57 45 19 47 20 48 17 50
REMARK SMILES IDX 18 51 16 53 15 54 13 55 14 57 12 58 11 59 10 60 9 61 63 62
REMARK SMILES IDX 8 63 64 64 4 65 3 66 2 67 1 68 5 69 7 70 6 71 59 74 60 75
REMARK SMILES IDX 61 77 62 78
REMARK H PARENT 45 24 32 32 34 34 47 36 49 38 51 40 54 44 57 46 20 49 18 52
REMARK H PARENT 15 56 6 72 6 73 59 76
REMARK Flexibility Score: inf
ROOT
ATOM      1  C   UNL     1      29.285  32.351  19.676  1.00  0.00     0.272 C 
ATOM      2  C   UNL     1      29.851  32.773  20.977  1.00  0.00     0.113 C 
ATOM      3  C   UNL     1      31.014  32.007  21.491  1.00  0.00     0.145 C 
ATOM      4  C   UNL     1      30.850  30.544  21.179  1.00  0.00     0.142 C 
ATOM      5  C   UNL     1      29.386  30.324  20.831  1.00  0.00     0.178 C 
ATOM      6  O   UNL     1      29.095  30.970  19.658  1.00  0.00    -0.332 OA
ENDROOT
BRANCH   1   7
ATOM      7  O   UNL     1      29.984  32.680  18.548  1.00  0.00    -0.338 OA
BRANCH   7   8
ATOM      8  C   UNL     1      30.425  31.675  17.753  1.00  0.00     0.199 C 
BRANCH   8   9
ATOM      9  C   UNL     1      30.775  32.158  16.338  1.00  0.00     0.179 C 
ATOM     10  C   UNL     1      28.780  32.645  15.253  1.00  0.00     0.282 C 
ATOM     11  O   UNL     1      29.841  31.766  15.422  1.00  0.00    -0.341 OA
ATOM     12  C   UNL     1      29.212  34.039  14.956  1.00  0.00     0.202 C 
ATOM     13  C   UNL     1      30.134  34.581  15.998  1.00  0.00     0.179 C 
ATOM     14  C   UNL     1      31.195  33.583  16.295  1.00  0.00     0.177 C 
BRANCH  10  15
ATOM     15  O   UNL     1      27.882  32.601  16.304  1.00  0.00    -0.341 OA
BRANCH  15  16
ATOM     16  C   UNL     1      26.761  31.844  15.968  1.00  0.00     0.184 C 
ATOM     17  C   UNL     1      25.460  32.413  16.391  1.00  0.00     0.178 C 
ATOM     18  O   UNL     1      24.401  31.710  15.872  1.00  0.00    -0.341 OA
ATOM     19  C   UNL     1      24.640  30.346  15.693  1.00  0.00     0.281 C 
ATOM     20  C   UNL     1      26.927  30.510  16.718  1.00  0.00     0.180 C 
ATOM     21  C   UNL     1      25.605  29.823  16.746  1.00  0.00     0.202 C 
BRANCH  17  22
ATOM     22  C   UNL     1      25.249  33.866  16.008  1.00  0.00     0.191 C 
BRANCH  22  23
ATOM     23  O   UNL     1      25.605  34.061  14.675  1.00  0.00    -0.394 OA
ATOM     24  H   UNL     1      26.410  34.622  14.584  1.00  0.00     0.210 HD
ENDBRANCH  22  23
ENDBRANCH  17  22
BRANCH  19  25
ATOM     25  O   UNL     1      25.047  30.116  14.427  1.00  0.00    -0.350 OA
BRANCH  25  26
ATOM     26  C   UNL     1      24.283  30.485  13.375  1.00  0.00     0.169 C 
BRANCH  26  27
ATOM     27  C   UNL     1      23.460  29.441  12.703  1.00  0.00     0.119 C 
BRANCH  27  28
ATOM     28  N   UNL     1      22.124  29.863  12.429  1.00  0.00    -0.092 NA
ATOM     29  N   UNL     1      21.771  31.009  12.696  1.00  0.00     0.001 N 
ATOM     30  N   UNL     1      21.491  32.201  12.486  1.00  0.00    -0.003 NA
ENDBRANCH  27  28
ENDBRANCH  26  27
ENDBRANCH  25  26
ENDBRANCH  19  25
BRANCH  20  31
ATOM     31  O   UNL     1      27.896  29.736  16.082  1.00  0.00    -0.387 OA
ATOM     32  H   UNL     1      27.768  28.814  16.407  1.00  0.00     0.211 HD
ENDBRANCH  20  31
BRANCH  21  33
ATOM     33  O   UNL     1      24.967  30.009  17.991  1.00  0.00    -0.385 OA
ATOM     34  H   UNL     1      24.222  30.668  17.879  1.00  0.00     0.211 HD
ENDBRANCH  21  33
ENDBRANCH  15  16
ENDBRANCH  10  15
BRANCH  12  35
ATOM     35  O   UNL     1      29.944  33.992  13.754  1.00  0.00    -0.385 OA
ATOM     36  H   UNL     1      29.344  34.032  12.979  1.00  0.00     0.211 HD
ENDBRANCH  12  35
BRANCH  13  37
ATOM     37  O   UNL     1      29.459  35.054  17.122  1.00  0.00    -0.387 OA
ATOM     38  H   UNL     1      29.877  34.607  17.908  1.00  0.00     0.211 HD
ENDBRANCH  13  37
BRANCH  14  39
ATOM     39  O   UNL     1      31.851  33.892  17.489  1.00  0.00    -0.387 OA
ATOM     40  H   UNL     1      32.588  34.539  17.327  1.00  0.00     0.211 HD
ENDBRANCH  14  39
ENDBRANCH   8   9
ENDBRANCH   7   8
ENDBRANCH   1   7
BRANCH   1  41
ATOM     41  C   UNL     1      27.889  32.915  19.602  1.00  0.00     0.364 C 
ATOM     42  O   UNL     1      27.687  34.136  19.458  1.00  0.00    -0.246 OA
BRANCH  41  43
ATOM     43  O   UNL     1      26.830  32.051  19.696  1.00  0.00    -0.477 OA
ATOM     44  H   UNL     1      26.923  31.101  20.021  1.00  0.00     0.296 HD
ENDBRANCH  41  43
ENDBRANCH   1  41
BRANCH   3  45
ATOM     45  O   UNL     1      32.248  32.499  21.078  1.00  0.00    -0.391 OA
ATOM     46  H   UNL     1      32.134  33.391  20.663  1.00  0.00     0.211 HD
ENDBRANCH   3  45
BRANCH   5  47
ATOM     47  C   UNL     1      29.119  28.840  20.671  1.00  0.00     0.176 C 
BRANCH  47  48
ATOM     48  O   UNL     1      28.711  28.237  21.822  1.00  0.00    -0.388 OA
ATOM     49  H   UNL     1      28.155  27.450  21.759  1.00  0.00     0.211 HD
ENDBRANCH  47  48
BRANCH  47  50
ATOM     50  C   UNL     1      28.117  28.609  19.573  1.00  0.00     0.165 C 
BRANCH  50  51
ATOM     51  O   UNL     1      26.933  29.278  19.970  1.00  0.00    -0.388 OA
ATOM     52  H   UNL     1      27.130  30.249  20.075  1.00  0.00     0.211 HD
ENDBRANCH  50  51
BRANCH  50  53
ATOM     53  C   UNL     1      27.738  27.181  19.366  1.00  0.00     0.154 C 
BRANCH  53  54
ATOM     54  N   UNL     1      26.894  26.607  20.360  1.00  0.00    -0.319 N 
ATOM     55  C   UNL     1      25.477  26.584  20.253  1.00  0.00     0.407 C 
ATOM     56  H   UNL     1      27.304  26.171  21.231  1.00  0.00     0.167 HD
ATOM     57  O   UNL     1      24.937  27.084  19.256  1.00  0.00    -0.225 OA
BRANCH  55  58
ATOM     58  O   UNL     1      24.671  26.011  21.243  1.00  0.00    -0.443 OA
BRANCH  58  59
ATOM     59  C   UNL     1      24.279  26.705  22.390  1.00  0.00     0.294 C 
BRANCH  59  60
ATOM     60  C   UNL     1      24.759  28.089  22.472  1.00  0.00     0.120 A 
ATOM     61  C   UNL     1      23.997  29.191  22.173  1.00  0.00     0.139 A 
ATOM     62  N   UNL     1      25.982  28.485  22.843  1.00  0.00    -0.132 NA
ATOM     63  N   UNL     1      24.788  30.248  22.372  1.00  0.00    -0.237 N 
ATOM     64  N   UNL     1      25.981  29.806  22.776  1.00  0.00    -0.066 NA
BRANCH  63  65
ATOM     65  C   UNL     1      24.401  31.633  22.178  1.00  0.00     0.223 C 
BRANCH  65  66
ATOM     66  C   UNL     1      23.399  31.696  21.071  1.00  0.00     0.197 C 
BRANCH  66  67
ATOM     67  O   UNL     1      23.970  32.071  19.881  1.00  0.00    -0.382 OA
ATOM     68  C   UNL     1      23.507  33.290  19.461  1.00  0.00     0.195 C 
ENDBRANCH  66  67
ENDBRANCH  65  66
BRANCH  65  69
ATOM     69  C   UNL     1      23.791  32.088  23.472  1.00  0.00     0.244 C 
ATOM     70  O   UNL     1      22.685  32.664  23.442  1.00  0.00    -0.273 OA
ATOM     71  N   UNL     1      24.488  31.847  24.682  1.00  0.00    -0.368 N 
ATOM     72  H   UNL     1      24.973  32.578  25.229  1.00  0.00     0.159 HD
ATOM     73  H   UNL     1      24.512  30.867  25.038  1.00  0.00     0.159 HD
ENDBRANCH  65  69
ENDBRANCH  63  65
ENDBRANCH  59  60
ENDBRANCH  58  59
ENDBRANCH  55  58
ENDBRANCH  53  54
ENDBRANCH  50  53
ENDBRANCH  47  50
ENDBRANCH   5  47
BRANCH   4  74
ATOM     74  N   UNL     1      31.269  29.713  22.305  1.00  0.00    -0.348 N 
ATOM     75  C   UNL     1      32.604  29.261  22.490  1.00  0.00     0.217 C 
ATOM     76  H   UNL     1      30.574  29.419  23.036  1.00  0.00     0.163 HD
ATOM     77  C   UNL     1      33.050  28.425  23.617  1.00  0.00     0.114 C 
ATOM     78  O   UNL     1      33.462  29.614  21.612  1.00  0.00    -0.275 OA
ENDBRANCH   4  74
TORSDOF 33
BEGIN_RES LYS A 131
REMARK  4 active torsions:
REMARK  status: ('A' for Active; 'I' for Inactive)
REMARK    1  A    between atoms: CA   and  CB  
REMARK    2  A    between atoms: CB   and  CG  
REMARK    3  A    between atoms: CG   and  CD  
REMARK    4  A    between atoms: CD   and  CE  
ROOT
ATOM      1  CA  LYS A 131      29.867  25.555  16.977  1.00 20.52     0.186 C 
ENDROOT
BRANCH   1   2
ATOM      2  CB  LYS A 131      28.345  25.722  17.026  1.00 20.94     0.034 C 
BRANCH   2   3
ATOM      3  CG  LYS A 131      27.601  24.403  16.887  1.00 22.96     0.005 C 
BRANCH   3   4
ATOM      4  CD  LYS A 131      26.142  24.537  17.226  1.00 24.33     0.041 C 
BRANCH   4   5
ATOM      5  CE  LYS A 131      25.722  23.383  18.130  1.00 26.91     0.338 C 
ATOM      6  NZ  LYS A 131      24.543  22.683  17.565  1.00 27.40     0.618 N 
ENDBRANCH   4   5
ENDBRANCH   3   4
ENDBRANCH   2   3
ENDBRANCH   1   2
END_RES LYS A 131
BEGIN_RES LYS A 135
REMARK  4 active torsions:
REMARK  status: ('A' for Active; 'I' for Inactive)
REMARK    5  A    between atoms: CA   and  CB  
REMARK    6  A    between atoms: CB   and  CG  
REMARK    7  A    between atoms: CG   and  CD  
REMARK    8  A    between atoms: CD   and  CE  
ROOT
ATOM      7  CA  LYS A 135      33.193  34.663   9.290  1.00 25.02     0.186 C 
ENDROOT
BRANCH   7   8
ATOM      8  CB  LYS A 135      32.060  35.360  10.034  1.00 26.63     0.034 C 
BRANCH   8   9
ATOM      9  CG  LYS A 135      30.797  35.491   9.222  1.00 29.45     0.005 C 
BRANCH   9  10
ATOM     10  CD  LYS A 135      30.139  34.134   9.031  1.00 32.00     0.041 C 
BRANCH  10  11
ATOM     11  CE  LYS A 135      28.678  34.298   8.659  1.00 34.25     0.338 C 
ATOM     12  NZ  LYS A 135      27.790  33.715   9.703  1.00 35.99     0.618 N 
ENDBRANCH  10  11
ENDBRANCH   9  10
ENDBRANCH   8   9
ENDBRANCH   7   8
END_RES LYS A 135
