REMARK VINA RESULT:    -4.295      0.000      0.000
REMARK INTER + INTRA:         -23.116
REMARK INTER:                 -12.115
REMARK INTRA:                 -11.002
REMARK UNBOUND:               -12.543
REMARK SMILES CC(=O)N[C@@H]1[C@@H](O)C[C@](OC[C@H]2O[C@@H](O[C@H]3[C@H](O)[C@@H](O)[C@H](OCCN=[N+]=[N-])O[C@@H]3CO)[C@H](O)[C@@H](O)[C@H]2O)(C(=O)O)O[C@H]1C(O)[C@H](O)CNC(=O)OCc1cn(-c2ccncc2)nn1
REMARK SMILES IDX 9 1 8 2 6 3 5 4 42 5 41 6 10 7 11 8 12 9 14 10 13 11 32 12
REMARK SMILES IDX 34 13 36 14 15 15 16 16 29 17 28 18 21 19 17 20 19 21 30 22
REMARK SMILES IDX 31 23 22 25 23 26 24 27 25 28 26 29 27 30 18 31 20 33 33 35
REMARK SMILES IDX 35 37 37 39 38 41 39 42 40 43 7 45 43 47 44 48 45 50 46 51
REMARK SMILES IDX 47 53 48 54 49 55 50 57 51 58 52 59 53 60 54 61 63 62 55 63
REMARK SMILES IDX 62 64 56 65 57 66 61 67 58 68 60 69 59 70 4 71 2 72 1 74
REMARK SMILES IDX 3 75
REMARK H PARENT 31 24 18 32 20 34 33 36 35 38 37 40 40 44 7 46 44 49 46 52
REMARK H PARENT 48 56 4 73
REMARK Flexibility Score: inf
ROOT
ATOM      1  C   UNL     1      29.552  32.782  16.951  1.00  0.00     0.272 C 
ATOM      2  C   UNL     1      30.570  33.931  17.099  1.00  0.00     0.113 C 
ATOM      3  C   UNL     1      29.907  35.270  16.763  1.00  0.00     0.145 C 
ATOM      4  C   UNL     1      29.621  35.228  15.224  1.00  0.00     0.142 C 
ATOM      5  C   UNL     1      28.874  33.948  14.986  1.00  0.00     0.178 C 
ATOM      6  O   UNL     1      28.524  33.400  16.213  1.00  0.00    -0.332 OA
ENDROOT
BRANCH   1   7
ATOM      7  O   UNL     1      29.011  32.485  18.116  1.00  0.00    -0.338 OA
BRANCH   7   8
ATOM      8  C   UNL     1      29.275  32.221  19.319  1.00  0.00     0.199 C 
BRANCH   8   9
ATOM      9  C   UNL     1      28.748  30.987  19.986  1.00  0.00     0.179 C 
ATOM     10  C   UNL     1      27.654  29.024  19.298  1.00  0.00     0.282 C 
ATOM     11  O   UNL     1      28.206  30.221  18.905  1.00  0.00    -0.341 OA
ATOM     12  C   UNL     1      28.691  28.119  19.884  1.00  0.00     0.202 C 
ATOM     13  C   UNL     1      29.421  28.843  21.017  1.00  0.00     0.179 C 
ATOM     14  C   UNL     1      29.930  30.148  20.482  1.00  0.00     0.177 C 
BRANCH  10  15
ATOM     15  O   UNL     1      27.165  28.470  18.086  1.00  0.00    -0.341 OA
BRANCH  15  16
ATOM     16  C   UNL     1      25.957  28.959  17.718  1.00  0.00     0.184 C 
ATOM     17  C   UNL     1      24.902  27.939  17.571  1.00  0.00     0.178 C 
ATOM     18  O   UNL     1      23.661  28.553  17.300  1.00  0.00    -0.341 OA
ATOM     19  C   UNL     1      23.785  28.858  15.891  1.00  0.00     0.281 C 
ATOM     20  C   UNL     1      26.137  29.670  16.341  1.00  0.00     0.180 C 
ATOM     21  C   UNL     1      24.756  29.973  15.788  1.00  0.00     0.202 C 
BRANCH  17  22
ATOM     22  C   UNL     1      24.764  27.046  18.745  1.00  0.00     0.191 C 
BRANCH  22  23
ATOM     23  O   UNL     1      24.968  27.720  19.960  1.00  0.00    -0.394 OA
ATOM     24  H   UNL     1      24.085  27.721  20.433  1.00  0.00     0.210 HD
ENDBRANCH  22  23
ENDBRANCH  17  22
BRANCH  19  25
ATOM     25  O   UNL     1      22.528  29.240  15.510  1.00  0.00    -0.350 OA
BRANCH  25  26
ATOM     26  C   UNL     1      21.857  29.921  16.479  1.00  0.00     0.169 C 
BRANCH  26  27
ATOM     27  C   UNL     1      21.055  31.101  16.035  1.00  0.00     0.119 C 
BRANCH  27  28
ATOM     28  N   UNL     1      21.849  32.306  15.905  1.00  0.00    -0.092 NA
ATOM     29  N   UNL     1      22.376  32.675  14.865  1.00  0.00     0.001 N 
ATOM     30  N   UNL     1      23.076  32.819  13.858  1.00  0.00    -0.003 NA
ENDBRANCH  27  28
ENDBRANCH  26  27
ENDBRANCH  25  26
ENDBRANCH  19  25
BRANCH  20  31
ATOM     31  O   UNL     1      26.773  30.859  16.603  1.00  0.00    -0.387 OA
ATOM     32  H   UNL     1      26.171  31.648  16.419  1.00  0.00     0.211 HD
ENDBRANCH  20  31
BRANCH  21  33
ATOM     33  O   UNL     1      24.852  30.405  14.474  1.00  0.00    -0.385 OA
ATOM     34  H   UNL     1      24.056  30.089  13.973  1.00  0.00     0.211 HD
ENDBRANCH  21  33
ENDBRANCH  15  16
ENDBRANCH  10  15
BRANCH  12  35
ATOM     35  O   UNL     1      28.094  26.972  20.460  1.00  0.00    -0.385 OA
ATOM     36  H   UNL     1      28.535  26.203  20.028  1.00  0.00     0.211 HD
ENDBRANCH  12  35
BRANCH  13  37
ATOM     37  O   UNL     1      30.461  28.110  21.537  1.00  0.00    -0.387 OA
ATOM     38  H   UNL     1      30.631  27.287  20.979  1.00  0.00     0.211 HD
ENDBRANCH  13  37
BRANCH  14  39
ATOM     39  O   UNL     1      30.748  29.948  19.358  1.00  0.00    -0.387 OA
ATOM     40  H   UNL     1      30.336  30.408  18.564  1.00  0.00     0.211 HD
ENDBRANCH  14  39
ENDBRANCH   8   9
ENDBRANCH   7   8
ENDBRANCH   1   7
BRANCH   1  41
ATOM     41  C   UNL     1      30.143  31.647  16.235  1.00  0.00     0.364 C 
ATOM     42  O   UNL     1      31.143  31.789  15.457  1.00  0.00    -0.246 OA
BRANCH  41  43
ATOM     43  O   UNL     1      29.673  30.360  16.341  1.00  0.00    -0.477 OA
ATOM     44  H   UNL     1      28.792  30.075  16.711  1.00  0.00     0.296 HD
ENDBRANCH  41  43
ENDBRANCH   1  41
BRANCH   3  45
ATOM     45  O   UNL     1      28.697  35.358  17.396  1.00  0.00    -0.391 OA
ATOM     46  H   UNL     1      28.779  35.301  18.368  1.00  0.00     0.211 HD
ENDBRANCH   3  45
BRANCH   5  47
ATOM     47  C   UNL     1      27.504  34.157  14.325  1.00  0.00     0.176 C 
BRANCH  47  48
ATOM     48  O   UNL     1      27.702  35.475  13.720  1.00  0.00    -0.388 OA
ATOM     49  H   UNL     1      27.066  36.095  14.188  1.00  0.00     0.211 HD
ENDBRANCH  47  48
BRANCH  47  50
ATOM     50  C   UNL     1      26.340  34.265  15.209  1.00  0.00     0.165 C 
BRANCH  50  51
ATOM     51  O   UNL     1      25.642  33.120  15.514  1.00  0.00    -0.388 OA
ATOM     52  H   UNL     1      24.675  33.218  15.309  1.00  0.00     0.211 HD
ENDBRANCH  50  51
BRANCH  50  53
ATOM     53  C   UNL     1      25.564  35.521  15.117  1.00  0.00     0.154 C 
BRANCH  53  54
ATOM     54  N   UNL     1      24.505  35.539  14.142  1.00  0.00    -0.319 N 
ATOM     55  C   UNL     1      24.448  36.543  13.146  1.00  0.00     0.407 C 
ATOM     56  H   UNL     1      23.782  34.801  14.208  1.00  0.00     0.167 HD
ATOM     57  O   UNL     1      25.355  37.405  13.150  1.00  0.00    -0.225 OA
BRANCH  55  58
ATOM     58  O   UNL     1      23.473  36.626  12.192  1.00  0.00    -0.443 OA
BRANCH  58  59
ATOM     59  C   UNL     1      23.512  37.419  11.025  1.00  0.00     0.294 C 
BRANCH  59  60
ATOM     60  C   UNL     1      24.412  36.827   9.981  1.00  0.00     0.121 A 
ATOM     61  C   UNL     1      25.284  37.453   9.118  1.00  0.00     0.144 A 
ATOM     62  N   UNL     1      24.519  35.507   9.699  1.00  0.00    -0.131 NA
ATOM     63  N   UNL     1      25.882  36.522   8.354  1.00  0.00    -0.220 N 
ATOM     64  N   UNL     1      25.398  35.337   8.729  1.00  0.00    -0.062 NA
BRANCH  63  65
ATOM     65  C   UNL     1      26.846  36.783   7.342  1.00  0.00     0.069 A 
ATOM     66  C   UNL     1      27.703  35.836   6.826  1.00  0.00     0.048 A 
ATOM     67  C   UNL     1      26.926  38.064   6.842  1.00  0.00     0.048 A 
ATOM     68  C   UNL     1      28.624  36.134   5.836  1.00  0.00     0.113 A 
ATOM     69  C   UNL     1      27.850  38.353   5.852  1.00  0.00     0.113 A 
ATOM     70  N   UNL     1      28.666  37.405   5.374  1.00  0.00    -0.265 NA
ENDBRANCH  63  65
ENDBRANCH  59  60
ENDBRANCH  58  59
ENDBRANCH  55  58
ENDBRANCH  53  54
ENDBRANCH  50  53
ENDBRANCH  47  50
ENDBRANCH   5  47
BRANCH   4  71
ATOM     71  N   UNL     1      30.948  35.246  14.657  1.00  0.00    -0.348 N 
ATOM     72  C   UNL     1      31.277  35.780  13.392  1.00  0.00     0.217 C 
ATOM     73  H   UNL     1      31.729  34.839  15.204  1.00  0.00     0.163 HD
ATOM     74  C   UNL     1      32.668  35.741  12.917  1.00  0.00     0.114 C 
ATOM     75  O   UNL     1      30.391  36.286  12.676  1.00  0.00    -0.275 OA
ENDBRANCH   4  71
TORSDOF 30
BEGIN_RES LYS A 131
REMARK  4 active torsions:
REMARK  status: ('A' for Active; 'I' for Inactive)
REMARK    1  A    between atoms: CA   and  CB  
REMARK    2  A    between atoms: CB   and  CG  
REMARK    3  A    between atoms: CG   and  CD  
REMARK    4  A    between atoms: CD   and  CE  
ROOT
ATOM      1  CA  LYS A 131      29.867  25.555  16.977  1.00 20.52     0.186 C 
ENDROOT
BRANCH   1   2
ATOM      2  CB  LYS A 131      28.345  25.722  17.026  1.00 20.94     0.034 C 
BRANCH   2   3
ATOM      3  CG  LYS A 131      27.600  24.417  16.791  1.00 22.96     0.005 C 
BRANCH   3   4
ATOM      4  CD  LYS A 131      26.894  23.937  18.030  1.00 24.33     0.041 C 
BRANCH   4   5
ATOM      5  CE  LYS A 131      25.627  23.185  17.634  1.00 26.91     0.338 C 
ATOM      6  NZ  LYS A 131      24.721  24.066  16.860  1.00 27.40     0.618 N 
ENDBRANCH   4   5
ENDBRANCH   3   4
ENDBRANCH   2   3
ENDBRANCH   1   2
END_RES LYS A 131
BEGIN_RES LYS A 135
REMARK  4 active torsions:
REMARK  status: ('A' for Active; 'I' for Inactive)
REMARK    5  A    between atoms: CA   and  CB  
REMARK    6  A    between atoms: CB   and  CG  
REMARK    7  A    between atoms: CG   and  CD  
REMARK    8  A    between atoms: CD   and  CE  
ROOT
ATOM      7  CA  LYS A 135      33.193  34.663   9.290  1.00 25.02     0.186 C 
ENDROOT
BRANCH   7   8
ATOM      8  CB  LYS A 135      32.060  35.360  10.034  1.00 26.63     0.034 C 
BRANCH   8   9
ATOM      9  CG  LYS A 135      30.785  35.457   9.236  1.00 29.45     0.005 C 
BRANCH   9  10
ATOM     10  CD  LYS A 135      30.266  34.072   8.883  1.00 32.00     0.041 C 
BRANCH  10  11
ATOM     11  CE  LYS A 135      28.888  33.853   9.478  1.00 34.25     0.338 C 
ATOM     12  NZ  LYS A 135      28.471  35.015  10.310  1.00 35.99     0.618 N 
ENDBRANCH  10  11
ENDBRANCH   9  10
ENDBRANCH   8   9
ENDBRANCH   7   8
END_RES LYS A 135
