REMARK VINA RESULT:    -4.163      4.737      9.553
REMARK INTER + INTRA:         -22.048
REMARK INTER:                  -7.583
REMARK INTRA:                 -14.465
REMARK UNBOUND:               -11.069
REMARK SMILES COCC(C(N)=O)n1cc(COC(=O)NC[C@@H](O)C(O)[C@@H]2O[C@@](OC[C@H]3O[C@@H](O[C@H]4[C@H](O)[C@@H](O)[C@H](OCCN=[N+]=[N-])O[C@@H]4CO)[C@H](O)[C@@H](O)[C@H]3O)(C(=O)O)C[C@H](O)[C@H]2NC(C)=O)nn1
REMARK SMILES IDX 23 1 55 2 56 3 58 4 21 5 22 6 24 7 25 8 26 9 28 10 27 11
REMARK SMILES IDX 46 12 48 13 50 14 29 15 30 16 43 17 42 18 35 19 31 20 33 21
REMARK SMILES IDX 44 22 45 23 36 25 37 26 38 27 39 28 40 29 41 30 32 31 34 33
REMARK SMILES IDX 47 35 49 37 51 39 52 41 53 42 54 43 57 45 19 47 20 48 17 50
REMARK SMILES IDX 18 51 16 53 15 54 13 55 14 57 12 58 11 59 10 60 9 61 63 62
REMARK SMILES IDX 8 63 64 64 4 65 3 66 2 67 1 68 5 69 7 70 6 71 59 74 60 75
REMARK SMILES IDX 61 77 62 78
REMARK H PARENT 45 24 32 32 34 34 47 36 49 38 51 40 54 44 57 46 20 49 18 52
REMARK H PARENT 15 56 6 72 6 73 59 76
REMARK Flexibility Score: inf
ROOT
ATOM      1  C   UNL     1      26.873  30.136  16.533  1.00  0.00     0.272 C 
ATOM      2  C   UNL     1      27.802  30.729  15.546  1.00  0.00     0.113 C 
ATOM      3  C   UNL     1      29.071  31.299  16.064  1.00  0.00     0.145 C 
ATOM      4  C   UNL     1      28.830  31.987  17.381  1.00  0.00     0.142 C 
ATOM      5  C   UNL     1      27.330  32.213  17.498  1.00  0.00     0.178 C 
ATOM      6  O   UNL     1      26.695  31.004  17.610  1.00  0.00    -0.332 OA
ENDROOT
BRANCH   1   7
ATOM      7  O   UNL     1      27.197  28.912  17.047  1.00  0.00    -0.338 OA
BRANCH   7   8
ATOM      8  C   UNL     1      27.609  28.847  18.337  1.00  0.00     0.199 C 
BRANCH   8   9
ATOM      9  C   UNL     1      27.244  27.514  19.004  1.00  0.00     0.179 C 
ATOM     10  C   UNL     1      28.135  27.540  21.149  1.00  0.00     0.282 C 
ATOM     11  O   UNL     1      28.229  27.079  19.843  1.00  0.00    -0.341 OA
ATOM     12  C   UNL     1      26.806  27.282  21.770  1.00  0.00     0.202 C 
ATOM     13  C   UNL     1      25.685  27.855  20.968  1.00  0.00     0.179 C 
ATOM     14  C   UNL     1      25.856  27.490  19.537  1.00  0.00     0.177 C 
BRANCH  10  15
ATOM     15  O   UNL     1      28.508  28.866  21.272  1.00  0.00    -0.341 OA
BRANCH  15  16
ATOM     16  C   UNL     1      29.713  28.981  21.964  1.00  0.00     0.184 C 
ATOM     17  C   UNL     1      29.793  30.112  22.917  1.00  0.00     0.178 C 
ATOM     18  O   UNL     1      30.928  30.055  23.687  1.00  0.00    -0.341 OA
ATOM     19  C   UNL     1      32.033  29.485  23.051  1.00  0.00     0.281 C 
ATOM     20  C   UNL     1      30.783  29.231  20.887  1.00  0.00     0.180 C 
ATOM     21  C   UNL     1      32.002  29.766  21.557  1.00  0.00     0.202 C 
BRANCH  17  22
ATOM     22  C   UNL     1      28.621  30.218  23.876  1.00  0.00     0.191 C 
BRANCH  22  23
ATOM     23  O   UNL     1      27.460  30.527  23.171  1.00  0.00    -0.394 OA
ATOM     24  H   UNL     1      27.593  30.482  22.196  1.00  0.00     0.210 HD
ENDBRANCH  22  23
ENDBRANCH  17  22
BRANCH  19  25
ATOM     25  O   UNL     1      32.105  28.171  23.350  1.00  0.00    -0.350 OA
BRANCH  25  26
ATOM     26  C   UNL     1      32.115  27.752  24.636  1.00  0.00     0.169 C 
BRANCH  26  27
ATOM     27  C   UNL     1      31.143  26.700  25.040  1.00  0.00     0.119 C 
BRANCH  27  28
ATOM     28  N   UNL     1      30.324  26.241  23.964  1.00  0.00    -0.092 NA
ATOM     29  N   UNL     1      29.377  25.491  24.184  1.00  0.00     0.001 N 
ATOM     30  N   UNL     1      28.193  25.160  24.358  1.00  0.00    -0.003 NA
ENDBRANCH  27  28
ENDBRANCH  26  27
ENDBRANCH  25  26
ENDBRANCH  19  25
BRANCH  20  31
ATOM     31  O   UNL     1      31.049  28.042  20.210  1.00  0.00    -0.387 OA
ATOM     32  H   UNL     1      30.542  27.339  20.678  1.00  0.00     0.211 HD
ENDBRANCH  20  31
BRANCH  21  33
ATOM     33  O   UNL     1      32.077  31.169  21.418  1.00  0.00    -0.385 OA
ATOM     34  H   UNL     1      32.998  31.417  21.117  1.00  0.00     0.211 HD
ENDBRANCH  21  33
ENDBRANCH  15  16
ENDBRANCH  10  15
BRANCH  12  35
ATOM     35  O   UNL     1      26.624  25.886  21.779  1.00  0.00    -0.385 OA
ATOM     36  H   UNL     1      27.209  25.463  22.442  1.00  0.00     0.211 HD
ENDBRANCH  12  35
BRANCH  13  37
ATOM     37  O   UNL     1      25.501  29.219  21.194  1.00  0.00    -0.387 OA
ATOM     38  H   UNL     1      26.410  29.608  21.313  1.00  0.00     0.211 HD
ENDBRANCH  13  37
BRANCH  14  39
ATOM     39  O   UNL     1      25.050  28.284  18.719  1.00  0.00    -0.387 OA
ATOM     40  H   UNL     1      25.581  28.675  17.975  1.00  0.00     0.211 HD
ENDBRANCH  14  39
ENDBRANCH   8   9
ENDBRANCH   7   8
ENDBRANCH   1   7
BRANCH   1  41
ATOM     41  C   UNL     1      25.516  30.079  15.880  1.00  0.00     0.364 C 
ATOM     42  O   UNL     1      24.681  29.207  16.187  1.00  0.00    -0.246 OA
BRANCH  41  43
ATOM     43  O   UNL     1      25.210  31.016  14.927  1.00  0.00    -0.477 OA
ATOM     44  H   UNL     1      24.353  31.000  14.397  1.00  0.00     0.296 HD
ENDBRANCH  41  43
ENDBRANCH   1  41
BRANCH   3  45
ATOM     45  O   UNL     1      30.119  30.387  16.130  1.00  0.00    -0.391 OA
ATOM     46  H   UNL     1      30.308  30.156  17.074  1.00  0.00     0.211 HD
ENDBRANCH   3  45
BRANCH   5  47
ATOM     47  C   UNL     1      27.037  33.055  18.725  1.00  0.00     0.176 C 
BRANCH  47  48
ATOM     48  O   UNL     1      25.707  33.231  18.954  1.00  0.00    -0.388 OA
ATOM     49  H   UNL     1      25.407  34.084  19.297  1.00  0.00     0.211 HD
ENDBRANCH  47  48
BRANCH  47  50
ATOM     50  C   UNL     1      27.705  32.458  19.934  1.00  0.00     0.165 C 
BRANCH  50  51
ATOM     51  O   UNL     1      26.859  31.411  20.377  1.00  0.00    -0.388 OA
ATOM     52  H   UNL     1      27.323  30.540  20.239  1.00  0.00     0.211 HD
ENDBRANCH  50  51
BRANCH  50  53
ATOM     53  C   UNL     1      27.851  33.391  21.089  1.00  0.00     0.154 C 
BRANCH  53  54
ATOM     54  N   UNL     1      26.813  33.346  22.065  1.00  0.00    -0.319 N 
ATOM     55  C   UNL     1      25.768  34.307  22.128  1.00  0.00     0.407 C 
ATOM     56  H   UNL     1      26.789  32.580  22.792  1.00  0.00     0.167 HD
ATOM     57  O   UNL     1      25.747  35.233  21.303  1.00  0.00    -0.225 OA
BRANCH  55  58
ATOM     58  O   UNL     1      24.760  34.239  23.095  1.00  0.00    -0.443 OA
BRANCH  58  59
ATOM     59  C   UNL     1      23.469  33.791  22.807  1.00  0.00     0.294 C 
BRANCH  59  60
ATOM     60  C   UNL     1      23.368  32.888  21.655  1.00  0.00     0.120 A 
ATOM     61  C   UNL     1      22.430  33.005  20.660  1.00  0.00     0.139 A 
ATOM     62  N   UNL     1      24.157  31.837  21.398  1.00  0.00    -0.132 NA
ATOM     63  N   UNL     1      22.673  32.006  19.808  1.00  0.00    -0.237 N 
ATOM     64  N   UNL     1      23.717  31.311  20.267  1.00  0.00    -0.066 NA
BRANCH  63  65
ATOM     65  C   UNL     1      21.922  31.736  18.597  1.00  0.00     0.223 C 
BRANCH  65  66
ATOM     66  C   UNL     1      22.813  31.975  17.422  1.00  0.00     0.197 C 
BRANCH  66  67
ATOM     67  O   UNL     1      22.364  33.008  16.637  1.00  0.00    -0.382 OA
ATOM     68  C   UNL     1      23.357  33.915  16.379  1.00  0.00     0.195 C 
ENDBRANCH  66  67
ENDBRANCH  65  66
BRANCH  65  69
ATOM     69  C   UNL     1      21.511  30.294  18.665  1.00  0.00     0.244 C 
ATOM     70  O   UNL     1      20.424  30.006  19.206  1.00  0.00    -0.273 OA
ATOM     71  N   UNL     1      22.367  29.308  18.114  1.00  0.00    -0.368 N 
ATOM     72  H   UNL     1      22.939  28.655  18.674  1.00  0.00     0.159 HD
ATOM     73  H   UNL     1      22.421  29.244  17.074  1.00  0.00     0.159 HD
ENDBRANCH  65  69
ENDBRANCH  63  65
ENDBRANCH  59  60
ENDBRANCH  58  59
ENDBRANCH  55  58
ENDBRANCH  53  54
ENDBRANCH  50  53
ENDBRANCH  47  50
ENDBRANCH   5  47
BRANCH   4  74
ATOM     74  N   UNL     1      29.575  33.241  17.466  1.00  0.00    -0.348 N 
ATOM     75  C   UNL     1      30.725  33.415  18.283  1.00  0.00     0.217 C 
ATOM     76  H   UNL     1      29.274  34.076  16.905  1.00  0.00     0.163 HD
ATOM     77  C   UNL     1      31.492  34.667  18.383  1.00  0.00     0.114 C 
ATOM     78  O   UNL     1      31.106  32.406  18.968  1.00  0.00    -0.275 OA
ENDBRANCH   4  74
TORSDOF 33
BEGIN_RES LYS A 131
REMARK  4 active torsions:
REMARK  status: ('A' for Active; 'I' for Inactive)
REMARK    1  A    between atoms: CA   and  CB  
REMARK    2  A    between atoms: CB   and  CG  
REMARK    3  A    between atoms: CG   and  CD  
REMARK    4  A    between atoms: CD   and  CE  
ROOT
ATOM      1  CA  LYS A 131      29.867  25.555  16.977  1.00 20.52     0.186 C 
ENDROOT
BRANCH   1   2
ATOM      2  CB  LYS A 131      28.345  25.722  17.026  1.00 20.94     0.034 C 
BRANCH   2   3
ATOM      3  CG  LYS A 131      27.603  24.396  16.969  1.00 22.96     0.005 C 
BRANCH   3   4
ATOM      4  CD  LYS A 131      26.113  24.576  17.061  1.00 24.33     0.041 C 
BRANCH   4   5
ATOM      5  CE  LYS A 131      25.510  23.427  17.863  1.00 26.91     0.338 C 
ATOM      6  NZ  LYS A 131      25.734  23.633  19.313  1.00 27.40     0.618 N 
ENDBRANCH   4   5
ENDBRANCH   3   4
ENDBRANCH   2   3
ENDBRANCH   1   2
END_RES LYS A 131
BEGIN_RES LYS A 135
REMARK  4 active torsions:
REMARK  status: ('A' for Active; 'I' for Inactive)
REMARK    5  A    between atoms: CA   and  CB  
REMARK    6  A    between atoms: CB   and  CG  
REMARK    7  A    between atoms: CG   and  CD  
REMARK    8  A    between atoms: CD   and  CE  
ROOT
ATOM      7  CA  LYS A 135      33.193  34.663   9.290  1.00 25.02     0.186 C 
ENDROOT
BRANCH   7   8
ATOM      8  CB  LYS A 135      32.060  35.360  10.034  1.00 26.63     0.034 C 
BRANCH   8   9
ATOM      9  CG  LYS A 135      30.802  35.505   9.217  1.00 29.45     0.005 C 
BRANCH   9  10
ATOM     10  CD  LYS A 135      30.151  34.150   8.989  1.00 32.00     0.041 C 
BRANCH  10  11
ATOM     11  CE  LYS A 135      28.686  34.317   8.631  1.00 34.25     0.338 C 
ATOM     12  NZ  LYS A 135      27.809  33.681   9.653  1.00 35.99     0.618 N 
ENDBRANCH  10  11
ENDBRANCH   9  10
ENDBRANCH   8   9
ENDBRANCH   7   8
END_RES LYS A 135
