REMARK VINA RESULT:    -4.379      2.799      9.200
REMARK INTER + INTRA:         -22.599
REMARK INTER:                 -10.677
REMARK INTRA:                 -11.922
REMARK UNBOUND:               -11.308
REMARK SMILES CC(=O)N[C@@H]1[C@@H](O)C[C@](OC[C@H]2O[C@@H](O[C@H]3[C@H](O)[C@@H](O)[C@H](OCCN=[N+]=[N-])O[C@@H]3CO)[C@H](O)[C@@H](O)[C@H]2O)(C(=O)O)O[C@H]1C(O)[C@H](O)CNC(=O)OCc1cn(CCN2CCCC2)nn1
REMARK SMILES IDX 9 1 8 2 6 3 5 4 42 5 41 6 10 7 11 8 12 9 14 10 13 11 32 12
REMARK SMILES IDX 34 13 36 14 15 15 16 16 29 17 28 18 21 19 17 20 19 21 30 22
REMARK SMILES IDX 31 23 22 25 23 26 24 27 25 28 26 29 27 30 18 31 20 33 33 35
REMARK SMILES IDX 35 37 37 39 38 41 39 42 40 43 7 45 43 47 44 48 45 50 46 51
REMARK SMILES IDX 47 53 48 54 49 55 50 57 51 58 52 59 53 60 54 61 64 62 55 63
REMARK SMILES IDX 63 64 56 65 57 66 58 67 59 68 62 69 60 70 61 71 4 72 2 73
REMARK SMILES IDX 1 75 3 76
REMARK H PARENT 31 24 18 32 20 34 33 36 35 38 37 40 40 44 7 46 44 49 46 52
REMARK H PARENT 48 56 4 74
REMARK Flexibility Score: inf
ROOT
ATOM      1  C   UNL     1      27.893  35.600  13.404  1.00  0.00     0.272 C 
ATOM      2  C   UNL     1      27.111  36.667  12.704  1.00  0.00     0.113 C 
ATOM      3  C   UNL     1      25.661  36.693  13.203  1.00  0.00     0.145 C 
ATOM      4  C   UNL     1      25.052  35.330  12.767  1.00  0.00     0.142 C 
ATOM      5  C   UNL     1      25.937  34.274  13.318  1.00  0.00     0.178 C 
ATOM      6  O   UNL     1      26.962  34.818  14.099  1.00  0.00    -0.332 OA
ENDROOT
BRANCH   1   7
ATOM      7  O   UNL     1      28.686  36.122  14.429  1.00  0.00    -0.338 OA
BRANCH   7   8
ATOM      8  C   UNL     1      29.764  36.852  14.084  1.00  0.00     0.199 C 
BRANCH   8   9
ATOM      9  C   UNL     1      31.047  36.382  14.764  1.00  0.00     0.179 C 
ATOM     10  C   UNL     1      31.872  34.943  16.348  1.00  0.00     0.282 C 
ATOM     11  O   UNL     1      30.919  35.153  15.387  1.00  0.00    -0.341 OA
ATOM     12  C   UNL     1      33.192  35.474  15.904  1.00  0.00     0.202 C 
ATOM     13  C   UNL     1      33.245  35.466  14.387  1.00  0.00     0.179 C 
ATOM     14  C   UNL     1      32.210  36.399  13.792  1.00  0.00     0.177 C 
BRANCH  10  15
ATOM     15  O   UNL     1      31.902  33.689  16.883  1.00  0.00    -0.341 OA
BRANCH  15  16
ATOM     16  C   UNL     1      30.823  32.917  16.965  1.00  0.00     0.184 C 
ATOM     17  C   UNL     1      30.484  32.327  18.318  1.00  0.00     0.178 C 
ATOM     18  O   UNL     1      29.113  32.048  18.305  1.00  0.00    -0.341 OA
ATOM     19  C   UNL     1      28.977  30.858  17.533  1.00  0.00     0.281 C 
ATOM     20  C   UNL     1      30.759  31.747  15.999  1.00  0.00     0.180 C 
ATOM     21  C   UNL     1      29.336  31.237  16.110  1.00  0.00     0.202 C 
BRANCH  17  22
ATOM     22  C   UNL     1      30.851  33.186  19.480  1.00  0.00     0.191 C 
BRANCH  22  23
ATOM     23  O   UNL     1      30.550  32.487  20.646  1.00  0.00    -0.394 OA
ATOM     24  H   UNL     1      31.387  32.278  21.145  1.00  0.00     0.210 HD
ENDBRANCH  22  23
ENDBRANCH  17  22
BRANCH  19  25
ATOM     25  O   UNL     1      27.654  30.555  17.562  1.00  0.00    -0.350 OA
BRANCH  25  26
ATOM     26  C   UNL     1      27.191  29.616  18.418  1.00  0.00     0.169 C 
BRANCH  26  27
ATOM     27  C   UNL     1      27.263  28.189  17.999  1.00  0.00     0.119 C 
BRANCH  27  28
ATOM     28  N   UNL     1      27.327  27.245  19.088  1.00  0.00    -0.092 NA
ATOM     29  N   UNL     1      28.250  27.310  19.887  1.00  0.00     0.001 N 
ATOM     30  N   UNL     1      29.180  27.537  20.669  1.00  0.00    -0.003 NA
ENDBRANCH  27  28
ENDBRANCH  26  27
ENDBRANCH  25  26
ENDBRANCH  19  25
BRANCH  20  31
ATOM     31  O   UNL     1      30.925  32.166  14.687  1.00  0.00    -0.387 OA
ATOM     32  H   UNL     1      30.133  32.578  14.290  1.00  0.00     0.211 HD
ENDBRANCH  20  31
BRANCH  21  33
ATOM     33  O   UNL     1      29.041  30.247  15.202  1.00  0.00    -0.385 OA
ATOM     34  H   UNL     1      28.109  30.156  14.943  1.00  0.00     0.211 HD
ENDBRANCH  21  33
ENDBRANCH  15  16
ENDBRANCH  10  15
BRANCH  12  35
ATOM     35  O   UNL     1      33.425  36.794  16.309  1.00  0.00    -0.385 OA
ATOM     36  H   UNL     1      33.306  36.879  17.299  1.00  0.00     0.211 HD
ENDBRANCH  12  35
BRANCH  13  37
ATOM     37  O   UNL     1      32.957  34.184  13.910  1.00  0.00    -0.387 OA
ATOM     38  H   UNL     1      33.060  34.161  12.906  1.00  0.00     0.211 HD
ENDBRANCH  13  37
BRANCH  14  39
ATOM     39  O   UNL     1      31.857  35.865  12.555  1.00  0.00    -0.387 OA
ATOM     40  H   UNL     1      31.853  36.646  11.926  1.00  0.00     0.211 HD
ENDBRANCH  14  39
ENDBRANCH   8   9
ENDBRANCH   7   8
ENDBRANCH   1   7
BRANCH   1  41
ATOM     41  C   UNL     1      28.696  34.741  12.496  1.00  0.00     0.364 C 
ATOM     42  O   UNL     1      28.323  34.651  11.286  1.00  0.00    -0.246 OA
BRANCH  41  43
ATOM     43  O   UNL     1      29.813  34.026  12.841  1.00  0.00    -0.477 OA
ATOM     44  H   UNL     1      30.748  34.161  12.534  1.00  0.00     0.296 HD
ENDBRANCH  41  43
ENDBRANCH   1  41
BRANCH   3  45
ATOM     45  O   UNL     1      25.601  36.723  14.574  1.00  0.00    -0.391 OA
ATOM     46  H   UNL     1      25.031  36.002  14.956  1.00  0.00     0.211 HD
ENDBRANCH   3  45
BRANCH   5  47
ATOM     47  C   UNL     1      25.182  33.394  14.287  1.00  0.00     0.176 C 
BRANCH  47  48
ATOM     48  O   UNL     1      24.264  32.546  13.698  1.00  0.00    -0.388 OA
ATOM     49  H   UNL     1      23.325  32.701  13.943  1.00  0.00     0.211 HD
ENDBRANCH  47  48
BRANCH  47  50
ATOM     50  C   UNL     1      25.931  32.717  15.368  1.00  0.00     0.165 C 
BRANCH  50  51
ATOM     51  O   UNL     1      25.999  31.345  15.311  1.00  0.00    -0.388 OA
ATOM     52  H   UNL     1      26.890  30.965  15.145  1.00  0.00     0.211 HD
ENDBRANCH  50  51
BRANCH  50  53
ATOM     53  C   UNL     1      25.885  33.348  16.721  1.00  0.00     0.154 C 
BRANCH  53  54
ATOM     54  N   UNL     1      27.143  33.795  17.190  1.00  0.00    -0.319 N 
ATOM     55  C   UNL     1      27.430  35.182  17.440  1.00  0.00     0.407 C 
ATOM     56  H   UNL     1      27.915  33.109  17.376  1.00  0.00     0.167 HD
ATOM     57  O   UNL     1      26.598  36.091  17.264  1.00  0.00    -0.225 OA
BRANCH  55  58
ATOM     58  O   UNL     1      28.688  35.565  17.906  1.00  0.00    -0.443 OA
BRANCH  58  59
ATOM     59  C   UNL     1      28.830  36.756  18.688  1.00  0.00     0.294 C 
BRANCH  59  60
ATOM     60  C   UNL     1      29.619  37.770  17.960  1.00  0.00     0.120 A 
ATOM     61  C   UNL     1      29.276  38.748  17.071  1.00  0.00     0.138 A 
ATOM     62  N   UNL     1      30.972  37.889  18.090  1.00  0.00    -0.132 NA
ATOM     63  N   UNL     1      30.368  39.413  16.695  1.00  0.00    -0.251 N 
ATOM     64  N   UNL     1      31.411  38.857  17.345  1.00  0.00    -0.067 NA
BRANCH  63  65
ATOM     65  C   UNL     1      30.518  40.509  15.790  1.00  0.00     0.161 C 
BRANCH  65  66
ATOM     66  C   UNL     1      29.499  40.566  14.713  1.00  0.00     0.108 C 
BRANCH  66  67
ATOM     67  N   UNL     1      29.901  40.772  13.386  1.00  0.00    -0.301 NA
ATOM     68  C   UNL     1      30.862  39.937  12.785  1.00  0.00     0.084 C 
ATOM     69  C   UNL     1      28.865  41.112  12.458  1.00  0.00     0.084 C 
ATOM     70  C   UNL     1      30.331  39.522  11.421  1.00  0.00     0.017 C 
ATOM     71  C   UNL     1      29.201  40.472  11.147  1.00  0.00     0.017 C 
ENDBRANCH  66  67
ENDBRANCH  65  66
ENDBRANCH  63  65
ENDBRANCH  59  60
ENDBRANCH  58  59
ENDBRANCH  55  58
ENDBRANCH  53  54
ENDBRANCH  50  53
ENDBRANCH  47  50
ENDBRANCH   5  47
BRANCH   4  72
ATOM     72  N   UNL     1      24.981  35.374  11.319  1.00  0.00    -0.348 N 
ATOM     73  C   UNL     1      23.793  35.672  10.592  1.00  0.00     0.217 C 
ATOM     74  H   UNL     1      25.823  35.183  10.745  1.00  0.00     0.163 HD
ATOM     75  C   UNL     1      23.832  35.681   9.088  1.00  0.00     0.114 C 
ATOM     76  O   UNL     1      22.754  35.918  11.207  1.00  0.00    -0.275 OA
ENDBRANCH   4  72
TORSDOF 32
BEGIN_RES LYS A 131
REMARK  4 active torsions:
REMARK  status: ('A' for Active; 'I' for Inactive)
REMARK    1  A    between atoms: CA   and  CB  
REMARK    2  A    between atoms: CB   and  CG  
REMARK    3  A    between atoms: CG   and  CD  
REMARK    4  A    between atoms: CD   and  CE  
ROOT
ATOM      1  CA  LYS A 131      29.867  25.555  16.977  1.00 20.52     0.186 C 
ENDROOT
BRANCH   1   2
ATOM      2  CB  LYS A 131      28.345  25.722  17.026  1.00 20.94     0.034 C 
BRANCH   2   3
ATOM      3  CG  LYS A 131      27.599  24.434  16.713  1.00 22.96     0.005 C 
BRANCH   3   4
ATOM      4  CD  LYS A 131      26.989  23.820  17.942  1.00 24.33     0.041 C 
BRANCH   4   5
ATOM      5  CE  LYS A 131      25.567  23.363  17.630  1.00 26.91     0.338 C 
ATOM      6  NZ  LYS A 131      24.846  24.401  16.857  1.00 27.40     0.618 N 
ENDBRANCH   4   5
ENDBRANCH   3   4
ENDBRANCH   2   3
ENDBRANCH   1   2
END_RES LYS A 131
BEGIN_RES LYS A 135
REMARK  4 active torsions:
REMARK  status: ('A' for Active; 'I' for Inactive)
REMARK    5  A    between atoms: CA   and  CB  
REMARK    6  A    between atoms: CB   and  CG  
REMARK    7  A    between atoms: CG   and  CD  
REMARK    8  A    between atoms: CD   and  CE  
ROOT
ATOM      7  CA  LYS A 135      33.193  34.663   9.290  1.00 25.02     0.186 C 
ENDROOT
BRANCH   7   8
ATOM      8  CB  LYS A 135      32.060  35.360  10.034  1.00 26.63     0.034 C 
BRANCH   8   9
ATOM      9  CG  LYS A 135      30.744  35.322   9.300  1.00 29.45     0.005 C 
BRANCH   9  10
ATOM     10  CD  LYS A 135      30.261  36.730   8.991  1.00 32.00     0.041 C 
BRANCH  10  11
ATOM     11  CE  LYS A 135      29.167  36.700   7.941  1.00 34.25     0.338 C 
ATOM     12  NZ  LYS A 135      29.022  35.337   7.357  1.00 35.99     0.618 N 
ENDBRANCH  10  11
ENDBRANCH   9  10
ENDBRANCH   8   9
ENDBRANCH   7   8
END_RES LYS A 135
