REMARK VINA RESULT:    -5.080      4.408     11.022
REMARK INTER + INTRA:         -23.703
REMARK INTER:                 -12.289
REMARK INTRA:                 -11.413
REMARK UNBOUND:               -11.198
REMARK SMILES CC(=O)N[C@@H]1[C@@H](O)C[C@](OC[C@H]2O[C@@H](O[C@H]3[C@H](O)[C@@H](O)[C@H](OCCN=[N+]=[N-])O[C@@H]3CO)[C@H](O)[C@@H](O)[C@H]2O)(C(=O)O)O[C@H]1C(O)[C@H](O)CNC(=O)OCc1cn(C23CC4CC(CC(C4)C2)C3)nn1
REMARK SMILES IDX 9 1 8 2 6 3 5 4 42 5 41 6 10 7 11 8 12 9 14 10 13 11 32 12
REMARK SMILES IDX 34 13 36 14 15 15 16 16 29 17 28 18 21 19 17 20 19 21 30 22
REMARK SMILES IDX 31 23 22 25 23 26 24 27 25 28 26 29 27 30 18 31 20 33 33 35
REMARK SMILES IDX 35 37 37 39 38 41 39 42 40 43 7 45 43 47 44 48 45 50 46 51
REMARK SMILES IDX 47 53 48 54 49 55 50 57 51 58 52 59 53 60 54 61 67 62 55 63
REMARK SMILES IDX 66 64 56 65 65 66 64 67 57 68 60 69 62 70 58 71 59 72 61 73
REMARK SMILES IDX 63 74 4 75 2 76 1 78 3 79
REMARK H PARENT 31 24 18 32 20 34 33 36 35 38 37 40 40 44 7 46 44 49 46 52
REMARK H PARENT 48 56 4 77
REMARK Flexibility Score: inf
ROOT
ATOM      1  C   UNL     1      30.111  35.668  17.805  1.00  0.00     0.272 C 
ATOM      2  C   UNL     1      29.373  36.959  17.716  1.00  0.00     0.113 C 
ATOM      3  C   UNL     1      28.975  37.252  16.283  1.00  0.00     0.145 C 
ATOM      4  C   UNL     1      30.281  37.660  15.584  1.00  0.00     0.142 C 
ATOM      5  C   UNL     1      31.295  36.640  16.008  1.00  0.00     0.178 C 
ATOM      6  O   UNL     1      30.784  35.484  16.543  1.00  0.00    -0.332 OA
ENDROOT
BRANCH   1   7
ATOM      7  O   UNL     1      29.401  34.558  17.954  1.00  0.00    -0.338 OA
BRANCH   7   8
ATOM      8  C   UNL     1      29.677  33.455  18.600  1.00  0.00     0.199 C 
BRANCH   8   9
ATOM      9  C   UNL     1      29.333  32.089  18.107  1.00  0.00     0.179 C 
ATOM     10  C   UNL     1      27.748  30.748  17.248  1.00  0.00     0.282 C 
ATOM     11  O   UNL     1      27.958  32.076  17.675  1.00  0.00    -0.341 OA
ATOM     12  C   UNL     1      28.131  30.724  15.805  1.00  0.00     0.202 C 
ATOM     13  C   UNL     1      29.333  31.635  15.639  1.00  0.00     0.179 C 
ATOM     14  C   UNL     1      30.169  31.689  16.895  1.00  0.00     0.177 C 
BRANCH  10  15
ATOM     15  O   UNL     1      26.444  30.341  17.509  1.00  0.00    -0.341 OA
BRANCH  15  16
ATOM     16  C   UNL     1      26.437  29.484  18.570  1.00  0.00     0.184 C 
ATOM     17  C   UNL     1      26.463  30.079  19.931  1.00  0.00     0.178 C 
ATOM     18  O   UNL     1      26.014  29.064  20.808  1.00  0.00    -0.341 OA
ATOM     19  C   UNL     1      26.992  28.051  20.943  1.00  0.00     0.281 C 
ATOM     20  C   UNL     1      27.623  28.514  18.535  1.00  0.00     0.180 C 
ATOM     21  C   UNL     1      27.420  27.514  19.619  1.00  0.00     0.202 C 
BRANCH  17  22
ATOM     22  C   UNL     1      25.707  31.339  20.126  1.00  0.00     0.191 C 
BRANCH  22  23
ATOM     23  O   UNL     1      26.624  32.400  20.042  1.00  0.00    -0.394 OA
ATOM     24  H   UNL     1      26.308  33.106  19.420  1.00  0.00     0.210 HD
ENDBRANCH  22  23
ENDBRANCH  17  22
BRANCH  19  25
ATOM     25  O   UNL     1      26.362  27.047  21.644  1.00  0.00    -0.350 OA
BRANCH  25  26
ATOM     26  C   UNL     1      25.115  26.722  21.259  1.00  0.00     0.169 C 
BRANCH  26  27
ATOM     27  C   UNL     1      24.567  25.538  21.991  1.00  0.00     0.119 C 
BRANCH  27  28
ATOM     28  N   UNL     1      25.105  24.294  21.427  1.00  0.00    -0.092 NA
ATOM     29  N   UNL     1      24.344  23.601  20.764  1.00  0.00     0.001 N 
ATOM     30  N   UNL     1      23.672  22.657  20.296  1.00  0.00    -0.003 NA
ENDBRANCH  27  28
ENDBRANCH  26  27
ENDBRANCH  25  26
ENDBRANCH  19  25
BRANCH  20  31
ATOM     31  O   UNL     1      27.694  27.844  17.314  1.00  0.00    -0.387 OA
ATOM     32  H   UNL     1      27.195  28.356  16.641  1.00  0.00     0.211 HD
ENDBRANCH  20  31
BRANCH  21  33
ATOM     33  O   UNL     1      28.625  26.830  19.775  1.00  0.00    -0.385 OA
ATOM     34  H   UNL     1      29.228  27.320  20.366  1.00  0.00     0.211 HD
ENDBRANCH  21  33
ENDBRANCH  15  16
ENDBRANCH  10  15
BRANCH  12  35
ATOM     35  O   UNL     1      28.348  29.481  15.267  1.00  0.00    -0.385 OA
ATOM     36  H   UNL     1      28.343  29.526  14.282  1.00  0.00     0.211 HD
ENDBRANCH  12  35
BRANCH  13  37
ATOM     37  O   UNL     1      28.983  32.908  15.207  1.00  0.00    -0.387 OA
ATOM     38  H   UNL     1      28.160  33.208  15.711  1.00  0.00     0.211 HD
ENDBRANCH  13  37
BRANCH  14  39
ATOM     39  O   UNL     1      31.144  32.661  16.717  1.00  0.00    -0.387 OA
ATOM     40  H   UNL     1      30.762  33.577  16.757  1.00  0.00     0.211 HD
ENDBRANCH  14  39
ENDBRANCH   8   9
ENDBRANCH   7   8
ENDBRANCH   1   7
BRANCH   1  41
ATOM     41  C   UNL     1      31.242  35.798  18.738  1.00  0.00     0.364 C 
ATOM     42  O   UNL     1      31.314  36.572  19.701  1.00  0.00    -0.246 OA
BRANCH  41  43
ATOM     43  O   UNL     1      32.344  34.933  18.471  1.00  0.00    -0.477 OA
ATOM     44  H   UNL     1      33.176  35.332  18.092  1.00  0.00     0.296 HD
ENDBRANCH  41  43
ENDBRANCH   1  41
BRANCH   3  45
ATOM     45  O   UNL     1      28.534  36.083  15.678  1.00  0.00    -0.391 OA
ATOM     46  H   UNL     1      28.234  35.475  16.400  1.00  0.00     0.211 HD
ENDBRANCH   3  45
BRANCH   5  47
ATOM     47  C   UNL     1      32.117  36.126  14.764  1.00  0.00     0.176 C 
BRANCH  47  48
ATOM     48  O   UNL     1      31.849  37.152  13.833  1.00  0.00    -0.388 OA
ATOM     49  H   UNL     1      32.567  37.818  13.969  1.00  0.00     0.211 HD
ENDBRANCH  47  48
BRANCH  47  50
ATOM     50  C   UNL     1      31.568  34.859  14.285  1.00  0.00     0.165 C 
BRANCH  50  51
ATOM     51  O   UNL     1      32.443  33.759  14.339  1.00  0.00    -0.388 OA
ATOM     52  H   UNL     1      33.379  34.096  14.469  1.00  0.00     0.211 HD
ENDBRANCH  50  51
BRANCH  50  53
ATOM     53  C   UNL     1      30.880  34.852  12.974  1.00  0.00     0.154 C 
BRANCH  53  54
ATOM     54  N   UNL     1      29.501  35.176  13.019  1.00  0.00    -0.319 N 
ATOM     55  C   UNL     1      28.863  36.320  12.520  1.00  0.00     0.407 C 
ATOM     56  H   UNL     1      28.866  34.429  13.510  1.00  0.00     0.167 HD
ATOM     57  O   UNL     1      29.509  37.226  11.969  1.00  0.00    -0.225 OA
BRANCH  55  58
ATOM     58  O   UNL     1      27.457  36.425  12.658  1.00  0.00    -0.443 OA
BRANCH  58  59
ATOM     59  C   UNL     1      26.659  35.513  11.947  1.00  0.00     0.294 C 
BRANCH  59  60
ATOM     60  C   UNL     1      26.151  34.481  12.864  1.00  0.00     0.120 A 
ATOM     61  C   UNL     1      25.144  33.594  12.583  1.00  0.00     0.138 A 
ATOM     62  N   UNL     1      26.557  34.207  14.117  1.00  0.00    -0.132 NA
ATOM     63  N   UNL     1      24.975  32.822  13.659  1.00  0.00    -0.246 N 
ATOM     64  N   UNL     1      25.842  33.216  14.571  1.00  0.00    -0.066 NA
BRANCH  63  65
ATOM     65  C   UNL     1      23.991  31.760  13.731  1.00  0.00     0.065 C 
ATOM     66  C   UNL     1      24.600  30.504  13.195  1.00  0.00     0.034 C 
ATOM     67  C   UNL     1      23.482  31.618  15.152  1.00  0.00     0.034 C 
ATOM     68  C   UNL     1      22.796  32.112  12.864  1.00  0.00     0.034 C 
ATOM     69  C   UNL     1      23.620  29.361  13.283  1.00  0.00    -0.008 C 
ATOM     70  C   UNL     1      22.560  30.438  15.229  1.00  0.00    -0.008 C 
ATOM     71  C   UNL     1      21.803  30.980  12.978  1.00  0.00    -0.008 C 
ATOM     72  C   UNL     1      22.401  29.702  12.461  1.00  0.00     0.007 C 
ATOM     73  C   UNL     1      23.234  29.195  14.734  1.00  0.00     0.007 C 
ATOM     74  C   UNL     1      21.332  30.753  14.387  1.00  0.00     0.007 C 
ENDBRANCH  63  65
ENDBRANCH  59  60
ENDBRANCH  58  59
ENDBRANCH  55  58
ENDBRANCH  53  54
ENDBRANCH  50  53
ENDBRANCH  47  50
ENDBRANCH   5  47
BRANCH   4  75
ATOM     75  N   UNL     1      30.660  38.985  16.085  1.00  0.00    -0.348 N 
ATOM     76  C   UNL     1      30.833  40.086  15.202  1.00  0.00     0.217 C 
ATOM     77  H   UNL     1      30.814  39.136  17.114  1.00  0.00     0.163 HD
ATOM     78  C   UNL     1      31.230  41.439  15.735  1.00  0.00     0.114 C 
ATOM     79  O   UNL     1      30.647  39.899  13.980  1.00  0.00    -0.275 OA
ENDBRANCH   4  75
TORSDOF 30
BEGIN_RES LYS A 131
REMARK  4 active torsions:
REMARK  status: ('A' for Active; 'I' for Inactive)
REMARK    1  A    between atoms: CA   and  CB  
REMARK    2  A    between atoms: CB   and  CG  
REMARK    3  A    between atoms: CG   and  CD  
REMARK    4  A    between atoms: CD   and  CE  
ROOT
ATOM      1  CA  LYS A 131      29.867  25.555  16.977  1.00 20.52     0.186 C 
ENDROOT
BRANCH   1   2
ATOM      2  CB  LYS A 131      28.345  25.722  17.026  1.00 20.94     0.034 C 
BRANCH   2   3
ATOM      3  CG  LYS A 131      27.601  24.403  16.887  1.00 22.96     0.005 C 
BRANCH   3   4
ATOM      4  CD  LYS A 131      26.530  24.243  17.931  1.00 24.33     0.041 C 
BRANCH   4   5
ATOM      5  CE  LYS A 131      25.177  24.068  17.249  1.00 26.91     0.338 C 
ATOM      6  NZ  LYS A 131      24.386  25.318  17.338  1.00 27.40     0.618 N 
ENDBRANCH   4   5
ENDBRANCH   3   4
ENDBRANCH   2   3
ENDBRANCH   1   2
END_RES LYS A 131
BEGIN_RES LYS A 135
REMARK  4 active torsions:
REMARK  status: ('A' for Active; 'I' for Inactive)
REMARK    5  A    between atoms: CA   and  CB  
REMARK    6  A    between atoms: CB   and  CG  
REMARK    7  A    between atoms: CG   and  CD  
REMARK    8  A    between atoms: CD   and  CE  
ROOT
ATOM      7  CA  LYS A 135      33.193  34.663   9.290  1.00 25.02     0.186 C 
ENDROOT
BRANCH   7   8
ATOM      8  CB  LYS A 135      32.060  35.360  10.034  1.00 26.63     0.034 C 
BRANCH   8   9
ATOM      9  CG  LYS A 135      30.817  35.544   9.203  1.00 29.45     0.005 C 
BRANCH   9  10
ATOM     10  CD  LYS A 135      29.988  34.269   9.186  1.00 32.00     0.041 C 
BRANCH  10  11
ATOM     11  CE  LYS A 135      28.683  34.491   8.446  1.00 34.25     0.338 C 
ATOM     12  NZ  LYS A 135      28.903  35.258   7.189  1.00 35.99     0.618 N 
ENDBRANCH  10  11
ENDBRANCH   9  10
ENDBRANCH   8   9
ENDBRANCH   7   8
END_RES LYS A 135
