REMARK VINA RESULT:    -4.777      3.231      7.826
REMARK INTER + INTRA:         -24.451
REMARK INTER:                 -13.852
REMARK INTRA:                 -10.599
REMARK UNBOUND:                -9.760
REMARK SMILES CC(=O)N[C@@H]1[C@@H](O)C[C@](OC[C@H]2O[C@@H](O[C@H]3[C@H](O)[C@@H](O)[C@H](OCCN=[N+]=[N-])O[C@@H]3CO)[C@H](O)[C@@H](O)[C@H]2O)(C(=O)O)O[C@H]1C(O)[C@H](O)CNC(=O)OCc1cn(CCCCCCCCCCC(=O)O)nn1
REMARK SMILES IDX 51 1 49 2 48 3 50 5 47 6 45 7 43 8 42 9 9 10 8 11 41 12 6 13
REMARK SMILES IDX 5 14 10 15 11 16 12 17 14 18 13 19 32 20 34 21 36 22 15 23
REMARK SMILES IDX 16 24 29 25 28 26 21 27 17 28 19 29 30 30 31 31 22 33 23 34
REMARK SMILES IDX 24 35 25 36 26 37 27 38 18 39 20 41 33 43 35 45 37 47 38 49
REMARK SMILES IDX 39 50 40 51 7 53 4 55 2 56 1 58 3 59 44 60 46 62 52 64 53 65
REMARK SMILES IDX 54 66 70 67 55 68 69 69 56 70 57 71 58 72 59 73 60 74 61 75
REMARK SMILES IDX 62 76 63 77 64 78 65 79 66 80 67 81 68 82
REMARK H PARENT 48 4 31 32 18 40 20 42 33 44 35 46 37 48 40 52 7 54 4 57 44 61
REMARK H PARENT 46 63 68 83
REMARK Flexibility Score: inf
ROOT
ATOM      1  O   UNL     1      28.915  33.824   9.499  1.00  0.00    -0.443 OA
ENDROOT
BRANCH   1   2
ATOM      2  C   UNL     1      29.095  34.537   8.292  1.00  0.00     0.407 C 
ATOM      3  N   UNL     1      27.984  34.897   7.489  1.00  0.00    -0.319 N 
ATOM      4  H   UNL     1      27.021  34.613   7.810  1.00  0.00     0.167 HD
ATOM      5  O   UNL     1      30.238  34.870   7.905  1.00  0.00    -0.225 OA
BRANCH   3   6
ATOM      6  C   UNL     1      28.120  35.627   6.265  1.00  0.00     0.154 C 
BRANCH   6   7
ATOM      7  C   UNL     1      27.497  37.018   6.290  1.00  0.00     0.165 C 
BRANCH   7   8
ATOM      8  C   UNL     1      28.409  37.863   7.109  1.00  0.00     0.176 C 
BRANCH   8   9
ATOM      9  C   UNL     1      27.982  39.297   7.316  1.00  0.00     0.178 C 
ATOM     10  C   UNL     1      26.967  40.629   8.929  1.00  0.00     0.272 C 
ATOM     11  C   UNL     1      26.309  41.364   7.781  1.00  0.00     0.113 C 
ATOM     12  O   UNL     1      27.274  39.357   8.484  1.00  0.00    -0.332 OA
ATOM     13  C   UNL     1      26.012  40.496   6.600  1.00  0.00     0.145 C 
ATOM     14  C   UNL     1      27.308  39.881   6.114  1.00  0.00     0.142 C 
BRANCH  10  15
ATOM     15  O   UNL     1      26.103  40.564  10.035  1.00  0.00    -0.338 OA
BRANCH  15  16
ATOM     16  C   UNL     1      25.948  39.352  10.617  1.00  0.00     0.199 C 
BRANCH  16  17
ATOM     17  C   UNL     1      24.802  39.505  11.639  1.00  0.00     0.179 C 
ATOM     18  C   UNL     1      23.846  37.366  11.973  1.00  0.00     0.282 C 
ATOM     19  O   UNL     1      23.811  38.622  11.467  1.00  0.00    -0.341 OA
ATOM     20  C   UNL     1      24.881  37.159  13.013  1.00  0.00     0.202 C 
ATOM     21  C   UNL     1      24.969  38.412  13.876  1.00  0.00     0.179 C 
ATOM     22  C   UNL     1      25.370  39.609  13.037  1.00  0.00     0.177 C 
BRANCH  18  23
ATOM     23  O   UNL     1      23.968  36.488  10.865  1.00  0.00    -0.341 OA
BRANCH  23  24
ATOM     24  C   UNL     1      22.751  36.497  10.196  1.00  0.00     0.184 C 
ATOM     25  C   UNL     1      21.957  35.238  10.305  1.00  0.00     0.178 C 
ATOM     26  O   UNL     1      20.871  35.278   9.481  1.00  0.00    -0.341 OA
ATOM     27  C   UNL     1      20.523  36.410   8.843  1.00  0.00     0.281 C 
ATOM     28  C   UNL     1      22.991  36.722   8.694  1.00  0.00     0.180 C 
ATOM     29  C   UNL     1      21.649  37.103   8.112  1.00  0.00     0.202 C 
BRANCH  25  30
ATOM     30  C   UNL     1      21.516  34.917  11.721  1.00  0.00     0.191 C 
BRANCH  30  31
ATOM     31  O   UNL     1      22.497  34.353  12.492  1.00  0.00    -0.394 OA
ATOM     32  H   UNL     1      22.106  34.111  13.372  1.00  0.00     0.210 HD
ENDBRANCH  30  31
ENDBRANCH  25  30
BRANCH  27  33
ATOM     33  O   UNL     1      19.970  37.316   9.738  1.00  0.00    -0.350 OA
BRANCH  33  34
ATOM     34  C   UNL     1      19.708  38.550   9.144  1.00  0.00     0.169 C 
BRANCH  34  35
ATOM     35  C   UNL     1      19.991  39.696  10.073  1.00  0.00     0.119 C 
BRANCH  35  36
ATOM     36  N   UNL     1      20.538  40.806   9.290  1.00  0.00    -0.092 NA
ATOM     37  N   UNL     1      21.724  40.783   8.893  1.00  0.00     0.001 N 
ATOM     38  N   UNL     1      22.918  40.505   8.651  1.00  0.00    -0.003 NA
ENDBRANCH  35  36
ENDBRANCH  34  35
ENDBRANCH  33  34
ENDBRANCH  27  33
BRANCH  28  39
ATOM     39  O   UNL     1      23.908  37.721   8.447  1.00  0.00    -0.387 OA
ATOM     40  H   UNL     1      24.778  37.388   8.113  1.00  0.00     0.211 HD
ENDBRANCH  28  39
BRANCH  29  41
ATOM     41  O   UNL     1      21.628  36.661   6.793  1.00  0.00    -0.385 OA
ATOM     42  H   UNL     1      22.063  37.376   6.232  1.00  0.00     0.211 HD
ENDBRANCH  29  41
ENDBRANCH  23  24
ENDBRANCH  18  23
BRANCH  20  43
ATOM     43  O   UNL     1      24.550  36.133  13.908  1.00  0.00    -0.385 OA
ATOM     44  H   UNL     1      24.119  36.589  14.691  1.00  0.00     0.211 HD
ENDBRANCH  20  43
BRANCH  21  45
ATOM     45  O   UNL     1      25.891  38.235  14.906  1.00  0.00    -0.387 OA
ATOM     46  H   UNL     1      25.416  38.458  15.746  1.00  0.00     0.211 HD
ENDBRANCH  21  45
BRANCH  22  47
ATOM     47  O   UNL     1      26.742  39.653  12.995  1.00  0.00    -0.387 OA
ATOM     48  H   UNL     1      27.082  38.735  12.835  1.00  0.00     0.211 HD
ENDBRANCH  22  47
ENDBRANCH  16  17
ENDBRANCH  15  16
ENDBRANCH  10  15
BRANCH  10  49
ATOM     49  C   UNL     1      28.156  41.329   9.423  1.00  0.00     0.364 C 
ATOM     50  O   UNL     1      28.434  42.496   9.103  1.00  0.00    -0.246 OA
BRANCH  49  51
ATOM     51  O   UNL     1      29.035  40.697  10.286  1.00  0.00    -0.477 OA
ATOM     52  H   UNL     1      29.783  41.200  10.771  1.00  0.00     0.296 HD
ENDBRANCH  49  51
ENDBRANCH  10  49
BRANCH  13  53
ATOM     53  O   UNL     1      25.017  39.561   6.782  1.00  0.00    -0.391 OA
ATOM     54  H   UNL     1      24.724  39.462   7.733  1.00  0.00     0.211 HD
ENDBRANCH  13  53
BRANCH  14  55
ATOM     55  N   UNL     1      28.040  40.904   5.444  1.00  0.00    -0.348 N 
ATOM     56  C   UNL     1      27.918  41.203   4.057  1.00  0.00     0.217 C 
ATOM     57  H   UNL     1      28.726  41.498   5.969  1.00  0.00     0.163 HD
ATOM     58  C   UNL     1      28.712  42.277   3.434  1.00  0.00     0.114 C 
ATOM     59  O   UNL     1      27.117  40.525   3.388  1.00  0.00    -0.275 OA
ENDBRANCH  14  55
ENDBRANCH   8   9
BRANCH   8  60
ATOM     60  O   UNL     1      29.690  37.713   6.648  1.00  0.00    -0.388 OA
ATOM     61  H   UNL     1      30.338  38.341   7.004  1.00  0.00     0.211 HD
ENDBRANCH   8  60
ENDBRANCH   7   8
BRANCH   7  62
ATOM     62  O   UNL     1      26.214  36.878   6.806  1.00  0.00    -0.388 OA
ATOM     63  H   UNL     1      25.560  37.457   6.344  1.00  0.00     0.211 HD
ENDBRANCH   7  62
ENDBRANCH   6   7
ENDBRANCH   3   6
ENDBRANCH   1   2
BRANCH   1  64
ATOM     64  C   UNL     1      27.759  34.167  10.275  1.00  0.00     0.294 C 
BRANCH  64  65
ATOM     65  C   UNL     1      28.189  35.166  11.276  1.00  0.00     0.120 A 
ATOM     66  C   UNL     1      29.012  34.903  12.356  1.00  0.00     0.138 A 
ATOM     67  N   UNL     1      27.885  36.470  11.326  1.00  0.00    -0.132 NA
ATOM     68  N   UNL     1      29.166  36.070  13.009  1.00  0.00    -0.252 N 
ATOM     69  N   UNL     1      28.464  37.018  12.358  1.00  0.00    -0.067 NA
BRANCH  68  70
ATOM     70  C   UNL     1      29.925  36.345  14.189  1.00  0.00     0.146 C 
BRANCH  70  71
ATOM     71  C   UNL     1      30.517  35.163  14.873  1.00  0.00     0.024 C 
BRANCH  71  72
ATOM     72  C   UNL     1      29.712  34.565  15.972  1.00  0.00     0.002 C 
BRANCH  72  73
ATOM     73  C   UNL     1      29.250  33.167  15.751  1.00  0.00     0.000 C 
BRANCH  73  74
ATOM     74  C   UNL     1      30.318  32.171  15.458  1.00  0.00     0.000 C 
BRANCH  74  75
ATOM     75  C   UNL     1      30.457  31.205  16.601  1.00  0.00     0.000 C 
BRANCH  75  76
ATOM     76  C   UNL     1      29.236  31.159  17.493  1.00  0.00     0.000 C 
BRANCH  76  77
ATOM     77  C   UNL     1      29.554  31.305  18.945  1.00  0.00     0.001 C 
BRANCH  77  78
ATOM     78  C   UNL     1      30.118  30.078  19.591  1.00  0.00     0.012 C 
BRANCH  78  79
ATOM     79  C   UNL     1      29.036  29.455  20.456  1.00  0.00     0.122 C 
BRANCH  79  80
ATOM     80  C   UNL     1      28.685  28.135  19.907  1.00  0.00     0.303 C 
ATOM     81  O   UNL     1      27.718  28.005  19.127  1.00  0.00    -0.252 OA
BRANCH  80  82
ATOM     82  O   UNL     1      29.410  26.998  20.237  1.00  0.00    -0.481 OA
ATOM     83  H   UNL     1      29.382  26.164  19.679  1.00  0.00     0.296 HD
ENDBRANCH  80  82
ENDBRANCH  79  80
ENDBRANCH  78  79
ENDBRANCH  77  78
ENDBRANCH  76  77
ENDBRANCH  75  76
ENDBRANCH  74  75
ENDBRANCH  73  74
ENDBRANCH  72  73
ENDBRANCH  71  72
ENDBRANCH  70  71
ENDBRANCH  68  70
ENDBRANCH  64  65
ENDBRANCH   1  64
TORSDOF 41
BEGIN_RES LYS A 131
REMARK  4 active torsions:
REMARK  status: ('A' for Active; 'I' for Inactive)
REMARK    1  A    between atoms: CA   and  CB  
REMARK    2  A    between atoms: CB   and  CG  
REMARK    3  A    between atoms: CG   and  CD  
REMARK    4  A    between atoms: CD   and  CE  
ROOT
ATOM      1  CA  LYS A 131      29.867  25.555  16.977  1.00 20.52     0.186 C 
ENDROOT
BRANCH   1   2
ATOM      2  CB  LYS A 131      28.345  25.722  17.026  1.00 20.94     0.034 C 
BRANCH   2   3
ATOM      3  CG  LYS A 131      27.601  24.401  16.903  1.00 22.96     0.005 C 
BRANCH   3   4
ATOM      4  CD  LYS A 131      26.616  24.199  18.020  1.00 24.33     0.041 C 
BRANCH   4   5
ATOM      5  CE  LYS A 131      25.306  24.901  17.676  1.00 26.91     0.338 C 
ATOM      6  NZ  LYS A 131      24.444  24.017  16.856  1.00 27.40     0.618 N 
ENDBRANCH   4   5
ENDBRANCH   3   4
ENDBRANCH   2   3
ENDBRANCH   1   2
END_RES LYS A 131
BEGIN_RES LYS A 135
REMARK  4 active torsions:
REMARK  status: ('A' for Active; 'I' for Inactive)
REMARK    5  A    between atoms: CA   and  CB  
REMARK    6  A    between atoms: CB   and  CG  
REMARK    7  A    between atoms: CG   and  CD  
REMARK    8  A    between atoms: CD   and  CE  
ROOT
ATOM      7  CA  LYS A 135      33.193  34.663   9.290  1.00 25.02     0.186 C 
ENDROOT
BRANCH   7   8
ATOM      8  CB  LYS A 135      32.060  35.360  10.034  1.00 26.63     0.034 C 
BRANCH   8   9
ATOM      9  CG  LYS A 135      32.517  36.121  11.251  1.00 29.45     0.005 C 
BRANCH   9  10
ATOM     10  CD  LYS A 135      31.927  37.523  11.261  1.00 32.00     0.041 C 
BRANCH  10  11
ATOM     11  CE  LYS A 135      31.150  37.782   9.985  1.00 34.25     0.338 C 
ATOM     12  NZ  LYS A 135      31.799  38.844   9.167  1.00 35.99     0.618 N 
ENDBRANCH  10  11
ENDBRANCH   9  10
ENDBRANCH   8   9
ENDBRANCH   7   8
END_RES LYS A 135
