REMARK VINA RESULT:    -4.613      3.491      7.962
REMARK INTER + INTRA:         -22.514
REMARK INTER:                 -12.694
REMARK INTRA:                  -9.819
REMARK UNBOUND:               -10.485
REMARK SMILES CC(=O)N[C@@H]1[C@@H](O)C[C@](OC[C@H]2O[C@@H](O[C@H]3[C@H](O)[C@@H](O)[C@H](OCCN=[N+]=[N-])O[C@@H]3CO)[C@H](O)[C@@H](O)[C@H]2O)(C(=O)O)O[C@H]1C(O)[C@H](O)CNC(=O)OCc1cn(CC(O)c2ccccc2)nn1
REMARK SMILES IDX 9 1 8 2 6 3 5 4 42 5 41 6 10 7 11 8 12 9 14 10 13 11 32 12
REMARK SMILES IDX 34 13 36 14 15 15 16 16 29 17 28 18 21 19 17 20 19 21 30 22
REMARK SMILES IDX 31 23 22 25 23 26 24 27 25 28 26 29 27 30 18 31 20 33 33 35
REMARK SMILES IDX 35 37 37 39 38 41 39 42 40 43 7 45 43 47 44 48 45 50 46 51
REMARK SMILES IDX 47 53 48 54 49 55 50 57 51 58 52 59 53 60 54 61 66 62 55 63
REMARK SMILES IDX 65 64 56 65 57 66 58 67 59 69 60 70 64 71 61 72 63 73 62 74
REMARK SMILES IDX 4 75 2 76 1 78 3 79
REMARK H PARENT 31 24 18 32 20 34 33 36 35 38 37 40 40 44 7 46 44 49 46 52
REMARK H PARENT 48 56 58 68 4 77
REMARK Flexibility Score: inf
ROOT
ATOM      1  C   UNL     1      28.251  36.030   8.063  1.00  0.00     0.272 C 
ATOM      2  C   UNL     1      28.633  35.893   6.637  1.00  0.00     0.113 C 
ATOM      3  C   UNL     1      28.377  37.064   5.756  1.00  0.00     0.145 C 
ATOM      4  C   UNL     1      27.453  38.011   6.454  1.00  0.00     0.142 C 
ATOM      5  C   UNL     1      26.416  37.180   7.189  1.00  0.00     0.178 C 
ATOM      6  O   UNL     1      26.907  36.396   8.187  1.00  0.00    -0.332 OA
ENDROOT
BRANCH   1   7
ATOM      7  O   UNL     1      28.969  36.898   8.830  1.00  0.00    -0.338 OA
BRANCH   7   8
ATOM      8  C   UNL     1      28.536  37.150  10.095  1.00  0.00     0.199 C 
BRANCH   8   9
ATOM      9  C   UNL     1      29.519  38.012  10.853  1.00  0.00     0.179 C 
ATOM     10  C   UNL     1      30.408  40.128  10.701  1.00  0.00     0.282 C 
ATOM     11  O   UNL     1      30.044  38.991  10.032  1.00  0.00    -0.341 OA
ATOM     12  C   UNL     1      29.268  40.874  11.359  1.00  0.00     0.202 C 
ATOM     13  C   UNL     1      28.252  39.854  11.824  1.00  0.00     0.179 C 
ATOM     14  C   UNL     1      29.011  38.580  12.135  1.00  0.00     0.177 C 
BRANCH  10  15
ATOM     15  O   UNL     1      31.017  41.055   9.862  1.00  0.00    -0.341 OA
BRANCH  15  16
ATOM     16  C   UNL     1      32.335  40.821   9.580  1.00  0.00     0.184 C 
ATOM     17  C   UNL     1      32.909  42.129   9.049  1.00  0.00     0.178 C 
ATOM     18  O   UNL     1      32.979  42.120   7.671  1.00  0.00    -0.341 OA
ATOM     19  C   UNL     1      31.723  41.723   7.179  1.00  0.00     0.281 C 
ATOM     20  C   UNL     1      32.370  39.727   8.520  1.00  0.00     0.180 C 
ATOM     21  C   UNL     1      31.693  40.200   7.244  1.00  0.00     0.202 C 
BRANCH  17  22
ATOM     22  C   UNL     1      34.257  42.424   9.683  1.00  0.00     0.191 C 
BRANCH  22  23
ATOM     23  O   UNL     1      35.290  41.795   8.994  1.00  0.00    -0.394 OA
ATOM     24  H   UNL     1      34.963  41.322   8.184  1.00  0.00     0.210 HD
ENDBRANCH  22  23
ENDBRANCH  17  22
BRANCH  19  25
ATOM     25  O   UNL     1      31.628  42.206   5.897  1.00  0.00    -0.350 OA
BRANCH  25  26
ATOM     26  C   UNL     1      32.819  42.548   5.303  1.00  0.00     0.169 C 
BRANCH  26  27
ATOM     27  C   UNL     1      33.126  41.785   4.045  1.00  0.00     0.119 C 
BRANCH  27  28
ATOM     28  N   UNL     1      33.843  40.548   4.375  1.00  0.00    -0.092 NA
ATOM     29  N   UNL     1      34.738  40.681   5.224  1.00  0.00     0.001 N 
ATOM     30  N   UNL     1      35.544  40.537   6.143  1.00  0.00    -0.003 NA
ENDBRANCH  27  28
ENDBRANCH  26  27
ENDBRANCH  25  26
ENDBRANCH  19  25
BRANCH  20  31
ATOM     31  O   UNL     1      33.682  39.351   8.262  1.00  0.00    -0.387 OA
ATOM     32  H   UNL     1      33.808  39.228   7.279  1.00  0.00     0.211 HD
ENDBRANCH  20  31
BRANCH  21  33
ATOM     33  O   UNL     1      30.412  39.689   7.143  1.00  0.00    -0.385 OA
ATOM     34  H   UNL     1      29.923  40.230   6.476  1.00  0.00     0.211 HD
ENDBRANCH  21  33
ENDBRANCH  15  16
ENDBRANCH  10  15
BRANCH  12  35
ATOM     35  O   UNL     1      29.768  41.564  12.468  1.00  0.00    -0.385 OA
ATOM     36  H   UNL     1      29.964  42.494  12.171  1.00  0.00     0.211 HD
ENDBRANCH  12  35
BRANCH  13  37
ATOM     37  O   UNL     1      27.373  39.668  10.760  1.00  0.00    -0.387 OA
ATOM     38  H   UNL     1      26.681  39.004  10.925  1.00  0.00     0.211 HD
ENDBRANCH  13  37
BRANCH  14  39
ATOM     39  O   UNL     1      28.312  37.685  12.909  1.00  0.00    -0.387 OA
ATOM     40  H   UNL     1      27.579  37.223  12.426  1.00  0.00     0.211 HD
ENDBRANCH  14  39
ENDBRANCH   8   9
ENDBRANCH   7   8
ENDBRANCH   1   7
BRANCH   1  41
ATOM     41  C   UNL     1      28.293  34.621   8.632  1.00  0.00     0.364 C 
ATOM     42  O   UNL     1      27.264  34.085   9.009  1.00  0.00    -0.246 OA
BRANCH  41  43
ATOM     43  O   UNL     1      29.541  34.024   8.682  1.00  0.00    -0.477 OA
ATOM     44  H   UNL     1      29.561  33.027   8.716  1.00  0.00     0.296 HD
ENDBRANCH  41  43
ENDBRANCH   1  41
BRANCH   3  45
ATOM     45  O   UNL     1      29.561  37.661   5.321  1.00  0.00    -0.391 OA
ATOM     46  H   UNL     1      30.292  37.029   5.569  1.00  0.00     0.211 HD
ENDBRANCH   3  45
BRANCH   5  47
ATOM     47  C   UNL     1      25.337  38.145   7.612  1.00  0.00     0.176 C 
BRANCH  47  48
ATOM     48  O   UNL     1      25.816  38.904   8.690  1.00  0.00    -0.388 OA
ATOM     49  H   UNL     1      25.013  39.271   9.155  1.00  0.00     0.211 HD
ENDBRANCH  47  48
BRANCH  47  50
ATOM     50  C   UNL     1      24.050  37.460   7.929  1.00  0.00     0.165 C 
BRANCH  50  51
ATOM     51  O   UNL     1      23.034  37.819   7.084  1.00  0.00    -0.388 OA
ATOM     52  H   UNL     1      22.955  38.770   6.910  1.00  0.00     0.211 HD
ENDBRANCH  50  51
BRANCH  50  53
ATOM     53  C   UNL     1      23.699  37.430   9.394  1.00  0.00     0.154 C 
BRANCH  53  54
ATOM     54  N   UNL     1      24.405  36.464  10.183  1.00  0.00    -0.319 N 
ATOM     55  C   UNL     1      25.248  36.779  11.288  1.00  0.00     0.407 C 
ATOM     56  H   UNL     1      24.302  35.425   9.949  1.00  0.00     0.167 HD
ATOM     57  O   UNL     1      25.413  37.958  11.646  1.00  0.00    -0.225 OA
BRANCH  55  58
ATOM     58  O   UNL     1      25.901  35.790  11.991  1.00  0.00    -0.443 OA
BRANCH  58  59
ATOM     59  C   UNL     1      25.450  35.297  13.252  1.00  0.00     0.294 C 
BRANCH  59  60
ATOM     60  C   UNL     1      24.523  34.142  13.032  1.00  0.00     0.120 A 
ATOM     61  C   UNL     1      24.724  32.802  13.240  1.00  0.00     0.138 A 
ATOM     62  N   UNL     1      23.259  34.274  12.576  1.00  0.00    -0.132 NA
ATOM     63  N   UNL     1      23.579  32.133  12.910  1.00  0.00    -0.249 N 
ATOM     64  N   UNL     1      22.745  33.070  12.522  1.00  0.00    -0.067 NA
BRANCH  63  65
ATOM     65  C   UNL     1      23.379  30.694  12.993  1.00  0.00     0.182 C 
BRANCH  65  66
ATOM     66  C   UNL     1      21.946  30.392  13.390  1.00  0.00     0.166 C 
BRANCH  66  67
ATOM     67  O   UNL     1      21.227  30.398  12.171  1.00  0.00    -0.386 OA
ATOM     68  H   UNL     1      21.628  29.736  11.543  1.00  0.00     0.211 HD
ENDBRANCH  66  67
BRANCH  66  69
ATOM     69  C   UNL     1      21.769  29.108  14.076  1.00  0.00    -0.018 A 
ATOM     70  C   UNL     1      22.758  28.505  14.791  1.00  0.00     0.006 A 
ATOM     71  C   UNL     1      20.505  28.518  13.936  1.00  0.00     0.006 A 
ATOM     72  C   UNL     1      22.489  27.282  15.386  1.00  0.00     0.000 A 
ATOM     73  C   UNL     1      20.265  27.310  14.533  1.00  0.00     0.000 A 
ATOM     74  C   UNL     1      21.257  26.685  15.262  1.00  0.00     0.000 A 
ENDBRANCH  66  69
ENDBRANCH  65  66
ENDBRANCH  63  65
ENDBRANCH  59  60
ENDBRANCH  58  59
ENDBRANCH  55  58
ENDBRANCH  53  54
ENDBRANCH  50  53
ENDBRANCH  47  50
ENDBRANCH   5  47
BRANCH   4  75
ATOM     75  N   UNL     1      26.682  38.787   5.469  1.00  0.00    -0.348 N 
ATOM     76  C   UNL     1      27.125  40.040   4.976  1.00  0.00     0.217 C 
ATOM     77  H   UNL     1      25.775  38.420   5.109  1.00  0.00     0.163 HD
ATOM     78  C   UNL     1      26.375  40.851   3.982  1.00  0.00     0.114 C 
ATOM     79  O   UNL     1      28.222  40.489   5.407  1.00  0.00    -0.275 OA
ENDBRANCH   4  75
TORSDOF 33
BEGIN_RES LYS A 131
REMARK  4 active torsions:
REMARK  status: ('A' for Active; 'I' for Inactive)
REMARK    1  A    between atoms: CA   and  CB  
REMARK    2  A    between atoms: CB   and  CG  
REMARK    3  A    between atoms: CG   and  CD  
REMARK    4  A    between atoms: CD   and  CE  
ROOT
ATOM      1  CA  LYS A 131      29.867  25.555  16.977  1.00 20.52     0.186 C 
ENDROOT
BRANCH   1   2
ATOM      2  CB  LYS A 131      28.345  25.722  17.026  1.00 20.94     0.034 C 
BRANCH   2   3
ATOM      3  CG  LYS A 131      27.601  24.403  16.885  1.00 22.96     0.005 C 
BRANCH   3   4
ATOM      4  CD  LYS A 131      26.384  24.342  17.766  1.00 24.33     0.041 C 
BRANCH   4   5
ATOM      5  CE  LYS A 131      26.299  25.613  18.606  1.00 26.91     0.338 C 
ATOM      6  NZ  LYS A 131      24.984  26.271  18.420  1.00 27.40     0.618 N 
ENDBRANCH   4   5
ENDBRANCH   3   4
ENDBRANCH   2   3
ENDBRANCH   1   2
END_RES LYS A 131
BEGIN_RES LYS A 135
REMARK  4 active torsions:
REMARK  status: ('A' for Active; 'I' for Inactive)
REMARK    5  A    between atoms: CA   and  CB  
REMARK    6  A    between atoms: CB   and  CG  
REMARK    7  A    between atoms: CG   and  CD  
REMARK    8  A    between atoms: CD   and  CE  
ROOT
ATOM      7  CA  LYS A 135      33.193  34.663   9.290  1.00 25.02     0.186 C 
ENDROOT
BRANCH   7   8
ATOM      8  CB  LYS A 135      32.060  35.360  10.034  1.00 26.63     0.034 C 
BRANCH   8   9
ATOM      9  CG  LYS A 135      32.502  36.038  11.305  1.00 29.45     0.005 C 
BRANCH   9  10
ATOM     10  CD  LYS A 135      31.729  35.498  12.498  1.00 32.00     0.041 C 
BRANCH  10  11
ATOM     11  CE  LYS A 135      30.554  34.657  12.036  1.00 34.25     0.338 C 
ATOM     12  NZ  LYS A 135      29.503  34.580  13.088  1.00 35.99     0.618 N 
ENDBRANCH  10  11
ENDBRANCH   9  10
ENDBRANCH   8   9
ENDBRANCH   7   8
END_RES LYS A 135
