REMARK VINA RESULT:    -5.337      1.569      5.575
REMARK INTER + INTRA:         -25.545
REMARK INTER:                 -15.557
REMARK INTRA:                  -9.988
REMARK UNBOUND:               -12.409
REMARK SMILES CC(=O)N[C@@H]1[C@@H](O)C[C@](OC[C@H]2O[C@@H](O[C@H]3[C@H](O)[C@@H](O)[C@H](OCCN=[N+]=[N-])O[C@@H]3CO)[C@H](O)[C@@H](O)[C@H]2O)(C(=O)O)O[C@H]1C(O)[C@H](O)CNC(=O)OCc1cn(C2c3ccccc3-c3ccccc32)nn1
REMARK SMILES IDX 9 1 8 2 6 3 5 4 42 5 41 6 10 7 11 8 12 9 14 10 13 11 32 12
REMARK SMILES IDX 34 13 36 14 15 15 16 16 29 17 28 18 21 19 17 20 19 21 30 22
REMARK SMILES IDX 31 23 22 25 23 26 24 27 25 28 26 29 27 30 18 31 20 33 33 35
REMARK SMILES IDX 35 37 37 39 38 41 39 42 40 43 7 45 43 47 44 48 45 50 46 51
REMARK SMILES IDX 47 53 48 54 49 55 50 57 51 58 52 59 53 60 54 61 70 62 55 63
REMARK SMILES IDX 69 64 56 65 57 66 68 67 58 68 62 69 63 70 67 71 59 72 61 73
REMARK SMILES IDX 64 74 66 75 60 76 65 77 4 78 2 79 1 81 3 82
REMARK H PARENT 31 24 18 32 20 34 33 36 35 38 37 40 40 44 7 46 44 49 46 52
REMARK H PARENT 48 56 4 80
REMARK Flexibility Score: inf
ROOT
ATOM      1  C   UNL     1      29.025  39.302   6.001  1.00  0.00     0.272 C 
ATOM      2  C   UNL     1      30.072  39.996   5.228  1.00  0.00     0.113 C 
ATOM      3  C   UNL     1      31.259  40.348   6.042  1.00  0.00     0.145 C 
ATOM      4  C   UNL     1      30.994  40.403   7.521  1.00  0.00     0.142 C 
ATOM      5  C   UNL     1      29.568  40.771   7.743  1.00  0.00     0.178 C 
ATOM      6  O   UNL     1      28.625  39.988   7.158  1.00  0.00    -0.332 OA
ENDROOT
BRANCH   1   7
ATOM      7  O   UNL     1      29.367  38.025   6.361  1.00  0.00    -0.338 OA
BRANCH   7   8
ATOM      8  C   UNL     1      28.494  37.356   7.174  1.00  0.00     0.199 C 
BRANCH   8   9
ATOM      9  C   UNL     1      29.146  37.072   8.510  1.00  0.00     0.179 C 
ATOM     10  C   UNL     1      27.398  35.680   9.223  1.00  0.00     0.282 C 
ATOM     11  O   UNL     1      28.152  36.803   9.422  1.00  0.00    -0.341 OA
ATOM     12  C   UNL     1      28.245  34.516   8.880  1.00  0.00     0.202 C 
ATOM     13  C   UNL     1      29.649  34.851   9.417  1.00  0.00     0.179 C 
ATOM     14  C   UNL     1      30.139  35.944   8.442  1.00  0.00     0.177 C 
BRANCH  10  15
ATOM     15  O   UNL     1      26.302  35.928   8.442  1.00  0.00    -0.341 OA
BRANCH  15  16
ATOM     16  C   UNL     1      25.208  36.467   9.064  1.00  0.00     0.184 C 
ATOM     17  C   UNL     1      24.341  35.407   9.632  1.00  0.00     0.178 C 
ATOM     18  O   UNL     1      22.982  35.666   9.489  1.00  0.00    -0.341 OA
ATOM     19  C   UNL     1      22.661  36.983   9.552  1.00  0.00     0.281 C 
ATOM     20  C   UNL     1      24.509  37.280   7.977  1.00  0.00     0.180 C 
ATOM     21  C   UNL     1      23.107  37.635   8.247  1.00  0.00     0.202 C 
BRANCH  17  22
ATOM     22  C   UNL     1      24.598  35.191  11.108  1.00  0.00     0.191 C 
BRANCH  22  23
ATOM     23  O   UNL     1      25.771  34.421  11.298  1.00  0.00    -0.394 OA
ATOM     24  H   UNL     1      26.554  34.901  10.890  1.00  0.00     0.210 HD
ENDBRANCH  22  23
ENDBRANCH  17  22
BRANCH  19  25
ATOM     25  O   UNL     1      23.234  37.715  10.574  1.00  0.00    -0.350 OA
BRANCH  25  26
ATOM     26  C   UNL     1      22.742  38.982  10.708  1.00  0.00     0.169 C 
BRANCH  26  27
ATOM     27  C   UNL     1      23.732  40.061  10.981  1.00  0.00     0.119 C 
BRANCH  27  28
ATOM     28  N   UNL     1      24.319  40.619   9.780  1.00  0.00    -0.092 NA
ATOM     29  N   UNL     1      23.628  41.438   9.160  1.00  0.00     0.001 N 
ATOM     30  N   UNL     1      22.960  42.182   8.433  1.00  0.00    -0.003 NA
ENDBRANCH  27  28
ENDBRANCH  26  27
ENDBRANCH  25  26
ENDBRANCH  19  25
BRANCH  20  31
ATOM     31  O   UNL     1      25.232  38.485   7.770  1.00  0.00    -0.387 OA
ATOM     32  H   UNL     1      26.112  38.289   7.361  1.00  0.00     0.211 HD
ENDBRANCH  20  31
BRANCH  21  33
ATOM     33  O   UNL     1      22.272  37.130   7.241  1.00  0.00    -0.385 OA
ATOM     34  H   UNL     1      21.358  36.929   7.570  1.00  0.00     0.211 HD
ENDBRANCH  21  33
ENDBRANCH  15  16
ENDBRANCH  10  15
BRANCH  12  35
ATOM     35  O   UNL     1      27.879  33.345   9.542  1.00  0.00    -0.385 OA
ATOM     36  H   UNL     1      28.689  32.800   9.684  1.00  0.00     0.211 HD
ENDBRANCH  12  35
BRANCH  13  37
ATOM     37  O   UNL     1      30.510  33.786   9.288  1.00  0.00    -0.387 OA
ATOM     38  H   UNL     1      30.665  33.621   8.327  1.00  0.00     0.211 HD
ENDBRANCH  13  37
BRANCH  14  39
ATOM     39  O   UNL     1      30.094  35.368   7.187  1.00  0.00    -0.387 OA
ATOM     40  H   UNL     1      29.173  35.173   6.885  1.00  0.00     0.211 HD
ENDBRANCH  14  39
ENDBRANCH   8   9
ENDBRANCH   7   8
ENDBRANCH   1   7
BRANCH   1  41
ATOM     41  C   UNL     1      27.724  39.264   5.200  1.00  0.00     0.364 C 
ATOM     42  O   UNL     1      27.769  38.800   4.057  1.00  0.00    -0.246 OA
BRANCH  41  43
ATOM     43  O   UNL     1      26.542  39.727   5.723  1.00  0.00    -0.477 OA
ATOM     44  H   UNL     1      26.249  39.488   6.678  1.00  0.00     0.296 HD
ENDBRANCH  41  43
ENDBRANCH   1  41
BRANCH   3  45
ATOM     45  O   UNL     1      32.385  39.555   5.814  1.00  0.00    -0.391 OA
ATOM     46  H   UNL     1      32.174  38.676   5.470  1.00  0.00     0.211 HD
ENDBRANCH   3  45
BRANCH   5  47
ATOM     47  C   UNL     1      29.305  40.810   9.247  1.00  0.00     0.176 C 
BRANCH  47  48
ATOM     48  O   UNL     1      30.171  39.959   9.884  1.00  0.00    -0.388 OA
ATOM     49  H   UNL     1      29.993  39.928  10.872  1.00  0.00     0.211 HD
ENDBRANCH  47  48
BRANCH  47  50
ATOM     50  C   UNL     1      27.872  40.440   9.482  1.00  0.00     0.165 C 
BRANCH  50  51
ATOM     51  O   UNL     1      27.046  41.530   9.156  1.00  0.00    -0.388 OA
ATOM     52  H   UNL     1      26.190  41.472   9.635  1.00  0.00     0.211 HD
ENDBRANCH  50  51
BRANCH  50  53
ATOM     53  C   UNL     1      27.705  40.256  10.995  1.00  0.00     0.154 C 
BRANCH  53  54
ATOM     54  N   UNL     1      27.459  38.869  11.246  1.00  0.00    -0.319 N 
ATOM     55  C   UNL     1      27.001  38.435  12.507  1.00  0.00     0.407 C 
ATOM     56  H   UNL     1      27.618  38.167  10.485  1.00  0.00     0.167 HD
ATOM     57  O   UNL     1      26.807  39.248  13.447  1.00  0.00    -0.225 OA
BRANCH  55  58
ATOM     58  O   UNL     1      26.741  37.105  12.772  1.00  0.00    -0.443 OA
BRANCH  58  59
ATOM     59  C   UNL     1      27.021  36.497  14.023  1.00  0.00     0.294 C 
BRANCH  59  60
ATOM     60  C   UNL     1      28.190  35.602  13.830  1.00  0.00     0.120 A 
ATOM     61  C   UNL     1      29.190  35.288  14.741  1.00  0.00     0.139 A 
ATOM     62  N   UNL     1      28.497  34.918  12.718  1.00  0.00    -0.132 NA
ATOM     63  N   UNL     1      30.056  34.438  14.166  1.00  0.00    -0.240 N 
ATOM     64  N   UNL     1      29.606  34.234  12.938  1.00  0.00    -0.066 NA
BRANCH  63  65
ATOM     65  C   UNL     1      31.252  33.857  14.778  1.00  0.00     0.170 C 
ATOM     66  C   UNL     1      30.822  32.910  15.810  1.00  0.00    -0.011 A 
ATOM     67  C   UNL     1      32.000  34.885  15.525  1.00  0.00    -0.011 A 
ATOM     68  C   UNL     1      30.088  31.732  15.743  1.00  0.00     0.007 A 
ATOM     69  C   UNL     1      31.252  33.308  17.048  1.00  0.00    -0.012 A 
ATOM     70  C   UNL     1      31.993  34.554  16.859  1.00  0.00    -0.012 A 
ATOM     71  C   UNL     1      32.657  36.036  15.134  1.00  0.00     0.007 A 
ATOM     72  C   UNL     1      29.813  31.007  16.880  1.00  0.00     0.000 A 
ATOM     73  C   UNL     1      30.973  32.577  18.193  1.00  0.00     0.009 A 
ATOM     74  C   UNL     1      32.625  35.345  17.791  1.00  0.00     0.009 A 
ATOM     75  C   UNL     1      33.296  36.841  16.050  1.00  0.00     0.000 A 
ATOM     76  C   UNL     1      30.247  31.410  18.134  1.00  0.00     0.001 A 
ATOM     77  C   UNL     1      33.279  36.493  17.384  1.00  0.00     0.001 A 
ENDBRANCH  63  65
ENDBRANCH  59  60
ENDBRANCH  58  59
ENDBRANCH  55  58
ENDBRANCH  53  54
ENDBRANCH  50  53
ENDBRANCH  47  50
ENDBRANCH   5  47
BRANCH   4  78
ATOM     78  N   UNL     1      31.793  41.531   8.039  1.00  0.00    -0.348 N 
ATOM     79  C   UNL     1      33.098  41.340   8.562  1.00  0.00     0.217 C 
ATOM     80  H   UNL     1      31.369  42.468   8.012  1.00  0.00     0.163 HD
ATOM     81  C   UNL     1      33.895  42.494   9.084  1.00  0.00     0.114 C 
ATOM     82  O   UNL     1      33.566  40.168   8.572  1.00  0.00    -0.275 OA
ENDBRANCH   4  78
TORSDOF 30
BEGIN_RES LYS A 131
REMARK  4 active torsions:
REMARK  status: ('A' for Active; 'I' for Inactive)
REMARK    1  A    between atoms: CA   and  CB  
REMARK    2  A    between atoms: CB   and  CG  
REMARK    3  A    between atoms: CG   and  CD  
REMARK    4  A    between atoms: CD   and  CE  
ROOT
ATOM      1  CA  LYS A 131      29.867  25.555  16.977  1.00 20.52     0.186 C 
ENDROOT
BRANCH   1   2
ATOM      2  CB  LYS A 131      28.345  25.722  17.026  1.00 20.94     0.034 C 
BRANCH   2   3
ATOM      3  CG  LYS A 131      27.608  24.396  17.135  1.00 22.96     0.005 C 
BRANCH   3   4
ATOM      4  CD  LYS A 131      26.135  24.584  17.368  1.00 24.33     0.041 C 
BRANCH   4   5
ATOM      5  CE  LYS A 131      25.456  23.221  17.461  1.00 26.91     0.338 C 
ATOM      6  NZ  LYS A 131      24.821  23.048  18.789  1.00 27.40     0.618 N 
ENDBRANCH   4   5
ENDBRANCH   3   4
ENDBRANCH   2   3
ENDBRANCH   1   2
END_RES LYS A 131
BEGIN_RES LYS A 135
REMARK  4 active torsions:
REMARK  status: ('A' for Active; 'I' for Inactive)
REMARK    5  A    between atoms: CA   and  CB  
REMARK    6  A    between atoms: CB   and  CG  
REMARK    7  A    between atoms: CG   and  CD  
REMARK    8  A    between atoms: CD   and  CE  
ROOT
ATOM      7  CA  LYS A 135      33.193  34.663   9.290  1.00 25.02     0.186 C 
ENDROOT
BRANCH   7   8
ATOM      8  CB  LYS A 135      32.060  35.360  10.034  1.00 26.63     0.034 C 
BRANCH   8   9
ATOM      9  CG  LYS A 135      32.434  35.799  11.426  1.00 29.45     0.005 C 
BRANCH   9  10
ATOM     10  CD  LYS A 135      32.160  37.284  11.612  1.00 32.00     0.041 C 
BRANCH  10  11
ATOM     11  CE  LYS A 135      30.722  37.511  12.037  1.00 34.25     0.338 C 
ATOM     12  NZ  LYS A 135      30.649  38.401  13.229  1.00 35.99     0.618 N 
ENDBRANCH  10  11
ENDBRANCH   9  10
ENDBRANCH   8   9
ENDBRANCH   7   8
END_RES LYS A 135
