REMARK VINA RESULT:    -2.977      2.292      5.525
REMARK INTER + INTRA:         -22.101
REMARK INTER:                 -12.126
REMARK INTRA:                  -9.974
REMARK UNBOUND:               -13.729
REMARK SMILES CCOC(CCn1cc(COC(=O)NC[C@@H](O)C(O)[C@@H]2O[C@@](OC[C@H]3O[C@@H](O[C@H]4[C@H](O)[C@@H](O)[C@H](OCCN=[N+]=[N-])O[C@@H]4CO)[C@H](O)[C@@H](O)[C@H]3O)(C(=O)O)C[C@H](O)[C@H]2NC(C)=O)nn1)OCC
REMARK SMILES IDX 18 1 20 2 22 3 54 4 21 5 55 6 57 7 23 8 24 9 25 10 27 11
REMARK SMILES IDX 26 12 45 13 47 14 49 15 28 16 29 17 42 18 41 19 34 20 30 21
REMARK SMILES IDX 32 22 43 23 44 24 35 26 36 27 37 28 38 29 39 30 40 31 31 32
REMARK SMILES IDX 33 34 46 36 48 38 50 40 51 42 52 43 53 44 56 46 58 48 59 49
REMARK SMILES IDX 60 51 61 52 19 53 16 55 17 56 15 58 14 59 12 60 13 62 11 63
REMARK SMILES IDX 10 64 9 65 8 66 62 67 7 68 63 69 6 70 5 71 4 72 3 73 2 74
REMARK SMILES IDX 1 75 64 76 65 77 66 78
REMARK H PARENT 44 25 31 33 33 35 46 37 48 39 50 41 53 45 56 47 58 50 19 54
REMARK H PARENT 17 57 14 61
REMARK Flexibility Score: inf
ROOT
ATOM      1  C   UNL     1      25.836  37.329  10.936  1.00  0.00     0.176 C 
ENDROOT
BRANCH   1   2
ATOM      2  C   UNL     1      24.564  37.564  10.178  1.00  0.00     0.178 C 
ATOM      3  C   UNL     1      22.365  36.884   9.944  1.00  0.00     0.272 C 
ATOM      4  C   UNL     1      22.390  38.039   9.007  1.00  0.00     0.113 C 
ATOM      5  O   UNL     1      23.608  36.641  10.572  1.00  0.00    -0.332 OA
ATOM      6  C   UNL     1      23.554  38.109   8.081  1.00  0.00     0.145 C 
ATOM      7  C   UNL     1      24.736  37.330   8.673  1.00  0.00     0.142 C 
BRANCH   3   8
ATOM      8  O   UNL     1      21.891  35.714   9.508  1.00  0.00    -0.338 OA
BRANCH   8   9
ATOM      9  C   UNL     1      21.007  35.632   8.498  1.00  0.00     0.199 C 
BRANCH   9  10
ATOM     10  C   UNL     1      19.744  34.922   8.930  1.00  0.00     0.179 C 
ATOM     11  C   UNL     1      18.705  33.741  10.533  1.00  0.00     0.282 C 
ATOM     12  O   UNL     1      19.605  34.815  10.301  1.00  0.00    -0.341 OA
ATOM     13  C   UNL     1      17.349  34.183  10.127  1.00  0.00     0.202 C 
ATOM     14  C   UNL     1      17.366  34.617   8.680  1.00  0.00     0.179 C 
ATOM     15  C   UNL     1      18.491  35.556   8.335  1.00  0.00     0.177 C 
BRANCH  11  16
ATOM     16  O   UNL     1      18.826  33.334  11.866  1.00  0.00    -0.341 OA
BRANCH  16  17
ATOM     17  C   UNL     1      19.890  32.496  11.979  1.00  0.00     0.184 C 
ATOM     18  C   UNL     1      19.652  31.083  12.347  1.00  0.00     0.178 C 
ATOM     19  O   UNL     1      20.803  30.351  12.020  1.00  0.00    -0.341 OA
ATOM     20  C   UNL     1      21.870  30.723  12.853  1.00  0.00     0.281 C 
ATOM     21  C   UNL     1      20.879  33.014  13.072  1.00  0.00     0.180 C 
ATOM     22  C   UNL     1      22.155  32.209  12.793  1.00  0.00     0.202 C 
BRANCH  18  23
ATOM     23  C   UNL     1      18.498  30.502  11.587  1.00  0.00     0.191 C 
BRANCH  23  24
ATOM     24  O   UNL     1      17.267  30.918  12.092  1.00  0.00    -0.394 OA
ATOM     25  H   UNL     1      17.123  30.645  13.016  1.00  0.00     0.210 HD
ENDBRANCH  23  24
ENDBRANCH  18  23
BRANCH  20  26
ATOM     26  O   UNL     1      22.987  30.055  12.384  1.00  0.00    -0.350 OA
BRANCH  26  27
ATOM     27  C   UNL     1      23.306  28.886  13.005  1.00  0.00     0.169 C 
BRANCH  27  28
ATOM     28  C   UNL     1      23.189  29.036  14.499  1.00  0.00     0.119 C 
BRANCH  28  29
ATOM     29  N   UNL     1      24.367  29.737  15.004  1.00  0.00    -0.092 NA
ATOM     30  N   UNL     1      24.736  29.381  16.142  1.00  0.00     0.001 N 
ATOM     31  N   UNL     1      25.023  29.467  17.338  1.00  0.00    -0.003 NA
ENDBRANCH  28  29
ENDBRANCH  27  28
ENDBRANCH  26  27
ENDBRANCH  20  26
BRANCH  21  32
ATOM     32  O   UNL     1      21.113  34.356  12.934  1.00  0.00    -0.387 OA
ATOM     33  H   UNL     1      22.001  34.632  13.268  1.00  0.00     0.211 HD
ENDBRANCH  21  32
BRANCH  22  34
ATOM     34  O   UNL     1      23.141  32.514  13.693  1.00  0.00    -0.385 OA
ATOM     35  H   UNL     1      24.018  32.268  13.261  1.00  0.00     0.211 HD
ENDBRANCH  22  34
ENDBRANCH  16  17
ENDBRANCH  11  16
BRANCH  13  36
ATOM     36  O   UNL     1      16.424  33.129  10.196  1.00  0.00    -0.385 OA
ATOM     37  H   UNL     1      15.580  33.355   9.745  1.00  0.00     0.211 HD
ENDBRANCH  13  36
BRANCH  14  38
ATOM     38  O   UNL     1      16.128  35.097   8.267  1.00  0.00    -0.387 OA
ATOM     39  H   UNL     1      16.119  35.277   7.289  1.00  0.00     0.211 HD
ENDBRANCH  14  38
BRANCH  15  40
ATOM     40  O   UNL     1      18.315  36.821   8.875  1.00  0.00    -0.387 OA
ATOM     41  H   UNL     1      17.658  36.805   9.606  1.00  0.00     0.211 HD
ENDBRANCH  15  40
ENDBRANCH   9  10
ENDBRANCH   8   9
ENDBRANCH   3   8
BRANCH   3  42
ATOM     42  C   UNL     1      21.488  37.292  11.089  1.00  0.00     0.364 C 
ATOM     43  O   UNL     1      21.837  37.126  12.272  1.00  0.00    -0.246 OA
BRANCH  42  44
ATOM     44  O   UNL     1      20.244  37.877  10.874  1.00  0.00    -0.477 OA
ATOM     45  H   UNL     1      19.540  37.788  11.599  1.00  0.00     0.296 HD
ENDBRANCH  42  44
ENDBRANCH   3  42
BRANCH   6  46
ATOM     46  O   UNL     1      23.297  37.706   6.794  1.00  0.00    -0.391 OA
ATOM     47  H   UNL     1      23.787  36.893   6.515  1.00  0.00     0.211 HD
ENDBRANCH   6  46
BRANCH   7  48
ATOM     48  N   UNL     1      25.992  37.780   8.168  1.00  0.00    -0.348 N 
ATOM     49  C   UNL     1      26.869  36.819   7.591  1.00  0.00     0.217 C 
ATOM     50  H   UNL     1      26.299  38.772   8.198  1.00  0.00     0.163 HD
ATOM     51  C   UNL     1      28.185  37.256   7.057  1.00  0.00     0.114 C 
ATOM     52  O   UNL     1      26.547  35.585   7.521  1.00  0.00    -0.275 OA
ENDBRANCH   7  48
ENDBRANCH   1   2
BRANCH   1  53
ATOM     53  O   UNL     1      26.361  38.598  11.239  1.00  0.00    -0.388 OA
ATOM     54  H   UNL     1      27.338  38.632  11.023  1.00  0.00     0.211 HD
ENDBRANCH   1  53
BRANCH   1  55
ATOM     55  C   UNL     1      25.477  36.678  12.257  1.00  0.00     0.165 C 
BRANCH  55  56
ATOM     56  O   UNL     1      24.674  37.489  13.005  1.00  0.00    -0.388 OA
ATOM     57  H   UNL     1      23.765  37.134  13.172  1.00  0.00     0.211 HD
ENDBRANCH  55  56
BRANCH  55  58
ATOM     58  C   UNL     1      26.722  36.314  13.017  1.00  0.00     0.154 C 
BRANCH  58  59
ATOM     59  N   UNL     1      26.786  34.964  13.495  1.00  0.00    -0.319 N 
ATOM     60  C   UNL     1      25.841  34.356  14.335  1.00  0.00     0.407 C 
ATOM     61  H   UNL     1      27.632  34.403  13.169  1.00  0.00     0.167 HD
ATOM     62  O   UNL     1      24.826  34.940  14.751  1.00  0.00    -0.225 OA
BRANCH  60  63
ATOM     63  O   UNL     1      26.011  33.017  14.753  1.00  0.00    -0.443 OA
BRANCH  63  64
ATOM     64  C   UNL     1      26.088  32.734  16.158  1.00  0.00     0.294 C 
BRANCH  64  65
ATOM     65  C   UNL     1      27.460  33.055  16.628  1.00  0.00     0.120 A 
ATOM     66  C   UNL     1      28.637  32.459  16.244  1.00  0.00     0.138 A 
ATOM     67  N   UNL     1      27.782  33.989  17.527  1.00  0.00    -0.132 NA
ATOM     68  N   UNL     1      29.626  33.064  16.933  1.00  0.00    -0.252 N 
ATOM     69  N   UNL     1      29.074  33.986  17.700  1.00  0.00    -0.067 NA
BRANCH  68  70
ATOM     70  C   UNL     1      31.014  32.726  16.812  1.00  0.00     0.151 C 
BRANCH  70  71
ATOM     71  C   UNL     1      31.536  32.705  15.405  1.00  0.00     0.086 C 
BRANCH  71  72
ATOM     72  C   UNL     1      31.594  34.137  14.873  1.00  0.00     0.251 C 
BRANCH  72  73
ATOM     73  O   UNL     1      30.676  34.212  13.843  1.00  0.00    -0.353 OA
BRANCH  73  74
ATOM     74  C   UNL     1      31.113  35.020  12.802  1.00  0.00     0.160 C 
ATOM     75  C   UNL     1      30.499  36.404  12.876  1.00  0.00     0.035 C 
ENDBRANCH  73  74
ENDBRANCH  72  73
BRANCH  72  76
ATOM     76  O   UNL     1      32.865  34.526  14.572  1.00  0.00    -0.353 OA
BRANCH  76  77
ATOM     77  C   UNL     1      33.482  35.385  15.440  1.00  0.00     0.160 C 
ATOM     78  C   UNL     1      32.436  36.219  16.142  1.00  0.00     0.035 C 
ENDBRANCH  76  77
ENDBRANCH  72  76
ENDBRANCH  71  72
ENDBRANCH  70  71
ENDBRANCH  68  70
ENDBRANCH  64  65
ENDBRANCH  63  64
ENDBRANCH  60  63
ENDBRANCH  58  59
ENDBRANCH  55  58
ENDBRANCH   1  55
TORSDOF 36
BEGIN_RES LYS A 131
REMARK  4 active torsions:
REMARK  status: ('A' for Active; 'I' for Inactive)
REMARK    1  A    between atoms: CA   and  CB  
REMARK    2  A    between atoms: CB   and  CG  
REMARK    3  A    between atoms: CG   and  CD  
REMARK    4  A    between atoms: CD   and  CE  
ROOT
ATOM      1  CA  LYS A 131      29.867  25.555  16.977  1.00 20.52     0.186 C 
ENDROOT
BRANCH   1   2
ATOM      2  CB  LYS A 131      28.345  25.722  17.026  1.00 20.94     0.034 C 
BRANCH   2   3
ATOM      3  CG  LYS A 131      27.602  24.400  16.913  1.00 22.96     0.005 C 
BRANCH   3   4
ATOM      4  CD  LYS A 131      26.353  24.379  17.750  1.00 24.33     0.041 C 
BRANCH   4   5
ATOM      5  CE  LYS A 131      25.889  25.809  18.008  1.00 26.91     0.338 C 
ATOM      6  NZ  LYS A 131      24.469  25.972  17.615  1.00 27.40     0.618 N 
ENDBRANCH   4   5
ENDBRANCH   3   4
ENDBRANCH   2   3
ENDBRANCH   1   2
END_RES LYS A 131
BEGIN_RES LYS A 135
REMARK  4 active torsions:
REMARK  status: ('A' for Active; 'I' for Inactive)
REMARK    5  A    between atoms: CA   and  CB  
REMARK    6  A    between atoms: CB   and  CG  
REMARK    7  A    between atoms: CG   and  CD  
REMARK    8  A    between atoms: CD   and  CE  
ROOT
ATOM      7  CA  LYS A 135      33.193  34.663   9.290  1.00 25.02     0.186 C 
ENDROOT
BRANCH   7   8
ATOM      8  CB  LYS A 135      32.060  35.360  10.034  1.00 26.63     0.034 C 
BRANCH   8   9
ATOM      9  CG  LYS A 135      30.816  35.543   9.203  1.00 29.45     0.005 C 
BRANCH   9  10
ATOM     10  CD  LYS A 135      30.308  34.203   8.695  1.00 32.00     0.041 C 
BRANCH  10  11
ATOM     11  CE  LYS A 135      28.953  33.884   9.296  1.00 34.25     0.338 C 
ATOM     12  NZ  LYS A 135      28.511  34.963  10.223  1.00 35.99     0.618 N 
ENDBRANCH  10  11
ENDBRANCH   9  10
ENDBRANCH   8   9
ENDBRANCH   7   8
END_RES LYS A 135
