REMARK VINA RESULT:    -4.298      1.857      2.627
REMARK INTER + INTRA:         -22.324
REMARK INTER:                 -11.792
REMARK INTRA:                 -10.532
REMARK UNBOUND:               -11.494
REMARK SMILES CC(=O)N[C@@H]1[C@@H](O)C[C@](OC[C@H]2O[C@@H](O[C@H]3[C@H](O)[C@@H](O)[C@H](OCCN=[N+]=[N-])O[C@@H]3CO)[C@H](O)[C@@H](O)[C@H]2O)(C(=O)O)O[C@H]1C(O)[C@H](O)CNC(=O)OCc1cn(-c2ccccc2C(C)=O)nn1
REMARK SMILES IDX 9 1 8 2 6 3 5 4 42 5 41 6 10 7 11 8 12 9 14 10 13 11 32 12
REMARK SMILES IDX 34 13 36 14 15 15 16 16 29 17 28 18 21 19 17 20 19 21 30 22
REMARK SMILES IDX 31 23 22 25 23 26 24 27 25 28 26 29 27 30 18 31 20 33 33 35
REMARK SMILES IDX 35 37 37 39 38 41 39 42 40 43 7 45 43 47 44 48 45 50 46 51
REMARK SMILES IDX 47 53 48 54 49 55 50 57 51 58 52 59 53 60 54 61 66 62 55 63
REMARK SMILES IDX 65 64 56 65 61 66 57 67 60 68 58 69 59 70 62 71 64 72 63 73
REMARK SMILES IDX 4 74 2 75 1 77 3 78
REMARK H PARENT 31 24 18 32 20 34 33 36 35 38 37 40 40 44 7 46 44 49 46 52
REMARK H PARENT 48 56 4 76
REMARK Flexibility Score: inf
ROOT
ATOM      1  C   UNL     1      28.379  38.657   6.579  1.00  0.00     0.272 C 
ATOM      2  C   UNL     1      29.708  38.617   5.882  1.00  0.00     0.113 C 
ATOM      3  C   UNL     1      30.406  39.928   6.132  1.00  0.00     0.145 C 
ATOM      4  C   UNL     1      30.706  39.924   7.621  1.00  0.00     0.142 C 
ATOM      5  C   UNL     1      29.362  39.978   8.295  1.00  0.00     0.178 C 
ATOM      6  O   UNL     1      28.282  39.677   7.552  1.00  0.00    -0.332 OA
ENDROOT
BRANCH   1   7
ATOM      7  O   UNL     1      27.946  37.560   7.146  1.00  0.00    -0.338 OA
BRANCH   7   8
ATOM      8  C   UNL     1      26.879  36.832   7.041  1.00  0.00     0.199 C 
BRANCH   8   9
ATOM      9  C   UNL     1      25.786  36.727   8.035  1.00  0.00     0.179 C 
ATOM     10  C   UNL     1      25.474  36.669  10.328  1.00  0.00     0.282 C 
ATOM     11  O   UNL     1      26.387  36.920   9.319  1.00  0.00    -0.341 OA
ATOM     12  C   UNL     1      24.050  36.595   9.925  1.00  0.00     0.202 C 
ATOM     13  C   UNL     1      23.629  37.499   8.808  1.00  0.00     0.179 C 
ATOM     14  C   UNL     1      24.805  37.921   7.961  1.00  0.00     0.177 C 
BRANCH  10  15
ATOM     15  O   UNL     1      25.626  37.625  11.331  1.00  0.00    -0.341 OA
BRANCH  15  16
ATOM     16  C   UNL     1      26.069  37.058  12.524  1.00  0.00     0.184 C 
ATOM     17  C   UNL     1      26.936  35.872  12.181  1.00  0.00     0.178 C 
ATOM     18  O   UNL     1      26.467  34.671  12.646  1.00  0.00    -0.341 OA
ATOM     19  C   UNL     1      26.171  34.615  13.985  1.00  0.00     0.281 C 
ATOM     20  C   UNL     1      24.811  36.505  13.209  1.00  0.00     0.180 C 
ATOM     21  C   UNL     1      25.258  35.751  14.420  1.00  0.00     0.202 C 
BRANCH  17  22
ATOM     22  C   UNL     1      28.348  36.169  12.652  1.00  0.00     0.191 C 
BRANCH  22  23
ATOM     23  O   UNL     1      28.531  37.550  12.617  1.00  0.00    -0.394 OA
ATOM     24  H   UNL     1      28.750  37.953  13.477  1.00  0.00     0.210 HD
ENDBRANCH  22  23
ENDBRANCH  17  22
BRANCH  19  25
ATOM     25  O   UNL     1      27.268  34.497  14.817  1.00  0.00    -0.350 OA
BRANCH  25  26
ATOM     26  C   UNL     1      27.529  33.153  15.036  1.00  0.00     0.169 C 
BRANCH  26  27
ATOM     27  C   UNL     1      26.330  32.515  15.723  1.00  0.00     0.119 C 
BRANCH  27  28
ATOM     28  N   UNL     1      26.310  31.071  15.459  1.00  0.00    -0.092 NA
ATOM     29  N   UNL     1      27.298  30.440  15.830  1.00  0.00     0.001 N 
ATOM     30  N   UNL     1      28.250  29.708  16.037  1.00  0.00    -0.003 NA
ENDBRANCH  27  28
ENDBRANCH  26  27
ENDBRANCH  25  26
ENDBRANCH  19  25
BRANCH  20  31
ATOM     31  O   UNL     1      23.950  37.541  13.490  1.00  0.00    -0.387 OA
ATOM     32  H   UNL     1      23.635  37.519  14.446  1.00  0.00     0.211 HD
ENDBRANCH  20  31
BRANCH  21  33
ATOM     33  O   UNL     1      24.185  35.297  15.189  1.00  0.00    -0.385 OA
ATOM     34  H   UNL     1      23.419  35.942  15.090  1.00  0.00     0.211 HD
ENDBRANCH  21  33
ENDBRANCH  15  16
ENDBRANCH  10  15
BRANCH  12  35
ATOM     35  O   UNL     1      23.632  35.271   9.720  1.00  0.00    -0.385 OA
ATOM     36  H   UNL     1      24.404  34.659   9.621  1.00  0.00     0.211 HD
ENDBRANCH  12  35
BRANCH  13  37
ATOM     37  O   UNL     1      23.021  38.672   9.284  1.00  0.00    -0.387 OA
ATOM     38  H   UNL     1      22.097  38.417   9.544  1.00  0.00     0.211 HD
ENDBRANCH  13  37
BRANCH  14  39
ATOM     39  O   UNL     1      25.426  39.062   8.482  1.00  0.00    -0.387 OA
ATOM     40  H   UNL     1      24.816  39.606   9.042  1.00  0.00     0.211 HD
ENDBRANCH  14  39
ENDBRANCH   8   9
ENDBRANCH   7   8
ENDBRANCH   1   7
BRANCH   1  41
ATOM     41  C   UNL     1      27.437  39.179   5.548  1.00  0.00     0.364 C 
ATOM     42  O   UNL     1      26.575  40.073   5.856  1.00  0.00    -0.246 OA
BRANCH  41  43
ATOM     43  O   UNL     1      27.381  38.783   4.236  1.00  0.00    -0.477 OA
ATOM     44  H   UNL     1      27.654  37.860   3.929  1.00  0.00     0.296 HD
ENDBRANCH  41  43
ENDBRANCH   1  41
BRANCH   3  45
ATOM     45  O   UNL     1      31.575  39.908   5.376  1.00  0.00    -0.391 OA
ATOM     46  H   UNL     1      31.978  39.000   5.355  1.00  0.00     0.211 HD
ENDBRANCH   3  45
BRANCH   5  47
ATOM     47  C   UNL     1      29.427  39.190   9.644  1.00  0.00     0.176 C 
BRANCH  47  48
ATOM     48  O   UNL     1      28.032  38.966   9.950  1.00  0.00    -0.388 OA
ATOM     49  H   UNL     1      28.090  38.252  10.657  1.00  0.00     0.211 HD
ENDBRANCH  47  48
BRANCH  47  50
ATOM     50  C   UNL     1      29.963  40.025  10.729  1.00  0.00     0.165 C 
BRANCH  50  51
ATOM     51  O   UNL     1      29.754  41.405  10.486  1.00  0.00    -0.388 OA
ATOM     52  H   UNL     1      29.511  41.568   9.549  1.00  0.00     0.211 HD
ENDBRANCH  50  51
BRANCH  50  53
ATOM     53  C   UNL     1      31.167  39.681  11.482  1.00  0.00     0.154 C 
BRANCH  53  54
ATOM     54  N   UNL     1      31.002  39.346  12.848  1.00  0.00    -0.319 N 
ATOM     55  C   UNL     1      30.609  40.184  13.916  1.00  0.00     0.407 C 
ATOM     56  H   UNL     1      31.187  38.334  13.149  1.00  0.00     0.167 HD
ATOM     57  O   UNL     1      30.385  41.392  13.676  1.00  0.00    -0.225 OA
BRANCH  55  58
ATOM     58  O   UNL     1      30.453  39.752  15.226  1.00  0.00    -0.443 OA
BRANCH  58  59
ATOM     59  C   UNL     1      31.506  39.865  16.148  1.00  0.00     0.294 C 
BRANCH  59  60
ATOM     60  C   UNL     1      31.971  38.472  16.466  1.00  0.00     0.121 A 
ATOM     61  C   UNL     1      31.360  37.291  16.116  1.00  0.00     0.144 A 
ATOM     62  N   UNL     1      33.062  38.101  17.151  1.00  0.00    -0.131 NA
ATOM     63  N   UNL     1      32.111  36.253  16.609  1.00  0.00    -0.220 N 
ATOM     64  N   UNL     1      33.137  36.792  17.231  1.00  0.00    -0.062 NA
BRANCH  63  65
ATOM     65  C   UNL     1      31.756  34.882  16.472  1.00  0.00     0.077 A 
ATOM     66  C   UNL     1      31.998  34.101  15.399  1.00  0.00     0.043 A 
ATOM     67  C   UNL     1      31.099  34.324  17.585  1.00  0.00     0.029 A 
ATOM     68  C   UNL     1      31.573  32.757  15.453  1.00  0.00     0.014 A 
ATOM     69  C   UNL     1      30.695  33.008  17.610  1.00  0.00     0.002 A 
ATOM     70  C   UNL     1      30.935  32.201  16.525  1.00  0.00     0.001 A 
BRANCH  66  71
ATOM     71  C   UNL     1      32.661  34.590  14.213  1.00  0.00     0.161 C 
ATOM     72  O   UNL     1      31.875  35.080  13.314  1.00  0.00    -0.294 OA
ATOM     73  C   UNL     1      34.090  34.605  13.896  1.00  0.00     0.093 C 
ENDBRANCH  66  71
ENDBRANCH  63  65
ENDBRANCH  59  60
ENDBRANCH  58  59
ENDBRANCH  55  58
ENDBRANCH  53  54
ENDBRANCH  50  53
ENDBRANCH  47  50
ENDBRANCH   5  47
BRANCH   4  74
ATOM     74  N   UNL     1      31.576  40.994   8.005  1.00  0.00    -0.348 N 
ATOM     75  C   UNL     1      32.972  40.842   8.198  1.00  0.00     0.217 C 
ATOM     76  H   UNL     1      31.132  41.939   8.147  1.00  0.00     0.163 HD
ATOM     77  C   UNL     1      33.793  42.036   8.600  1.00  0.00     0.114 C 
ATOM     78  O   UNL     1      33.464  39.708   8.020  1.00  0.00    -0.275 OA
ENDBRANCH   4  74
TORSDOF 31
BEGIN_RES LYS A 131
REMARK  4 active torsions:
REMARK  status: ('A' for Active; 'I' for Inactive)
REMARK    1  A    between atoms: CA   and  CB  
REMARK    2  A    between atoms: CB   and  CG  
REMARK    3  A    between atoms: CG   and  CD  
REMARK    4  A    between atoms: CD   and  CE  
ROOT
ATOM      1  CA  LYS A 131      29.867  25.555  16.977  1.00 20.52     0.186 C 
ENDROOT
BRANCH   1   2
ATOM      2  CB  LYS A 131      28.345  25.722  17.026  1.00 20.94     0.034 C 
BRANCH   2   3
ATOM      3  CG  LYS A 131      27.601  24.401  16.899  1.00 22.96     0.005 C 
BRANCH   3   4
ATOM      4  CD  LYS A 131      26.532  24.250  17.946  1.00 24.33     0.041 C 
BRANCH   4   5
ATOM      5  CE  LYS A 131      25.160  24.314  17.284  1.00 26.91     0.338 C 
ATOM      6  NZ  LYS A 131      24.543  22.967  17.238  1.00 27.40     0.618 N 
ENDBRANCH   4   5
ENDBRANCH   3   4
ENDBRANCH   2   3
ENDBRANCH   1   2
END_RES LYS A 131
BEGIN_RES LYS A 135
REMARK  4 active torsions:
REMARK  status: ('A' for Active; 'I' for Inactive)
REMARK    5  A    between atoms: CA   and  CB  
REMARK    6  A    between atoms: CB   and  CG  
REMARK    7  A    between atoms: CG   and  CD  
REMARK    8  A    between atoms: CD   and  CE  
ROOT
ATOM      7  CA  LYS A 135      33.193  34.663   9.290  1.00 25.02     0.186 C 
ENDROOT
BRANCH   7   8
ATOM      8  CB  LYS A 135      32.060  35.360  10.034  1.00 26.63     0.034 C 
BRANCH   8   9
ATOM      9  CG  LYS A 135      30.763  34.593  10.012  1.00 29.45     0.005 C 
BRANCH   9  10
ATOM     10  CD  LYS A 135      30.333  34.306   8.581  1.00 32.00     0.041 C 
BRANCH  10  11
ATOM     11  CE  LYS A 135      28.825  34.401   8.449  1.00 34.25     0.338 C 
ATOM     12  NZ  LYS A 135      28.144  33.728   9.590  1.00 35.99     0.618 N 
ENDBRANCH  10  11
ENDBRANCH   9  10
ENDBRANCH   8   9
ENDBRANCH   7   8
END_RES LYS A 135
