REMARK VINA RESULT:    -5.174      2.463      9.767
REMARK INTER + INTRA:         -21.403
REMARK INTER:                 -11.718
REMARK INTRA:                  -9.685
REMARK UNBOUND:                -8.212
REMARK SMILES CC(=O)N[C@@H]1[C@@H](O)C[C@](OC[C@H]2O[C@@H](O[C@H]3[C@H](O)[C@@H](O)[C@H](OCCN=[N+]=[N-])O[C@@H]3CO)[C@H](O)[C@@H](O)[C@H]2O)(C(=O)O)O[C@H]1C(O)[C@H](O)CNC(=O)OCc1cn(-c2ccc(CO)cn2)nn1
REMARK SMILES IDX 9 1 8 2 6 3 5 4 42 5 41 6 10 7 11 8 12 9 14 10 13 11 32 12
REMARK SMILES IDX 34 13 36 14 15 15 16 16 29 17 28 18 21 19 17 20 19 21 30 22
REMARK SMILES IDX 31 23 22 25 23 26 24 27 25 28 26 29 27 30 18 31 20 33 33 35
REMARK SMILES IDX 35 37 37 39 38 41 39 42 40 43 7 45 43 47 44 48 45 50 46 51
REMARK SMILES IDX 47 53 48 54 49 55 50 57 51 58 52 59 53 60 54 61 65 62 55 63
REMARK SMILES IDX 64 64 56 65 57 66 63 67 58 68 62 69 59 70 60 71 61 72 4 74
REMARK SMILES IDX 2 75 1 77 3 78
REMARK H PARENT 31 24 18 32 20 34 33 36 35 38 37 40 40 44 7 46 44 49 46 52
REMARK H PARENT 48 56 61 73 4 76
REMARK Flexibility Score: inf
ROOT
ATOM      1  C   UNL     1      27.741  35.017  12.959  1.00  0.00     0.272 C 
ATOM      2  C   UNL     1      28.581  34.277  13.933  1.00  0.00     0.113 C 
ATOM      3  C   UNL     1      27.840  33.951  15.199  1.00  0.00     0.145 C 
ATOM      4  C   UNL     1      26.487  33.351  14.870  1.00  0.00     0.142 C 
ATOM      5  C   UNL     1      25.767  34.196  13.902  1.00  0.00     0.178 C 
ATOM      6  O   UNL     1      26.482  34.498  12.795  1.00  0.00    -0.332 OA
ENDROOT
BRANCH   1   7
ATOM      7  O   UNL     1      28.304  35.118  11.698  1.00  0.00    -0.338 OA
BRANCH   7   8
ATOM      8  C   UNL     1      27.475  34.663  10.694  1.00  0.00     0.199 C 
BRANCH   8   9
ATOM      9  C   UNL     1      28.003  35.109   9.364  1.00  0.00     0.179 C 
ATOM     10  C   UNL     1      28.431  36.956   8.133  1.00  0.00     0.282 C 
ATOM     11  O   UNL     1      28.566  36.398   9.430  1.00  0.00    -0.341 OA
ATOM     12  C   UNL     1      28.952  36.021   7.122  1.00  0.00     0.202 C 
ATOM     13  C   UNL     1      29.776  34.861   7.655  1.00  0.00     0.179 C 
ATOM     14  C   UNL     1      29.072  34.208   8.840  1.00  0.00     0.177 C 
BRANCH  10  15
ATOM     15  O   UNL     1      29.009  38.230   8.118  1.00  0.00    -0.341 OA
BRANCH  15  16
ATOM     16  C   UNL     1      29.936  38.406   9.123  1.00  0.00     0.184 C 
ATOM     17  C   UNL     1      29.727  39.603   9.997  1.00  0.00     0.178 C 
ATOM     18  O   UNL     1      30.702  40.584   9.841  1.00  0.00    -0.341 OA
ATOM     19  C   UNL     1      30.823  41.031   8.549  1.00  0.00     0.281 C 
ATOM     20  C   UNL     1      31.292  38.600   8.420  1.00  0.00     0.180 C 
ATOM     21  C   UNL     1      31.099  39.871   7.581  1.00  0.00     0.202 C 
BRANCH  17  22
ATOM     22  C   UNL     1      29.885  39.124  11.452  1.00  0.00     0.191 C 
BRANCH  22  23
ATOM     23  O   UNL     1      29.371  37.824  11.579  1.00  0.00    -0.394 OA
ATOM     24  H   UNL     1      30.063  37.146  11.312  1.00  0.00     0.210 HD
ENDBRANCH  22  23
ENDBRANCH  17  22
BRANCH  19  25
ATOM     25  O   UNL     1      31.889  41.924   8.492  1.00  0.00    -0.350 OA
BRANCH  25  26
ATOM     26  C   UNL     1      32.326  42.170   7.216  1.00  0.00     0.169 C 
BRANCH  26  27
ATOM     27  C   UNL     1      33.836  42.364   7.263  1.00  0.00     0.119 C 
BRANCH  27  28
ATOM     28  N   UNL     1      34.454  41.324   8.073  1.00  0.00    -0.092 NA
ATOM     29  N   UNL     1      34.874  40.272   7.621  1.00  0.00     0.001 N 
ATOM     30  N   UNL     1      35.650  39.403   7.225  1.00  0.00    -0.003 NA
ENDBRANCH  27  28
ENDBRANCH  26  27
ENDBRANCH  25  26
ENDBRANCH  19  25
BRANCH  20  31
ATOM     31  O   UNL     1      32.340  38.684   9.295  1.00  0.00    -0.387 OA
ATOM     32  H   UNL     1      33.132  38.991   8.829  1.00  0.00     0.211 HD
ENDBRANCH  20  31
BRANCH  21  33
ATOM     33  O   UNL     1      29.980  39.641   6.785  1.00  0.00    -0.385 OA
ATOM     34  H   UNL     1      30.119  38.777   6.320  1.00  0.00     0.211 HD
ENDBRANCH  21  33
ENDBRANCH  15  16
ENDBRANCH  10  15
BRANCH  12  35
ATOM     35  O   UNL     1      27.865  35.478   6.397  1.00  0.00    -0.385 OA
ATOM     36  H   UNL     1      27.687  34.538   6.660  1.00  0.00     0.211 HD
ENDBRANCH  12  35
BRANCH  13  37
ATOM     37  O   UNL     1      31.078  35.232   7.941  1.00  0.00    -0.387 OA
ATOM     38  H   UNL     1      31.717  35.019   7.244  1.00  0.00     0.211 HD
ENDBRANCH  13  37
BRANCH  14  39
ATOM     39  O   UNL     1      30.031  33.939   9.793  1.00  0.00    -0.387 OA
ATOM     40  H   UNL     1      30.343  34.776  10.188  1.00  0.00     0.211 HD
ENDBRANCH  14  39
ENDBRANCH   8   9
ENDBRANCH   7   8
ENDBRANCH   1   7
BRANCH   1  41
ATOM     41  C   UNL     1      27.516  36.448  13.399  1.00  0.00     0.364 C 
ATOM     42  O   UNL     1      26.581  37.159  12.960  1.00  0.00    -0.246 OA
BRANCH  41  43
ATOM     43  O   UNL     1      28.359  37.035  14.322  1.00  0.00    -0.477 OA
ATOM     44  H   UNL     1      27.978  37.702  15.005  1.00  0.00     0.296 HD
ENDBRANCH  41  43
ENDBRANCH   1  41
BRANCH   3  45
ATOM     45  O   UNL     1      28.571  32.925  15.831  1.00  0.00    -0.391 OA
ATOM     46  H   UNL     1      29.535  33.056  15.791  1.00  0.00     0.211 HD
ENDBRANCH   3  45
BRANCH   5  47
ATOM     47  C   UNL     1      24.403  33.653  13.518  1.00  0.00     0.176 C 
BRANCH  47  48
ATOM     48  O   UNL     1      24.505  32.292  13.235  1.00  0.00    -0.388 OA
ATOM     49  H   UNL     1      23.825  31.781  13.733  1.00  0.00     0.211 HD
ENDBRANCH  47  48
BRANCH  47  50
ATOM     50  C   UNL     1      23.748  34.321  12.370  1.00  0.00     0.165 C 
BRANCH  50  51
ATOM     51  O   UNL     1      24.118  35.667  12.234  1.00  0.00    -0.388 OA
ATOM     52  H   UNL     1      24.921  35.901  12.724  1.00  0.00     0.211 HD
ENDBRANCH  50  51
BRANCH  50  53
ATOM     53  C   UNL     1      22.258  34.164  12.272  1.00  0.00     0.154 C 
BRANCH  53  54
ATOM     54  N   UNL     1      21.797  34.432  10.936  1.00  0.00    -0.319 N 
ATOM     55  C   UNL     1      21.225  35.687  10.621  1.00  0.00     0.407 C 
ATOM     56  H   UNL     1      21.888  33.678  10.179  1.00  0.00     0.167 HD
ATOM     57  O   UNL     1      21.096  36.605  11.460  1.00  0.00    -0.225 OA
BRANCH  55  58
ATOM     58  O   UNL     1      20.769  35.968   9.328  1.00  0.00    -0.443 OA
BRANCH  58  59
ATOM     59  C   UNL     1      21.670  35.918   8.259  1.00  0.00     0.294 C 
BRANCH  59  60
ATOM     60  C   UNL     1      22.966  36.544   8.485  1.00  0.00     0.121 A 
ATOM     61  C   UNL     1      23.402  37.744   7.979  1.00  0.00     0.146 A 
ATOM     62  N   UNL     1      23.979  36.066   9.226  1.00  0.00    -0.131 NA
ATOM     63  N   UNL     1      24.658  37.962   8.420  1.00  0.00    -0.202 N 
ATOM     64  N   UNL     1      24.968  36.923   9.172  1.00  0.00    -0.061 NA
BRANCH  63  65
ATOM     65  C   UNL     1      25.441  39.101   8.101  1.00  0.00     0.155 A 
ATOM     66  C   UNL     1      25.828  39.381   6.794  1.00  0.00     0.049 A 
ATOM     67  N   UNL     1      25.847  39.954   9.056  1.00  0.00    -0.237 NA
ATOM     68  C   UNL     1      26.602  40.496   6.503  1.00  0.00     0.011 A 
ATOM     69  C   UNL     1      26.602  41.048   8.794  1.00  0.00     0.119 A 
ATOM     70  C   UNL     1      27.004  41.352   7.504  1.00  0.00    -0.004 A 
BRANCH  70  71
ATOM     71  C   UNL     1      27.835  42.544   7.185  1.00  0.00     0.193 C 
BRANCH  71  72
ATOM     72  O   UNL     1      28.664  42.293   6.092  1.00  0.00    -0.392 OA
ATOM     73  H   UNL     1      28.762  43.074   5.509  1.00  0.00     0.211 HD
ENDBRANCH  71  72
ENDBRANCH  70  71
ENDBRANCH  63  65
ENDBRANCH  59  60
ENDBRANCH  58  59
ENDBRANCH  55  58
ENDBRANCH  53  54
ENDBRANCH  50  53
ENDBRANCH  47  50
ENDBRANCH   5  47
BRANCH   4  74
ATOM     74  N   UNL     1      25.732  33.154  16.108  1.00  0.00    -0.348 N 
ATOM     75  C   UNL     1      25.255  31.907  16.506  1.00  0.00     0.217 C 
ATOM     76  H   UNL     1      25.561  33.985  16.708  1.00  0.00     0.163 HD
ATOM     77  C   UNL     1      24.484  31.846  17.804  1.00  0.00     0.114 C 
ATOM     78  O   UNL     1      25.423  30.860  15.864  1.00  0.00    -0.275 OA
ENDBRANCH   4  74
TORSDOF 32
BEGIN_RES LYS A 131
REMARK  4 active torsions:
REMARK  status: ('A' for Active; 'I' for Inactive)
REMARK    1  A    between atoms: CA   and  CB  
REMARK    2  A    between atoms: CB   and  CG  
REMARK    3  A    between atoms: CG   and  CD  
REMARK    4  A    between atoms: CD   and  CE  
ROOT
ATOM      1  CA  LYS A 131      29.867  25.555  16.977  1.00 20.52     0.186 C 
ENDROOT
BRANCH   1   2
ATOM      2  CB  LYS A 131      28.345  25.722  17.026  1.00 20.94     0.034 C 
BRANCH   2   3
ATOM      3  CG  LYS A 131      27.599  24.467  16.599  1.00 22.96     0.005 C 
BRANCH   3   4
ATOM      4  CD  LYS A 131      27.017  23.728  17.772  1.00 24.33     0.041 C 
BRANCH   4   5
ATOM      5  CE  LYS A 131      26.160  24.679  18.600  1.00 26.91     0.338 C 
ATOM      6  NZ  LYS A 131      25.519  23.956  19.723  1.00 27.40     0.618 N 
ENDBRANCH   4   5
ENDBRANCH   3   4
ENDBRANCH   2   3
ENDBRANCH   1   2
END_RES LYS A 131
BEGIN_RES LYS A 135
REMARK  4 active torsions:
REMARK  status: ('A' for Active; 'I' for Inactive)
REMARK    5  A    between atoms: CA   and  CB  
REMARK    6  A    between atoms: CB   and  CG  
REMARK    7  A    between atoms: CG   and  CD  
REMARK    8  A    between atoms: CD   and  CE  
ROOT
ATOM      7  CA  LYS A 135      33.193  34.663   9.290  1.00 25.02     0.186 C 
ENDROOT
BRANCH   7   8
ATOM      8  CB  LYS A 135      32.060  35.360  10.034  1.00 26.63     0.034 C 
BRANCH   8   9
ATOM      9  CG  LYS A 135      32.503  36.048  11.299  1.00 29.45     0.005 C 
BRANCH   9  10
ATOM     10  CD  LYS A 135      31.781  35.469  12.506  1.00 32.00     0.041 C 
BRANCH  10  11
ATOM     11  CE  LYS A 135      31.879  36.413  13.689  1.00 34.25     0.338 C 
ATOM     12  NZ  LYS A 135      32.039  35.661  14.964  1.00 35.99     0.618 N 
ENDBRANCH  10  11
ENDBRANCH   9  10
ENDBRANCH   8   9
ENDBRANCH   7   8
END_RES LYS A 135
