REMARK VINA RESULT:    -5.367      5.043      9.206
REMARK INTER + INTRA:         -23.627
REMARK INTER:                 -10.464
REMARK INTRA:                 -13.163
REMARK UNBOUND:               -10.416
REMARK SMILES CC(=O)N[C@@H]1[C@@H](O)C[C@](OC[C@H]2O[C@@H](O[C@H]3[C@H](O)[C@@H](O)[C@H](OCCN=[N+]=[N-])O[C@@H]3CO)[C@H](O)[C@@H](O)[C@H]2O)(C(=O)O)O[C@H]1C(O)[C@H](O)CNC(=O)OCc1cn(-c2ccc3c(c2)OCO3)nn1
REMARK SMILES IDX 9 1 8 2 6 3 5 4 42 5 41 6 10 7 11 8 12 9 14 10 13 11 32 12
REMARK SMILES IDX 34 13 36 14 15 15 16 16 29 17 28 18 21 19 17 20 19 21 30 22
REMARK SMILES IDX 31 23 22 25 23 26 24 27 25 28 26 29 27 30 18 31 20 33 33 35
REMARK SMILES IDX 35 37 37 39 38 41 39 42 40 43 7 45 43 47 44 48 45 50 46 51
REMARK SMILES IDX 47 53 48 54 49 55 50 57 51 58 52 59 53 60 54 61 66 62 55 63
REMARK SMILES IDX 65 64 56 65 57 66 61 67 58 68 60 69 59 70 62 71 64 72 63 73
REMARK SMILES IDX 4 74 2 75 1 77 3 78
REMARK H PARENT 31 24 18 32 20 34 33 36 35 38 37 40 40 44 7 46 44 49 46 52
REMARK H PARENT 48 56 4 76
REMARK Flexibility Score: inf
ROOT
ATOM      1  C   UNL     1      18.191  34.768  12.934  1.00  0.00     0.272 C 
ATOM      2  C   UNL     1      17.947  35.215  14.348  1.00  0.00     0.113 C 
ATOM      3  C   UNL     1      19.194  35.033  15.233  1.00  0.00     0.145 C 
ATOM      4  C   UNL     1      19.381  33.535  15.349  1.00  0.00     0.142 C 
ATOM      5  C   UNL     1      19.421  33.017  13.926  1.00  0.00     0.178 C 
ATOM      6  O   UNL     1      19.366  33.965  12.961  1.00  0.00    -0.332 OA
ENDROOT
BRANCH   1   7
ATOM      7  O   UNL     1      18.461  35.747  12.086  1.00  0.00    -0.338 OA
BRANCH   7   8
ATOM      8  C   UNL     1      17.808  36.299  11.110  1.00  0.00     0.199 C 
BRANCH   8   9
ATOM      9  C   UNL     1      18.405  36.468   9.738  1.00  0.00     0.179 C 
ATOM     10  C   UNL     1      20.431  37.110   8.787  1.00  0.00     0.282 C 
ATOM     11  O   UNL     1      19.586  37.152   9.865  1.00  0.00    -0.341 OA
ATOM     12  C   UNL     1      19.817  36.546   7.549  1.00  0.00     0.202 C 
ATOM     13  C   UNL     1      19.231  35.165   7.788  1.00  0.00     0.179 C 
ATOM     14  C   UNL     1      18.689  35.050   9.176  1.00  0.00     0.177 C 
BRANCH  10  15
ATOM     15  O   UNL     1      21.494  36.252   9.134  1.00  0.00    -0.341 OA
BRANCH  15  16
ATOM     16  C   UNL     1      22.679  36.913   9.331  1.00  0.00     0.184 C 
ATOM     17  C   UNL     1      23.828  35.971   9.083  1.00  0.00     0.178 C 
ATOM     18  O   UNL     1      24.180  35.220  10.179  1.00  0.00    -0.341 OA
ATOM     19  C   UNL     1      23.110  34.982  11.043  1.00  0.00     0.281 C 
ATOM     20  C   UNL     1      22.669  37.440  10.748  1.00  0.00     0.180 C 
ATOM     21  C   UNL     1      22.616  36.254  11.685  1.00  0.00     0.202 C 
BRANCH  17  22
ATOM     22  C   UNL     1      25.073  36.718   8.625  1.00  0.00     0.191 C 
BRANCH  22  23
ATOM     23  O   UNL     1      25.991  36.850   9.660  1.00  0.00    -0.394 OA
ATOM     24  H   UNL     1      26.576  37.662   9.550  1.00  0.00     0.210 HD
ENDBRANCH  22  23
ENDBRANCH  17  22
BRANCH  19  25
ATOM     25  O   UNL     1      23.612  34.163  12.045  1.00  0.00    -0.350 OA
BRANCH  25  26
ATOM     26  C   UNL     1      24.943  34.495  12.271  1.00  0.00     0.169 C 
BRANCH  26  27
ATOM     27  C   UNL     1      25.467  33.831  13.540  1.00  0.00     0.119 C 
BRANCH  27  28
ATOM     28  N   UNL     1      24.351  33.049  14.093  1.00  0.00    -0.092 NA
ATOM     29  N   UNL     1      24.507  31.822  14.271  1.00  0.00     0.001 N 
ATOM     30  N   UNL     1      24.843  30.625  14.325  1.00  0.00    -0.003 NA
ENDBRANCH  27  28
ENDBRANCH  26  27
ENDBRANCH  25  26
ENDBRANCH  19  25
BRANCH  20  31
ATOM     31  O   UNL     1      23.721  38.289  11.025  1.00  0.00    -0.387 OA
ATOM     32  H   UNL     1      23.792  38.542  11.992  1.00  0.00     0.211 HD
ENDBRANCH  20  31
BRANCH  21  33
ATOM     33  O   UNL     1      21.278  36.056  12.035  1.00  0.00    -0.385 OA
ATOM     34  H   UNL     1      20.656  36.195  11.276  1.00  0.00     0.211 HD
ENDBRANCH  21  33
ENDBRANCH  15  16
ENDBRANCH  10  15
BRANCH  12  35
ATOM     35  O   UNL     1      18.836  37.351   6.975  1.00  0.00    -0.385 OA
ATOM     36  H   UNL     1      18.408  37.889   7.712  1.00  0.00     0.211 HD
ENDBRANCH  12  35
BRANCH  13  37
ATOM     37  O   UNL     1      20.244  34.227   7.573  1.00  0.00    -0.387 OA
ATOM     38  H   UNL     1      20.412  34.035   6.632  1.00  0.00     0.211 HD
ENDBRANCH  13  37
BRANCH  14  39
ATOM     39  O   UNL     1      19.637  34.414   9.971  1.00  0.00    -0.387 OA
ATOM     40  H   UNL     1      20.096  35.004  10.591  1.00  0.00     0.211 HD
ENDBRANCH  14  39
ENDBRANCH   8   9
ENDBRANCH   7   8
ENDBRANCH   1   7
BRANCH   1  41
ATOM     41  C   UNL     1      17.100  33.852  12.467  1.00  0.00     0.364 C 
ATOM     42  O   UNL     1      16.036  33.848  13.181  1.00  0.00    -0.246 OA
BRANCH  41  43
ATOM     43  O   UNL     1      17.141  33.042  11.379  1.00  0.00    -0.477 OA
ATOM     44  H   UNL     1      16.358  32.876  10.767  1.00  0.00     0.296 HD
ENDBRANCH  41  43
ENDBRANCH   1  41
BRANCH   3  45
ATOM     45  O   UNL     1      20.244  35.620  14.516  1.00  0.00    -0.391 OA
ATOM     46  H   UNL     1      20.148  35.437  13.555  1.00  0.00     0.211 HD
ENDBRANCH   3  45
BRANCH   5  47
ATOM     47  C   UNL     1      20.817  32.374  13.788  1.00  0.00     0.176 C 
BRANCH  47  48
ATOM     48  O   UNL     1      21.068  31.430  14.740  1.00  0.00    -0.388 OA
ATOM     49  H   UNL     1      21.983  31.056  14.718  1.00  0.00     0.211 HD
ENDBRANCH  47  48
BRANCH  47  50
ATOM     50  C   UNL     1      21.008  31.776  12.400  1.00  0.00     0.165 C 
BRANCH  50  51
ATOM     51  O   UNL     1      19.874  31.785  11.660  1.00  0.00    -0.388 OA
ATOM     52  H   UNL     1      19.852  32.383  10.884  1.00  0.00     0.211 HD
ENDBRANCH  50  51
BRANCH  50  53
ATOM     53  C   UNL     1      21.531  30.390  12.612  1.00  0.00     0.154 C 
BRANCH  53  54
ATOM     54  N   UNL     1      20.617  29.384  12.168  1.00  0.00    -0.319 N 
ATOM     55  C   UNL     1      19.746  28.630  12.997  1.00  0.00     0.407 C 
ATOM     56  H   UNL     1      20.539  29.135  11.120  1.00  0.00     0.167 HD
ATOM     57  O   UNL     1      19.713  28.819  14.230  1.00  0.00    -0.225 OA
BRANCH  55  58
ATOM     58  O   UNL     1      18.899  27.654  12.465  1.00  0.00    -0.443 OA
BRANCH  58  59
ATOM     59  C   UNL     1      17.550  27.880  12.158  1.00  0.00     0.294 C 
BRANCH  59  60
ATOM     60  C   UNL     1      17.476  28.881  11.041  1.00  0.00     0.121 A 
ATOM     61  C   UNL     1      17.223  28.587   9.700  1.00  0.00     0.144 A 
ATOM     62  N   UNL     1      17.622  30.211  11.093  1.00  0.00    -0.131 NA
ATOM     63  N   UNL     1      17.227  29.742   8.998  1.00  0.00    -0.220 N 
ATOM     64  N   UNL     1      17.472  30.694   9.885  1.00  0.00    -0.062 NA
BRANCH  63  65
ATOM     65  C   UNL     1      17.011  29.923   7.620  1.00  0.00     0.070 A 
ATOM     66  C   UNL     1      16.750  31.166   7.114  1.00  0.00     0.032 A 
ATOM     67  C   UNL     1      17.063  28.853   6.761  1.00  0.00     0.079 A 
ATOM     68  C   UNL     1      16.540  31.332   5.737  1.00  0.00     0.053 A 
ATOM     69  C   UNL     1      16.859  28.997   5.405  1.00  0.00     0.167 A 
ATOM     70  C   UNL     1      16.598  30.245   4.901  1.00  0.00     0.165 A 
ATOM     71  O   UNL     1      16.865  28.081   4.377  1.00  0.00    -0.454 OA
ATOM     72  O   UNL     1      16.434  30.124   3.527  1.00  0.00    -0.454 OA
ATOM     73  C   UNL     1      16.308  28.757   3.242  1.00  0.00     0.468 C 
ENDBRANCH  63  65
ENDBRANCH  59  60
ENDBRANCH  58  59
ENDBRANCH  55  58
ENDBRANCH  53  54
ENDBRANCH  50  53
ENDBRANCH  47  50
ENDBRANCH   5  47
BRANCH   4  74
ATOM     74  N   UNL     1      18.328  32.985  16.147  1.00  0.00    -0.348 N 
ATOM     75  C   UNL     1      18.589  31.999  17.168  1.00  0.00     0.217 C 
ATOM     76  H   UNL     1      17.321  33.238  16.061  1.00  0.00     0.163 HD
ATOM     77  C   UNL     1      17.486  31.435  17.991  1.00  0.00     0.114 C 
ATOM     78  O   UNL     1      19.750  31.620  17.356  1.00  0.00    -0.275 OA
ENDBRANCH   4  74
TORSDOF 30
BEGIN_RES LYS A 131
REMARK  4 active torsions:
REMARK  status: ('A' for Active; 'I' for Inactive)
REMARK    1  A    between atoms: CA   and  CB  
REMARK    2  A    between atoms: CB   and  CG  
REMARK    3  A    between atoms: CG   and  CD  
REMARK    4  A    between atoms: CD   and  CE  
ROOT
ATOM      1  CA  LYS A 131      29.867  25.555  16.977  1.00 20.52     0.186 C 
ENDROOT
BRANCH   1   2
ATOM      2  CB  LYS A 131      28.345  25.722  17.026  1.00 20.94     0.034 C 
BRANCH   2   3
ATOM      3  CG  LYS A 131      27.599  24.422  16.768  1.00 22.96     0.005 C 
BRANCH   3   4
ATOM      4  CD  LYS A 131      26.887  23.924  17.995  1.00 24.33     0.041 C 
BRANCH   4   5
ATOM      5  CE  LYS A 131      25.603  23.210  17.584  1.00 26.91     0.338 C 
ATOM      6  NZ  LYS A 131      24.665  24.159  16.940  1.00 27.40     0.618 N 
ENDBRANCH   4   5
ENDBRANCH   3   4
ENDBRANCH   2   3
ENDBRANCH   1   2
END_RES LYS A 131
BEGIN_RES LYS A 135
REMARK  4 active torsions:
REMARK  status: ('A' for Active; 'I' for Inactive)
REMARK    5  A    between atoms: CA   and  CB  
REMARK    6  A    between atoms: CB   and  CG  
REMARK    7  A    between atoms: CG   and  CD  
REMARK    8  A    between atoms: CD   and  CE  
ROOT
ATOM      7  CA  LYS A 135      33.193  34.663   9.290  1.00 25.02     0.186 C 
ENDROOT
BRANCH   7   8
ATOM      8  CB  LYS A 135      32.060  35.360  10.034  1.00 26.63     0.034 C 
BRANCH   8   9
ATOM      9  CG  LYS A 135      30.803  35.508   9.216  1.00 29.45     0.005 C 
BRANCH   9  10
ATOM     10  CD  LYS A 135      30.091  34.171   9.080  1.00 32.00     0.041 C 
BRANCH  10  11
ATOM     11  CE  LYS A 135      28.639  34.378   8.695  1.00 34.25     0.338 C 
ATOM     12  NZ  LYS A 135      27.728  33.659   9.629  1.00 35.99     0.618 N 
ENDBRANCH  10  11
ENDBRANCH   9  10
ENDBRANCH   8   9
ENDBRANCH   7   8
END_RES LYS A 135
