REMARK VINA RESULT:    -4.420      2.821      6.392
REMARK INTER + INTRA:         -23.661
REMARK INTER:                 -11.565
REMARK INTRA:                 -12.095
REMARK UNBOUND:               -11.748
REMARK SMILES CC(=O)N[C@@H]1[C@@H](O)C[C@](OC[C@H]2O[C@@H](O[C@H]3[C@H](O)[C@@H](O)[C@H](OCCN=[N+]=[N-])O[C@@H]3CO)[C@H](O)[C@@H](O)[C@H]2O)(C(=O)O)O[C@H]1C(O)[C@H](O)CNC(=O)OCc1cn([C@@H](C)C(=O)OCc2ccccc2)nn1
REMARK SMILES IDX 43 1 42 2 9 3 8 4 41 5 6 6 5 7 10 8 11 9 12 10 14 11 13 12
REMARK SMILES IDX 32 13 34 14 36 15 15 16 16 17 29 18 28 19 21 20 17 21 19 22
REMARK SMILES IDX 30 23 31 24 22 26 23 27 24 28 25 29 26 30 27 31 18 32 20 34
REMARK SMILES IDX 33 36 35 38 37 40 38 42 39 43 40 44 7 46 4 48 2 49 1 51 3 52
REMARK SMILES IDX 44 53 45 55 46 56 47 58 48 59 49 60 50 62 51 63 52 64 53 65
REMARK SMILES IDX 54 66 69 67 55 68 68 69 56 70 57 71 58 72 59 73 60 74 61 75
REMARK SMILES IDX 62 76 63 77 67 78 64 79 66 80 65 81
REMARK H PARENT 31 25 18 33 20 35 33 37 35 39 37 41 40 45 7 47 4 50 44 54
REMARK H PARENT 46 57 48 61
REMARK Flexibility Score: inf
ROOT
ATOM      1  C   UNL     1      28.493  30.721  17.112  1.00  0.00     0.176 C 
ENDROOT
BRANCH   1   2
ATOM      2  C   UNL     1      28.203  31.619  18.250  1.00  0.00     0.178 C 
ATOM      3  C   UNL     1      30.044  33.053  18.259  1.00  0.00     0.272 C 
ATOM      4  C   UNL     1      30.456  32.475  19.558  1.00  0.00     0.113 C 
ATOM      5  O   UNL     1      28.617  32.918  18.120  1.00  0.00    -0.332 OA
ATOM      6  C   UNL     1      30.037  31.035  19.745  1.00  0.00     0.145 C 
ATOM      7  C   UNL     1      28.552  30.957  19.558  1.00  0.00     0.142 C 
BRANCH   3   8
ATOM      8  O   UNL     1      30.540  32.623  17.128  1.00  0.00    -0.338 OA
BRANCH   8   9
ATOM      9  C   UNL     1      31.541  33.005  16.388  1.00  0.00     0.199 C 
BRANCH   9  10
ATOM     10  C   UNL     1      31.376  33.767  15.103  1.00  0.00     0.179 C 
ATOM     11  C   UNL     1      29.823  35.174  14.092  1.00  0.00     0.282 C 
ATOM     12  O   UNL     1      30.063  34.095  14.940  1.00  0.00    -0.341 OA
ATOM     13  C   UNL     1      30.937  35.416  13.139  1.00  0.00     0.202 C 
ATOM     14  C   UNL     1      32.203  35.777  13.868  1.00  0.00     0.179 C 
ATOM     15  C   UNL     1      32.265  35.028  15.150  1.00  0.00     0.177 C 
BRANCH  11  16
ATOM     16  O   UNL     1      29.435  36.224  14.879  1.00  0.00    -0.341 OA
BRANCH  16  17
ATOM     17  C   UNL     1      28.166  36.677  14.678  1.00  0.00     0.184 C 
ATOM     18  C   UNL     1      27.740  37.509  15.861  1.00  0.00     0.178 C 
ATOM     19  O   UNL     1      26.389  37.853  15.741  1.00  0.00    -0.341 OA
ATOM     20  C   UNL     1      25.687  36.728  16.244  1.00  0.00     0.281 C 
ATOM     21  C   UNL     1      27.151  35.554  14.539  1.00  0.00     0.180 C 
ATOM     22  C   UNL     1      26.180  35.444  15.654  1.00  0.00     0.202 C 
BRANCH  18  23
ATOM     23  C   UNL     1      28.601  38.709  16.118  1.00  0.00     0.191 C 
BRANCH  23  24
ATOM     24  O   UNL     1      29.681  38.270  16.890  1.00  0.00    -0.394 OA
ATOM     25  H   UNL     1      29.682  38.647  17.802  1.00  0.00     0.210 HD
ENDBRANCH  23  24
ENDBRANCH  18  23
BRANCH  20  26
ATOM     26  O   UNL     1      24.359  36.959  16.072  1.00  0.00    -0.350 OA
BRANCH  26  27
ATOM     27  C   UNL     1      23.522  36.825  17.130  1.00  0.00     0.169 C 
BRANCH  27  28
ATOM     28  C   UNL     1      22.501  35.747  17.081  1.00  0.00     0.119 C 
BRANCH  28  29
ATOM     29  N   UNL     1      22.611  34.697  18.028  1.00  0.00    -0.092 NA
ATOM     30  N   UNL     1      23.648  34.063  18.188  1.00  0.00     0.001 N 
ATOM     31  N   UNL     1      24.708  33.501  18.518  1.00  0.00    -0.003 NA
ENDBRANCH  28  29
ENDBRANCH  27  28
ENDBRANCH  26  27
ENDBRANCH  20  26
BRANCH  21  32
ATOM     32  O   UNL     1      26.446  35.652  13.335  1.00  0.00    -0.387 OA
ATOM     33  H   UNL     1      26.116  36.560  13.154  1.00  0.00     0.211 HD
ENDBRANCH  21  32
BRANCH  22  34
ATOM     34  O   UNL     1      26.677  34.558  16.616  1.00  0.00    -0.385 OA
ATOM     35  H   UNL     1      25.906  34.006  16.917  1.00  0.00     0.211 HD
ENDBRANCH  22  34
ENDBRANCH  16  17
ENDBRANCH  11  16
BRANCH  13  36
ATOM     36  O   UNL     1      31.119  34.245  12.365  1.00  0.00    -0.385 OA
ATOM     37  H   UNL     1      31.193  33.507  13.043  1.00  0.00     0.211 HD
ENDBRANCH  13  36
BRANCH  14  38
ATOM     38  O   UNL     1      32.251  37.148  14.022  1.00  0.00    -0.387 OA
ATOM     39  H   UNL     1      31.345  37.561  14.025  1.00  0.00     0.211 HD
ENDBRANCH  14  38
BRANCH  15  40
ATOM     40  O   UNL     1      31.966  35.819  16.250  1.00  0.00    -0.387 OA
ATOM     41  H   UNL     1      32.809  35.983  16.776  1.00  0.00     0.211 HD
ENDBRANCH  15  40
ENDBRANCH   9  10
ENDBRANCH   8   9
ENDBRANCH   3   8
BRANCH   3  42
ATOM     42  C   UNL     1      30.116  34.562  18.394  1.00  0.00     0.364 C 
ATOM     43  O   UNL     1      30.920  35.107  19.162  1.00  0.00    -0.246 OA
BRANCH  42  44
ATOM     44  O   UNL     1      29.271  35.383  17.650  1.00  0.00    -0.477 OA
ATOM     45  H   UNL     1      28.820  36.213  18.021  1.00  0.00     0.296 HD
ENDBRANCH  42  44
ENDBRANCH   3  42
BRANCH   6  46
ATOM     46  O   UNL     1      30.731  30.157  18.917  1.00  0.00    -0.391 OA
ATOM     47  H   UNL     1      30.274  29.286  18.983  1.00  0.00     0.211 HD
ENDBRANCH   6  46
BRANCH   7  48
ATOM     48  N   UNL     1      27.906  31.623  20.682  1.00  0.00    -0.348 N 
ATOM     49  C   UNL     1      26.527  31.342  20.937  1.00  0.00     0.217 C 
ATOM     50  H   UNL     1      28.389  32.294  21.312  1.00  0.00     0.163 HD
ATOM     51  C   UNL     1      25.864  32.025  22.089  1.00  0.00     0.114 C 
ATOM     52  O   UNL     1      25.896  30.536  20.201  1.00  0.00    -0.275 OA
ENDBRANCH   7  48
ENDBRANCH   1   2
BRANCH   1  53
ATOM     53  O   UNL     1      28.038  29.420  17.436  1.00  0.00    -0.388 OA
ATOM     54  H   UNL     1      27.545  29.025  16.665  1.00  0.00     0.211 HD
ENDBRANCH   1  53
BRANCH   1  55
ATOM     55  C   UNL     1      27.707  31.070  15.837  1.00  0.00     0.165 C 
BRANCH  55  56
ATOM     56  O   UNL     1      27.939  32.340  15.413  1.00  0.00    -0.388 OA
ATOM     57  H   UNL     1      27.933  32.395  14.428  1.00  0.00     0.211 HD
ENDBRANCH  55  56
BRANCH  55  58
ATOM     58  C   UNL     1      26.272  30.676  15.971  1.00  0.00     0.154 C 
BRANCH  58  59
ATOM     59  N   UNL     1      25.417  31.828  15.901  1.00  0.00    -0.319 N 
ATOM     60  C   UNL     1      24.483  32.110  14.876  1.00  0.00     0.407 C 
ATOM     61  H   UNL     1      25.451  32.569  16.671  1.00  0.00     0.167 HD
ATOM     62  O   UNL     1      24.344  31.354  13.912  1.00  0.00    -0.225 OA
BRANCH  60  63
ATOM     63  O   UNL     1      23.683  33.262  14.924  1.00  0.00    -0.443 OA
BRANCH  63  64
ATOM     64  C   UNL     1      22.547  33.417  14.110  1.00  0.00     0.294 C 
BRANCH  64  65
ATOM     65  C   UNL     1      22.881  34.402  13.056  1.00  0.00     0.120 A 
ATOM     66  C   UNL     1      22.667  34.302  11.700  1.00  0.00     0.139 A 
ATOM     67  N   UNL     1      23.469  35.586  13.262  1.00  0.00    -0.132 NA
ATOM     68  N   UNL     1      23.135  35.434  11.106  1.00  0.00    -0.238 N 
ATOM     69  N   UNL     1      23.613  36.192  12.075  1.00  0.00    -0.066 NA
BRANCH  68  70
ATOM     70  C   UNL     1      23.070  35.638   9.680  1.00  0.00     0.215 C 
ATOM     71  C   UNL     1      22.223  36.848   9.335  1.00  0.00     0.046 C 
BRANCH  70  72
ATOM     72  C   UNL     1      24.454  35.815   9.110  1.00  0.00     0.331 C 
ATOM     73  O   UNL     1      25.295  34.916   9.279  1.00  0.00    -0.250 OA
BRANCH  72  74
ATOM     74  O   UNL     1      24.800  36.946   8.409  1.00  0.00    -0.459 OA
BRANCH  74  75
ATOM     75  C   UNL     1      26.008  37.652   8.558  1.00  0.00     0.268 C 
BRANCH  75  76
ATOM     76  C   UNL     1      26.911  37.534   7.394  1.00  0.00    -0.011 A 
ATOM     77  C   UNL     1      27.657  36.410   7.153  1.00  0.00     0.007 A 
ATOM     78  C   UNL     1      27.027  38.577   6.508  1.00  0.00     0.007 A 
ATOM     79  C   UNL     1      28.501  36.299   6.072  1.00  0.00     0.000 A 
ATOM     80  C   UNL     1      27.857  38.510   5.413  1.00  0.00     0.000 A 
ATOM     81  C   UNL     1      28.599  37.354   5.202  1.00  0.00     0.000 A 
ENDBRANCH  75  76
ENDBRANCH  74  75
ENDBRANCH  72  74
ENDBRANCH  70  72
ENDBRANCH  68  70
ENDBRANCH  64  65
ENDBRANCH  63  64
ENDBRANCH  60  63
ENDBRANCH  58  59
ENDBRANCH  55  58
ENDBRANCH   1  55
TORSDOF 34
BEGIN_RES LYS A 131
REMARK  4 active torsions:
REMARK  status: ('A' for Active; 'I' for Inactive)
REMARK    1  A    between atoms: CA   and  CB  
REMARK    2  A    between atoms: CB   and  CG  
REMARK    3  A    between atoms: CG   and  CD  
REMARK    4  A    between atoms: CD   and  CE  
ROOT
ATOM      1  CA  LYS A 131      29.867  25.555  16.977  1.00 20.52     0.186 C 
ENDROOT
BRANCH   1   2
ATOM      2  CB  LYS A 131      28.345  25.722  17.026  1.00 20.94     0.034 C 
BRANCH   2   3
ATOM      3  CG  LYS A 131      27.831  26.045  18.420  1.00 22.96     0.005 C 
BRANCH   3   4
ATOM      4  CD  LYS A 131      26.329  26.012  18.492  1.00 24.33     0.041 C 
BRANCH   4   5
ATOM      5  CE  LYS A 131      25.844  27.061  19.487  1.00 26.91     0.338 C 
ATOM      6  NZ  LYS A 131      26.849  27.266  20.557  1.00 27.40     0.618 N 
ENDBRANCH   4   5
ENDBRANCH   3   4
ENDBRANCH   2   3
ENDBRANCH   1   2
END_RES LYS A 131
BEGIN_RES LYS A 135
REMARK  4 active torsions:
REMARK  status: ('A' for Active; 'I' for Inactive)
REMARK    5  A    between atoms: CA   and  CB  
REMARK    6  A    between atoms: CB   and  CG  
REMARK    7  A    between atoms: CG   and  CD  
REMARK    8  A    between atoms: CD   and  CE  
ROOT
ATOM      7  CA  LYS A 135      33.193  34.663   9.290  1.00 25.02     0.186 C 
ENDROOT
BRANCH   7   8
ATOM      8  CB  LYS A 135      32.060  35.360  10.034  1.00 26.63     0.034 C 
BRANCH   8   9
ATOM      9  CG  LYS A 135      30.804  35.510   9.215  1.00 29.45     0.005 C 
BRANCH   9  10
ATOM     10  CD  LYS A 135      30.241  34.148   8.840  1.00 32.00     0.041 C 
BRANCH  10  11
ATOM     11  CE  LYS A 135      28.870  33.950   9.458  1.00 34.25     0.338 C 
ATOM     12  NZ  LYS A 135      28.521  35.080  10.362  1.00 35.99     0.618 N 
ENDBRANCH  10  11
ENDBRANCH   9  10
ENDBRANCH   8   9
ENDBRANCH   7   8
END_RES LYS A 135
