REMARK VINA RESULT:    -5.016      2.676      6.703
REMARK INTER + INTRA:         -22.763
REMARK INTER:                 -11.865
REMARK INTRA:                 -10.899
REMARK UNBOUND:               -10.416
REMARK SMILES CC(=O)N[C@@H]1[C@@H](O)C[C@](OC[C@H]2O[C@@H](O[C@H]3[C@H](O)[C@@H](O)[C@H](OCCN=[N+]=[N-])O[C@@H]3CO)[C@H](O)[C@@H](O)[C@H]2O)(C(=O)O)O[C@H]1C(O)[C@H](O)CNC(=O)OCc1cn(-c2ccc3c(c2)OCO3)nn1
REMARK SMILES IDX 9 1 8 2 6 3 5 4 42 5 41 6 10 7 11 8 12 9 14 10 13 11 32 12
REMARK SMILES IDX 34 13 36 14 15 15 16 16 29 17 28 18 21 19 17 20 19 21 30 22
REMARK SMILES IDX 31 23 22 25 23 26 24 27 25 28 26 29 27 30 18 31 20 33 33 35
REMARK SMILES IDX 35 37 37 39 38 41 39 42 40 43 7 45 43 47 44 48 45 50 46 51
REMARK SMILES IDX 47 53 48 54 49 55 50 57 51 58 52 59 53 60 54 61 66 62 55 63
REMARK SMILES IDX 65 64 56 65 57 66 61 67 58 68 60 69 59 70 62 71 64 72 63 73
REMARK SMILES IDX 4 74 2 75 1 77 3 78
REMARK H PARENT 31 24 18 32 20 34 33 36 35 38 37 40 40 44 7 46 44 49 46 52
REMARK H PARENT 48 56 4 76
REMARK Flexibility Score: inf
ROOT
ATOM      1  C   UNL     1      29.897  31.271  21.072  1.00  0.00     0.272 C 
ATOM      2  C   UNL     1      30.245  32.577  21.730  1.00  0.00     0.113 C 
ATOM      3  C   UNL     1      29.711  33.783  20.936  1.00  0.00     0.145 C 
ATOM      4  C   UNL     1      30.509  33.795  19.650  1.00  0.00     0.142 C 
ATOM      5  C   UNL     1      30.351  32.410  19.058  1.00  0.00     0.178 C 
ATOM      6  O   UNL     1      29.522  31.580  19.733  1.00  0.00    -0.332 OA
ENDROOT
BRANCH   1   7
ATOM      7  O   UNL     1      28.847  30.656  21.591  1.00  0.00    -0.338 OA
BRANCH   7   8
ATOM      8  C   UNL     1      28.430  29.427  21.590  1.00  0.00     0.199 C 
BRANCH   8   9
ATOM      9  C   UNL     1      27.254  28.978  20.765  1.00  0.00     0.179 C 
ATOM     10  C   UNL     1      25.686  29.907  19.315  1.00  0.00     0.282 C 
ATOM     11  O   UNL     1      26.576  30.091  20.341  1.00  0.00    -0.341 OA
ATOM     12  C   UNL     1      25.404  28.476  19.001  1.00  0.00     0.202 C 
ATOM     13  C   UNL     1      26.677  27.698  18.712  1.00  0.00     0.179 C 
ATOM     14  C   UNL     1      27.813  28.216  19.535  1.00  0.00     0.177 C 
BRANCH  10  15
ATOM     15  O   UNL     1      26.272  30.464  18.161  1.00  0.00    -0.341 OA
BRANCH  15  16
ATOM     16  C   UNL     1      25.678  31.635  17.765  1.00  0.00     0.184 C 
ATOM     17  C   UNL     1      24.206  31.404  17.550  1.00  0.00     0.178 C 
ATOM     18  O   UNL     1      23.892  30.938  16.295  1.00  0.00    -0.341 OA
ATOM     19  C   UNL     1      24.921  30.194  15.717  1.00  0.00     0.281 C 
ATOM     20  C   UNL     1      26.376  32.088  16.504  1.00  0.00     0.180 C 
ATOM     21  C   UNL     1      26.137  31.041  15.438  1.00  0.00     0.202 C 
BRANCH  17  22
ATOM     22  C   UNL     1      23.402  32.677  17.775  1.00  0.00     0.191 C 
BRANCH  22  23
ATOM     23  O   UNL     1      22.999  33.239  16.570  1.00  0.00    -0.394 OA
ATOM     24  H   UNL     1      23.690  33.865  16.190  1.00  0.00     0.210 HD
ENDBRANCH  22  23
ENDBRANCH  17  22
BRANCH  19  25
ATOM     25  O   UNL     1      24.424  29.744  14.502  1.00  0.00    -0.350 OA
BRANCH  25  26
ATOM     26  C   UNL     1      24.418  30.804  13.601  1.00  0.00     0.169 C 
BRANCH  26  27
ATOM     27  C   UNL     1      23.124  30.832  12.794  1.00  0.00     0.119 C 
BRANCH  27  28
ATOM     28  N   UNL     1      22.858  29.444  12.386  1.00  0.00    -0.092 NA
ATOM     29  N   UNL     1      21.672  29.078  12.238  1.00  0.00     0.001 N 
ATOM     30  N   UNL     1      20.441  28.901  12.197  1.00  0.00    -0.003 NA
ENDBRANCH  27  28
ENDBRANCH  26  27
ENDBRANCH  25  26
ENDBRANCH  19  25
BRANCH  20  31
ATOM     31  O   UNL     1      26.006  33.353  16.097  1.00  0.00    -0.387 OA
ATOM     32  H   UNL     1      25.533  33.372  15.213  1.00  0.00     0.211 HD
ENDBRANCH  20  31
BRANCH  21  33
ATOM     33  O   UNL     1      27.247  30.194  15.427  1.00  0.00    -0.385 OA
ATOM     34  H   UNL     1      27.561  29.957  16.336  1.00  0.00     0.211 HD
ENDBRANCH  21  33
ENDBRANCH  15  16
ENDBRANCH  10  15
BRANCH  12  35
ATOM     35  O   UNL     1      24.684  27.801  19.983  1.00  0.00    -0.385 OA
ATOM     36  H   UNL     1      23.708  27.844  19.735  1.00  0.00     0.211 HD
ENDBRANCH  12  35
BRANCH  13  37
ATOM     37  O   UNL     1      26.956  27.823  17.350  1.00  0.00    -0.387 OA
ATOM     38  H   UNL     1      27.902  27.945  17.149  1.00  0.00     0.211 HD
ENDBRANCH  13  37
BRANCH  14  39
ATOM     39  O   UNL     1      28.568  29.082  18.751  1.00  0.00    -0.387 OA
ATOM     40  H   UNL     1      28.509  28.907  17.798  1.00  0.00     0.211 HD
ENDBRANCH  14  39
ENDBRANCH   8   9
ENDBRANCH   7   8
ENDBRANCH   1   7
BRANCH   1  41
ATOM     41  C   UNL     1      31.107  30.394  20.949  1.00  0.00     0.364 C 
ATOM     42  O   UNL     1      31.099  29.575  19.965  1.00  0.00    -0.246 OA
BRANCH  41  43
ATOM     43  O   UNL     1      32.185  30.392  21.774  1.00  0.00    -0.477 OA
ATOM     44  H   UNL     1      33.135  30.263  21.464  1.00  0.00     0.296 HD
ENDBRANCH  41  43
ENDBRANCH   1  41
BRANCH   3  45
ATOM     45  O   UNL     1      28.362  33.494  20.691  1.00  0.00    -0.391 OA
ATOM     46  H   UNL     1      28.229  33.245  19.750  1.00  0.00     0.211 HD
ENDBRANCH   3  45
BRANCH   5  47
ATOM     47  C   UNL     1      29.667  32.649  17.695  1.00  0.00     0.176 C 
BRANCH  47  48
ATOM     48  O   UNL     1      29.914  33.889  17.182  1.00  0.00    -0.388 OA
ATOM     49  H   UNL     1      29.857  34.626  17.839  1.00  0.00     0.211 HD
ENDBRANCH  47  48
BRANCH  47  50
ATOM     50  C   UNL     1      30.068  31.580  16.687  1.00  0.00     0.165 C 
BRANCH  50  51
ATOM     51  O   UNL     1      30.448  30.418  17.272  1.00  0.00    -0.388 OA
ATOM     52  H   UNL     1      31.404  30.208  17.268  1.00  0.00     0.211 HD
ENDBRANCH  50  51
BRANCH  50  53
ATOM     53  C   UNL     1      31.162  32.177  15.858  1.00  0.00     0.154 C 
BRANCH  53  54
ATOM     54  N   UNL     1      30.673  32.787  14.661  1.00  0.00    -0.319 N 
ATOM     55  C   UNL     1      30.917  34.123  14.251  1.00  0.00     0.407 C 
ATOM     56  H   UNL     1      30.059  32.227  13.970  1.00  0.00     0.167 HD
ATOM     57  O   UNL     1      31.623  34.885  14.940  1.00  0.00    -0.225 OA
BRANCH  55  58
ATOM     58  O   UNL     1      30.377  34.629  13.065  1.00  0.00    -0.443 OA
BRANCH  58  59
ATOM     59  C   UNL     1      29.574  35.776  13.005  1.00  0.00     0.294 C 
BRANCH  59  60
ATOM     60  C   UNL     1      28.145  35.348  12.829  1.00  0.00     0.121 A 
ATOM     61  C   UNL     1      27.299  35.743  11.791  1.00  0.00     0.144 A 
ATOM     62  N   UNL     1      27.414  34.526  13.591  1.00  0.00    -0.131 NA
ATOM     63  N   UNL     1      26.097  35.150  11.966  1.00  0.00    -0.220 N 
ATOM     64  N   UNL     1      26.218  34.425  13.067  1.00  0.00    -0.062 NA
BRANCH  63  65
ATOM     65  C   UNL     1      24.949  35.257  11.161  1.00  0.00     0.070 A 
ATOM     66  C   UNL     1      25.051  35.621   9.848  1.00  0.00     0.032 A 
ATOM     67  C   UNL     1      23.706  34.992  11.684  1.00  0.00     0.079 A 
ATOM     68  C   UNL     1      23.897  35.720   9.057  1.00  0.00     0.053 A 
ATOM     69  C   UNL     1      22.562  35.084  10.921  1.00  0.00     0.167 A 
ATOM     70  C   UNL     1      22.667  35.450   9.604  1.00  0.00     0.165 A 
ATOM     71  O   UNL     1      21.237  34.868  11.230  1.00  0.00    -0.454 OA
ATOM     72  O   UNL     1      21.388  35.468   9.063  1.00  0.00    -0.454 OA
ATOM     73  C   UNL     1      20.484  35.395  10.131  1.00  0.00     0.468 C 
ENDBRANCH  63  65
ENDBRANCH  59  60
ENDBRANCH  58  59
ENDBRANCH  55  58
ENDBRANCH  53  54
ENDBRANCH  50  53
ENDBRANCH  47  50
ENDBRANCH   5  47
BRANCH   4  74
ATOM     74  N   UNL     1      31.863  34.163  19.936  1.00  0.00    -0.348 N 
ATOM     75  C   UNL     1      32.543  35.187  19.180  1.00  0.00     0.217 C 
ATOM     76  H   UNL     1      32.451  33.738  20.683  1.00  0.00     0.163 HD
ATOM     77  C   UNL     1      33.950  35.560  19.486  1.00  0.00     0.114 C 
ATOM     78  O   UNL     1      31.943  35.759  18.264  1.00  0.00    -0.275 OA
ENDBRANCH   4  74
TORSDOF 30
BEGIN_RES LYS A 131
REMARK  4 active torsions:
REMARK  status: ('A' for Active; 'I' for Inactive)
REMARK    1  A    between atoms: CA   and  CB  
REMARK    2  A    between atoms: CB   and  CG  
REMARK    3  A    between atoms: CG   and  CD  
REMARK    4  A    between atoms: CD   and  CE  
ROOT
ATOM      1  CA  LYS A 131      29.867  25.555  16.977  1.00 20.52     0.186 C 
ENDROOT
BRANCH   1   2
ATOM      2  CB  LYS A 131      28.345  25.722  17.026  1.00 20.94     0.034 C 
BRANCH   2   3
ATOM      3  CG  LYS A 131      27.599  24.425  16.752  1.00 22.96     0.005 C 
BRANCH   3   4
ATOM      4  CD  LYS A 131      27.061  23.804  18.011  1.00 24.33     0.041 C 
BRANCH   4   5
ATOM      5  CE  LYS A 131      25.597  24.195  18.186  1.00 26.91     0.338 C 
ATOM      6  NZ  LYS A 131      24.987  24.523  16.876  1.00 27.40     0.618 N 
ENDBRANCH   4   5
ENDBRANCH   3   4
ENDBRANCH   2   3
ENDBRANCH   1   2
END_RES LYS A 131
BEGIN_RES LYS A 135
REMARK  4 active torsions:
REMARK  status: ('A' for Active; 'I' for Inactive)
REMARK    5  A    between atoms: CA   and  CB  
REMARK    6  A    between atoms: CB   and  CG  
REMARK    7  A    between atoms: CG   and  CD  
REMARK    8  A    between atoms: CD   and  CE  
ROOT
ATOM      7  CA  LYS A 135      33.193  34.663   9.290  1.00 25.02     0.186 C 
ENDROOT
BRANCH   7   8
ATOM      8  CB  LYS A 135      32.060  35.360  10.034  1.00 26.63     0.034 C 
BRANCH   8   9
ATOM      9  CG  LYS A 135      30.695  34.818   9.697  1.00 29.45     0.005 C 
BRANCH   9  10
ATOM     10  CD  LYS A 135      30.595  34.499   8.213  1.00 32.00     0.041 C 
BRANCH  10  11
ATOM     11  CE  LYS A 135      29.341  35.110   7.620  1.00 34.25     0.338 C 
ATOM     12  NZ  LYS A 135      29.052  36.439   8.227  1.00 35.99     0.618 N 
ENDBRANCH  10  11
ENDBRANCH   9  10
ENDBRANCH   8   9
ENDBRANCH   7   8
END_RES LYS A 135
