REMARK VINA RESULT:    -4.205      5.954     12.645
REMARK INTER + INTRA:         -21.922
REMARK INTER:                 -13.265
REMARK INTRA:                  -8.657
REMARK UNBOUND:               -11.571
REMARK SMILES CC(=O)N[C@@H]1[C@@H](O)C[C@](OC[C@H]2O[C@@H](O[C@H]3[C@H](O)[C@@H](O)[C@H](OCCN=[N+]=[N-])O[C@@H]3CO)[C@H](O)[C@@H](O)[C@H]2O)(C(=O)O)O[C@H]1C(O)[C@H](O)CNC(=O)OCc1cn(-c2ccc3[nH]ncc3c2)nn1
REMARK SMILES IDX 9 1 8 2 6 3 5 4 42 5 41 6 10 7 11 8 12 9 14 10 13 11 32 12
REMARK SMILES IDX 34 13 36 14 15 15 16 16 29 17 28 18 21 19 17 20 19 21 30 22
REMARK SMILES IDX 31 23 22 25 23 26 24 27 25 28 26 29 27 30 18 31 20 33 33 35
REMARK SMILES IDX 35 37 37 39 38 41 39 42 40 43 7 45 43 47 44 48 45 50 46 51
REMARK SMILES IDX 47 53 48 54 49 55 50 57 51 58 52 59 53 60 54 61 66 62 55 63
REMARK SMILES IDX 65 64 56 65 57 66 64 67 58 68 63 69 59 70 62 71 60 72 61 73
REMARK SMILES IDX 4 75 2 76 1 78 3 79
REMARK H PARENT 31 24 18 32 20 34 33 36 35 38 37 40 40 44 7 46 44 49 46 52
REMARK H PARENT 48 56 60 74 4 77
REMARK Flexibility Score: inf
ROOT
ATOM      1  C   UNL     1      29.706  36.589   8.984  1.00  0.00     0.272 C 
ATOM      2  C   UNL     1      30.822  37.469   9.417  1.00  0.00     0.113 C 
ATOM      3  C   UNL     1      31.505  38.240   8.318  1.00  0.00     0.145 C 
ATOM      4  C   UNL     1      30.373  39.082   7.671  1.00  0.00     0.142 C 
ATOM      5  C   UNL     1      29.344  38.097   7.271  1.00  0.00     0.178 C 
ATOM      6  O   UNL     1      28.791  37.308   8.218  1.00  0.00    -0.332 OA
ENDROOT
BRANCH   1   7
ATOM      7  O   UNL     1      29.041  36.120  10.138  1.00  0.00    -0.338 OA
BRANCH   7   8
ATOM      8  C   UNL     1      27.710  36.377  10.189  1.00  0.00     0.199 C 
BRANCH   8   9
ATOM      9  C   UNL     1      26.888  35.102  10.481  1.00  0.00     0.179 C 
ATOM     10  C   UNL     1      24.866  34.990  11.606  1.00  0.00     0.282 C 
ATOM     11  O   UNL     1      26.255  35.186  11.685  1.00  0.00    -0.341 OA
ATOM     12  C   UNL     1      24.332  36.102  10.761  1.00  0.00     0.202 C 
ATOM     13  C   UNL     1      24.787  35.810   9.324  1.00  0.00     0.179 C 
ATOM     14  C   UNL     1      25.942  34.846   9.322  1.00  0.00     0.177 C 
BRANCH  10  15
ATOM     15  O   UNL     1      24.339  34.906  12.882  1.00  0.00    -0.341 OA
BRANCH  15  16
ATOM     16  C   UNL     1      24.138  33.574  13.217  1.00  0.00     0.184 C 
ATOM     17  C   UNL     1      22.770  33.259  13.741  1.00  0.00     0.178 C 
ATOM     18  O   UNL     1      22.620  31.942  13.958  1.00  0.00    -0.341 OA
ATOM     19  C   UNL     1      23.689  31.114  14.084  1.00  0.00     0.281 C 
ATOM     20  C   UNL     1      25.060  33.201  14.394  1.00  0.00     0.180 C 
ATOM     21  C   UNL     1      24.956  31.726  14.577  1.00  0.00     0.202 C 
BRANCH  17  22
ATOM     22  C   UNL     1      21.638  33.758  12.867  1.00  0.00     0.191 C 
BRANCH  22  23
ATOM     23  O   UNL     1      21.431  35.118  13.009  1.00  0.00    -0.394 OA
ATOM     24  H   UNL     1      21.650  35.325  13.968  1.00  0.00     0.210 HD
ENDBRANCH  22  23
ENDBRANCH  17  22
BRANCH  19  25
ATOM     25  O   UNL     1      23.885  30.501  12.871  1.00  0.00    -0.350 OA
BRANCH  25  26
ATOM     26  C   UNL     1      23.646  29.173  12.800  1.00  0.00     0.169 C 
BRANCH  26  27
ATOM     27  C   UNL     1      22.241  28.777  13.121  1.00  0.00     0.119 C 
BRANCH  27  28
ATOM     28  N   UNL     1      21.275  29.036  12.096  1.00  0.00    -0.092 NA
ATOM     29  N   UNL     1      20.551  30.012  12.077  1.00  0.00     0.001 N 
ATOM     30  N   UNL     1      19.581  30.788  12.228  1.00  0.00    -0.003 NA
ENDBRANCH  27  28
ENDBRANCH  26  27
ENDBRANCH  25  26
ENDBRANCH  19  25
BRANCH  20  31
ATOM     31  O   UNL     1      26.347  33.620  14.188  1.00  0.00    -0.387 OA
ATOM     32  H   UNL     1      26.906  33.619  15.007  1.00  0.00     0.211 HD
ENDBRANCH  20  31
BRANCH  21  33
ATOM     33  O   UNL     1      25.152  31.461  15.945  1.00  0.00    -0.385 OA
ATOM     34  H   UNL     1      25.152  32.296  16.480  1.00  0.00     0.211 HD
ENDBRANCH  21  33
ENDBRANCH  15  16
ENDBRANCH  10  15
BRANCH  12  35
ATOM     35  O   UNL     1      22.976  36.304  10.818  1.00  0.00    -0.385 OA
ATOM     36  H   UNL     1      22.519  35.625  11.401  1.00  0.00     0.211 HD
ENDBRANCH  12  35
BRANCH  13  37
ATOM     37  O   UNL     1      25.006  36.968   8.607  1.00  0.00    -0.387 OA
ATOM     38  H   UNL     1      25.934  37.279   8.832  1.00  0.00     0.211 HD
ENDBRANCH  13  37
BRANCH  14  39
ATOM     39  O   UNL     1      26.671  35.099   8.133  1.00  0.00    -0.387 OA
ATOM     40  H   UNL     1      27.254  35.869   8.208  1.00  0.00     0.211 HD
ENDBRANCH  14  39
ENDBRANCH   8   9
ENDBRANCH   7   8
ENDBRANCH   1   7
BRANCH   1  41
ATOM     41  C   UNL     1      30.120  35.442   8.133  1.00  0.00     0.364 C 
ATOM     42  O   UNL     1      29.247  34.986   7.321  1.00  0.00    -0.246 OA
BRANCH  41  43
ATOM     43  O   UNL     1      31.328  34.816   8.120  1.00  0.00    -0.477 OA
ATOM     44  H   UNL     1      32.173  35.225   7.719  1.00  0.00     0.296 HD
ENDBRANCH  41  43
ENDBRANCH   1  41
BRANCH   3  45
ATOM     45  O   UNL     1      32.446  39.074   8.891  1.00  0.00    -0.391 OA
ATOM     46  H   UNL     1      33.159  39.338   8.234  1.00  0.00     0.211 HD
ENDBRANCH   3  45
BRANCH   5  47
ATOM     47  C   UNL     1      28.355  38.687   6.311  1.00  0.00     0.176 C 
BRANCH  47  48
ATOM     48  O   UNL     1      28.444  37.822   5.160  1.00  0.00    -0.388 OA
ATOM     49  H   UNL     1      27.815  37.078   5.244  1.00  0.00     0.211 HD
ENDBRANCH  47  48
BRANCH  47  50
ATOM     50  C   UNL     1      26.907  38.605   6.730  1.00  0.00     0.165 C 
BRANCH  50  51
ATOM     51  O   UNL     1      26.439  37.371   6.198  1.00  0.00    -0.388 OA
ATOM     52  H   UNL     1      26.154  36.755   6.894  1.00  0.00     0.211 HD
ENDBRANCH  50  51
BRANCH  50  53
ATOM     53  C   UNL     1      26.029  39.696   6.245  1.00  0.00     0.154 C 
BRANCH  53  54
ATOM     54  N   UNL     1      24.652  39.643   6.585  1.00  0.00    -0.319 N 
ATOM     55  C   UNL     1      23.853  40.690   7.102  1.00  0.00     0.407 C 
ATOM     56  H   UNL     1      24.124  38.722   6.444  1.00  0.00     0.167 HD
ATOM     57  O   UNL     1      24.318  41.816   7.302  1.00  0.00    -0.225 OA
BRANCH  55  58
ATOM     58  O   UNL     1      22.512  40.461   7.396  1.00  0.00    -0.443 OA
BRANCH  58  59
ATOM     59  C   UNL     1      22.023  39.820   8.534  1.00  0.00     0.294 C 
BRANCH  59  60
ATOM     60  C   UNL     1      21.690  38.400   8.352  1.00  0.00     0.121 A 
ATOM     61  C   UNL     1      20.585  37.747   8.850  1.00  0.00     0.144 A 
ATOM     62  N   UNL     1      22.419  37.490   7.673  1.00  0.00    -0.131 NA
ATOM     63  N   UNL     1      20.702  36.480   8.448  1.00  0.00    -0.220 N 
ATOM     64  N   UNL     1      21.809  36.346   7.742  1.00  0.00    -0.062 NA
BRANCH  63  65
ATOM     65  C   UNL     1      19.767  35.443   8.747  1.00  0.00     0.067 A 
ATOM     66  C   UNL     1      19.598  34.988  10.036  1.00  0.00     0.030 A 
ATOM     67  C   UNL     1      19.016  34.875   7.743  1.00  0.00     0.040 A 
ATOM     68  C   UNL     1      18.701  33.988  10.320  1.00  0.00     0.030 A 
ATOM     69  C   UNL     1      18.110  33.862   8.049  1.00  0.00     0.022 A 
ATOM     70  C   UNL     1      17.930  33.394   9.339  1.00  0.00     0.065 A 
ATOM     71  C   UNL     1      17.260  33.151   7.235  1.00  0.00     0.143 A 
ATOM     72  N   UNL     1      16.996  32.428   9.297  1.00  0.00    -0.278 N 
ATOM     73  N   UNL     1      16.612  32.300   8.048  1.00  0.00    -0.183 NA
ATOM     74  H   UNL     1      16.657  31.893  10.134  1.00  0.00     0.190 HD
ENDBRANCH  63  65
ENDBRANCH  59  60
ENDBRANCH  58  59
ENDBRANCH  55  58
ENDBRANCH  53  54
ENDBRANCH  50  53
ENDBRANCH  47  50
ENDBRANCH   5  47
BRANCH   4  75
ATOM     75  N   UNL     1      31.025  39.612   6.469  1.00  0.00    -0.348 N 
ATOM     76  C   UNL     1      31.175  40.994   6.332  1.00  0.00     0.217 C 
ATOM     77  H   UNL     1      31.376  38.993   5.719  1.00  0.00     0.163 HD
ATOM     78  C   UNL     1      31.826  41.616   5.132  1.00  0.00     0.114 C 
ATOM     79  O   UNL     1      30.752  41.764   7.255  1.00  0.00    -0.275 OA
ENDBRANCH   4  75
TORSDOF 30
BEGIN_RES LYS A 131
REMARK  4 active torsions:
REMARK  status: ('A' for Active; 'I' for Inactive)
REMARK    1  A    between atoms: CA   and  CB  
REMARK    2  A    between atoms: CB   and  CG  
REMARK    3  A    between atoms: CG   and  CD  
REMARK    4  A    between atoms: CD   and  CE  
ROOT
ATOM      1  CA  LYS A 131      29.867  25.555  16.977  1.00 20.52     0.186 C 
ENDROOT
BRANCH   1   2
ATOM      2  CB  LYS A 131      28.345  25.722  17.026  1.00 20.94     0.034 C 
BRANCH   2   3
ATOM      3  CG  LYS A 131      27.601  24.402  16.896  1.00 22.96     0.005 C 
BRANCH   3   4
ATOM      4  CD  LYS A 131      26.638  24.180  18.028  1.00 24.33     0.041 C 
BRANCH   4   5
ATOM      5  CE  LYS A 131      26.109  25.524  18.517  1.00 26.91     0.338 C 
ATOM      6  NZ  LYS A 131      24.795  25.821  17.899  1.00 27.40     0.618 N 
ENDBRANCH   4   5
ENDBRANCH   3   4
ENDBRANCH   2   3
ENDBRANCH   1   2
END_RES LYS A 131
BEGIN_RES LYS A 135
REMARK  4 active torsions:
REMARK  status: ('A' for Active; 'I' for Inactive)
REMARK    5  A    between atoms: CA   and  CB  
REMARK    6  A    between atoms: CB   and  CG  
REMARK    7  A    between atoms: CG   and  CD  
REMARK    8  A    between atoms: CD   and  CE  
ROOT
ATOM      7  CA  LYS A 135      33.193  34.663   9.290  1.00 25.02     0.186 C 
ENDROOT
BRANCH   7   8
ATOM      8  CB  LYS A 135      32.060  35.360  10.034  1.00 26.63     0.034 C 
BRANCH   8   9
ATOM      9  CG  LYS A 135      32.004  35.020  11.501  1.00 29.45     0.005 C 
BRANCH   9  10
ATOM     10  CD  LYS A 135      32.637  36.125  12.332  1.00 32.00     0.041 C 
BRANCH  10  11
ATOM     11  CE  LYS A 135      32.384  35.892  13.809  1.00 34.25     0.338 C 
ATOM     12  NZ  LYS A 135      31.273  34.923  14.017  1.00 35.99     0.618 N 
ENDBRANCH  10  11
ENDBRANCH   9  10
ENDBRANCH   8   9
ENDBRANCH   7   8
END_RES LYS A 135
