REMARK VINA RESULT:    -4.277      0.000      0.000
REMARK INTER + INTRA:         -25.160
REMARK INTER:                 -14.621
REMARK INTRA:                 -10.539
REMARK UNBOUND:               -13.881
REMARK SMILES CCOC(=O)c1cccc(-n2cc(COC(=O)NC[C@@H](O)C(O)[C@@H]3O[C@@](OC[C@H]4O[C@@H](O[C@H]5[C@H](O)[C@@H](O)[C@H](OCCN=[N+]=[N-])O[C@@H]5CO)[C@H](O)[C@@H](O)[C@H]4O)(C(=O)O)C[C@H](O)[C@H]3NC(C)=O)nn2)c1
REMARK SMILES IDX 22 1 24 2 26 3 58 4 25 5 59 6 61 7 27 8 28 9 29 10 31 11
REMARK SMILES IDX 30 12 49 13 51 14 53 15 32 16 33 17 46 18 45 19 38 20 34 21
REMARK SMILES IDX 36 22 47 23 48 24 39 26 40 27 41 28 42 29 43 30 44 31 35 32
REMARK SMILES IDX 37 34 50 36 52 38 54 40 55 42 56 43 57 44 60 46 62 48 63 49
REMARK SMILES IDX 64 51 65 52 23 53 20 55 21 56 19 58 18 59 16 60 17 62 15 63
REMARK SMILES IDX 14 64 13 65 12 66 66 67 11 68 67 69 10 70 68 71 9 72 6 73
REMARK SMILES IDX 8 74 7 75 4 76 5 77 3 78 2 79 1 80
REMARK H PARENT 48 25 35 33 37 35 50 37 52 39 54 41 57 45 60 47 62 50 23 54
REMARK H PARENT 21 57 18 61
REMARK Flexibility Score: inf
ROOT
ATOM      1  C   UNL     1      29.355  36.793  15.660  1.00  0.00     0.176 C 
ENDROOT
BRANCH   1   2
ATOM      2  C   UNL     1      30.546  35.953  15.469  1.00  0.00     0.178 C 
ATOM      3  C   UNL     1      31.134  33.725  15.998  1.00  0.00     0.272 C 
ATOM      4  C   UNL     1      32.363  34.200  15.295  1.00  0.00     0.113 C 
ATOM      5  O   UNL     1      30.525  34.953  16.445  1.00  0.00    -0.332 OA
ATOM      6  C   UNL     1      32.916  35.501  15.854  1.00  0.00     0.145 C 
ATOM      7  C   UNL     1      31.874  36.621  15.521  1.00  0.00     0.142 C 
BRANCH   3   8
ATOM      8  O   UNL     1      31.462  33.059  17.138  1.00  0.00    -0.338 OA
BRANCH   8   9
ATOM      9  C   UNL     1      30.955  33.241  18.332  1.00  0.00     0.199 C 
BRANCH   9  10
ATOM     10  C   UNL     1      29.836  32.522  18.955  1.00  0.00     0.179 C 
ATOM     11  C   UNL     1      27.665  31.727  18.600  1.00  0.00     0.282 C 
ATOM     12  O   UNL     1      28.661  32.688  18.313  1.00  0.00    -0.341 OA
ATOM     13  C   UNL     1      27.986  30.965  19.848  1.00  0.00     0.202 C 
ATOM     14  C   UNL     1      29.329  30.309  19.818  1.00  0.00     0.179 C 
ATOM     15  C   UNL     1      30.207  31.009  18.839  1.00  0.00     0.177 C 
BRANCH  11  16
ATOM     16  O   UNL     1      27.533  30.996  17.456  1.00  0.00    -0.341 OA
BRANCH  16  17
ATOM     17  C   UNL     1      26.361  31.014  16.784  1.00  0.00     0.184 C 
ATOM     18  C   UNL     1      26.100  29.634  16.240  1.00  0.00     0.178 C 
ATOM     19  O   UNL     1      24.873  29.571  15.576  1.00  0.00    -0.341 OA
ATOM     20  C   UNL     1      24.991  30.343  14.387  1.00  0.00     0.281 C 
ATOM     21  C   UNL     1      26.386  31.963  15.574  1.00  0.00     0.180 C 
ATOM     22  C   UNL     1      25.055  31.772  14.850  1.00  0.00     0.202 C 
BRANCH  18  23
ATOM     23  C   UNL     1      26.094  28.610  17.338  1.00  0.00     0.191 C 
BRANCH  23  24
ATOM     24  O   UNL     1      27.414  28.155  17.591  1.00  0.00    -0.394 OA
ATOM     25  H   UNL     1      28.064  28.886  17.437  1.00  0.00     0.210 HD
ENDBRANCH  23  24
ENDBRANCH  18  23
BRANCH  20  26
ATOM     26  O   UNL     1      23.921  30.051  13.592  1.00  0.00    -0.350 OA
BRANCH  26  27
ATOM     27  C   UNL     1      22.814  29.641  14.320  1.00  0.00     0.169 C 
BRANCH  27  28
ATOM     28  C   UNL     1      21.620  30.532  14.153  1.00  0.00     0.119 C 
BRANCH  28  29
ATOM     29  N   UNL     1      21.914  31.536  13.122  1.00  0.00    -0.092 NA
ATOM     30  N   UNL     1      20.954  32.027  12.513  1.00  0.00     0.001 N 
ATOM     31  N   UNL     1      20.101  32.778  11.998  1.00  0.00    -0.003 NA
ENDBRANCH  28  29
ENDBRANCH  27  28
ENDBRANCH  26  27
ENDBRANCH  20  26
BRANCH  21  32
ATOM     32  O   UNL     1      26.394  33.290  15.979  1.00  0.00    -0.387 OA
ATOM     33  H   UNL     1      25.533  33.465  16.429  1.00  0.00     0.211 HD
ENDBRANCH  21  32
BRANCH  22  34
ATOM     34  O   UNL     1      24.929  32.672  13.797  1.00  0.00    -0.385 OA
ATOM     35  H   UNL     1      24.018  33.091  13.745  1.00  0.00     0.211 HD
ENDBRANCH  22  34
ENDBRANCH  16  17
ENDBRANCH  11  16
BRANCH  13  36
ATOM     36  O   UNL     1      27.828  31.816  20.959  1.00  0.00    -0.385 OA
ATOM     37  H   UNL     1      28.691  32.131  21.312  1.00  0.00     0.211 HD
ENDBRANCH  13  36
BRANCH  14  38
ATOM     38  O   UNL     1      29.275  28.939  19.697  1.00  0.00    -0.387 OA
ATOM     39  H   UNL     1      28.527  28.731  19.075  1.00  0.00     0.211 HD
ENDBRANCH  14  38
BRANCH  15  40
ATOM     40  O   UNL     1      30.071  30.547  17.568  1.00  0.00    -0.387 OA
ATOM     41  H   UNL     1      30.907  30.708  17.063  1.00  0.00     0.211 HD
ENDBRANCH  15  40
ENDBRANCH   9  10
ENDBRANCH   8   9
ENDBRANCH   3   8
BRANCH   3  42
ATOM     42  C   UNL     1      30.147  33.040  15.176  1.00  0.00     0.364 C 
ATOM     43  O   UNL     1      29.179  33.625  14.666  1.00  0.00    -0.246 OA
BRANCH  42  44
ATOM     44  O   UNL     1      30.259  31.671  14.929  1.00  0.00    -0.477 OA
ATOM     45  H   UNL     1      30.956  31.087  15.342  1.00  0.00     0.296 HD
ENDBRANCH  42  44
ENDBRANCH   3  42
BRANCH   6  46
ATOM     46  O   UNL     1      32.947  35.410  17.223  1.00  0.00    -0.391 OA
ATOM     47  H   UNL     1      32.385  34.652  17.515  1.00  0.00     0.211 HD
ENDBRANCH   6  46
BRANCH   7  48
ATOM     48  N   UNL     1      32.287  37.178  14.254  1.00  0.00    -0.348 N 
ATOM     49  C   UNL     1      31.806  36.717  12.985  1.00  0.00     0.217 C 
ATOM     50  H   UNL     1      32.984  37.981  14.192  1.00  0.00     0.163 HD
ATOM     51  C   UNL     1      32.254  37.314  11.699  1.00  0.00     0.114 C 
ATOM     52  O   UNL     1      30.982  35.781  12.940  1.00  0.00    -0.275 OA
ENDBRANCH   7  48
ENDBRANCH   1   2
BRANCH   1  53
ATOM     53  O   UNL     1      28.520  36.928  14.584  1.00  0.00    -0.388 OA
ATOM     54  H   UNL     1      27.612  36.585  14.758  1.00  0.00     0.211 HD
ENDBRANCH   1  53
BRANCH   1  55
ATOM     55  C   UNL     1      28.578  36.596  16.937  1.00  0.00     0.165 C 
BRANCH  55  56
ATOM     56  O   UNL     1      27.854  35.400  16.893  1.00  0.00    -0.388 OA
ATOM     57  H   UNL     1      28.411  34.676  16.506  1.00  0.00     0.211 HD
ENDBRANCH  55  56
BRANCH  55  58
ATOM     58  C   UNL     1      27.796  37.792  17.389  1.00  0.00     0.154 C 
BRANCH  58  59
ATOM     59  N   UNL     1      26.693  38.091  16.504  1.00  0.00    -0.319 N 
ATOM     60  C   UNL     1      25.405  37.556  16.726  1.00  0.00     0.407 C 
ATOM     61  H   UNL     1      26.834  38.730  15.662  1.00  0.00     0.167 HD
ATOM     62  O   UNL     1      25.088  36.803  17.675  1.00  0.00    -0.225 OA
BRANCH  60  63
ATOM     63  O   UNL     1      24.354  37.851  15.836  1.00  0.00    -0.443 OA
BRANCH  63  64
ATOM     64  C   UNL     1      23.844  36.970  14.883  1.00  0.00     0.294 C 
BRANCH  64  65
ATOM     65  C   UNL     1      24.837  36.282  14.047  1.00  0.00     0.121 A 
ATOM     66  C   UNL     1      24.848  36.234  12.657  1.00  0.00     0.144 A 
ATOM     67  N   UNL     1      25.893  35.585  14.448  1.00  0.00    -0.131 NA
ATOM     68  N   UNL     1      25.905  35.513  12.286  1.00  0.00    -0.220 N 
ATOM     69  N   UNL     1      26.532  35.125  13.374  1.00  0.00    -0.062 NA
BRANCH  68  70
ATOM     70  C   UNL     1      26.280  35.225  10.957  1.00  0.00     0.067 A 
ATOM     71  C   UNL     1      25.930  36.063   9.902  1.00  0.00     0.044 A 
ATOM     72  C   UNL     1      27.016  34.115  10.637  1.00  0.00     0.028 A 
ATOM     73  C   UNL     1      26.281  35.833   8.599  1.00  0.00     0.062 A 
ATOM     74  C   UNL     1      27.391  33.846   9.330  1.00  0.00     0.003 A 
ATOM     75  C   UNL     1      27.028  34.696   8.312  1.00  0.00     0.016 A 
BRANCH  73  76
ATOM     76  C   UNL     1      25.881  36.745   7.549  1.00  0.00     0.338 C 
ATOM     77  O   UNL     1      24.826  37.398   7.670  1.00  0.00    -0.246 OA
BRANCH  76  78
ATOM     78  O   UNL     1      26.660  36.893   6.430  1.00  0.00    -0.462 OA
BRANCH  78  79
ATOM     79  C   UNL     1      27.372  38.066   6.110  1.00  0.00     0.230 C 
ATOM     80  C   UNL     1      28.603  37.717   5.302  1.00  0.00     0.049 C 
ENDBRANCH  78  79
ENDBRANCH  76  78
ENDBRANCH  73  76
ENDBRANCH  68  70
ENDBRANCH  64  65
ENDBRANCH  63  64
ENDBRANCH  60  63
ENDBRANCH  58  59
ENDBRANCH  55  58
ENDBRANCH   1  55
TORSDOF 33
BEGIN_RES LYS A 131
REMARK  4 active torsions:
REMARK  status: ('A' for Active; 'I' for Inactive)
REMARK    1  A    between atoms: CA   and  CB  
REMARK    2  A    between atoms: CB   and  CG  
REMARK    3  A    between atoms: CG   and  CD  
REMARK    4  A    between atoms: CD   and  CE  
ROOT
ATOM      1  CA  LYS A 131      29.867  25.555  16.977  1.00 20.52     0.186 C 
ENDROOT
BRANCH   1   2
ATOM      2  CB  LYS A 131      28.345  25.722  17.026  1.00 20.94     0.034 C 
BRANCH   2   3
ATOM      3  CG  LYS A 131      27.599  24.471  16.588  1.00 22.96     0.005 C 
BRANCH   3   4
ATOM      4  CD  LYS A 131      26.693  23.945  17.667  1.00 24.33     0.041 C 
BRANCH   4   5
ATOM      5  CE  LYS A 131      26.433  25.043  18.693  1.00 26.91     0.338 C 
ATOM      6  NZ  LYS A 131      25.166  24.787  19.418  1.00 27.40     0.618 N 
ENDBRANCH   4   5
ENDBRANCH   3   4
ENDBRANCH   2   3
ENDBRANCH   1   2
END_RES LYS A 131
BEGIN_RES LYS A 135
REMARK  4 active torsions:
REMARK  status: ('A' for Active; 'I' for Inactive)
REMARK    5  A    between atoms: CA   and  CB  
REMARK    6  A    between atoms: CB   and  CG  
REMARK    7  A    between atoms: CG   and  CD  
REMARK    8  A    between atoms: CD   and  CE  
ROOT
ATOM      7  CA  LYS A 135      33.193  34.663   9.290  1.00 25.02     0.186 C 
ENDROOT
BRANCH   7   8
ATOM      8  CB  LYS A 135      32.060  35.360  10.034  1.00 26.63     0.034 C 
BRANCH   8   9
ATOM      9  CG  LYS A 135      30.699  35.099   9.441  1.00 29.45     0.005 C 
BRANCH   9  10
ATOM     10  CD  LYS A 135      30.391  36.105   8.343  1.00 32.00     0.041 C 
BRANCH  10  11
ATOM     11  CE  LYS A 135      29.683  37.318   8.915  1.00 34.25     0.338 C 
ATOM     12  NZ  LYS A 135      29.215  37.060  10.305  1.00 35.99     0.618 N 
ENDBRANCH  10  11
ENDBRANCH   9  10
ENDBRANCH   8   9
ENDBRANCH   7   8
END_RES LYS A 135
