REMARK VINA RESULT:    -4.950      0.000      0.000
REMARK INTER + INTRA:         -25.997
REMARK INTER:                 -11.919
REMARK INTRA:                 -14.078
REMARK UNBOUND:               -11.931
REMARK SMILES CC(=O)N[C@@H]1[C@@H](O)C[C@](OC[C@H]2O[C@@H](O[C@H]3[C@H](O)[C@@H](O)[C@H](OCCN=[N+]=[N-])O[C@@H]3CO)[C@H](O)[C@@H](O)[C@H]2O)(C(=O)O)O[C@H]1C(O)[C@H](O)CNC(=O)OCc1cn(CC(=O)NCC(O)Cn2ccnc2[N+](=O)[O-])nn1
REMARK SMILES IDX 47 1 45 2 43 3 42 4 9 5 8 6 41 7 6 8 5 9 10 10 11 11 12 12
REMARK SMILES IDX 14 13 13 14 32 15 34 16 36 17 15 18 16 19 29 20 28 21 21 22
REMARK SMILES IDX 17 23 19 24 30 25 31 26 22 28 23 29 24 30 25 31 26 32 27 33
REMARK SMILES IDX 18 34 20 36 33 38 35 40 37 42 38 44 39 45 40 46 7 48 4 50
REMARK SMILES IDX 2 51 1 53 3 54 44 55 46 57 48 59 49 60 50 62 51 63 52 64
REMARK SMILES IDX 53 65 54 66 73 67 55 68 72 69 56 70 57 71 58 72 59 73 60 75
REMARK SMILES IDX 61 76 62 77 63 79 64 80 65 81 68 82 66 83 67 84 69 85 70 86
REMARK SMILES IDX 71 87
REMARK H PARENT 31 27 18 35 20 37 33 39 35 41 37 43 40 47 7 49 4 52 44 56
REMARK H PARENT 46 58 48 61 59 74 62 78
REMARK Flexibility Score: inf
ROOT
ATOM      1  C   UNL     1      28.127  27.385  21.605  1.00  0.00     0.154 C 
ENDROOT
BRANCH   1   2
ATOM      2  C   UNL     1      28.935  27.797  20.420  1.00  0.00     0.165 C 
BRANCH   2   3
ATOM      3  C   UNL     1      29.319  29.228  20.351  1.00  0.00     0.176 C 
BRANCH   3   4
ATOM      4  C   UNL     1      28.511  30.152  19.536  1.00  0.00     0.178 C 
ATOM      5  C   UNL     1      27.653  30.631  17.430  1.00  0.00     0.272 C 
ATOM      6  C   UNL     1      26.704  31.421  18.261  1.00  0.00     0.113 C 
ATOM      7  O   UNL     1      28.536  29.844  18.192  1.00  0.00    -0.332 OA
ATOM      8  C   UNL     1      27.339  32.245  19.330  1.00  0.00     0.145 C 
ATOM      9  C   UNL     1      28.701  31.608  19.730  1.00  0.00     0.142 C 
BRANCH   5  10
ATOM     10  O   UNL     1      28.399  31.321  16.520  1.00  0.00    -0.338 OA
BRANCH  10  11
ATOM     11  C   UNL     1      29.703  30.970  16.367  1.00  0.00     0.199 C 
BRANCH  11  12
ATOM     12  C   UNL     1      30.579  32.120  15.911  1.00  0.00     0.179 C 
ATOM     13  C   UNL     1      30.557  34.002  14.535  1.00  0.00     0.282 C 
ATOM     14  O   UNL     1      30.197  32.675  14.741  1.00  0.00    -0.341 OA
ATOM     15  C   UNL     1      31.908  34.315  15.129  1.00  0.00     0.202 C 
ATOM     16  C   UNL     1      31.947  34.009  16.608  1.00  0.00     0.179 C 
ATOM     17  C   UNL     1      30.760  33.148  16.995  1.00  0.00     0.177 C 
BRANCH  13  18
ATOM     18  O   UNL     1      29.650  34.899  14.972  1.00  0.00    -0.341 OA
BRANCH  18  19
ATOM     19  C   UNL     1      28.563  35.226  14.256  1.00  0.00     0.184 C 
ATOM     20  C   UNL     1      28.298  36.689  14.023  1.00  0.00     0.178 C 
ATOM     21  O   UNL     1      27.431  36.760  12.931  1.00  0.00    -0.341 OA
ATOM     22  C   UNL     1      26.164  36.292  13.264  1.00  0.00     0.281 C 
ATOM     23  C   UNL     1      27.261  34.711  14.891  1.00  0.00     0.180 C 
ATOM     24  C   UNL     1      26.187  34.911  13.846  1.00  0.00     0.202 C 
BRANCH  20  25
ATOM     25  C   UNL     1      29.568  37.382  13.625  1.00  0.00     0.191 C 
BRANCH  25  26
ATOM     26  O   UNL     1      30.178  36.758  12.528  1.00  0.00    -0.394 OA
ATOM     27  H   UNL     1      29.465  36.143  12.164  1.00  0.00     0.210 HD
ENDBRANCH  25  26
ENDBRANCH  20  25
BRANCH  22  28
ATOM     28  O   UNL     1      25.423  36.239  12.086  1.00  0.00    -0.350 OA
BRANCH  28  29
ATOM     29  C   UNL     1      26.173  35.706  11.037  1.00  0.00     0.169 C 
BRANCH  29  30
ATOM     30  C   UNL     1      25.721  36.446   9.775  1.00  0.00     0.119 C 
BRANCH  30  31
ATOM     31  N   UNL     1      24.896  35.579   8.951  1.00  0.00    -0.092 NA
ATOM     32  N   UNL     1      23.659  35.723   9.051  1.00  0.00     0.001 N 
ATOM     33  N   UNL     1      22.480  36.005   8.884  1.00  0.00    -0.003 NA
ENDBRANCH  30  31
ENDBRANCH  29  30
ENDBRANCH  28  29
ENDBRANCH  22  28
BRANCH  23  34
ATOM     34  O   UNL     1      27.331  33.345  15.143  1.00  0.00    -0.387 OA
ATOM     35  H   UNL     1      28.005  33.258  15.889  1.00  0.00     0.211 HD
ENDBRANCH  23  34
BRANCH  24  36
ATOM     36  O   UNL     1      24.909  34.625  14.325  1.00  0.00    -0.385 OA
ATOM     37  H   UNL     1      24.839  33.633  14.443  1.00  0.00     0.211 HD
ENDBRANCH  24  36
ENDBRANCH  18  19
ENDBRANCH  13  18
BRANCH  15  38
ATOM     38  O   UNL     1      32.939  33.659  14.443  1.00  0.00    -0.385 OA
ATOM     39  H   UNL     1      33.460  34.397  13.995  1.00  0.00     0.211 HD
ENDBRANCH  15  38
BRANCH  16  40
ATOM     40  O   UNL     1      31.873  35.175  17.364  1.00  0.00    -0.387 OA
ATOM     41  H   UNL     1      32.560  35.197  18.094  1.00  0.00     0.211 HD
ENDBRANCH  16  40
BRANCH  17  42
ATOM     42  O   UNL     1      29.624  33.860  17.298  1.00  0.00    -0.387 OA
ATOM     43  H   UNL     1      29.698  34.826  17.067  1.00  0.00     0.211 HD
ENDBRANCH  17  42
ENDBRANCH  11  12
ENDBRANCH  10  11
ENDBRANCH   5  10
BRANCH   5  44
ATOM     44  C   UNL     1      26.830  29.594  16.705  1.00  0.00     0.364 C 
ATOM     45  O   UNL     1      27.080  28.402  16.957  1.00  0.00    -0.246 OA
BRANCH  44  46
ATOM     46  O   UNL     1      25.841  29.909  15.803  1.00  0.00    -0.477 OA
ATOM     47  H   UNL     1      25.162  30.664  16.009  1.00  0.00     0.296 HD
ENDBRANCH  44  46
ENDBRANCH   5  44
BRANCH   8  48
ATOM     48  O   UNL     1      27.485  33.573  19.093  1.00  0.00    -0.391 OA
ATOM     49  H   UNL     1      27.990  33.823  18.305  1.00  0.00     0.211 HD
ENDBRANCH   8  48
BRANCH   9  50
ATOM     50  N   UNL     1      28.997  32.073  21.033  1.00  0.00    -0.348 N 
ATOM     51  C   UNL     1      29.901  33.175  21.243  1.00  0.00     0.217 C 
ATOM     52  H   UNL     1      28.573  31.651  21.869  1.00  0.00     0.163 HD
ATOM     53  C   UNL     1      30.232  33.674  22.605  1.00  0.00     0.114 C 
ATOM     54  O   UNL     1      30.412  33.712  20.238  1.00  0.00    -0.275 OA
ENDBRANCH   9  50
ENDBRANCH   3   4
BRANCH   3  55
ATOM     55  O   UNL     1      30.689  29.271  19.993  1.00  0.00    -0.388 OA
ATOM     56  H   UNL     1      31.075  30.057  20.413  1.00  0.00     0.211 HD
ENDBRANCH   3  55
ENDBRANCH   2   3
BRANCH   2  57
ATOM     57  O   UNL     1      28.526  27.204  19.249  1.00  0.00    -0.388 OA
ATOM     58  H   UNL     1      29.129  26.535  18.877  1.00  0.00     0.211 HD
ENDBRANCH   2  57
ENDBRANCH   1   2
BRANCH   1  59
ATOM     59  N   UNL     1      26.811  27.961  21.546  1.00  0.00    -0.319 N 
ATOM     60  C   UNL     1      25.703  27.318  20.940  1.00  0.00     0.407 C 
ATOM     61  H   UNL     1      26.625  28.919  21.967  1.00  0.00     0.167 HD
ATOM     62  O   UNL     1      25.856  26.187  20.435  1.00  0.00    -0.225 OA
BRANCH  60  63
ATOM     63  O   UNL     1      24.438  27.862  20.861  1.00  0.00    -0.443 OA
BRANCH  63  64
ATOM     64  C   UNL     1      24.197  29.098  20.244  1.00  0.00     0.294 C 
BRANCH  64  65
ATOM     65  C   UNL     1      23.743  29.060  18.855  1.00  0.00     0.120 A 
ATOM     66  C   UNL     1      23.475  27.963  18.076  1.00  0.00     0.138 A 
ATOM     67  N   UNL     1      23.514  30.116  18.058  1.00  0.00    -0.132 NA
ATOM     68  N   UNL     1      23.096  28.379  16.845  1.00  0.00    -0.243 N 
ATOM     69  N   UNL     1      23.125  29.675  16.851  1.00  0.00    -0.067 NA
BRANCH  68  70
ATOM     70  C   UNL     1      22.701  27.524  15.732  1.00  0.00     0.245 C 
BRANCH  70  71
ATOM     71  C   UNL     1      22.633  28.338  14.500  1.00  0.00     0.241 C 
ATOM     72  O   UNL     1      21.558  28.409  13.813  1.00  0.00    -0.273 OA
ATOM     73  N   UNL     1      23.741  29.090  14.007  1.00  0.00    -0.352 N 
ATOM     74  H   UNL     1      24.634  29.065  14.528  1.00  0.00     0.163 HD
BRANCH  73  75
ATOM     75  C   UNL     1      23.576  29.861  12.789  1.00  0.00     0.151 C 
BRANCH  75  76
ATOM     76  C   UNL     1      23.552  31.335  13.046  1.00  0.00     0.168 C 
BRANCH  76  77
ATOM     77  O   UNL     1      24.007  31.661  14.311  1.00  0.00    -0.388 OA
ATOM     78  H   UNL     1      24.209  32.626  14.316  1.00  0.00     0.211 HD
ENDBRANCH  76  77
BRANCH  76  79
ATOM     79  C   UNL     1      22.118  31.807  12.854  1.00  0.00     0.239 C 
BRANCH  79  80
ATOM     80  N   UNL     1      22.003  33.230  12.991  1.00  0.00    -0.227 N 
ATOM     81  C   UNL     1      22.271  34.127  12.004  1.00  0.00     0.204 A 
ATOM     82  C   UNL     1      21.644  33.975  14.065  1.00  0.00     0.434 A 
ATOM     83  C   UNL     1      22.074  35.399  12.483  1.00  0.00     0.245 A 
ATOM     84  N   UNL     1      21.690  35.285  13.749  1.00  0.00    -0.074 NA
BRANCH  82  85
ATOM     85  N   UNL     1      21.259  33.452  15.335  1.00  0.00    -0.047 N 
ATOM     86  O   UNL     1      22.050  32.992  16.159  1.00  0.00    -0.390 OA
ATOM     87  O   UNL     1      19.910  33.452  15.661  1.00  0.00    -0.390 OA
ENDBRANCH  82  85
ENDBRANCH  79  80
ENDBRANCH  76  79
ENDBRANCH  75  76
ENDBRANCH  73  75
ENDBRANCH  70  71
ENDBRANCH  68  70
ENDBRANCH  64  65
ENDBRANCH  63  64
ENDBRANCH  60  63
ENDBRANCH   1  59
TORSDOF 37
BEGIN_RES LYS A 131
REMARK  4 active torsions:
REMARK  status: ('A' for Active; 'I' for Inactive)
REMARK    1  A    between atoms: CA   and  CB  
REMARK    2  A    between atoms: CB   and  CG  
REMARK    3  A    between atoms: CG   and  CD  
REMARK    4  A    between atoms: CD   and  CE  
ROOT
ATOM      1  CA  LYS A 131      29.867  25.555  16.977  1.00 20.52     0.186 C 
ENDROOT
BRANCH   1   2
ATOM      2  CB  LYS A 131      28.345  25.722  17.026  1.00 20.94     0.034 C 
BRANCH   2   3
ATOM      3  CG  LYS A 131      27.599  24.426  16.750  1.00 22.96     0.005 C 
BRANCH   3   4
ATOM      4  CD  LYS A 131      26.818  23.955  17.946  1.00 24.33     0.041 C 
BRANCH   4   5
ATOM      5  CE  LYS A 131      25.468  23.412  17.490  1.00 26.91     0.338 C 
ATOM      6  NZ  LYS A 131      24.630  24.502  16.936  1.00 27.40     0.618 N 
ENDBRANCH   4   5
ENDBRANCH   3   4
ENDBRANCH   2   3
ENDBRANCH   1   2
END_RES LYS A 131
BEGIN_RES LYS A 135
REMARK  4 active torsions:
REMARK  status: ('A' for Active; 'I' for Inactive)
REMARK    5  A    between atoms: CA   and  CB  
REMARK    6  A    between atoms: CB   and  CG  
REMARK    7  A    between atoms: CG   and  CD  
REMARK    8  A    between atoms: CD   and  CE  
ROOT
ATOM      7  CA  LYS A 135      33.193  34.663   9.290  1.00 25.02     0.186 C 
ENDROOT
BRANCH   7   8
ATOM      8  CB  LYS A 135      32.060  35.360  10.034  1.00 26.63     0.034 C 
BRANCH   8   9
ATOM      9  CG  LYS A 135      30.805  35.512   9.214  1.00 29.45     0.005 C 
BRANCH   9  10
ATOM     10  CD  LYS A 135      30.074  34.182   9.100  1.00 32.00     0.041 C 
BRANCH  10  11
ATOM     11  CE  LYS A 135      28.699  34.381   8.492  1.00 34.25     0.338 C 
ATOM     12  NZ  LYS A 135      28.614  35.680   7.769  1.00 35.99     0.618 N 
ENDBRANCH  10  11
ENDBRANCH   9  10
ENDBRANCH   8   9
ENDBRANCH   7   8
END_RES LYS A 135
