REMARK VINA RESULT:    -3.659      6.532     12.355
REMARK INTER + INTRA:         -21.018
REMARK INTER:                  -9.672
REMARK INTRA:                 -11.346
REMARK UNBOUND:               -11.690
REMARK SMILES CC(=O)N[C@@H]1[C@@H](O)C[C@](OC[C@H]2O[C@@H](O[C@H]3[C@H](O)[C@@H](O)[C@H](OCCN=[N+]=[N-])O[C@@H]3CO)[C@H](O)[C@@H](O)[C@H]2O)(C(=O)O)O[C@H]1C(O)[C@H](O)CNC(=O)OCc1cn(CCO)nn1
REMARK SMILES IDX 9 1 8 2 6 3 5 4 42 5 41 6 10 7 11 8 12 9 14 10 13 11 32 12
REMARK SMILES IDX 34 13 36 14 15 15 16 16 29 17 28 18 21 19 17 20 19 21 30 22
REMARK SMILES IDX 31 23 22 25 23 26 24 27 25 28 26 29 27 30 18 31 20 33 33 35
REMARK SMILES IDX 35 37 37 39 38 41 39 42 40 43 7 45 43 47 44 48 45 50 46 51
REMARK SMILES IDX 47 53 48 54 49 55 50 57 51 58 52 59 53 60 54 61 60 62 55 63
REMARK SMILES IDX 59 64 56 65 57 66 58 67 4 69 2 70 1 72 3 73
REMARK H PARENT 31 24 18 32 20 34 33 36 35 38 37 40 40 44 7 46 44 49 46 52
REMARK H PARENT 48 56 58 68 4 71
REMARK Flexibility Score: inf
ROOT
ATOM      1  C   UNL     1      30.325  37.692  12.573  1.00  0.00     0.272 C 
ATOM      2  C   UNL     1      31.720  37.159  12.554  1.00  0.00     0.113 C 
ATOM      3  C   UNL     1      31.872  36.073  13.584  1.00  0.00     0.145 C 
ATOM      4  C   UNL     1      30.808  35.028  13.251  1.00  0.00     0.142 C 
ATOM      5  C   UNL     1      29.465  35.706  13.496  1.00  0.00     0.178 C 
ATOM      6  O   UNL     1      29.407  36.688  12.479  1.00  0.00    -0.332 OA
ENDROOT
BRANCH   1   7
ATOM      7  O   UNL     1      30.104  38.575  11.491  1.00  0.00    -0.338 OA
BRANCH   7   8
ATOM      8  C   UNL     1      30.779  38.292  10.351  1.00  0.00     0.199 C 
BRANCH   8   9
ATOM      9  C   UNL     1      29.813  38.038   9.183  1.00  0.00     0.179 C 
ATOM     10  C   UNL     1      27.767  38.689   8.305  1.00  0.00     0.282 C 
ATOM     11  O   UNL     1      28.633  38.717   9.397  1.00  0.00    -0.341 OA
ATOM     12  C   UNL     1      28.352  39.368   7.095  1.00  0.00     0.202 C 
ATOM     13  C   UNL     1      29.856  39.471   7.125  1.00  0.00     0.179 C 
ATOM     14  C   UNL     1      30.430  38.286   7.849  1.00  0.00     0.177 C 
BRANCH  10  15
ATOM     15  O   UNL     1      26.656  39.340   8.684  1.00  0.00    -0.341 OA
BRANCH  15  16
ATOM     16  C   UNL     1      25.448  38.756   8.632  1.00  0.00     0.184 C 
ATOM     17  C   UNL     1      25.263  37.371   8.199  1.00  0.00     0.178 C 
ATOM     18  O   UNL     1      24.077  37.230   7.501  1.00  0.00    -0.341 OA
ATOM     19  C   UNL     1      22.979  37.880   7.968  1.00  0.00     0.281 C 
ATOM     20  C   UNL     1      24.627  39.635   7.652  1.00  0.00     0.180 C 
ATOM     21  C   UNL     1      23.186  39.400   8.051  1.00  0.00     0.202 C 
BRANCH  17  22
ATOM     22  C   UNL     1      25.231  36.371   9.352  1.00  0.00     0.191 C 
BRANCH  22  23
ATOM     23  O   UNL     1      25.173  37.010  10.592  1.00  0.00    -0.394 OA
ATOM     24  H   UNL     1      24.292  37.420  10.682  1.00  0.00     0.210 HD
ENDBRANCH  22  23
ENDBRANCH  17  22
BRANCH  19  25
ATOM     25  O   UNL     1      22.401  37.389   9.104  1.00  0.00    -0.350 OA
BRANCH  25  26
ATOM     26  C   UNL     1      21.240  36.692   8.962  1.00  0.00     0.169 C 
BRANCH  26  27
ATOM     27  C   UNL     1      20.214  37.136   9.950  1.00  0.00     0.119 C 
BRANCH  27  28
ATOM     28  N   UNL     1      19.464  38.271   9.387  1.00  0.00    -0.092 NA
ATOM     29  N   UNL     1      19.072  38.107   8.217  1.00  0.00     0.001 N 
ATOM     30  N   UNL     1      18.198  37.872   7.364  1.00  0.00    -0.003 NA
ENDBRANCH  27  28
ENDBRANCH  26  27
ENDBRANCH  25  26
ENDBRANCH  19  25
BRANCH  20  31
ATOM     31  O   UNL     1      25.008  40.949   7.735  1.00  0.00    -0.387 OA
ATOM     32  H   UNL     1      24.832  41.454   6.901  1.00  0.00     0.211 HD
ENDBRANCH  20  31
BRANCH  21  33
ATOM     33  O   UNL     1      22.328  40.111   7.255  1.00  0.00    -0.385 OA
ATOM     34  H   UNL     1      22.183  39.689   6.372  1.00  0.00     0.211 HD
ENDBRANCH  21  33
ENDBRANCH  15  16
ENDBRANCH  10  15
BRANCH  12  35
ATOM     35  O   UNL     1      28.049  38.578   5.975  1.00  0.00    -0.385 OA
ATOM     36  H   UNL     1      27.673  39.089   5.231  1.00  0.00     0.211 HD
ENDBRANCH  12  35
BRANCH  13  37
ATOM     37  O   UNL     1      30.224  40.678   7.659  1.00  0.00    -0.387 OA
ATOM     38  H   UNL     1      31.161  40.938   7.394  1.00  0.00     0.211 HD
ENDBRANCH  13  37
BRANCH  14  39
ATOM     39  O   UNL     1      31.799  38.559   8.064  1.00  0.00    -0.387 OA
ATOM     40  H   UNL     1      31.959  38.846   8.997  1.00  0.00     0.211 HD
ENDBRANCH  14  39
ENDBRANCH   8   9
ENDBRANCH   7   8
ENDBRANCH   1   7
BRANCH   1  41
ATOM     41  C   UNL     1      30.157  38.543  13.771  1.00  0.00     0.364 C 
ATOM     42  O   UNL     1      31.083  39.220  14.257  1.00  0.00    -0.246 OA
BRANCH  41  43
ATOM     43  O   UNL     1      28.934  38.625  14.414  1.00  0.00    -0.477 OA
ATOM     44  H   UNL     1      28.147  39.190  14.050  1.00  0.00     0.296 HD
ENDBRANCH  41  43
ENDBRANCH   1  41
BRANCH   3  45
ATOM     45  O   UNL     1      33.117  35.422  13.438  1.00  0.00    -0.391 OA
ATOM     46  H   UNL     1      33.176  34.690  14.110  1.00  0.00     0.211 HD
ENDBRANCH   3  45
BRANCH   5  47
ATOM     47  C   UNL     1      28.368  34.750  13.152  1.00  0.00     0.176 C 
BRANCH  47  48
ATOM     48  O   UNL     1      27.976  33.993  14.257  1.00  0.00    -0.388 OA
ATOM     49  H   UNL     1      27.103  34.293  14.623  1.00  0.00     0.211 HD
ENDBRANCH  47  48
BRANCH  47  50
ATOM     50  C   UNL     1      27.182  35.255  12.427  1.00  0.00     0.165 C 
BRANCH  50  51
ATOM     51  O   UNL     1      26.851  36.463  13.182  1.00  0.00    -0.388 OA
ATOM     52  H   UNL     1      26.603  37.166  12.538  1.00  0.00     0.211 HD
ENDBRANCH  50  51
BRANCH  50  53
ATOM     53  C   UNL     1      25.922  34.434  12.639  1.00  0.00     0.154 C 
BRANCH  53  54
ATOM     54  N   UNL     1      25.025  34.990  13.600  1.00  0.00    -0.319 N 
ATOM     55  C   UNL     1      23.676  35.266  13.261  1.00  0.00     0.407 C 
ATOM     56  H   UNL     1      25.338  35.222  14.585  1.00  0.00     0.167 HD
ATOM     57  O   UNL     1      23.331  34.997  12.061  1.00  0.00    -0.225 OA
BRANCH  55  58
ATOM     58  O   UNL     1      22.722  35.786  14.094  1.00  0.00    -0.443 OA
BRANCH  58  59
ATOM     59  C   UNL     1      22.098  37.008  13.750  1.00  0.00     0.294 C 
BRANCH  59  60
ATOM     60  C   UNL     1      23.031  37.990  13.190  1.00  0.00     0.120 A 
ATOM     61  C   UNL     1      24.112  38.526  13.846  1.00  0.00     0.138 A 
ATOM     62  N   UNL     1      23.033  38.553  11.972  1.00  0.00    -0.132 NA
ATOM     63  N   UNL     1      24.741  39.392  13.028  1.00  0.00    -0.250 N 
ATOM     64  N   UNL     1      24.073  39.395  11.897  1.00  0.00    -0.067 NA
BRANCH  63  65
ATOM     65  C   UNL     1      25.943  40.168  13.365  1.00  0.00     0.174 C 
BRANCH  65  66
ATOM     66  C   UNL     1      26.839  40.200  12.152  1.00  0.00     0.179 C 
BRANCH  66  67
ATOM     67  O   UNL     1      27.149  38.870  11.824  1.00  0.00    -0.394 OA
ATOM     68  H   UNL     1      27.252  38.721  10.868  1.00  0.00     0.210 HD
ENDBRANCH  66  67
ENDBRANCH  65  66
ENDBRANCH  63  65
ENDBRANCH  59  60
ENDBRANCH  58  59
ENDBRANCH  55  58
ENDBRANCH  53  54
ENDBRANCH  50  53
ENDBRANCH  47  50
ENDBRANCH   5  47
BRANCH   4  69
ATOM     69  N   UNL     1      31.017  33.787  13.886  1.00  0.00    -0.348 N 
ATOM     70  C   UNL     1      30.913  33.545  15.275  1.00  0.00     0.217 C 
ATOM     71  H   UNL     1      31.257  32.944  13.303  1.00  0.00     0.163 HD
ATOM     72  C   UNL     1      31.165  32.189  15.803  1.00  0.00     0.114 C 
ATOM     73  O   UNL     1      30.613  34.456  16.060  1.00  0.00    -0.275 OA
ENDBRANCH   4  69
TORSDOF 32
BEGIN_RES LYS A 131
REMARK  4 active torsions:
REMARK  status: ('A' for Active; 'I' for Inactive)
REMARK    1  A    between atoms: CA   and  CB  
REMARK    2  A    between atoms: CB   and  CG  
REMARK    3  A    between atoms: CG   and  CD  
REMARK    4  A    between atoms: CD   and  CE  
ROOT
ATOM      1  CA  LYS A 131      29.867  25.555  16.977  1.00 20.52     0.186 C 
ENDROOT
BRANCH   1   2
ATOM      2  CB  LYS A 131      28.345  25.722  17.026  1.00 20.94     0.034 C 
BRANCH   2   3
ATOM      3  CG  LYS A 131      27.601  24.402  16.888  1.00 22.96     0.005 C 
BRANCH   3   4
ATOM      4  CD  LYS A 131      26.508  24.259  17.911  1.00 24.33     0.041 C 
BRANCH   4   5
ATOM      5  CE  LYS A 131      26.328  25.580  18.652  1.00 26.91     0.338 C 
ATOM      6  NZ  LYS A 131      25.017  26.186  18.323  1.00 27.40     0.618 N 
ENDBRANCH   4   5
ENDBRANCH   3   4
ENDBRANCH   2   3
ENDBRANCH   1   2
END_RES LYS A 131
BEGIN_RES LYS A 135
REMARK  4 active torsions:
REMARK  status: ('A' for Active; 'I' for Inactive)
REMARK    5  A    between atoms: CA   and  CB  
REMARK    6  A    between atoms: CB   and  CG  
REMARK    7  A    between atoms: CG   and  CD  
REMARK    8  A    between atoms: CD   and  CE  
ROOT
ATOM      7  CA  LYS A 135      33.193  34.663   9.290  1.00 25.02     0.186 C 
ENDROOT
BRANCH   7   8
ATOM      8  CB  LYS A 135      32.060  35.360  10.034  1.00 26.63     0.034 C 
BRANCH   8   9
ATOM      9  CG  LYS A 135      30.732  34.660   9.901  1.00 29.45     0.005 C 
BRANCH   9  10
ATOM     10  CD  LYS A 135      30.354  34.500   8.437  1.00 32.00     0.041 C 
BRANCH  10  11
ATOM     11  CE  LYS A 135      28.848  34.550   8.267  1.00 34.25     0.338 C 
ATOM     12  NZ  LYS A 135      28.159  33.820   9.367  1.00 35.99     0.618 N 
ENDBRANCH  10  11
ENDBRANCH   9  10
ENDBRANCH   8   9
ENDBRANCH   7   8
END_RES LYS A 135
