REMARK VINA RESULT:    -4.208      2.399      4.815
REMARK INTER + INTRA:         -22.455
REMARK INTER:                 -13.382
REMARK INTRA:                  -9.073
REMARK UNBOUND:               -11.851
REMARK SMILES CC(=O)N[C@@H]1[C@@H](O)C[C@](OC[C@H]2O[C@@H](O[C@H]3[C@H](O)[C@@H](O)[C@H](OCCN=[N+]=[N-])O[C@@H]3CO)[C@H](O)[C@@H](O)[C@H]2O)(C(=O)O)O[C@H]1C(O)[C@H](O)CNC(=O)OCc1cn(Cc2ccccc2)nn1
REMARK SMILES IDX 9 1 8 2 6 3 5 4 42 5 41 6 10 7 11 8 12 9 14 10 13 11 32 12
REMARK SMILES IDX 34 13 36 14 15 15 16 16 29 17 28 18 21 19 17 20 19 21 30 22
REMARK SMILES IDX 31 23 22 25 23 26 24 27 25 28 26 29 27 30 18 31 20 33 33 35
REMARK SMILES IDX 35 37 37 39 38 41 39 42 40 43 7 45 43 47 44 48 45 50 46 51
REMARK SMILES IDX 47 53 48 54 49 55 50 57 51 58 52 59 53 60 54 61 64 62 55 63
REMARK SMILES IDX 63 64 56 65 57 66 58 67 62 68 59 69 61 70 60 71 4 72 2 73
REMARK SMILES IDX 1 75 3 76
REMARK H PARENT 31 24 18 32 20 34 33 36 35 38 37 40 40 44 7 46 44 49 46 52
REMARK H PARENT 48 56 4 74
REMARK Flexibility Score: inf
ROOT
ATOM      1  C   UNL     1      27.367  37.837  15.256  1.00  0.00     0.272 C 
ATOM      2  C   UNL     1      26.015  37.884  15.867  1.00  0.00     0.113 C 
ATOM      3  C   UNL     1      25.071  37.100  15.038  1.00  0.00     0.145 C 
ATOM      4  C   UNL     1      25.680  36.558  13.736  1.00  0.00     0.142 C 
ATOM      5  C   UNL     1      26.534  37.562  13.088  1.00  0.00     0.178 C 
ATOM      6  O   UNL     1      27.251  38.393  13.968  1.00  0.00    -0.332 OA
ENDROOT
BRANCH   1   7
ATOM      7  O   UNL     1      27.978  36.601  15.219  1.00  0.00    -0.338 OA
BRANCH   7   8
ATOM      8  C   UNL     1      27.963  36.024  16.478  1.00  0.00     0.199 C 
BRANCH   8   9
ATOM      9  C   UNL     1      28.913  34.853  16.585  1.00  0.00     0.179 C 
ATOM     10  C   UNL     1      28.849  32.535  16.849  1.00  0.00     0.282 C 
ATOM     11  O   UNL     1      28.362  33.781  17.250  1.00  0.00    -0.341 OA
ATOM     12  C   UNL     1      30.305  32.542  16.569  1.00  0.00     0.202 C 
ATOM     13  C   UNL     1      30.617  33.467  15.436  1.00  0.00     0.179 C 
ATOM     14  C   UNL     1      29.507  34.475  15.254  1.00  0.00     0.177 C 
BRANCH  10  15
ATOM     15  O   UNL     1      28.139  32.045  15.766  1.00  0.00    -0.341 OA
BRANCH  15  16
ATOM     16  C   UNL     1      26.865  31.593  16.089  1.00  0.00     0.184 C 
ATOM     17  C   UNL     1      26.736  30.145  15.794  1.00  0.00     0.178 C 
ATOM     18  O   UNL     1      25.410  29.772  16.100  1.00  0.00    -0.341 OA
ATOM     19  C   UNL     1      24.640  30.236  15.014  1.00  0.00     0.281 C 
ATOM     20  C   UNL     1      25.928  32.356  15.139  1.00  0.00     0.180 C 
ATOM     21  C   UNL     1      24.563  31.755  15.069  1.00  0.00     0.202 C 
BRANCH  17  22
ATOM     22  C   UNL     1      27.699  29.295  16.616  1.00  0.00     0.191 C 
BRANCH  22  23
ATOM     23  O   UNL     1      27.626  29.769  17.944  1.00  0.00    -0.394 OA
ATOM     24  H   UNL     1      28.305  30.474  18.063  1.00  0.00     0.210 HD
ENDBRANCH  22  23
ENDBRANCH  17  22
BRANCH  19  25
ATOM     25  O   UNL     1      23.381  29.696  15.091  1.00  0.00    -0.350 OA
BRANCH  25  26
ATOM     26  C   UNL     1      23.205  28.763  14.088  1.00  0.00     0.169 C 
BRANCH  26  27
ATOM     27  C   UNL     1      21.953  28.928  13.281  1.00  0.00     0.119 C 
BRANCH  27  28
ATOM     28  N   UNL     1      22.184  30.073  12.388  1.00  0.00    -0.092 NA
ATOM     29  N   UNL     1      21.429  31.036  12.515  1.00  0.00     0.001 N 
ATOM     30  N   UNL     1      20.972  32.187  12.498  1.00  0.00    -0.003 NA
ENDBRANCH  27  28
ENDBRANCH  26  27
ENDBRANCH  25  26
ENDBRANCH  19  25
BRANCH  20  31
ATOM     31  O   UNL     1      25.823  33.644  15.704  1.00  0.00    -0.387 OA
ATOM     32  H   UNL     1      25.654  33.609  16.683  1.00  0.00     0.211 HD
ENDBRANCH  20  31
BRANCH  21  33
ATOM     33  O   UNL     1      23.929  32.183  13.903  1.00  0.00    -0.385 OA
ATOM     34  H   UNL     1      24.032  31.538  13.153  1.00  0.00     0.211 HD
ENDBRANCH  21  33
ENDBRANCH  15  16
ENDBRANCH  10  15
BRANCH  12  35
ATOM     35  O   UNL     1      31.068  32.844  17.711  1.00  0.00    -0.385 OA
ATOM     36  H   UNL     1      32.005  32.922  17.399  1.00  0.00     0.211 HD
ENDBRANCH  12  35
BRANCH  13  37
ATOM     37  O   UNL     1      30.789  32.718  14.278  1.00  0.00    -0.387 OA
ATOM     38  H   UNL     1      30.106  32.001  14.186  1.00  0.00     0.211 HD
ENDBRANCH  13  37
BRANCH  14  39
ATOM     39  O   UNL     1      28.602  34.140  14.285  1.00  0.00    -0.387 OA
ATOM     40  H   UNL     1      27.659  34.110  14.543  1.00  0.00     0.211 HD
ENDBRANCH  14  39
ENDBRANCH   8   9
ENDBRANCH   7   8
ENDBRANCH   1   7
BRANCH   1  41
ATOM     41  C   UNL     1      28.325  38.784  15.925  1.00  0.00     0.364 C 
ATOM     42  O   UNL     1      29.423  39.001  15.411  1.00  0.00    -0.246 OA
BRANCH  41  43
ATOM     43  O   UNL     1      27.970  39.401  17.104  1.00  0.00    -0.477 OA
ATOM     44  H   UNL     1      28.207  39.015  18.019  1.00  0.00     0.296 HD
ENDBRANCH  41  43
ENDBRANCH   1  41
BRANCH   3  45
ATOM     45  O   UNL     1      24.525  35.979  15.691  1.00  0.00    -0.391 OA
ATOM     46  H   UNL     1      24.093  36.195  16.530  1.00  0.00     0.211 HD
ENDBRANCH   3  45
BRANCH   5  47
ATOM     47  C   UNL     1      27.504  37.151  12.060  1.00  0.00     0.176 C 
BRANCH  47  48
ATOM     48  O   UNL     1      27.944  35.848  12.143  1.00  0.00    -0.388 OA
ATOM     49  H   UNL     1      27.398  35.192  11.657  1.00  0.00     0.211 HD
ENDBRANCH  47  48
BRANCH  47  50
ATOM     50  C   UNL     1      27.206  37.484  10.626  1.00  0.00     0.165 C 
BRANCH  50  51
ATOM     51  O   UNL     1      28.307  37.772   9.879  1.00  0.00    -0.388 OA
ATOM     52  H   UNL     1      28.461  37.167   9.127  1.00  0.00     0.211 HD
ENDBRANCH  50  51
BRANCH  50  53
ATOM     53  C   UNL     1      26.009  38.375  10.475  1.00  0.00     0.154 C 
BRANCH  53  54
ATOM     54  N   UNL     1      25.732  38.782   9.122  1.00  0.00    -0.319 N 
ATOM     55  C   UNL     1      25.774  40.134   8.651  1.00  0.00     0.407 C 
ATOM     56  H   UNL     1      25.473  38.081   8.365  1.00  0.00     0.167 HD
ATOM     57  O   UNL     1      26.062  41.055   9.449  1.00  0.00    -0.225 OA
BRANCH  55  58
ATOM     58  O   UNL     1      25.499  40.450   7.333  1.00  0.00    -0.443 OA
BRANCH  58  59
ATOM     59  C   UNL     1      26.560  40.580   6.418  1.00  0.00     0.294 C 
BRANCH  59  60
ATOM     60  C   UNL     1      27.549  39.494   6.585  1.00  0.00     0.120 A 
ATOM     61  C   UNL     1      27.363  38.187   6.111  1.00  0.00     0.138 A 
ATOM     62  N   UNL     1      28.754  39.481   7.166  1.00  0.00    -0.132 NA
ATOM     63  N   UNL     1      28.448  37.463   6.426  1.00  0.00    -0.248 N 
ATOM     64  N   UNL     1      29.271  38.249   7.056  1.00  0.00    -0.067 NA
BRANCH  63  65
ATOM     65  C   UNL     1      28.642  36.067   6.104  1.00  0.00     0.181 C 
BRANCH  65  66
ATOM     66  C   UNL     1      28.509  35.254   7.338  1.00  0.00    -0.026 A 
ATOM     67  C   UNL     1      29.613  34.785   8.028  1.00  0.00     0.005 A 
ATOM     68  C   UNL     1      27.239  34.960   7.808  1.00  0.00     0.005 A 
ATOM     69  C   UNL     1      29.438  34.030   9.175  1.00  0.00     0.000 A 
ATOM     70  C   UNL     1      27.076  34.205   8.954  1.00  0.00     0.000 A 
ATOM     71  C   UNL     1      28.175  33.744   9.632  1.00  0.00     0.000 A 
ENDBRANCH  65  66
ENDBRANCH  63  65
ENDBRANCH  59  60
ENDBRANCH  58  59
ENDBRANCH  55  58
ENDBRANCH  53  54
ENDBRANCH  50  53
ENDBRANCH  47  50
ENDBRANCH   5  47
BRANCH   4  72
ATOM     72  N   UNL     1      24.461  36.333  12.933  1.00  0.00    -0.348 N 
ATOM     73  C   UNL     1      24.279  35.204  12.102  1.00  0.00     0.217 C 
ATOM     74  H   UNL     1      23.693  37.038  12.974  1.00  0.00     0.163 HD
ATOM     75  C   UNL     1      23.037  35.007  11.297  1.00  0.00     0.114 C 
ATOM     76  O   UNL     1      25.196  34.348  12.047  1.00  0.00    -0.275 OA
ENDBRANCH   4  72
TORSDOF 31
BEGIN_RES LYS A 131
REMARK  4 active torsions:
REMARK  status: ('A' for Active; 'I' for Inactive)
REMARK    1  A    between atoms: CA   and  CB  
REMARK    2  A    between atoms: CB   and  CG  
REMARK    3  A    between atoms: CG   and  CD  
REMARK    4  A    between atoms: CD   and  CE  
ROOT
ATOM      1  CA  LYS A 131      29.867  25.555  16.977  1.00 20.52     0.186 C 
ENDROOT
BRANCH   1   2
ATOM      2  CB  LYS A 131      28.345  25.722  17.026  1.00 20.94     0.034 C 
BRANCH   2   3
ATOM      3  CG  LYS A 131      27.601  24.404  16.879  1.00 22.96     0.005 C 
BRANCH   3   4
ATOM      4  CD  LYS A 131      26.247  24.441  17.532  1.00 24.33     0.041 C 
BRANCH   4   5
ATOM      5  CE  LYS A 131      26.295  25.359  18.750  1.00 26.91     0.338 C 
ATOM      6  NZ  LYS A 131      25.367  24.876  19.800  1.00 27.40     0.618 N 
ENDBRANCH   4   5
ENDBRANCH   3   4
ENDBRANCH   2   3
ENDBRANCH   1   2
END_RES LYS A 131
BEGIN_RES LYS A 135
REMARK  4 active torsions:
REMARK  status: ('A' for Active; 'I' for Inactive)
REMARK    5  A    between atoms: CA   and  CB  
REMARK    6  A    between atoms: CB   and  CG  
REMARK    7  A    between atoms: CG   and  CD  
REMARK    8  A    between atoms: CD   and  CE  
ROOT
ATOM      7  CA  LYS A 135      33.193  34.663   9.290  1.00 25.02     0.186 C 
ENDROOT
BRANCH   7   8
ATOM      8  CB  LYS A 135      32.060  35.360  10.034  1.00 26.63     0.034 C 
BRANCH   8   9
ATOM      9  CG  LYS A 135      32.501  36.036  11.307  1.00 29.45     0.005 C 
BRANCH   9  10
ATOM     10  CD  LYS A 135      31.484  35.808  12.415  1.00 32.00     0.041 C 
BRANCH  10  11
ATOM     11  CE  LYS A 135      31.406  37.021  13.323  1.00 34.25     0.338 C 
ATOM     12  NZ  LYS A 135      32.245  36.836  14.539  1.00 35.99     0.618 N 
ENDBRANCH  10  11
ENDBRANCH   9  10
ENDBRANCH   8   9
ENDBRANCH   7   8
END_RES LYS A 135
