REMARK VINA RESULT:    -3.579      3.624      7.159
REMARK INTER + INTRA:         -21.714
REMARK INTER:                  -9.856
REMARK INTRA:                 -11.857
REMARK UNBOUND:               -11.857
REMARK SMILES CC[N+](C)(CC)CCCn1cc(COC(=O)NC[C@@H](O)C(O)[C@@H]2O[C@@](OC[C@H]3O[C@@H](O[C@H]4[C@H](O)[C@@H](O)[C@H](OCCN=[N+]=[N-])O[C@@H]4CO)[C@H](O)[C@@H](O)[C@H]3O)(C(=O)O)C[C@H](O)[C@H]2NC(C)=O)nn1
REMARK SMILES IDX 21 1 23 2 25 3 57 4 24 5 58 6 60 7 26 8 27 9 28 10 30 11
REMARK SMILES IDX 29 12 48 13 50 14 52 15 31 16 32 17 45 18 44 19 37 20 33 21
REMARK SMILES IDX 35 22 46 23 47 24 38 26 39 27 40 28 41 29 42 30 43 31 34 32
REMARK SMILES IDX 36 34 49 36 51 38 53 40 54 42 55 43 56 44 59 46 61 48 62 49
REMARK SMILES IDX 63 51 64 52 22 53 19 55 20 56 18 58 17 59 15 60 16 62 14 63
REMARK SMILES IDX 13 64 12 65 11 66 65 67 10 68 66 69 9 70 8 71 7 72 3 73 4 74
REMARK SMILES IDX 2 75 1 76 5 77 6 78
REMARK H PARENT 47 25 34 33 36 35 49 37 51 39 53 41 56 45 59 47 61 50 22 54
REMARK H PARENT 20 57 17 61
REMARK Flexibility Score: inf
ROOT
ATOM      1  C   UNL     1      30.686  28.662  22.189  1.00  0.00     0.176 C 
ENDROOT
BRANCH   1   2
ATOM      2  C   UNL     1      29.992  30.012  22.033  1.00  0.00     0.178 C 
ATOM      3  C   UNL     1      30.434  32.175  21.200  1.00  0.00     0.272 C 
ATOM      4  C   UNL     1      29.507  32.605  22.288  1.00  0.00     0.113 C 
ATOM      5  O   UNL     1      30.945  30.912  21.611  1.00  0.00    -0.332 OA
ATOM      6  C   UNL     1      29.736  31.855  23.574  1.00  0.00     0.145 C 
ATOM      7  C   UNL     1      29.366  30.394  23.336  1.00  0.00     0.142 C 
BRANCH   3   8
ATOM      8  O   UNL     1      31.572  32.946  21.092  1.00  0.00    -0.338 OA
BRANCH   8   9
ATOM      9  C   UNL     1      31.491  34.286  21.119  1.00  0.00     0.199 C 
BRANCH   9  10
ATOM     10  C   UNL     1      32.053  34.851  22.450  1.00  0.00     0.179 C 
ATOM     11  C   UNL     1      34.353  34.370  22.251  1.00  0.00     0.282 C 
ATOM     12  O   UNL     1      33.134  34.194  22.892  1.00  0.00    -0.341 OA
ATOM     13  C   UNL     1      34.545  35.722  21.677  1.00  0.00     0.202 C 
ATOM     14  C   UNL     1      33.736  36.663  22.597  1.00  0.00     0.179 C 
ATOM     15  C   UNL     1      32.292  36.351  22.272  1.00  0.00     0.177 C 
BRANCH  11  16
ATOM     16  O   UNL     1      34.613  33.291  21.393  1.00  0.00    -0.341 OA
BRANCH  16  17
ATOM     17  C   UNL     1      35.417  32.347  21.962  1.00  0.00     0.184 C 
ATOM     18  C   UNL     1      36.645  31.917  21.286  1.00  0.00     0.178 C 
ATOM     19  O   UNL     1      37.423  31.184  22.164  1.00  0.00    -0.341 OA
ATOM     20  C   UNL     1      36.854  30.621  23.248  1.00  0.00     0.281 C 
ATOM     21  C   UNL     1      34.617  31.049  22.222  1.00  0.00     0.180 C 
ATOM     22  C   UNL     1      35.427  30.151  23.120  1.00  0.00     0.202 C 
BRANCH  18  23
ATOM     23  C   UNL     1      37.518  33.016  20.711  1.00  0.00     0.191 C 
BRANCH  23  24
ATOM     24  O   UNL     1      37.737  34.066  21.593  1.00  0.00    -0.394 OA
ATOM     25  H   UNL     1      37.969  33.640  22.480  1.00  0.00     0.210 HD
ENDBRANCH  23  24
ENDBRANCH  18  23
BRANCH  20  26
ATOM     26  O   UNL     1      37.060  31.389  24.380  1.00  0.00    -0.350 OA
BRANCH  26  27
ATOM     27  C   UNL     1      37.692  30.775  25.411  1.00  0.00     0.169 C 
BRANCH  27  28
ATOM     28  C   UNL     1      39.099  30.319  25.082  1.00  0.00     0.119 C 
BRANCH  28  29
ATOM     29  N   UNL     1      39.997  31.461  25.117  1.00  0.00    -0.092 NA
ATOM     30  N   UNL     1      39.912  32.404  24.334  1.00  0.00     0.001 N 
ATOM     31  N   UNL     1      39.830  33.371  23.574  1.00  0.00    -0.003 NA
ENDBRANCH  28  29
ENDBRANCH  27  28
ENDBRANCH  26  27
ENDBRANCH  20  26
BRANCH  21  32
ATOM     32  O   UNL     1      33.393  31.430  22.718  1.00  0.00    -0.387 OA
ATOM     33  H   UNL     1      33.326  32.351  23.017  1.00  0.00     0.211 HD
ENDBRANCH  21  32
BRANCH  22  34
ATOM     34  O   UNL     1      35.325  28.848  22.660  1.00  0.00    -0.385 OA
ATOM     35  H   UNL     1      35.948  28.215  23.102  1.00  0.00     0.211 HD
ENDBRANCH  22  34
ENDBRANCH  16  17
ENDBRANCH  11  16
BRANCH  13  36
ATOM     36  O   UNL     1      35.870  36.181  21.738  1.00  0.00    -0.385 OA
ATOM     37  H   UNL     1      36.356  35.755  21.000  1.00  0.00     0.211 HD
ENDBRANCH  13  36
BRANCH  14  38
ATOM     38  O   UNL     1      34.033  37.988  22.280  1.00  0.00    -0.387 OA
ATOM     39  H   UNL     1      34.969  38.008  21.991  1.00  0.00     0.211 HD
ENDBRANCH  14  38
BRANCH  15  40
ATOM     40  O   UNL     1      32.136  36.626  20.915  1.00  0.00    -0.387 OA
ATOM     41  H   UNL     1      31.231  36.824  20.631  1.00  0.00     0.211 HD
ENDBRANCH  15  40
ENDBRANCH   9  10
ENDBRANCH   8   9
ENDBRANCH   3   8
BRANCH   3  42
ATOM     42  C   UNL     1      29.805  32.032  19.876  1.00  0.00     0.364 C 
ATOM     43  O   UNL     1      30.437  31.597  18.888  1.00  0.00    -0.246 OA
BRANCH  42  44
ATOM     44  O   UNL     1      28.490  32.376  19.678  1.00  0.00    -0.477 OA
ATOM     45  H   UNL     1      28.055  32.422  18.758  1.00  0.00     0.296 HD
ENDBRANCH  42  44
ENDBRANCH   3  42
BRANCH   6  46
ATOM     46  O   UNL     1      31.031  31.929  24.031  1.00  0.00    -0.391 OA
ATOM     47  H   UNL     1      31.696  31.688  23.316  1.00  0.00     0.211 HD
ENDBRANCH   6  46
BRANCH   7  48
ATOM     48  N   UNL     1      27.902  30.405  23.170  1.00  0.00    -0.348 N 
ATOM     49  C   UNL     1      27.091  29.348  23.667  1.00  0.00     0.217 C 
ATOM     50  H   UNL     1      27.389  31.169  22.685  1.00  0.00     0.163 HD
ATOM     51  C   UNL     1      25.614  29.319  23.526  1.00  0.00     0.114 C 
ATOM     52  O   UNL     1      27.650  28.403  24.252  1.00  0.00    -0.275 OA
ENDBRANCH   7  48
ENDBRANCH   1   2
BRANCH   1  53
ATOM     53  O   UNL     1      32.101  28.893  22.276  1.00  0.00    -0.388 OA
ATOM     54  H   UNL     1      32.478  28.112  22.759  1.00  0.00     0.211 HD
ENDBRANCH   1  53
BRANCH   1  55
ATOM     55  C   UNL     1      30.475  27.809  20.981  1.00  0.00     0.165 C 
BRANCH  55  56
ATOM     56  O   UNL     1      30.909  28.676  19.894  1.00  0.00    -0.388 OA
ATOM     57  H   UNL     1      31.896  28.826  20.022  1.00  0.00     0.211 HD
ENDBRANCH  55  56
BRANCH  55  58
ATOM     58  C   UNL     1      29.091  27.375  20.672  1.00  0.00     0.154 C 
BRANCH  58  59
ATOM     59  N   UNL     1      28.401  27.798  19.538  1.00  0.00    -0.319 N 
ATOM     60  C   UNL     1      27.504  28.884  19.407  1.00  0.00     0.407 C 
ATOM     61  H   UNL     1      28.561  27.222  18.613  1.00  0.00     0.167 HD
ATOM     62  O   UNL     1      27.200  29.644  20.339  1.00  0.00    -0.225 OA
BRANCH  60  63
ATOM     63  O   UNL     1      26.890  29.142  18.156  1.00  0.00    -0.443 OA
BRANCH  63  64
ATOM     64  C   UNL     1      27.699  28.930  16.983  1.00  0.00     0.294 C 
BRANCH  64  65
ATOM     65  C   UNL     1      28.140  30.328  16.622  1.00  0.00     0.120 A 
ATOM     66  C   UNL     1      29.183  30.675  15.796  1.00  0.00     0.138 A 
ATOM     67  N   UNL     1      27.588  31.492  16.980  1.00  0.00    -0.132 NA
ATOM     68  N   UNL     1      29.222  32.042  15.683  1.00  0.00    -0.252 N 
ATOM     69  N   UNL     1      28.231  32.499  16.425  1.00  0.00    -0.067 NA
BRANCH  68  70
ATOM     70  C   UNL     1      30.152  32.798  14.862  1.00  0.00     0.152 C 
BRANCH  70  71
ATOM     71  C   UNL     1      31.481  32.921  15.471  1.00  0.00     0.085 C 
BRANCH  71  72
ATOM     72  C   UNL     1      31.882  34.161  16.156  1.00  0.00     0.265 C 
BRANCH  72  73
ATOM     73  N   UNL     1      32.527  35.187  15.406  1.00  0.00    -0.326 N 
ATOM     74  C   UNL     1      31.585  36.214  15.053  1.00  0.00     0.334 C 
BRANCH  73  75
ATOM     75  C   UNL     1      33.267  34.747  14.257  1.00  0.00     0.260 C 
ATOM     76  C   UNL     1      32.820  35.410  12.976  1.00  0.00     0.071 C 
ENDBRANCH  73  75
BRANCH  73  77
ATOM     77  C   UNL     1      33.472  35.831  16.333  1.00  0.00     0.260 C 
ATOM     78  C   UNL     1      33.151  35.617  17.770  1.00  0.00     0.071 C 
ENDBRANCH  73  77
ENDBRANCH  72  73
ENDBRANCH  71  72
ENDBRANCH  70  71
ENDBRANCH  68  70
ENDBRANCH  64  65
ENDBRANCH  63  64
ENDBRANCH  60  63
ENDBRANCH  58  59
ENDBRANCH  55  58
ENDBRANCH   1  55
TORSDOF 35
BEGIN_RES LYS A 131
REMARK  4 active torsions:
REMARK  status: ('A' for Active; 'I' for Inactive)
REMARK    1  A    between atoms: CA   and  CB  
REMARK    2  A    between atoms: CB   and  CG  
REMARK    3  A    between atoms: CG   and  CD  
REMARK    4  A    between atoms: CD   and  CE  
ROOT
ATOM      1  CA  LYS A 131      29.867  25.555  16.977  1.00 20.52     0.186 C 
ENDROOT
BRANCH   1   2
ATOM      2  CB  LYS A 131      28.345  25.722  17.026  1.00 20.94     0.034 C 
BRANCH   2   3
ATOM      3  CG  LYS A 131      27.601  24.401  16.902  1.00 22.96     0.005 C 
BRANCH   3   4
ATOM      4  CD  LYS A 131      26.148  24.533  17.264  1.00 24.33     0.041 C 
BRANCH   4   5
ATOM      5  CE  LYS A 131      26.009  25.425  18.493  1.00 26.91     0.338 C 
ATOM      6  NZ  LYS A 131      24.903  26.394  18.309  1.00 27.40     0.618 N 
ENDBRANCH   4   5
ENDBRANCH   3   4
ENDBRANCH   2   3
ENDBRANCH   1   2
END_RES LYS A 131
BEGIN_RES LYS A 135
REMARK  4 active torsions:
REMARK  status: ('A' for Active; 'I' for Inactive)
REMARK    5  A    between atoms: CA   and  CB  
REMARK    6  A    between atoms: CB   and  CG  
REMARK    7  A    between atoms: CG   and  CD  
REMARK    8  A    between atoms: CD   and  CE  
ROOT
ATOM      7  CA  LYS A 135      33.193  34.663   9.290  1.00 25.02     0.186 C 
ENDROOT
BRANCH   7   8
ATOM      8  CB  LYS A 135      32.060  35.360  10.034  1.00 26.63     0.034 C 
BRANCH   8   9
ATOM      9  CG  LYS A 135      30.703  34.764   9.760  1.00 29.45     0.005 C 
BRANCH   9  10
ATOM     10  CD  LYS A 135      30.540  34.460   8.279  1.00 32.00     0.041 C 
BRANCH  10  11
ATOM     11  CE  LYS A 135      29.264  35.082   7.745  1.00 34.25     0.338 C 
ATOM     12  NZ  LYS A 135      28.591  35.906   8.788  1.00 35.99     0.618 N 
ENDBRANCH  10  11
ENDBRANCH   9  10
ENDBRANCH   8   9
ENDBRANCH   7   8
END_RES LYS A 135
