REMARK VINA RESULT:    -3.150      3.356      7.502
REMARK INTER + INTRA:         -21.545
REMARK INTER:                 -10.466
REMARK INTRA:                 -11.079
REMARK UNBOUND:               -13.239
REMARK SMILES CCOC(=O)Cn1cc(COC(=O)NC[C@@H](O)C(O)[C@@H]2O[C@@](OC[C@H]3O[C@@H](O[C@H]4[C@H](O)[C@@H](O)[C@H](OCCN=[N+]=[N-])O[C@@H]4CO)[C@H](O)[C@@H](O)[C@H]3O)(C(=O)O)C[C@H](O)[C@H]2NC(C)=O)nn1
REMARK SMILES IDX 18 1 20 2 22 3 54 4 21 5 55 6 57 7 23 8 24 9 25 10 27 11
REMARK SMILES IDX 26 12 45 13 47 14 49 15 28 16 29 17 42 18 41 19 34 20 30 21
REMARK SMILES IDX 32 22 43 23 44 24 35 26 36 27 37 28 38 29 39 30 40 31 31 32
REMARK SMILES IDX 33 34 46 36 48 38 50 40 51 42 52 43 53 44 56 46 58 48 59 49
REMARK SMILES IDX 60 51 61 52 19 53 16 55 17 56 15 58 14 59 12 60 13 62 11 63
REMARK SMILES IDX 10 64 9 65 8 66 62 67 7 68 63 69 6 70 4 71 5 72 3 73 2 74
REMARK SMILES IDX 1 75
REMARK H PARENT 44 25 31 33 33 35 46 37 48 39 50 41 53 45 56 47 58 50 19 54
REMARK H PARENT 17 57 14 61
REMARK Flexibility Score: inf
ROOT
ATOM      1  C   UNL     1      29.738  31.153  20.500  1.00  0.00     0.176 C 
ENDROOT
BRANCH   1   2
ATOM      2  C   UNL     1      29.012  31.431  19.213  1.00  0.00     0.178 C 
ATOM      3  C   UNL     1      29.387  32.212  17.041  1.00  0.00     0.272 C 
ATOM      4  C   UNL     1      27.899  32.287  17.027  1.00  0.00     0.113 C 
ATOM      5  O   UNL     1      29.869  31.476  18.145  1.00  0.00    -0.332 OA
ATOM      6  C   UNL     1      27.304  32.880  18.263  1.00  0.00     0.145 C 
ATOM      7  C   UNL     1      28.332  32.778  19.379  1.00  0.00     0.142 C 
BRANCH   3   8
ATOM      8  O   UNL     1      30.044  33.423  16.998  1.00  0.00    -0.338 OA
BRANCH   8   9
ATOM      9  C   UNL     1      31.317  33.482  17.450  1.00  0.00     0.199 C 
BRANCH   9  10
ATOM     10  C   UNL     1      32.023  34.657  16.746  1.00  0.00     0.179 C 
ATOM     11  C   UNL     1      32.039  35.902  14.789  1.00  0.00     0.282 C 
ATOM     12  O   UNL     1      31.667  34.746  15.438  1.00  0.00    -0.341 OA
ATOM     13  C   UNL     1      31.646  37.156  15.509  1.00  0.00     0.202 C 
ATOM     14  C   UNL     1      32.351  37.137  16.841  1.00  0.00     0.179 C 
ATOM     15  C   UNL     1      31.901  35.910  17.560  1.00  0.00     0.177 C 
BRANCH  11  16
ATOM     16  O   UNL     1      31.557  35.976  13.493  1.00  0.00    -0.341 OA
BRANCH  16  17
ATOM     17  C   UNL     1      30.198  36.115  13.378  1.00  0.00     0.184 C 
ATOM     18  C   UNL     1      29.475  34.804  13.152  1.00  0.00     0.178 C 
ATOM     19  O   UNL     1      28.958  34.720  11.867  1.00  0.00    -0.341 OA
ATOM     20  C   UNL     1      27.937  35.672  11.643  1.00  0.00     0.281 C 
ATOM     21  C   UNL     1      29.881  37.047  12.208  1.00  0.00     0.180 C 
ATOM     22  C   UNL     1      28.366  37.043  12.060  1.00  0.00     0.202 C 
BRANCH  18  23
ATOM     23  C   UNL     1      28.450  34.585  14.234  1.00  0.00     0.191 C 
BRANCH  23  24
ATOM     24  O   UNL     1      28.759  35.343  15.378  1.00  0.00    -0.394 OA
ATOM     25  H   UNL     1      29.385  34.870  15.961  1.00  0.00     0.210 HD
ENDBRANCH  23  24
ENDBRANCH  18  23
BRANCH  20  26
ATOM     26  O   UNL     1      26.769  35.279  12.242  1.00  0.00    -0.350 OA
BRANCH  26  27
ATOM     27  C   UNL     1      25.806  34.663  11.516  1.00  0.00     0.169 C 
BRANCH  27  28
ATOM     28  C   UNL     1      24.693  35.462  10.949  1.00  0.00     0.119 C 
BRANCH  28  29
ATOM     29  N   UNL     1      24.697  35.693   9.545  1.00  0.00    -0.092 NA
ATOM     30  N   UNL     1      25.405  36.589   9.038  1.00  0.00     0.001 N 
ATOM     31  N   UNL     1      26.316  37.378   8.730  1.00  0.00    -0.003 NA
ENDBRANCH  28  29
ENDBRANCH  27  28
ENDBRANCH  26  27
ENDBRANCH  20  26
BRANCH  21  32
ATOM     32  O   UNL     1      30.323  38.336  12.514  1.00  0.00    -0.387 OA
ATOM     33  H   UNL     1      30.767  38.691  11.683  1.00  0.00     0.211 HD
ENDBRANCH  21  32
BRANCH  22  34
ATOM     34  O   UNL     1      27.990  38.034  11.149  1.00  0.00    -0.385 OA
ATOM     35  H   UNL     1      27.214  37.783  10.591  1.00  0.00     0.211 HD
ENDBRANCH  22  34
ENDBRANCH  16  17
ENDBRANCH  11  16
BRANCH  13  36
ATOM     36  O   UNL     1      32.061  38.250  14.759  1.00  0.00    -0.385 OA
ATOM     37  H   UNL     1      32.876  38.679  15.062  1.00  0.00     0.211 HD
ENDBRANCH  13  36
BRANCH  14  38
ATOM     38  O   UNL     1      31.933  38.277  17.564  1.00  0.00    -0.387 OA
ATOM     39  H   UNL     1      30.945  38.311  17.608  1.00  0.00     0.211 HD
ENDBRANCH  14  38
BRANCH  15  40
ATOM     40  O   UNL     1      30.565  36.129  17.970  1.00  0.00    -0.387 OA
ATOM     41  H   UNL     1      30.077  35.318  17.657  1.00  0.00     0.211 HD
ENDBRANCH  15  40
ENDBRANCH   9  10
ENDBRANCH   8   9
ENDBRANCH   3   8
BRANCH   3  42
ATOM     42  C   UNL     1      29.803  31.396  15.875  1.00  0.00     0.364 C 
ATOM     43  O   UNL     1      29.209  30.321  15.631  1.00  0.00    -0.246 OA
BRANCH  42  44
ATOM     44  O   UNL     1      30.826  31.800  15.066  1.00  0.00    -0.477 OA
ATOM     45  H   UNL     1      31.337  32.665  15.224  1.00  0.00     0.296 HD
ENDBRANCH  42  44
ENDBRANCH   3  42
BRANCH   6  46
ATOM     46  O   UNL     1      26.816  34.157  18.122  1.00  0.00    -0.391 OA
ATOM     47  H   UNL     1      26.410  34.441  18.988  1.00  0.00     0.211 HD
ENDBRANCH   6  46
BRANCH   7  48
ATOM     48  N   UNL     1      27.691  32.891  20.682  1.00  0.00    -0.348 N 
ATOM     49  C   UNL     1      27.601  34.122  21.373  1.00  0.00     0.217 C 
ATOM     50  H   UNL     1      27.285  32.042  21.111  1.00  0.00     0.163 HD
ATOM     51  C   UNL     1      26.947  34.250  22.710  1.00  0.00     0.114 C 
ATOM     52  O   UNL     1      28.097  35.146  20.829  1.00  0.00    -0.275 OA
ENDBRANCH   7  48
ENDBRANCH   1   2
BRANCH   1  53
ATOM     53  O   UNL     1      28.987  30.329  21.316  1.00  0.00    -0.388 OA
ATOM     54  H   UNL     1      29.131  29.356  21.137  1.00  0.00     0.211 HD
ENDBRANCH   1  53
BRANCH   1  55
ATOM     55  C   UNL     1      31.101  30.518  20.289  1.00  0.00     0.165 C 
BRANCH  55  56
ATOM     56  O   UNL     1      31.028  29.238  19.792  1.00  0.00    -0.388 OA
ATOM     57  H   UNL     1      31.900  28.851  19.547  1.00  0.00     0.211 HD
ENDBRANCH  55  56
BRANCH  55  58
ATOM     58  C   UNL     1      31.850  30.565  21.579  1.00  0.00     0.154 C 
BRANCH  58  59
ATOM     59  N   UNL     1      31.359  29.693  22.586  1.00  0.00    -0.319 N 
ATOM     60  C   UNL     1      31.997  28.504  23.029  1.00  0.00     0.407 C 
ATOM     61  H   UNL     1      30.426  29.914  23.083  1.00  0.00     0.167 HD
ATOM     62  O   UNL     1      33.080  28.122  22.556  1.00  0.00    -0.225 OA
BRANCH  60  63
ATOM     63  O   UNL     1      31.389  27.735  24.037  1.00  0.00    -0.443 OA
BRANCH  63  64
ATOM     64  C   UNL     1      30.532  26.690  23.718  1.00  0.00     0.294 C 
BRANCH  64  65
ATOM     65  C   UNL     1      29.518  27.028  22.701  1.00  0.00     0.120 A 
ATOM     66  C   UNL     1      28.166  27.212  22.920  1.00  0.00     0.139 A 
ATOM     67  N   UNL     1      29.694  27.211  21.386  1.00  0.00    -0.132 NA
ATOM     68  N   UNL     1      27.558  27.498  21.744  1.00  0.00    -0.241 N 
ATOM     69  N   UNL     1      28.513  27.490  20.840  1.00  0.00    -0.066 NA
BRANCH  68  70
ATOM     70  C   UNL     1      26.130  27.748  21.589  1.00  0.00     0.268 C 
BRANCH  70  71
ATOM     71  C   UNL     1      25.979  28.871  20.596  1.00  0.00     0.327 C 
ATOM     72  O   UNL     1      26.150  30.064  20.914  1.00  0.00    -0.250 OA
BRANCH  71  73
ATOM     73  O   UNL     1      25.639  28.619  19.279  1.00  0.00    -0.465 OA
BRANCH  73  74
ATOM     74  C   UNL     1      26.296  29.160  18.169  1.00  0.00     0.229 C 
ATOM     75  C   UNL     1      27.075  28.132  17.386  1.00  0.00     0.049 C 
ENDBRANCH  73  74
ENDBRANCH  71  73
ENDBRANCH  70  71
ENDBRANCH  68  70
ENDBRANCH  64  65
ENDBRANCH  63  64
ENDBRANCH  60  63
ENDBRANCH  58  59
ENDBRANCH  55  58
ENDBRANCH   1  55
TORSDOF 33
BEGIN_RES LYS A 131
REMARK  4 active torsions:
REMARK  status: ('A' for Active; 'I' for Inactive)
REMARK    1  A    between atoms: CA   and  CB  
REMARK    2  A    between atoms: CB   and  CG  
REMARK    3  A    between atoms: CG   and  CD  
REMARK    4  A    between atoms: CD   and  CE  
ROOT
ATOM      1  CA  LYS A 131      29.867  25.555  16.977  1.00 20.52     0.186 C 
ENDROOT
BRANCH   1   2
ATOM      2  CB  LYS A 131      28.345  25.722  17.026  1.00 20.94     0.034 C 
BRANCH   2   3
ATOM      3  CG  LYS A 131      27.602  24.399  16.927  1.00 22.96     0.005 C 
BRANCH   3   4
ATOM      4  CD  LYS A 131      26.622  24.213  18.052  1.00 24.33     0.041 C 
BRANCH   4   5
ATOM      5  CE  LYS A 131      25.292  24.861  17.681  1.00 26.91     0.338 C 
ATOM      6  NZ  LYS A 131      24.446  23.910  16.921  1.00 27.40     0.618 N 
ENDBRANCH   4   5
ENDBRANCH   3   4
ENDBRANCH   2   3
ENDBRANCH   1   2
END_RES LYS A 131
BEGIN_RES LYS A 135
REMARK  4 active torsions:
REMARK  status: ('A' for Active; 'I' for Inactive)
REMARK    5  A    between atoms: CA   and  CB  
REMARK    6  A    between atoms: CB   and  CG  
REMARK    7  A    between atoms: CG   and  CD  
REMARK    8  A    between atoms: CD   and  CE  
ROOT
ATOM      7  CA  LYS A 135      33.193  34.663   9.290  1.00 25.02     0.186 C 
ENDROOT
BRANCH   7   8
ATOM      8  CB  LYS A 135      32.060  35.360  10.034  1.00 26.63     0.034 C 
BRANCH   8   9
ATOM      9  CG  LYS A 135      30.901  35.738   9.149  1.00 29.45     0.005 C 
BRANCH   9  10
ATOM     10  CD  LYS A 135      30.255  34.497   8.551  1.00 32.00     0.041 C 
BRANCH  10  11
ATOM     11  CE  LYS A 135      28.903  34.836   7.952  1.00 34.25     0.338 C 
ATOM     12  NZ  LYS A 135      27.810  34.100   8.645  1.00 35.99     0.618 N 
ENDBRANCH  10  11
ENDBRANCH   9  10
ENDBRANCH   8   9
ENDBRANCH   7   8
END_RES LYS A 135
