REMARK VINA RESULT:    -5.147      3.451     10.670
REMARK INTER + INTRA:         -24.760
REMARK INTER:                 -10.643
REMARK INTRA:                 -14.117
REMARK UNBOUND:               -11.187
REMARK SMILES CC(=O)N[C@@H]1[C@@H](O)C[C@](OC[C@H]2O[C@@H](O[C@H]3[C@H](O)[C@@H](O)[C@H](OCCN=[N+]=[N-])O[C@@H]3CO)[C@H](O)[C@@H](O)[C@H]2O)(C(=O)O)O[C@H]1C(O)[C@H](O)CNC(=O)OCc1cn(-c2ccc(S(=O)(=O)Nc3nccs3)cc2)nn1
REMARK SMILES IDX 43 1 42 2 9 3 8 4 41 5 6 6 5 7 10 8 11 9 12 10 14 11 13 12
REMARK SMILES IDX 32 13 34 14 36 15 15 16 16 17 29 18 28 19 21 20 17 21 19 22
REMARK SMILES IDX 30 23 31 24 22 26 23 27 24 28 25 29 26 30 27 31 18 32 20 34
REMARK SMILES IDX 33 36 35 38 37 40 38 42 39 43 40 44 7 46 4 48 2 49 1 51 3 52
REMARK SMILES IDX 44 53 45 55 46 56 47 58 48 59 49 60 50 62 51 63 52 64 53 65
REMARK SMILES IDX 54 66 72 67 55 68 71 69 56 70 57 71 70 72 58 73 69 74 59 75
REMARK SMILES IDX 60 76 61 77 62 78 63 79 64 81 65 82 68 83 66 84 67 85
REMARK H PARENT 31 25 18 33 20 35 33 37 35 39 37 41 40 45 7 47 4 50 44 54
REMARK H PARENT 46 57 48 61 63 80
REMARK Flexibility Score: inf
ROOT
ATOM      1  C   UNL     1      27.470  34.614  15.388  1.00  0.00     0.176 C 
ENDROOT
BRANCH   1   2
ATOM      2  C   UNL     1      28.272  34.014  16.493  1.00  0.00     0.178 C 
ATOM      3  C   UNL     1      29.740  32.203  16.666  1.00  0.00     0.272 C 
ATOM      4  C   UNL     1      29.787  32.812  18.084  1.00  0.00     0.113 C 
ATOM      5  O   UNL     1      28.735  32.779  15.941  1.00  0.00    -0.332 OA
ATOM      6  C   UNL     1      28.448  32.972  18.697  1.00  0.00     0.145 C 
ATOM      7  C   UNL     1      27.465  33.580  17.694  1.00  0.00     0.142 C 
BRANCH   3   8
ATOM      8  O   UNL     1      29.503  30.854  16.743  1.00  0.00    -0.338 OA
BRANCH   8   9
ATOM      9  C   UNL     1      28.636  30.361  15.801  1.00  0.00     0.199 C 
BRANCH   9  10
ATOM     10  C   UNL     1      27.650  29.360  16.360  1.00  0.00     0.179 C 
ATOM     11  C   UNL     1      27.040  28.040  18.053  1.00  0.00     0.282 C 
ATOM     12  O   UNL     1      27.742  29.229  17.741  1.00  0.00    -0.341 OA
ATOM     13  C   UNL     1      25.574  28.398  18.038  1.00  0.00     0.202 C 
ATOM     14  C   UNL     1      25.374  29.741  17.328  1.00  0.00     0.179 C 
ATOM     15  C   UNL     1      26.219  29.783  16.068  1.00  0.00     0.177 C 
BRANCH  11  16
ATOM     16  O   UNL     1      27.397  27.515  19.249  1.00  0.00    -0.341 OA
BRANCH  16  17
ATOM     17  C   UNL     1      27.783  28.425  20.217  1.00  0.00     0.184 C 
ATOM     18  C   UNL     1      28.992  28.116  21.003  1.00  0.00     0.178 C 
ATOM     19  O   UNL     1      28.849  28.728  22.279  1.00  0.00    -0.341 OA
ATOM     20  C   UNL     1      27.964  27.997  23.082  1.00  0.00     0.281 C 
ATOM     21  C   UNL     1      26.618  28.769  21.136  1.00  0.00     0.180 C 
ATOM     22  C   UNL     1      26.613  27.903  22.397  1.00  0.00     0.202 C 
BRANCH  18  23
ATOM     23  C   UNL     1      30.282  28.738  20.469  1.00  0.00     0.191 C 
BRANCH  23  24
ATOM     24  O   UNL     1      30.100  29.646  19.471  1.00  0.00    -0.394 OA
ATOM     25  H   UNL     1      30.329  29.247  18.601  1.00  0.00     0.210 HD
ENDBRANCH  23  24
ENDBRANCH  18  23
BRANCH  20  26
ATOM     26  O   UNL     1      27.852  28.647  24.291  1.00  0.00    -0.350 OA
BRANCH  26  27
ATOM     27  C   UNL     1      28.002  27.859  25.403  1.00  0.00     0.169 C 
BRANCH  27  28
ATOM     28  C   UNL     1      26.721  27.648  26.174  1.00  0.00     0.119 C 
BRANCH  28  29
ATOM     29  N   UNL     1      26.548  26.227  26.337  1.00  0.00    -0.092 NA
ATOM     30  N   UNL     1      26.604  25.495  25.352  1.00  0.00     0.001 N 
ATOM     31  N   UNL     1      26.239  24.756  24.435  1.00  0.00    -0.003 NA
ENDBRANCH  28  29
ENDBRANCH  27  28
ENDBRANCH  26  27
ENDBRANCH  20  26
BRANCH  21  32
ATOM     32  O   UNL     1      26.698  30.093  21.565  1.00  0.00    -0.387 OA
ATOM     33  H   UNL     1      27.227  30.172  22.392  1.00  0.00     0.211 HD
ENDBRANCH  21  32
BRANCH  22  34
ATOM     34  O   UNL     1      26.234  26.598  22.114  1.00  0.00    -0.385 OA
ATOM     35  H   UNL     1      26.631  26.366  21.244  1.00  0.00     0.211 HD
ENDBRANCH  22  34
ENDBRANCH  16  17
ENDBRANCH  11  16
BRANCH  13  36
ATOM     36  O   UNL     1      24.814  27.495  17.253  1.00  0.00    -0.385 OA
ATOM     37  H   UNL     1      24.369  26.830  17.798  1.00  0.00     0.211 HD
ENDBRANCH  13  36
BRANCH  14  38
ATOM     38  O   UNL     1      25.636  30.795  18.190  1.00  0.00    -0.387 OA
ATOM     39  H   UNL     1      25.703  30.497  19.134  1.00  0.00     0.211 HD
ENDBRANCH  14  38
BRANCH  15  40
ATOM     40  O   UNL     1      26.158  31.071  15.559  1.00  0.00    -0.387 OA
ATOM     41  H   UNL     1      25.270  31.463  15.548  1.00  0.00     0.211 HD
ENDBRANCH  15  40
ENDBRANCH   9  10
ENDBRANCH   8   9
ENDBRANCH   3   8
BRANCH   3  42
ATOM     42  C   UNL     1      31.051  32.490  16.080  1.00  0.00     0.364 C 
ATOM     43  O   UNL     1      31.851  33.337  16.595  1.00  0.00    -0.246 OA
BRANCH  42  44
ATOM     44  O   UNL     1      31.514  31.865  14.936  1.00  0.00    -0.477 OA
ATOM     45  H   UNL     1      32.022  30.974  15.013  1.00  0.00     0.296 HD
ENDBRANCH  42  44
ENDBRANCH   3  42
BRANCH   6  46
ATOM     46  O   UNL     1      27.940  31.787  19.230  1.00  0.00    -0.391 OA
ATOM     47  H   UNL     1      28.362  31.613  20.105  1.00  0.00     0.211 HD
ENDBRANCH   6  46
BRANCH   7  48
ATOM     48  N   UNL     1      26.687  34.589  18.320  1.00  0.00    -0.348 N 
ATOM     49  C   UNL     1      25.268  34.478  18.356  1.00  0.00     0.217 C 
ATOM     50  H   UNL     1      27.116  35.422  18.765  1.00  0.00     0.163 HD
ATOM     51  C   UNL     1      24.390  35.476  18.986  1.00  0.00     0.114 C 
ATOM     52  O   UNL     1      24.715  33.460  17.816  1.00  0.00    -0.275 OA
ENDBRANCH   7  48
ENDBRANCH   1   2
BRANCH   1  53
ATOM     53  O   UNL     1      26.306  33.805  15.191  1.00  0.00    -0.388 OA
ATOM     54  H   UNL     1      26.069  33.765  14.247  1.00  0.00     0.211 HD
ENDBRANCH   1  53
BRANCH   1  55
ATOM     55  C   UNL     1      28.162  34.786  14.067  1.00  0.00     0.165 C 
BRANCH  55  56
ATOM     56  O   UNL     1      29.531  35.027  14.432  1.00  0.00    -0.388 OA
ATOM     57  H   UNL     1      30.046  34.189  14.304  1.00  0.00     0.211 HD
ENDBRANCH  55  56
BRANCH  55  58
ATOM     58  C   UNL     1      27.759  36.088  13.384  1.00  0.00     0.154 C 
BRANCH  58  59
ATOM     59  N   UNL     1      26.580  35.805  12.609  1.00  0.00    -0.319 N 
ATOM     60  C   UNL     1      25.317  36.406  12.855  1.00  0.00     0.407 C 
ATOM     61  H   UNL     1      26.617  35.111  11.793  1.00  0.00     0.167 HD
ATOM     62  O   UNL     1      25.177  37.236  13.761  1.00  0.00    -0.225 OA
BRANCH  60  63
ATOM     63  O   UNL     1      24.201  36.082  12.093  1.00  0.00    -0.443 OA
BRANCH  63  64
ATOM     64  C   UNL     1      23.157  35.231  12.478  1.00  0.00     0.294 C 
BRANCH  64  65
ATOM     65  C   UNL     1      23.569  33.869  12.858  1.00  0.00     0.121 A 
ATOM     66  C   UNL     1      22.763  32.902  13.466  1.00  0.00     0.144 A 
ATOM     67  N   UNL     1      24.750  33.271  12.709  1.00  0.00    -0.131 NA
ATOM     68  N   UNL     1      23.476  31.763  13.663  1.00  0.00    -0.220 N 
ATOM     69  N   UNL     1      24.683  32.020  13.192  1.00  0.00    -0.062 NA
BRANCH  68  70
ATOM     70  C   UNL     1      22.965  30.558  14.260  1.00  0.00     0.066 A 
ATOM     71  C   UNL     1      22.229  30.566  15.410  1.00  0.00     0.030 A 
ATOM     72  C   UNL     1      23.248  29.353  13.643  1.00  0.00     0.030 A 
ATOM     73  C   UNL     1      21.768  29.369  15.956  1.00  0.00     0.024 A 
ATOM     74  C   UNL     1      22.817  28.147  14.142  1.00  0.00     0.024 A 
ATOM     75  C   UNL     1      22.071  28.192  15.313  1.00  0.00     0.088 A 
BRANCH  75  76
ATOM     76  S   UNL     1      21.514  26.675  15.975  1.00  0.00     0.263 S 
ATOM     77  O   UNL     1      22.703  25.736  16.036  1.00  0.00    -0.201 OA
ATOM     78  O   UNL     1      20.535  26.101  14.990  1.00  0.00    -0.201 OA
BRANCH  76  79
ATOM     79  N   UNL     1      20.811  26.928  17.505  1.00  0.00    -0.255 N 
ATOM     80  H   UNL     1      19.817  27.213  17.548  1.00  0.00     0.182 HD
BRANCH  79  81
ATOM     81  C   UNL     1      21.569  26.752  18.651  1.00  0.00     0.196 A 
ATOM     82  N   UNL     1      22.545  27.293  19.269  1.00  0.00    -0.228 NA
ATOM     83  S   UNL     1      21.237  25.335  19.804  1.00  0.00    -0.105 S 
ATOM     84  C   UNL     1      23.066  26.887  20.367  1.00  0.00     0.125 A 
ATOM     85  C   UNL     1      22.565  25.770  20.979  1.00  0.00     0.089 A 
ENDBRANCH  79  81
ENDBRANCH  76  79
ENDBRANCH  75  76
ENDBRANCH  68  70
ENDBRANCH  64  65
ENDBRANCH  63  64
ENDBRANCH  60  63
ENDBRANCH  58  59
ENDBRANCH  55  58
ENDBRANCH   1  55
TORSDOF 33
BEGIN_RES LYS A 131
REMARK  4 active torsions:
REMARK  status: ('A' for Active; 'I' for Inactive)
REMARK    1  A    between atoms: CA   and  CB  
REMARK    2  A    between atoms: CB   and  CG  
REMARK    3  A    between atoms: CG   and  CD  
REMARK    4  A    between atoms: CD   and  CE  
ROOT
ATOM      1  CA  LYS A 131      29.867  25.555  16.977  1.00 20.52     0.186 C 
ENDROOT
BRANCH   1   2
ATOM      2  CB  LYS A 131      28.345  25.722  17.026  1.00 20.94     0.034 C 
BRANCH   2   3
ATOM      3  CG  LYS A 131      27.599  24.477  16.572  1.00 22.96     0.005 C 
BRANCH   3   4
ATOM      4  CD  LYS A 131      27.034  23.702  17.730  1.00 24.33     0.041 C 
BRANCH   4   5
ATOM      5  CE  LYS A 131      25.737  24.356  18.196  1.00 26.91     0.338 C 
ATOM      6  NZ  LYS A 131      25.579  24.207  19.662  1.00 27.40     0.618 N 
ENDBRANCH   4   5
ENDBRANCH   3   4
ENDBRANCH   2   3
ENDBRANCH   1   2
END_RES LYS A 131
BEGIN_RES LYS A 135
REMARK  4 active torsions:
REMARK  status: ('A' for Active; 'I' for Inactive)
REMARK    5  A    between atoms: CA   and  CB  
REMARK    6  A    between atoms: CB   and  CG  
REMARK    7  A    between atoms: CG   and  CD  
REMARK    8  A    between atoms: CD   and  CE  
ROOT
ATOM      7  CA  LYS A 135      33.193  34.663   9.290  1.00 25.02     0.186 C 
ENDROOT
BRANCH   7   8
ATOM      8  CB  LYS A 135      32.060  35.360  10.034  1.00 26.63     0.034 C 
BRANCH   8   9
ATOM      9  CG  LYS A 135      30.739  35.301   9.312  1.00 29.45     0.005 C 
BRANCH   9  10
ATOM     10  CD  LYS A 135      29.695  34.590  10.159  1.00 32.00     0.041 C 
BRANCH  10  11
ATOM     11  CE  LYS A 135      28.606  34.003   9.282  1.00 34.25     0.338 C 
ATOM     12  NZ  LYS A 135      28.531  34.712   7.974  1.00 35.99     0.618 N 
ENDBRANCH  10  11
ENDBRANCH   9  10
ENDBRANCH   8   9
ENDBRANCH   7   8
END_RES LYS A 135
