REMARK VINA RESULT:    -4.710      4.073      9.037
REMARK INTER + INTRA:         -22.538
REMARK INTER:                 -11.036
REMARK INTRA:                 -11.502
REMARK UNBOUND:               -10.943
REMARK SMILES CC(=O)N[C@@H]1[C@@H](O)C[C@](OC[C@H]2O[C@@H](O[C@H]3[C@H](O)[C@@H](O)[C@H](OCCN=[N+]=[N-])O[C@@H]3CO)[C@H](O)[C@@H](O)[C@H]2O)(C(=O)O)O[C@H]1C(O)[C@H](O)CNC(=O)OCc1cn([C@@H]2C[C@H]3CC[C@@H](C2)N3C)nn1
REMARK SMILES IDX 9 1 8 2 6 3 5 4 42 5 41 6 10 7 11 8 12 9 14 10 13 11 32 12
REMARK SMILES IDX 34 13 36 14 15 15 16 16 29 17 28 18 21 19 17 20 19 21 30 22
REMARK SMILES IDX 31 23 22 25 23 26 24 27 25 28 26 29 27 30 18 31 20 33 33 35
REMARK SMILES IDX 35 37 37 39 38 41 39 42 40 43 7 45 43 47 44 48 45 50 46 51
REMARK SMILES IDX 47 53 48 54 49 55 50 57 51 58 52 59 53 60 54 61 66 62 55 63
REMARK SMILES IDX 65 64 56 65 62 66 57 67 61 68 58 69 63 70 60 71 59 72 64 73
REMARK SMILES IDX 4 74 2 75 1 77 3 78
REMARK H PARENT 31 24 18 32 20 34 33 36 35 38 37 40 40 44 7 46 44 49 46 52
REMARK H PARENT 48 56 4 76
REMARK Flexibility Score: inf
ROOT
ATOM      1  C   UNL     1      24.739  37.221   8.371  1.00  0.00     0.272 C 
ATOM      2  C   UNL     1      23.639  37.417   7.408  1.00  0.00     0.113 C 
ATOM      3  C   UNL     1      22.922  38.742   7.627  1.00  0.00     0.145 C 
ATOM      4  C   UNL     1      22.477  38.839   9.106  1.00  0.00     0.142 C 
ATOM      5  C   UNL     1      23.529  38.352  10.020  1.00  0.00     0.178 C 
ATOM      6  O   UNL     1      24.717  38.279   9.322  1.00  0.00    -0.332 OA
ENDROOT
BRANCH   1   7
ATOM      7  O   UNL     1      26.014  37.031   7.975  1.00  0.00    -0.338 OA
BRANCH   7   8
ATOM      8  C   UNL     1      26.573  37.123   6.812  1.00  0.00     0.199 C 
BRANCH   8   9
ATOM      9  C   UNL     1      27.258  38.436   6.463  1.00  0.00     0.179 C 
ATOM     10  C   UNL     1      28.543  39.562   8.078  1.00  0.00     0.282 C 
ATOM     11  O   UNL     1      27.303  39.200   7.638  1.00  0.00    -0.341 OA
ATOM     12  C   UNL     1      29.364  40.286   7.064  1.00  0.00     0.202 C 
ATOM     13  C   UNL     1      29.407  39.466   5.822  1.00  0.00     0.179 C 
ATOM     14  C   UNL     1      28.621  38.204   5.894  1.00  0.00     0.177 C 
BRANCH  10  15
ATOM     15  O   UNL     1      29.218  38.549   8.735  1.00  0.00    -0.341 OA
BRANCH  15  16
ATOM     16  C   UNL     1      29.469  38.800  10.068  1.00  0.00     0.184 C 
ATOM     17  C   UNL     1      30.855  38.467  10.451  1.00  0.00     0.178 C 
ATOM     18  O   UNL     1      31.157  38.875  11.754  1.00  0.00    -0.341 OA
ATOM     19  C   UNL     1      30.026  39.188  12.510  1.00  0.00     0.281 C 
ATOM     20  C   UNL     1      28.590  37.826  10.925  1.00  0.00     0.180 C 
ATOM     21  C   UNL     1      28.886  38.205  12.339  1.00  0.00     0.202 C 
BRANCH  17  22
ATOM     22  C   UNL     1      31.944  38.885   9.527  1.00  0.00     0.191 C 
BRANCH  22  23
ATOM     23  O   UNL     1      31.857  38.190   8.323  1.00  0.00    -0.394 OA
ATOM     24  H   UNL     1      32.256  38.741   7.605  1.00  0.00     0.210 HD
ENDBRANCH  22  23
ENDBRANCH  17  22
BRANCH  19  25
ATOM     25  O   UNL     1      29.668  40.502  12.395  1.00  0.00    -0.350 OA
BRANCH  25  26
ATOM     26  C   UNL     1      28.501  40.933  12.919  1.00  0.00     0.169 C 
BRANCH  26  27
ATOM     27  C   UNL     1      27.840  42.043  12.189  1.00  0.00     0.119 C 
BRANCH  27  28
ATOM     28  N   UNL     1      26.423  41.968  12.104  1.00  0.00    -0.092 NA
ATOM     29  N   UNL     1      25.655  42.550  12.877  1.00  0.00     0.001 N 
ATOM     30  N   UNL     1      24.737  42.631  13.699  1.00  0.00    -0.003 NA
ENDBRANCH  27  28
ENDBRANCH  26  27
ENDBRANCH  25  26
ENDBRANCH  19  25
BRANCH  20  31
ATOM     31  O   UNL     1      27.256  38.003  10.660  1.00  0.00    -0.387 OA
ATOM     32  H   UNL     1      26.750  37.166  10.838  1.00  0.00     0.211 HD
ENDBRANCH  20  31
BRANCH  21  33
ATOM     33  O   UNL     1      29.163  37.069  13.106  1.00  0.00    -0.385 OA
ATOM     34  H   UNL     1      29.125  37.314  14.042  1.00  0.00     0.211 HD
ENDBRANCH  21  33
ENDBRANCH  15  16
ENDBRANCH  10  15
BRANCH  12  35
ATOM     35  O   UNL     1      28.768  41.535   6.790  1.00  0.00    -0.385 OA
ATOM     36  H   UNL     1      29.393  42.236   7.112  1.00  0.00     0.211 HD
ENDBRANCH  12  35
BRANCH  13  37
ATOM     37  O   UNL     1      30.742  39.136   5.484  1.00  0.00    -0.387 OA
ATOM     38  H   UNL     1      31.082  38.433   6.088  1.00  0.00     0.211 HD
ENDBRANCH  13  37
BRANCH  14  39
ATOM     39  O   UNL     1      29.357  37.218   6.563  1.00  0.00    -0.387 OA
ATOM     40  H   UNL     1      28.721  36.805   7.217  1.00  0.00     0.211 HD
ENDBRANCH  14  39
ENDBRANCH   8   9
ENDBRANCH   7   8
ENDBRANCH   1   7
BRANCH   1  41
ATOM     41  C   UNL     1      24.421  35.967   9.160  1.00  0.00     0.364 C 
ATOM     42  O   UNL     1      23.360  35.328   9.079  1.00  0.00    -0.246 OA
BRANCH  41  43
ATOM     43  O   UNL     1      25.367  35.459  10.055  1.00  0.00    -0.477 OA
ATOM     44  H   UNL     1      26.250  35.960  10.212  1.00  0.00     0.296 HD
ENDBRANCH  41  43
ENDBRANCH   1  41
BRANCH   3  45
ATOM     45  O   UNL     1      23.637  39.849   7.230  1.00  0.00    -0.391 OA
ATOM     46  H   UNL     1      23.019  40.640   7.241  1.00  0.00     0.211 HD
ENDBRANCH   3  45
BRANCH   5  47
ATOM     47  C   UNL     1      23.881  39.445  11.097  1.00  0.00     0.176 C 
BRANCH  47  48
ATOM     48  O   UNL     1      25.185  39.925  10.643  1.00  0.00    -0.388 OA
ATOM     49  H   UNL     1      25.841  39.265  11.021  1.00  0.00     0.211 HD
ENDBRANCH  47  48
BRANCH  47  50
ATOM     50  C   UNL     1      24.215  38.848  12.423  1.00  0.00     0.165 C 
BRANCH  50  51
ATOM     51  O   UNL     1      25.519  39.123  12.767  1.00  0.00    -0.388 OA
ATOM     52  H   UNL     1      25.645  39.743  13.503  1.00  0.00     0.211 HD
ENDBRANCH  50  51
BRANCH  50  53
ATOM     53  C   UNL     1      23.811  37.436  12.620  1.00  0.00     0.154 C 
BRANCH  53  54
ATOM     54  N   UNL     1      24.460  36.873  13.804  1.00  0.00    -0.319 N 
ATOM     55  C   UNL     1      25.668  36.174  13.704  1.00  0.00     0.407 C 
ATOM     56  H   UNL     1      23.999  37.009  14.716  1.00  0.00     0.167 HD
ATOM     57  O   UNL     1      26.196  36.035  12.561  1.00  0.00    -0.225 OA
BRANCH  55  58
ATOM     58  O   UNL     1      26.318  35.624  14.803  1.00  0.00    -0.443 OA
BRANCH  58  59
ATOM     59  C   UNL     1      26.657  34.243  14.831  1.00  0.00     0.294 C 
BRANCH  59  60
ATOM     60  C   UNL     1      28.124  34.082  14.585  1.00  0.00     0.120 A 
ATOM     61  C   UNL     1      29.080  33.665  15.487  1.00  0.00     0.138 A 
ATOM     62  N   UNL     1      28.778  34.315  13.452  1.00  0.00    -0.132 NA
ATOM     63  N   UNL     1      30.279  33.655  14.889  1.00  0.00    -0.249 N 
ATOM     64  N   UNL     1      30.051  34.065  13.627  1.00  0.00    -0.067 NA
BRANCH  63  65
ATOM     65  C   UNL     1      31.582  33.300  15.400  1.00  0.00     0.112 C 
ATOM     66  C   UNL     1      32.702  34.107  14.813  1.00  0.00     0.046 C 
ATOM     67  C   UNL     1      31.586  33.590  16.909  1.00  0.00     0.046 C 
ATOM     68  C   UNL     1      32.651  35.529  15.306  1.00  0.00     0.058 C 
ATOM     69  C   UNL     1      31.396  35.076  17.143  1.00  0.00     0.058 C 
ATOM     70  N   UNL     1      31.318  35.744  15.855  1.00  0.00    -0.300 NA
ATOM     71  C   UNL     1      33.556  35.755  16.489  1.00  0.00     0.021 C 
ATOM     72  C   UNL     1      32.672  35.674  17.702  1.00  0.00     0.021 C 
ATOM     73  C   UNL     1      31.116  37.155  15.982  1.00  0.00     0.105 C 
ENDBRANCH  63  65
ENDBRANCH  59  60
ENDBRANCH  58  59
ENDBRANCH  55  58
ENDBRANCH  53  54
ENDBRANCH  50  53
ENDBRANCH  47  50
ENDBRANCH   5  47
BRANCH   4  74
ATOM     74  N   UNL     1      21.183  38.153   9.205  1.00  0.00    -0.348 N 
ATOM     75  C   UNL     1      19.946  38.897   9.114  1.00  0.00     0.217 C 
ATOM     76  H   UNL     1      21.068  37.131   9.341  1.00  0.00     0.163 HD
ATOM     77  C   UNL     1      18.615  38.289   9.202  1.00  0.00     0.114 C 
ATOM     78  O   UNL     1      20.053  40.131   8.949  1.00  0.00    -0.275 OA
ENDBRANCH   4  74
TORSDOF 30
BEGIN_RES LYS A 131
REMARK  4 active torsions:
REMARK  status: ('A' for Active; 'I' for Inactive)
REMARK    1  A    between atoms: CA   and  CB  
REMARK    2  A    between atoms: CB   and  CG  
REMARK    3  A    between atoms: CG   and  CD  
REMARK    4  A    between atoms: CD   and  CE  
ROOT
ATOM      1  CA  LYS A 131      29.867  25.555  16.977  1.00 20.52     0.186 C 
ENDROOT
BRANCH   1   2
ATOM      2  CB  LYS A 131      28.345  25.722  17.026  1.00 20.94     0.034 C 
BRANCH   2   3
ATOM      3  CG  LYS A 131      27.601  24.401  16.898  1.00 22.96     0.005 C 
BRANCH   3   4
ATOM      4  CD  LYS A 131      26.563  24.230  17.971  1.00 24.33     0.041 C 
BRANCH   4   5
ATOM      5  CE  LYS A 131      25.201  23.986  17.328  1.00 26.91     0.338 C 
ATOM      6  NZ  LYS A 131      24.389  25.225  17.347  1.00 27.40     0.618 N 
ENDBRANCH   4   5
ENDBRANCH   3   4
ENDBRANCH   2   3
ENDBRANCH   1   2
END_RES LYS A 131
BEGIN_RES LYS A 135
REMARK  4 active torsions:
REMARK  status: ('A' for Active; 'I' for Inactive)
REMARK    5  A    between atoms: CA   and  CB  
REMARK    6  A    between atoms: CB   and  CG  
REMARK    7  A    between atoms: CG   and  CD  
REMARK    8  A    between atoms: CD   and  CE  
ROOT
ATOM      7  CA  LYS A 135      33.193  34.663   9.290  1.00 25.02     0.186 C 
ENDROOT
BRANCH   7   8
ATOM      8  CB  LYS A 135      32.060  35.360  10.034  1.00 26.63     0.034 C 
BRANCH   8   9
ATOM      9  CG  LYS A 135      30.752  34.614   9.976  1.00 29.45     0.005 C 
BRANCH   9  10
ATOM     10  CD  LYS A 135      30.293  34.446   8.535  1.00 32.00     0.041 C 
BRANCH  10  11
ATOM     11  CE  LYS A 135      28.779  34.435   8.457  1.00 34.25     0.338 C 
ATOM     12  NZ  LYS A 135      28.186  33.721   9.622  1.00 35.99     0.618 N 
ENDBRANCH  10  11
ENDBRANCH   9  10
ENDBRANCH   8   9
ENDBRANCH   7   8
END_RES LYS A 135
