REMARK VINA RESULT:    -4.223      5.856     11.568
REMARK INTER + INTRA:         -24.455
REMARK INTER:                 -14.342
REMARK INTRA:                 -10.112
REMARK UNBOUND:               -13.073
REMARK SMILES CC(=O)N[C@@H]1[C@@H](O)C[C@](OC[C@H]2O[C@@H](O[C@H]3[C@H](O)[C@@H](O)[C@H](OCCN=[N+]=[N-])O[C@@H]3CO)[C@H](O)[C@@H](O)[C@H]2O)(C(=O)O)O[C@H]1C(O)[C@H](O)CNC(=O)OCc1cn(C[C@@H](C)CN2CCN(c3ccc(Cl)cc3)CC2)nn1
REMARK SMILES IDX 43 1 42 2 9 3 8 4 41 5 6 6 5 7 10 8 11 9 12 10 14 11 13 12
REMARK SMILES IDX 32 13 34 14 36 15 15 16 16 17 29 18 28 19 21 20 17 21 19 22
REMARK SMILES IDX 30 23 31 24 22 26 23 27 24 28 25 29 26 30 27 31 18 32 20 34
REMARK SMILES IDX 33 36 35 38 37 40 38 42 39 43 40 44 7 46 4 48 2 49 1 51 3 52
REMARK SMILES IDX 44 53 45 55 46 56 47 58 48 59 49 60 50 62 51 63 52 64 53 65
REMARK SMILES IDX 54 66 74 67 55 68 73 69 56 70 57 71 58 72 59 73 60 74 61 75
REMARK SMILES IDX 72 76 62 77 71 78 63 79 64 80 65 81 70 82 66 83 69 84 67 85
REMARK SMILES IDX 68 86
REMARK H PARENT 31 25 18 33 20 35 33 37 35 39 37 41 40 45 7 47 4 50 44 54
REMARK H PARENT 46 57 48 61
REMARK Flexibility Score: inf
ROOT
ATOM      1  C   UNL     1      31.207  30.952  21.599  1.00  0.00     0.176 C 
ENDROOT
BRANCH   1   2
ATOM      2  C   UNL     1      31.318  29.623  22.331  1.00  0.00     0.178 C 
ATOM      3  C   UNL     1      30.091  27.745  23.074  1.00  0.00     0.272 C 
ATOM      4  C   UNL     1      31.161  27.579  24.035  1.00  0.00     0.113 C 
ATOM      5  O   UNL     1      30.097  29.080  22.563  1.00  0.00    -0.332 OA
ATOM      6  C   UNL     1      31.636  28.888  24.636  1.00  0.00     0.145 C 
ATOM      7  C   UNL     1      32.256  29.699  23.489  1.00  0.00     0.142 C 
BRANCH   3   8
ATOM      8  O   UNL     1      28.818  27.537  23.398  1.00  0.00    -0.338 OA
BRANCH   8   9
ATOM      9  C   UNL     1      27.834  28.392  23.495  1.00  0.00     0.199 C 
BRANCH   9  10
ATOM     10  C   UNL     1      26.498  28.189  22.842  1.00  0.00     0.179 C 
ATOM     11  C   UNL     1      25.772  26.903  21.035  1.00  0.00     0.282 C 
ATOM     12  O   UNL     1      26.562  27.917  21.505  1.00  0.00    -0.341 OA
ATOM     13  C   UNL     1      26.227  25.594  21.654  1.00  0.00     0.202 C 
ATOM     14  C   UNL     1      26.118  25.714  23.139  1.00  0.00     0.179 C 
ATOM     15  C   UNL     1      25.755  27.083  23.606  1.00  0.00     0.177 C 
BRANCH  11  16
ATOM     16  O   UNL     1      26.029  26.822  19.645  1.00  0.00    -0.341 OA
BRANCH  16  17
ATOM     17  C   UNL     1      26.112  28.086  19.119  1.00  0.00     0.184 C 
ATOM     18  C   UNL     1      24.878  28.475  18.333  1.00  0.00     0.178 C 
ATOM     19  O   UNL     1      25.066  28.587  16.989  1.00  0.00    -0.341 OA
ATOM     20  C   UNL     1      26.071  29.444  16.577  1.00  0.00     0.281 C 
ATOM     21  C   UNL     1      27.370  28.269  18.276  1.00  0.00     0.180 C 
ATOM     22  C   UNL     1      27.214  29.581  17.544  1.00  0.00     0.202 C 
BRANCH  18  23
ATOM     23  C   UNL     1      24.166  29.672  18.944  1.00  0.00     0.191 C 
BRANCH  23  24
ATOM     24  O   UNL     1      24.777  30.112  20.092  1.00  0.00    -0.394 OA
ATOM     25  H   UNL     1      24.150  30.768  20.523  1.00  0.00     0.210 HD
ENDBRANCH  23  24
ENDBRANCH  18  23
BRANCH  20  26
ATOM     26  O   UNL     1      25.588  30.703  16.239  1.00  0.00    -0.350 OA
BRANCH  26  27
ATOM     27  C   UNL     1      25.514  30.971  14.902  1.00  0.00     0.169 C 
BRANCH  27  28
ATOM     28  C   UNL     1      24.186  31.561  14.519  1.00  0.00     0.119 C 
BRANCH  28  29
ATOM     29  N   UNL     1      23.908  31.247  13.127  1.00  0.00    -0.092 NA
ATOM     30  N   UNL     1      23.754  30.059  12.788  1.00  0.00     0.001 N 
ATOM     31  N   UNL     1      23.626  28.858  12.588  1.00  0.00    -0.003 NA
ENDBRANCH  28  29
ENDBRANCH  27  28
ENDBRANCH  26  27
ENDBRANCH  20  26
BRANCH  21  32
ATOM     32  O   UNL     1      28.497  28.373  19.089  1.00  0.00    -0.387 OA
ATOM     33  H   UNL     1      28.246  27.928  19.951  1.00  0.00     0.211 HD
ENDBRANCH  21  32
BRANCH  22  34
ATOM     34  O   UNL     1      28.392  29.804  16.790  1.00  0.00    -0.385 OA
ATOM     35  H   UNL     1      28.544  29.130  16.109  1.00  0.00     0.211 HD
ENDBRANCH  22  34
ENDBRANCH  16  17
ENDBRANCH  11  16
BRANCH  13  36
ATOM     36  O   UNL     1      25.453  24.577  21.123  1.00  0.00    -0.385 OA
ATOM     37  H   UNL     1      24.530  24.695  21.493  1.00  0.00     0.211 HD
ENDBRANCH  13  36
BRANCH  14  38
ATOM     38  O   UNL     1      27.254  25.244  23.811  1.00  0.00    -0.387 OA
ATOM     39  H   UNL     1      27.008  24.786  24.647  1.00  0.00     0.211 HD
ENDBRANCH  14  38
BRANCH  15  40
ATOM     40  O   UNL     1      26.002  27.232  24.948  1.00  0.00    -0.387 OA
ATOM     41  H   UNL     1      26.310  28.138  25.178  1.00  0.00     0.211 HD
ENDBRANCH  15  40
ENDBRANCH   9  10
ENDBRANCH   8   9
ENDBRANCH   3   8
BRANCH   3  42
ATOM     42  C   UNL     1      30.407  26.975  21.806  1.00  0.00     0.364 C 
ATOM     43  O   UNL     1      31.611  26.622  21.548  1.00  0.00    -0.246 OA
BRANCH  42  44
ATOM     44  O   UNL     1      29.473  26.613  20.869  1.00  0.00    -0.477 OA
ATOM     45  H   UNL     1      29.483  26.998  19.933  1.00  0.00     0.296 HD
ENDBRANCH  42  44
ENDBRANCH   3  42
BRANCH   6  46
ATOM     46  O   UNL     1      30.509  29.542  25.133  1.00  0.00    -0.391 OA
ATOM     47  H   UNL     1      29.696  29.303  24.625  1.00  0.00     0.211 HD
ENDBRANCH   6  46
BRANCH   7  48
ATOM     48  N   UNL     1      33.548  29.110  23.202  1.00  0.00    -0.348 N 
ATOM     49  C   UNL     1      34.724  29.896  23.295  1.00  0.00     0.217 C 
ATOM     50  H   UNL     1      33.662  28.098  22.916  1.00  0.00     0.163 HD
ATOM     51  C   UNL     1      36.048  29.246  22.988  1.00  0.00     0.114 C 
ATOM     52  O   UNL     1      34.717  31.116  23.624  1.00  0.00    -0.275 OA
ENDBRANCH   7  48
ENDBRANCH   1   2
BRANCH   1  53
ATOM     53  O   UNL     1      32.504  31.427  21.406  1.00  0.00    -0.388 OA
ATOM     54  H   UNL     1      33.116  30.700  21.146  1.00  0.00     0.211 HD
ENDBRANCH   1  53
BRANCH   1  55
ATOM     55  C   UNL     1      30.582  30.848  20.236  1.00  0.00     0.165 C 
BRANCH  55  56
ATOM     56  O   UNL     1      30.849  29.692  19.553  1.00  0.00    -0.388 OA
ATOM     57  H   UNL     1      30.335  28.932  19.874  1.00  0.00     0.211 HD
ENDBRANCH  55  56
BRANCH  55  58
ATOM     58  C   UNL     1      30.780  32.045  19.369  1.00  0.00     0.154 C 
BRANCH  58  59
ATOM     59  N   UNL     1      30.363  31.704  18.007  1.00  0.00    -0.319 N 
ATOM     60  C   UNL     1      30.803  32.453  16.892  1.00  0.00     0.407 C 
ATOM     61  H   UNL     1      29.728  30.892  17.865  1.00  0.00     0.167 HD
ATOM     62  O   UNL     1      31.564  33.430  17.100  1.00  0.00    -0.225 OA
BRANCH  60  63
ATOM     63  O   UNL     1      30.400  32.108  15.609  1.00  0.00    -0.443 OA
BRANCH  63  64
ATOM     64  C   UNL     1      29.227  32.733  15.087  1.00  0.00     0.294 C 
BRANCH  64  65
ATOM     65  C   UNL     1      29.475  34.131  14.668  1.00  0.00     0.120 A 
ATOM     66  C   UNL     1      30.348  34.566  13.697  1.00  0.00     0.138 A 
ATOM     67  N   UNL     1      28.895  35.253  15.156  1.00  0.00    -0.132 NA
ATOM     68  N   UNL     1      30.259  35.892  13.646  1.00  0.00    -0.252 N 
ATOM     69  N   UNL     1      29.378  36.304  14.530  1.00  0.00    -0.067 NA
BRANCH  68  70
ATOM     70  C   UNL     1      31.041  36.739  12.744  1.00  0.00     0.150 C 
BRANCH  70  71
ATOM     71  C   UNL     1      30.206  37.928  12.261  1.00  0.00     0.022 C 
ATOM     72  C   UNL     1      31.170  39.089  12.145  1.00  0.00     0.011 C 
BRANCH  71  73
ATOM     73  C   UNL     1      29.589  37.588  10.941  1.00  0.00     0.089 C 
BRANCH  73  74
ATOM     74  N   UNL     1      28.192  37.648  10.817  1.00  0.00    -0.299 NA
ATOM     75  C   UNL     1      27.363  36.720  11.462  1.00  0.00     0.106 C 
ATOM     76  C   UNL     1      27.714  38.199   9.590  1.00  0.00     0.106 C 
ATOM     77  C   UNL     1      26.366  36.060  10.509  1.00  0.00     0.132 C 
ATOM     78  C   UNL     1      26.213  38.408   9.681  1.00  0.00     0.132 C 
ATOM     79  N   UNL     1      25.620  37.103   9.805  1.00  0.00    -0.369 N 
BRANCH  79  80
ATOM     80  C   UNL     1      24.362  36.801   9.270  1.00  0.00     0.037 A 
ATOM     81  C   UNL     1      23.835  37.489   8.179  1.00  0.00     0.027 A 
ATOM     82  C   UNL     1      23.553  35.793   9.778  1.00  0.00     0.027 A 
ATOM     83  C   UNL     1      22.607  37.208   7.632  1.00  0.00     0.022 A 
ATOM     84  C   UNL     1      22.319  35.508   9.230  1.00  0.00     0.022 A 
ATOM     85  C   UNL     1      21.826  36.208   8.151  1.00  0.00     0.041 A 
ATOM     86  Cl  UNL     1      20.278  35.853   7.460  1.00  0.00    -0.084 Cl
ENDBRANCH  79  80
ENDBRANCH  73  74
ENDBRANCH  71  73
ENDBRANCH  70  71
ENDBRANCH  68  70
ENDBRANCH  64  65
ENDBRANCH  63  64
ENDBRANCH  60  63
ENDBRANCH  58  59
ENDBRANCH  55  58
ENDBRANCH   1  55
TORSDOF 34
BEGIN_RES LYS A 131
REMARK  4 active torsions:
REMARK  status: ('A' for Active; 'I' for Inactive)
REMARK    1  A    between atoms: CA   and  CB  
REMARK    2  A    between atoms: CB   and  CG  
REMARK    3  A    between atoms: CG   and  CD  
REMARK    4  A    between atoms: CD   and  CE  
ROOT
ATOM      1  CA  LYS A 131      29.867  25.555  16.977  1.00 20.52     0.186 C 
ENDROOT
BRANCH   1   2
ATOM      2  CB  LYS A 131      28.345  25.722  17.026  1.00 20.94     0.034 C 
BRANCH   2   3
ATOM      3  CG  LYS A 131      27.599  24.422  16.768  1.00 22.96     0.005 C 
BRANCH   3   4
ATOM      4  CD  LYS A 131      26.660  24.076  17.890  1.00 24.33     0.041 C 
BRANCH   4   5
ATOM      5  CE  LYS A 131      25.282  23.753  17.319  1.00 26.91     0.338 C 
ATOM      6  NZ  LYS A 131      24.270  24.704  17.837  1.00 27.40     0.618 N 
ENDBRANCH   4   5
ENDBRANCH   3   4
ENDBRANCH   2   3
ENDBRANCH   1   2
END_RES LYS A 131
BEGIN_RES LYS A 135
REMARK  4 active torsions:
REMARK  status: ('A' for Active; 'I' for Inactive)
REMARK    5  A    between atoms: CA   and  CB  
REMARK    6  A    between atoms: CB   and  CG  
REMARK    7  A    between atoms: CG   and  CD  
REMARK    8  A    between atoms: CD   and  CE  
ROOT
ATOM      7  CA  LYS A 135      33.193  34.663   9.290  1.00 25.02     0.186 C 
ENDROOT
BRANCH   7   8
ATOM      8  CB  LYS A 135      32.060  35.360  10.034  1.00 26.63     0.034 C 
BRANCH   8   9
ATOM      9  CG  LYS A 135      30.712  34.724   9.812  1.00 29.45     0.005 C 
BRANCH   9  10
ATOM     10  CD  LYS A 135      30.405  34.623   8.326  1.00 32.00     0.041 C 
BRANCH  10  11
ATOM     11  CE  LYS A 135      28.920  34.808   8.075  1.00 34.25     0.338 C 
ATOM     12  NZ  LYS A 135      28.681  35.645   6.867  1.00 35.99     0.618 N 
ENDBRANCH  10  11
ENDBRANCH   9  10
ENDBRANCH   8   9
ENDBRANCH   7   8
END_RES LYS A 135
