REMARK VINA RESULT:    -3.767      2.446      7.484
REMARK INTER + INTRA:         -23.448
REMARK INTER:                 -10.265
REMARK INTRA:                 -13.184
REMARK UNBOUND:               -13.184
REMARK SMILES CC(=O)N[C@@H]1[C@@H](O)C[C@](OC[C@H]2O[C@@H](O[C@H]3[C@H](O)[C@@H](O)[C@H](OCCN=[N+]=[N-])O[C@@H]3CO)[C@H](O)[C@@H](O)[C@H]2O)(C(=O)O)O[C@H]1C(O)[C@H](O)CNC(=O)OCc1cn(CC(O)Cn2ccnc2[N+](=O)[O-])nn1
REMARK SMILES IDX 43 1 42 2 9 3 8 4 41 5 6 6 5 7 10 8 11 9 12 10 14 11 13 12
REMARK SMILES IDX 32 13 34 14 36 15 15 16 16 17 29 18 28 19 21 20 17 21 19 22
REMARK SMILES IDX 30 23 31 24 22 26 23 27 24 28 25 29 26 30 27 31 18 32 20 34
REMARK SMILES IDX 33 36 35 38 37 40 38 42 39 43 40 44 7 46 4 48 2 49 1 51 3 52
REMARK SMILES IDX 44 53 45 55 46 56 47 58 48 59 49 60 50 62 51 63 52 64 53 65
REMARK SMILES IDX 54 66 69 67 55 68 68 69 56 70 57 71 58 72 59 74 60 75 61 76
REMARK SMILES IDX 64 77 62 78 63 79 65 80 66 81 67 82
REMARK H PARENT 31 25 18 33 20 35 33 37 35 39 37 41 40 45 7 47 4 50 44 54
REMARK H PARENT 46 57 48 61 58 73
REMARK Flexibility Score: inf
ROOT
ATOM      1  C   UNL     1      29.271  28.456  21.596  1.00  0.00     0.176 C 
ENDROOT
BRANCH   1   2
ATOM      2  C   UNL     1      29.854  29.882  21.361  1.00  0.00     0.178 C 
ATOM      3  C   UNL     1      28.998  31.885  20.583  1.00  0.00     0.272 C 
ATOM      4  C   UNL     1      30.244  32.119  19.781  1.00  0.00     0.113 C 
ATOM      5  O   UNL     1      28.775  30.522  20.747  1.00  0.00    -0.332 OA
ATOM      6  C   UNL     1      30.826  30.810  19.262  1.00  0.00     0.145 C 
ATOM      7  C   UNL     1      30.967  29.808  20.401  1.00  0.00     0.142 C 
BRANCH   3   8
ATOM      8  O   UNL     1      27.846  32.327  19.944  1.00  0.00    -0.338 OA
BRANCH   8   9
ATOM      9  C   UNL     1      26.830  31.470  19.751  1.00  0.00     0.199 C 
BRANCH   9  10
ATOM     10  C   UNL     1      26.515  31.218  18.289  1.00  0.00     0.179 C 
ATOM     11  C   UNL     1      26.901  31.950  16.214  1.00  0.00     0.282 C 
ATOM     12  O   UNL     1      27.553  31.702  17.447  1.00  0.00    -0.341 OA
ATOM     13  C   UNL     1      26.296  30.680  15.669  1.00  0.00     0.202 C 
ATOM     14  C   UNL     1      26.875  29.526  16.486  1.00  0.00     0.179 C 
ATOM     15  C   UNL     1      26.424  29.752  17.932  1.00  0.00     0.177 C 
BRANCH  11  16
ATOM     16  O   UNL     1      27.756  32.499  15.281  1.00  0.00    -0.341 OA
BRANCH  16  17
ATOM     17  C   UNL     1      28.860  32.969  15.954  1.00  0.00     0.184 C 
ATOM     18  C   UNL     1      28.955  34.486  15.996  1.00  0.00     0.178 C 
ATOM     19  O   UNL     1      29.866  34.749  17.024  1.00  0.00    -0.341 OA
ATOM     20  C   UNL     1      31.149  34.359  16.755  1.00  0.00     0.281 C 
ATOM     21  C   UNL     1      30.162  32.519  15.308  1.00  0.00     0.180 C 
ATOM     22  C   UNL     1      31.339  33.093  16.002  1.00  0.00     0.202 C 
BRANCH  18  23
ATOM     23  C   UNL     1      27.659  35.173  16.235  1.00  0.00     0.191 C 
BRANCH  23  24
ATOM     24  O   UNL     1      27.178  34.779  17.477  1.00  0.00    -0.394 OA
ATOM     25  H   UNL     1      26.258  34.413  17.437  1.00  0.00     0.210 HD
ENDBRANCH  23  24
ENDBRANCH  18  23
BRANCH  20  26
ATOM     26  O   UNL     1      31.774  34.180  18.019  1.00  0.00    -0.350 OA
BRANCH  26  27
ATOM     27  C   UNL     1      31.849  35.342  18.743  1.00  0.00     0.169 C 
BRANCH  27  28
ATOM     28  C   UNL     1      33.084  35.201  19.644  1.00  0.00     0.119 C 
BRANCH  28  29
ATOM     29  N   UNL     1      32.878  34.258  20.700  1.00  0.00    -0.092 NA
ATOM     30  N   UNL     1      33.124  34.547  21.894  1.00  0.00     0.001 N 
ATOM     31  N   UNL     1      32.920  34.738  23.082  1.00  0.00    -0.003 NA
ENDBRANCH  28  29
ENDBRANCH  27  28
ENDBRANCH  26  27
ENDBRANCH  20  26
BRANCH  21  32
ATOM     32  O   UNL     1      30.241  31.112  15.368  1.00  0.00    -0.387 OA
ATOM     33  H   UNL     1      30.932  30.907  16.023  1.00  0.00     0.211 HD
ENDBRANCH  21  32
BRANCH  22  34
ATOM     34  O   UNL     1      32.297  33.364  14.992  1.00  0.00    -0.385 OA
ATOM     35  H   UNL     1      33.114  32.817  15.126  1.00  0.00     0.211 HD
ENDBRANCH  22  34
ENDBRANCH  16  17
ENDBRANCH  11  16
BRANCH  13  36
ATOM     36  O   UNL     1      24.911  30.747  15.820  1.00  0.00    -0.385 OA
ATOM     37  H   UNL     1      24.647  30.700  16.781  1.00  0.00     0.211 HD
ENDBRANCH  13  36
BRANCH  14  38
ATOM     38  O   UNL     1      28.250  29.673  16.487  1.00  0.00    -0.387 OA
ATOM     39  H   UNL     1      28.501  30.508  16.056  1.00  0.00     0.211 HD
ENDBRANCH  14  38
BRANCH  15  40
ATOM     40  O   UNL     1      27.246  28.962  18.704  1.00  0.00    -0.387 OA
ATOM     41  H   UNL     1      27.360  29.318  19.621  1.00  0.00     0.211 HD
ENDBRANCH  15  40
ENDBRANCH   9  10
ENDBRANCH   8   9
ENDBRANCH   3   8
BRANCH   3  42
ATOM     42  C   UNL     1      29.093  32.515  21.907  1.00  0.00     0.364 C 
ATOM     43  O   UNL     1      28.191  32.354  22.801  1.00  0.00    -0.246 OA
BRANCH  42  44
ATOM     44  O   UNL     1      30.139  33.325  22.300  1.00  0.00    -0.477 OA
ATOM     45  H   UNL     1      31.061  33.312  21.855  1.00  0.00     0.296 HD
ENDBRANCH  42  44
ENDBRANCH   3  42
BRANCH   6  46
ATOM     46  O   UNL     1      30.090  30.297  18.213  1.00  0.00    -0.391 OA
ATOM     47  H   UNL     1      30.451  29.430  17.900  1.00  0.00     0.211 HD
ENDBRANCH   6  46
BRANCH   7  48
ATOM     48  N   UNL     1      32.303  29.805  20.908  1.00  0.00    -0.348 N 
ATOM     49  C   UNL     1      32.833  30.538  21.963  1.00  0.00     0.217 C 
ATOM     50  H   UNL     1      33.029  29.128  20.418  1.00  0.00     0.163 HD
ATOM     51  C   UNL     1      34.285  30.374  22.383  1.00  0.00     0.114 C 
ATOM     52  O   UNL     1      32.192  31.355  22.627  1.00  0.00    -0.275 OA
ENDBRANCH   7  48
ENDBRANCH   1   2
BRANCH   1  53
ATOM     53  O   UNL     1      29.320  27.790  20.346  1.00  0.00    -0.388 OA
ATOM     54  H   UNL     1      30.203  27.812  19.948  1.00  0.00     0.211 HD
ENDBRANCH   1  53
BRANCH   1  55
ATOM     55  C   UNL     1      27.923  28.414  22.147  1.00  0.00     0.165 C 
BRANCH  55  56
ATOM     56  O   UNL     1      27.601  29.329  23.117  1.00  0.00    -0.388 OA
ATOM     57  H   UNL     1      27.902  29.082  24.020  1.00  0.00     0.211 HD
ENDBRANCH  55  56
BRANCH  55  58
ATOM     58  C   UNL     1      27.515  27.005  22.638  1.00  0.00     0.154 C 
BRANCH  58  59
ATOM     59  N   UNL     1      26.139  26.816  22.191  1.00  0.00    -0.319 N 
ATOM     60  C   UNL     1      25.824  26.549  20.819  1.00  0.00     0.407 C 
ATOM     61  H   UNL     1      25.350  26.874  22.873  1.00  0.00     0.167 HD
ATOM     62  O   UNL     1      26.745  26.470  19.979  1.00  0.00    -0.225 OA
BRANCH  60  63
ATOM     63  O   UNL     1      24.520  26.378  20.403  1.00  0.00    -0.443 OA
BRANCH  63  64
ATOM     64  C   UNL     1      23.452  27.254  20.595  1.00  0.00     0.294 C 
BRANCH  64  65
ATOM     65  C   UNL     1      23.188  28.013  19.347  1.00  0.00     0.120 A 
ATOM     66  C   UNL     1      22.538  29.229  19.241  1.00  0.00     0.138 A 
ATOM     67  N   UNL     1      23.518  27.695  18.087  1.00  0.00    -0.132 NA
ATOM     68  N   UNL     1      22.504  29.592  17.935  1.00  0.00    -0.249 N 
ATOM     69  N   UNL     1      23.104  28.645  17.261  1.00  0.00    -0.067 NA
BRANCH  68  70
ATOM     70  C   UNL     1      21.924  30.849  17.472  1.00  0.00     0.181 C 
BRANCH  70  71
ATOM     71  C   UNL     1      21.017  30.466  16.306  1.00  0.00     0.170 C 
BRANCH  71  72
ATOM     72  O   UNL     1      19.728  30.355  16.771  1.00  0.00    -0.388 OA
ATOM     73  H   UNL     1      19.147  29.960  16.078  1.00  0.00     0.211 HD
ENDBRANCH  71  72
BRANCH  71  74
ATOM     74  C   UNL     1      21.163  31.450  15.186  1.00  0.00     0.239 C 
BRANCH  74  75
ATOM     75  N   UNL     1      20.880  30.794  13.919  1.00  0.00    -0.227 N 
ATOM     76  C   UNL     1      19.619  30.772  13.379  1.00  0.00     0.204 A 
ATOM     77  C   UNL     1      21.723  30.163  13.101  1.00  0.00     0.434 A 
ATOM     78  C   UNL     1      19.706  30.099  12.181  1.00  0.00     0.245 A 
ATOM     79  N   UNL     1      20.995  29.737  12.031  1.00  0.00    -0.074 NA
BRANCH  77  80
ATOM     80  N   UNL     1      23.110  29.956  13.303  1.00  0.00    -0.047 N 
ATOM     81  O   UNL     1      23.533  28.914  13.896  1.00  0.00    -0.390 OA
ATOM     82  O   UNL     1      24.074  30.836  12.896  1.00  0.00    -0.390 OA
ENDBRANCH  77  80
ENDBRANCH  74  75
ENDBRANCH  71  74
ENDBRANCH  70  71
ENDBRANCH  68  70
ENDBRANCH  64  65
ENDBRANCH  63  64
ENDBRANCH  60  63
ENDBRANCH  58  59
ENDBRANCH  55  58
ENDBRANCH   1  55
TORSDOF 35
BEGIN_RES LYS A 131
REMARK  4 active torsions:
REMARK  status: ('A' for Active; 'I' for Inactive)
REMARK    1  A    between atoms: CA   and  CB  
REMARK    2  A    between atoms: CB   and  CG  
REMARK    3  A    between atoms: CG   and  CD  
REMARK    4  A    between atoms: CD   and  CE  
ROOT
ATOM      1  CA  LYS A 131      29.867  25.555  16.977  1.00 20.52     0.186 C 
ENDROOT
BRANCH   1   2
ATOM      2  CB  LYS A 131      28.345  25.722  17.026  1.00 20.94     0.034 C 
BRANCH   2   3
ATOM      3  CG  LYS A 131      27.601  24.402  16.893  1.00 22.96     0.005 C 
BRANCH   3   4
ATOM      4  CD  LYS A 131      26.148  24.532  17.257  1.00 24.33     0.041 C 
BRANCH   4   5
ATOM      5  CE  LYS A 131      25.767  23.425  18.235  1.00 26.91     0.338 C 
ATOM      6  NZ  LYS A 131      24.772  22.512  17.624  1.00 27.40     0.618 N 
ENDBRANCH   4   5
ENDBRANCH   3   4
ENDBRANCH   2   3
ENDBRANCH   1   2
END_RES LYS A 131
BEGIN_RES LYS A 135
REMARK  4 active torsions:
REMARK  status: ('A' for Active; 'I' for Inactive)
REMARK    5  A    between atoms: CA   and  CB  
REMARK    6  A    between atoms: CB   and  CG  
REMARK    7  A    between atoms: CG   and  CD  
REMARK    8  A    between atoms: CD   and  CE  
ROOT
ATOM      7  CA  LYS A 135      33.193  34.663   9.290  1.00 25.02     0.186 C 
ENDROOT
BRANCH   7   8
ATOM      8  CB  LYS A 135      32.060  35.360  10.034  1.00 26.63     0.034 C 
BRANCH   8   9
ATOM      9  CG  LYS A 135      30.704  34.760   9.765  1.00 29.45     0.005 C 
BRANCH   9  10
ATOM     10  CD  LYS A 135      30.529  34.472   8.282  1.00 32.00     0.041 C 
BRANCH  10  11
ATOM     11  CE  LYS A 135      29.185  34.980   7.796  1.00 34.25     0.338 C 
ATOM     12  NZ  LYS A 135      28.074  34.436   8.625  1.00 35.99     0.618 N 
ENDBRANCH  10  11
ENDBRANCH   9  10
ENDBRANCH   8   9
ENDBRANCH   7   8
END_RES LYS A 135
