REMARK VINA RESULT:    -5.129      3.511      6.654
REMARK INTER + INTRA:         -23.122
REMARK INTER:                 -11.380
REMARK INTRA:                 -11.742
REMARK UNBOUND:                -9.598
REMARK SMILES CC(=O)N[C@@H]1[C@@H](O)C[C@](OC[C@H]2O[C@@H](O[C@H]3[C@H](O)[C@@H](O)[C@H](OCCN=[N+]=[N-])O[C@@H]3CO)[C@H](O)[C@@H](O)[C@H]2O)(C(=O)O)O[C@H]1C(O)[C@H](O)CNC(=O)OCc1cn(Cc2ccccc2OC(C)=O)nn1
REMARK SMILES IDX 43 1 42 2 9 3 8 4 41 5 6 6 5 7 10 8 11 9 12 10 14 11 13 12
REMARK SMILES IDX 32 13 34 14 36 15 15 16 16 17 29 18 28 19 21 20 17 21 19 22
REMARK SMILES IDX 30 23 31 24 22 26 23 27 24 28 25 29 26 30 27 31 18 32 20 34
REMARK SMILES IDX 33 36 35 38 37 40 38 42 39 43 40 44 7 46 4 48 2 49 1 51 3 52
REMARK SMILES IDX 44 53 45 55 46 56 47 58 48 59 49 60 50 62 51 63 52 64 53 65
REMARK SMILES IDX 54 66 68 67 55 68 67 69 56 70 57 71 62 72 58 73 61 74 59 75
REMARK SMILES IDX 60 76 63 77 64 78 66 79 65 80
REMARK H PARENT 31 25 18 33 20 35 33 37 35 39 37 41 40 45 7 47 4 50 44 54
REMARK H PARENT 46 57 48 61
REMARK Flexibility Score: inf
ROOT
ATOM      1  C   UNL     1      30.768  38.116  11.875  1.00  0.00     0.176 C 
ENDROOT
BRANCH   1   2
ATOM      2  C   UNL     1      31.391  37.563  13.147  1.00  0.00     0.178 C 
ATOM      3  C   UNL     1      31.796  35.541  14.236  1.00  0.00     0.272 C 
ATOM      4  C   UNL     1      31.999  36.539  15.370  1.00  0.00     0.113 C 
ATOM      5  O   UNL     1      31.148  36.208  13.168  1.00  0.00    -0.332 OA
ATOM      6  C   UNL     1      30.712  37.343  15.463  1.00  0.00     0.145 C 
ATOM      7  C   UNL     1      30.670  38.261  14.302  1.00  0.00     0.142 C 
BRANCH   3   8
ATOM      8  O   UNL     1      30.982  34.501  14.572  1.00  0.00    -0.338 OA
BRANCH   8   9
ATOM      9  C   UNL     1      31.483  33.497  15.337  1.00  0.00     0.199 C 
BRANCH   9  10
ATOM     10  C   UNL     1      30.451  33.188  16.436  1.00  0.00     0.179 C 
ATOM     11  C   UNL     1      28.310  33.707  17.091  1.00  0.00     0.282 C 
ATOM     12  O   UNL     1      29.284  33.851  16.045  1.00  0.00    -0.341 OA
ATOM     13  C   UNL     1      27.843  32.298  16.988  1.00  0.00     0.202 C 
ATOM     14  C   UNL     1      29.042  31.418  17.385  1.00  0.00     0.179 C 
ATOM     15  C   UNL     1      30.245  31.712  16.554  1.00  0.00     0.177 C 
BRANCH  11  16
ATOM     16  O   UNL     1      27.401  34.704  16.837  1.00  0.00    -0.341 OA
BRANCH  16  17
ATOM     17  C   UNL     1      26.483  34.318  15.843  1.00  0.00     0.184 C 
ATOM     18  C   UNL     1      26.572  35.114  14.594  1.00  0.00     0.178 C 
ATOM     19  O   UNL     1      25.323  35.519  14.112  1.00  0.00    -0.341 OA
ATOM     20  C   UNL     1      24.369  34.511  14.089  1.00  0.00     0.281 C 
ATOM     21  C   UNL     1      25.060  34.671  16.418  1.00  0.00     0.180 C 
ATOM     22  C   UNL     1      24.093  33.981  15.495  1.00  0.00     0.202 C 
BRANCH  18  23
ATOM     23  C   UNL     1      27.433  34.547  13.509  1.00  0.00     0.191 C 
BRANCH  23  24
ATOM     24  O   UNL     1      28.329  35.515  13.084  1.00  0.00    -0.394 OA
ATOM     25  H   UNL     1      27.854  36.262  12.664  1.00  0.00     0.210 HD
ENDBRANCH  23  24
ENDBRANCH  18  23
BRANCH  20  26
ATOM     26  O   UNL     1      24.765  33.469  13.328  1.00  0.00    -0.350 OA
BRANCH  26  27
ATOM     27  C   UNL     1      23.994  32.375  13.178  1.00  0.00     0.169 C 
BRANCH  27  28
ATOM     28  C   UNL     1      24.521  31.059  13.623  1.00  0.00     0.119 C 
BRANCH  28  29
ATOM     29  N   UNL     1      24.113  30.016  12.745  1.00  0.00    -0.092 NA
ATOM     30  N   UNL     1      22.954  29.704  12.582  1.00  0.00     0.001 N 
ATOM     31  N   UNL     1      21.752  29.659  12.302  1.00  0.00    -0.003 NA
ENDBRANCH  28  29
ENDBRANCH  27  28
ENDBRANCH  26  27
ENDBRANCH  20  26
BRANCH  21  32
ATOM     32  O   UNL     1      24.983  34.258  17.726  1.00  0.00    -0.387 OA
ATOM     33  H   UNL     1      24.268  33.551  17.822  1.00  0.00     0.211 HD
ENDBRANCH  21  32
BRANCH  22  34
ATOM     34  O   UNL     1      22.782  34.139  15.886  1.00  0.00    -0.385 OA
ATOM     35  H   UNL     1      22.540  33.340  16.436  1.00  0.00     0.211 HD
ENDBRANCH  22  34
ENDBRANCH  16  17
ENDBRANCH  11  16
BRANCH  13  36
ATOM     36  O   UNL     1      26.847  31.972  17.896  1.00  0.00    -0.385 OA
ATOM     37  H   UNL     1      27.165  31.810  18.808  1.00  0.00     0.211 HD
ENDBRANCH  13  36
BRANCH  14  38
ATOM     38  O   UNL     1      28.680  30.071  17.336  1.00  0.00    -0.387 OA
ATOM     39  H   UNL     1      28.074  29.974  16.546  1.00  0.00     0.211 HD
ENDBRANCH  14  38
BRANCH  15  40
ATOM     40  O   UNL     1      30.085  31.088  15.319  1.00  0.00    -0.387 OA
ATOM     41  H   UNL     1      30.040  31.712  14.570  1.00  0.00     0.211 HD
ENDBRANCH  15  40
ENDBRANCH   9  10
ENDBRANCH   8   9
ENDBRANCH   3   8
BRANCH   3  42
ATOM     42  C   UNL     1      33.152  35.146  13.796  1.00  0.00     0.364 C 
ATOM     43  O   UNL     1      34.100  35.063  14.572  1.00  0.00    -0.246 OA
BRANCH  42  44
ATOM     44  O   UNL     1      33.356  34.855  12.445  1.00  0.00    -0.477 OA
ATOM     45  H   UNL     1      34.123  35.290  11.911  1.00  0.00     0.296 HD
ENDBRANCH  42  44
ENDBRANCH   3  42
BRANCH   6  46
ATOM     46  O   UNL     1      29.676  36.415  15.324  1.00  0.00    -0.391 OA
ATOM     47  H   UNL     1      29.897  35.520  15.673  1.00  0.00     0.211 HD
ENDBRANCH   6  46
BRANCH   7  48
ATOM     48  N   UNL     1      31.157  39.565  14.475  1.00  0.00    -0.348 N 
ATOM     49  C   UNL     1      30.332  40.715  14.625  1.00  0.00     0.217 C 
ATOM     50  H   UNL     1      32.209  39.699  14.494  1.00  0.00     0.163 HD
ATOM     51  C   UNL     1      30.881  42.069  14.805  1.00  0.00     0.114 C 
ATOM     52  O   UNL     1      29.108  40.527  14.600  1.00  0.00    -0.275 OA
ENDBRANCH   7  48
ENDBRANCH   1   2
BRANCH   1  53
ATOM     53  O   UNL     1      29.454  38.423  12.180  1.00  0.00    -0.388 OA
ATOM     54  H   UNL     1      28.859  38.495  11.405  1.00  0.00     0.211 HD
ENDBRANCH   1  53
BRANCH   1  55
ATOM     55  C   UNL     1      31.550  39.224  11.254  1.00  0.00     0.165 C 
BRANCH  55  56
ATOM     56  O   UNL     1      30.863  40.418  11.495  1.00  0.00    -0.388 OA
ATOM     57  H   UNL     1      31.075  40.795  12.362  1.00  0.00     0.211 HD
ENDBRANCH  55  56
BRANCH  55  58
ATOM     58  C   UNL     1      31.787  39.025   9.776  1.00  0.00     0.154 C 
BRANCH  58  59
ATOM     59  N   UNL     1      30.673  38.496   9.061  1.00  0.00    -0.319 N 
ATOM     60  C   UNL     1      29.621  39.282   8.523  1.00  0.00     0.407 C 
ATOM     61  H   UNL     1      30.608  37.453   8.910  1.00  0.00     0.167 HD
ATOM     62  O   UNL     1      29.674  40.525   8.692  1.00  0.00    -0.225 OA
BRANCH  60  63
ATOM     63  O   UNL     1      28.553  38.759   7.834  1.00  0.00    -0.443 OA
BRANCH  63  64
ATOM     64  C   UNL     1      27.914  37.542   8.216  1.00  0.00     0.294 C 
BRANCH  64  65
ATOM     65  C   UNL     1      27.194  37.688   9.490  1.00  0.00     0.120 A 
ATOM     66  C   UNL     1      26.118  38.524   9.672  1.00  0.00     0.138 A 
ATOM     67  N   UNL     1      27.398  37.090  10.670  1.00  0.00    -0.132 NA
ATOM     68  N   UNL     1      25.699  38.419  10.934  1.00  0.00    -0.248 N 
ATOM     69  N   UNL     1      26.513  37.523  11.523  1.00  0.00    -0.067 NA
BRANCH  68  70
ATOM     70  C   UNL     1      24.613  39.093  11.620  1.00  0.00     0.185 C 
BRANCH  70  71
ATOM     71  C   UNL     1      23.360  39.022  10.862  1.00  0.00     0.016 A 
ATOM     72  C   UNL     1      22.586  37.913  10.853  1.00  0.00     0.135 A 
ATOM     73  C   UNL     1      22.987  40.166  10.150  1.00  0.00     0.009 A 
ATOM     74  C   UNL     1      21.399  37.926  10.118  1.00  0.00     0.047 A 
ATOM     75  C   UNL     1      21.819  40.166   9.432  1.00  0.00     0.001 A 
ATOM     76  C   UNL     1      21.016  39.049   9.410  1.00  0.00     0.004 A 
BRANCH  72  77
ATOM     77  O   UNL     1      22.914  36.761  11.536  1.00  0.00    -0.426 OA
BRANCH  77  78
ATOM     78  C   UNL     1      23.027  35.575  10.803  1.00  0.00     0.308 C 
ATOM     79  O   UNL     1      22.339  34.588  11.145  1.00  0.00    -0.252 OA
ATOM     80  C   UNL     1      23.938  35.508   9.657  1.00  0.00     0.139 C 
ENDBRANCH  77  78
ENDBRANCH  72  77
ENDBRANCH  70  71
ENDBRANCH  68  70
ENDBRANCH  64  65
ENDBRANCH  63  64
ENDBRANCH  60  63
ENDBRANCH  58  59
ENDBRANCH  55  58
ENDBRANCH   1  55
TORSDOF 33
BEGIN_RES LYS A 131
REMARK  4 active torsions:
REMARK  status: ('A' for Active; 'I' for Inactive)
REMARK    1  A    between atoms: CA   and  CB  
REMARK    2  A    between atoms: CB   and  CG  
REMARK    3  A    between atoms: CG   and  CD  
REMARK    4  A    between atoms: CD   and  CE  
ROOT
ATOM      1  CA  LYS A 131      29.867  25.555  16.977  1.00 20.52     0.186 C 
ENDROOT
BRANCH   1   2
ATOM      2  CB  LYS A 131      28.345  25.722  17.026  1.00 20.94     0.034 C 
BRANCH   2   3
ATOM      3  CG  LYS A 131      27.601  24.402  16.893  1.00 22.96     0.005 C 
BRANCH   3   4
ATOM      4  CD  LYS A 131      26.635  24.180  18.023  1.00 24.33     0.041 C 
BRANCH   4   5
ATOM      5  CE  LYS A 131      25.535  23.225  17.572  1.00 26.91     0.338 C 
ATOM      6  NZ  LYS A 131      24.452  23.968  16.886  1.00 27.40     0.618 N 
ENDBRANCH   4   5
ENDBRANCH   3   4
ENDBRANCH   2   3
ENDBRANCH   1   2
END_RES LYS A 131
BEGIN_RES LYS A 135
REMARK  4 active torsions:
REMARK  status: ('A' for Active; 'I' for Inactive)
REMARK    5  A    between atoms: CA   and  CB  
REMARK    6  A    between atoms: CB   and  CG  
REMARK    7  A    between atoms: CG   and  CD  
REMARK    8  A    between atoms: CD   and  CE  
ROOT
ATOM      7  CA  LYS A 135      33.193  34.663   9.290  1.00 25.02     0.186 C 
ENDROOT
BRANCH   7   8
ATOM      8  CB  LYS A 135      32.060  35.360  10.034  1.00 26.63     0.034 C 
BRANCH   8   9
ATOM      9  CG  LYS A 135      30.745  35.325   9.299  1.00 29.45     0.005 C 
BRANCH   9  10
ATOM     10  CD  LYS A 135      29.722  34.504  10.067  1.00 32.00     0.041 C 
BRANCH  10  11
ATOM     11  CE  LYS A 135      28.642  33.990   9.135  1.00 34.25     0.338 C 
ATOM     12  NZ  LYS A 135      27.360  33.780   9.863  1.00 35.99     0.618 N 
ENDBRANCH  10  11
ENDBRANCH   9  10
ENDBRANCH   8   9
ENDBRANCH   7   8
END_RES LYS A 135
