REMARK VINA RESULT:    -4.929      3.053      8.988
REMARK INTER + INTRA:         -23.370
REMARK INTER:                 -13.310
REMARK INTRA:                 -10.060
REMARK UNBOUND:               -10.372
REMARK SMILES CC(=O)N[C@@H]1[C@@H](O)C[C@](OC[C@H]2O[C@@H](O[C@H]3[C@H](O)[C@@H](O)[C@H](OCCN=[N+]=[N-])O[C@@H]3CO)[C@H](O)[C@@H](O)[C@H]2O)(C(=O)O)O[C@H]1C(O)[C@H](O)CNC(=O)OCc1cn(CC(=O)NCc2cccs2)nn1
REMARK SMILES IDX 43 1 42 2 9 3 8 4 41 5 6 6 5 7 10 8 11 9 12 10 14 11 13 12
REMARK SMILES IDX 32 13 34 14 36 15 15 16 16 17 29 18 28 19 21 20 17 21 19 22
REMARK SMILES IDX 30 23 31 24 22 26 23 27 24 28 25 29 26 30 27 31 18 32 20 34
REMARK SMILES IDX 33 36 35 38 37 40 38 42 39 43 40 44 7 46 4 48 2 49 1 51 3 52
REMARK SMILES IDX 44 53 45 55 46 56 47 58 48 59 49 60 50 62 51 63 52 64 53 65
REMARK SMILES IDX 54 66 67 67 55 68 66 69 56 70 57 71 58 72 59 73 60 75 61 76
REMARK SMILES IDX 62 77 65 78 63 79 64 80
REMARK H PARENT 31 25 18 33 20 35 33 37 35 39 37 41 40 45 7 47 4 50 44 54
REMARK H PARENT 46 57 48 61 59 74
REMARK Flexibility Score: inf
ROOT
ATOM      1  C   UNL     1      20.211  35.001  11.824  1.00  0.00     0.176 C 
ENDROOT
BRANCH   1   2
ATOM      2  C   UNL     1      19.610  34.830  10.454  1.00  0.00     0.178 C 
ATOM      3  C   UNL     1      19.405  36.840   9.224  1.00  0.00     0.272 C 
ATOM      4  C   UNL     1      18.063  37.055   9.942  1.00  0.00     0.113 C 
ATOM      5  O   UNL     1      20.115  35.789   9.646  1.00  0.00    -0.332 OA
ATOM      6  C   UNL     1      17.331  35.775   9.965  1.00  0.00     0.145 C 
ATOM      7  C   UNL     1      18.151  34.593  10.409  1.00  0.00     0.142 C 
BRANCH   3   8
ATOM      8  O   UNL     1      20.083  38.018   9.429  1.00  0.00    -0.338 OA
BRANCH   8   9
ATOM      9  C   UNL     1      21.211  38.059  10.142  1.00  0.00     0.199 C 
BRANCH   9  10
ATOM     10  C   UNL     1      22.483  38.529   9.498  1.00  0.00     0.179 C 
ATOM     11  C   UNL     1      24.673  38.778  10.140  1.00  0.00     0.282 C 
ATOM     12  O   UNL     1      23.517  38.004  10.313  1.00  0.00    -0.341 OA
ATOM     13  C   UNL     1      24.934  39.071   8.701  1.00  0.00     0.202 C 
ATOM     14  C   UNL     1      24.146  38.258   7.728  1.00  0.00     0.179 C 
ATOM     15  C   UNL     1      22.747  37.922   8.137  1.00  0.00     0.177 C 
BRANCH  11  16
ATOM     16  O   UNL     1      25.774  38.222  10.731  1.00  0.00    -0.341 OA
BRANCH  16  17
ATOM     17  C   UNL     1      25.511  37.009  11.365  1.00  0.00     0.184 C 
ATOM     18  C   UNL     1      25.904  36.973  12.776  1.00  0.00     0.178 C 
ATOM     19  O   UNL     1      26.963  36.186  13.142  1.00  0.00    -0.341 OA
ATOM     20  C   UNL     1      27.735  35.653  12.161  1.00  0.00     0.281 C 
ATOM     21  C   UNL     1      26.036  35.918  10.477  1.00  0.00     0.180 C 
ATOM     22  C   UNL     1      26.798  34.859  11.234  1.00  0.00     0.202 C 
BRANCH  18  23
ATOM     23  C   UNL     1      24.727  36.475  13.640  1.00  0.00     0.191 C 
BRANCH  23  24
ATOM     24  O   UNL     1      23.580  37.210  13.436  1.00  0.00    -0.394 OA
ATOM     25  H   UNL     1      23.368  37.689  14.282  1.00  0.00     0.210 HD
ENDBRANCH  23  24
ENDBRANCH  18  23
BRANCH  20  26
ATOM     26  O   UNL     1      28.563  34.670  12.729  1.00  0.00    -0.350 OA
BRANCH  26  27
ATOM     27  C   UNL     1      29.477  35.213  13.609  1.00  0.00     0.169 C 
BRANCH  27  28
ATOM     28  C   UNL     1      30.470  36.034  12.779  1.00  0.00     0.119 C 
BRANCH  28  29
ATOM     29  N   UNL     1      31.751  35.345  12.749  1.00  0.00    -0.092 NA
ATOM     30  N   UNL     1      32.444  35.307  13.764  1.00  0.00     0.001 N 
ATOM     31  N   UNL     1      33.091  35.062  14.800  1.00  0.00    -0.003 NA
ENDBRANCH  28  29
ENDBRANCH  27  28
ENDBRANCH  26  27
ENDBRANCH  20  26
BRANCH  21  32
ATOM     32  O   UNL     1      25.048  35.345   9.671  1.00  0.00    -0.387 OA
ATOM     33  H   UNL     1      24.131  35.540  10.035  1.00  0.00     0.211 HD
ENDBRANCH  21  32
BRANCH  22  34
ATOM     34  O   UNL     1      27.522  34.112  10.326  1.00  0.00    -0.385 OA
ATOM     35  H   UNL     1      28.103  34.695   9.774  1.00  0.00     0.211 HD
ENDBRANCH  22  34
ENDBRANCH  16  17
ENDBRANCH  11  16
BRANCH  13  36
ATOM     36  O   UNL     1      24.779  40.447   8.413  1.00  0.00    -0.385 OA
ATOM     37  H   UNL     1      24.073  40.633   7.775  1.00  0.00     0.211 HD
ENDBRANCH  13  36
BRANCH  14  38
ATOM     38  O   UNL     1      24.868  37.104   7.346  1.00  0.00    -0.387 OA
ATOM     39  H   UNL     1      24.447  36.302   7.742  1.00  0.00     0.211 HD
ENDBRANCH  14  38
BRANCH  15  40
ATOM     40  O   UNL     1      22.695  36.513   8.255  1.00  0.00    -0.387 OA
ATOM     41  H   UNL     1      22.042  36.112   7.638  1.00  0.00     0.211 HD
ENDBRANCH  15  40
ENDBRANCH   9  10
ENDBRANCH   8   9
ENDBRANCH   3   8
BRANCH   3  42
ATOM     42  C   UNL     1      19.027  36.670   7.786  1.00  0.00     0.364 C 
ATOM     43  O   UNL     1      18.338  37.485   7.132  1.00  0.00    -0.246 OA
BRANCH  42  44
ATOM     44  O   UNL     1      19.459  35.539   7.103  1.00  0.00    -0.477 OA
ATOM     45  H   UNL     1      19.450  34.633   7.554  1.00  0.00     0.296 HD
ENDBRANCH  42  44
ENDBRANCH   3  42
BRANCH   6  46
ATOM     46  O   UNL     1      16.165  35.917  10.772  1.00  0.00    -0.391 OA
ATOM     47  H   UNL     1      16.159  36.781  11.240  1.00  0.00     0.211 HD
ENDBRANCH   6  46
BRANCH   7  48
ATOM     48  N   UNL     1      17.817  33.413   9.635  1.00  0.00    -0.348 N 
ATOM     49  C   UNL     1      17.638  32.170  10.277  1.00  0.00     0.217 C 
ATOM     50  H   UNL     1      17.704  33.447   8.588  1.00  0.00     0.163 HD
ATOM     51  C   UNL     1      17.295  30.967   9.464  1.00  0.00     0.114 C 
ATOM     52  O   UNL     1      17.751  32.000  11.514  1.00  0.00    -0.275 OA
ENDBRANCH   7  48
ENDBRANCH   1   2
BRANCH   1  53
ATOM     53  O   UNL     1      19.560  34.363  12.841  1.00  0.00    -0.388 OA
ATOM     54  H   UNL     1      19.754  34.675  13.750  1.00  0.00     0.211 HD
ENDBRANCH   1  53
BRANCH   1  55
ATOM     55  C   UNL     1      21.715  34.849  11.888  1.00  0.00     0.165 C 
BRANCH  55  56
ATOM     56  O   UNL     1      22.287  34.585  10.680  1.00  0.00    -0.388 OA
ATOM     57  H   UNL     1      22.396  35.362  10.089  1.00  0.00     0.211 HD
ENDBRANCH  55  56
BRANCH  55  58
ATOM     58  C   UNL     1      22.090  33.796  12.916  1.00  0.00     0.154 C 
BRANCH  58  59
ATOM     59  N   UNL     1      22.077  32.466  12.386  1.00  0.00    -0.319 N 
ATOM     60  C   UNL     1      21.200  31.413  12.746  1.00  0.00     0.407 C 
ATOM     61  H   UNL     1      22.789  32.173  11.624  1.00  0.00     0.167 HD
ATOM     62  O   UNL     1      20.316  31.557  13.589  1.00  0.00    -0.225 OA
BRANCH  60  63
ATOM     63  O   UNL     1      21.302  30.140  12.150  1.00  0.00    -0.443 OA
BRANCH  63  64
ATOM     64  C   UNL     1      22.296  29.206  12.423  1.00  0.00     0.294 C 
BRANCH  64  65
ATOM     65  C   UNL     1      23.332  29.663  13.359  1.00  0.00     0.120 A 
ATOM     66  C   UNL     1      23.439  29.352  14.696  1.00  0.00     0.138 A 
ATOM     67  N   UNL     1      24.385  30.477  13.080  1.00  0.00    -0.132 NA
ATOM     68  N   UNL     1      24.523  29.964  15.191  1.00  0.00    -0.243 N 
ATOM     69  N   UNL     1      25.065  30.627  14.197  1.00  0.00    -0.067 NA
BRANCH  68  70
ATOM     70  C   UNL     1      25.077  29.959  16.527  1.00  0.00     0.245 C 
BRANCH  70  71
ATOM     71  C   UNL     1      26.501  29.588  16.441  1.00  0.00     0.242 C 
ATOM     72  O   UNL     1      26.899  28.508  16.914  1.00  0.00    -0.273 OA
ATOM     73  N   UNL     1      27.433  30.455  15.819  1.00  0.00    -0.350 N 
ATOM     74  H   UNL     1      27.136  31.383  15.405  1.00  0.00     0.163 HD
BRANCH  73  75
ATOM     75  C   UNL     1      28.822  30.131  15.713  1.00  0.00     0.162 C 
BRANCH  75  76
ATOM     76  C   UNL     1      29.611  31.142  16.431  1.00  0.00     0.024 A 
ATOM     77  C   UNL     1      29.743  31.409  17.755  1.00  0.00     0.017 A 
ATOM     78  S   UNL     1      30.659  32.329  15.669  1.00  0.00    -0.147 S 
ATOM     79  C   UNL     1      30.550  32.406  18.149  1.00  0.00     0.012 A 
ATOM     80  C   UNL     1      31.221  33.132  17.237  1.00  0.00     0.065 A 
ENDBRANCH  75  76
ENDBRANCH  73  75
ENDBRANCH  70  71
ENDBRANCH  68  70
ENDBRANCH  64  65
ENDBRANCH  63  64
ENDBRANCH  60  63
ENDBRANCH  58  59
ENDBRANCH  55  58
ENDBRANCH   1  55
TORSDOF 33
BEGIN_RES LYS A 131
REMARK  4 active torsions:
REMARK  status: ('A' for Active; 'I' for Inactive)
REMARK    1  A    between atoms: CA   and  CB  
REMARK    2  A    between atoms: CB   and  CG  
REMARK    3  A    between atoms: CG   and  CD  
REMARK    4  A    between atoms: CD   and  CE  
ROOT
ATOM      1  CA  LYS A 131      29.867  25.555  16.977  1.00 20.52     0.186 C 
ENDROOT
BRANCH   1   2
ATOM      2  CB  LYS A 131      28.345  25.722  17.026  1.00 20.94     0.034 C 
BRANCH   2   3
ATOM      3  CG  LYS A 131      27.603  24.395  16.985  1.00 22.96     0.005 C 
BRANCH   3   4
ATOM      4  CD  LYS A 131      26.449  24.361  17.948  1.00 24.33     0.041 C 
BRANCH   4   5
ATOM      5  CE  LYS A 131      25.415  23.348  17.468  1.00 26.91     0.338 C 
ATOM      6  NZ  LYS A 131      24.393  23.113  18.515  1.00 27.40     0.618 N 
ENDBRANCH   4   5
ENDBRANCH   3   4
ENDBRANCH   2   3
ENDBRANCH   1   2
END_RES LYS A 131
BEGIN_RES LYS A 135
REMARK  4 active torsions:
REMARK  status: ('A' for Active; 'I' for Inactive)
REMARK    5  A    between atoms: CA   and  CB  
REMARK    6  A    between atoms: CB   and  CG  
REMARK    7  A    between atoms: CG   and  CD  
REMARK    8  A    between atoms: CD   and  CE  
ROOT
ATOM      7  CA  LYS A 135      33.193  34.663   9.290  1.00 25.02     0.186 C 
ENDROOT
BRANCH   7   8
ATOM      8  CB  LYS A 135      32.060  35.360  10.034  1.00 26.63     0.034 C 
BRANCH   8   9
ATOM      9  CG  LYS A 135      30.737  35.295   9.315  1.00 29.45     0.005 C 
BRANCH   9  10
ATOM     10  CD  LYS A 135      30.302  36.681   8.865  1.00 32.00     0.041 C 
BRANCH  10  11
ATOM     11  CE  LYS A 135      28.929  36.626   8.223  1.00 34.25     0.338 C 
ATOM     12  NZ  LYS A 135      28.233  37.938   8.331  1.00 35.99     0.618 N 
ENDBRANCH  10  11
ENDBRANCH   9  10
ENDBRANCH   8   9
ENDBRANCH   7   8
END_RES LYS A 135
