REMARK VINA RESULT:    -3.957      3.407      8.137
REMARK INTER + INTRA:         -22.356
REMARK INTER:                  -9.946
REMARK INTRA:                 -12.410
REMARK UNBOUND:               -12.269
REMARK SMILES CC(=O)N[C@@H]1[C@@H](O)C[C@](OC[C@H]2O[C@@H](O[C@H]3[C@H](O)[C@@H](O)[C@H](OCCN=[N+]=[N-])O[C@@H]3CO)[C@H](O)[C@@H](O)[C@H]2O)(C(=O)O)O[C@H]1C(O)[C@H](O)CNC(=O)OCc1cn(-c2cccc(S(N)(=O)=O)c2)nn1
REMARK SMILES IDX 9 1 8 2 6 3 5 4 42 5 41 6 10 7 11 8 12 9 14 10 13 11 32 12
REMARK SMILES IDX 34 13 36 14 15 15 16 16 29 17 28 18 21 19 17 20 19 21 30 22
REMARK SMILES IDX 31 23 22 25 23 26 24 27 25 28 26 29 27 30 18 31 20 33 33 35
REMARK SMILES IDX 35 37 37 39 38 41 39 42 40 43 7 45 43 47 44 48 45 50 46 51
REMARK SMILES IDX 47 53 48 54 49 55 50 57 51 58 52 59 53 60 54 61 67 62 55 63
REMARK SMILES IDX 66 64 56 65 65 66 57 67 60 68 58 69 59 70 61 71 63 72 64 73
REMARK SMILES IDX 62 74 4 77 2 78 1 80 3 81
REMARK H PARENT 31 24 18 32 20 34 33 36 35 38 37 40 40 44 7 46 44 49 46 52
REMARK H PARENT 48 56 62 75 62 76 4 79
REMARK Flexibility Score: inf
ROOT
ATOM      1  C   UNL     1      25.724  38.261   8.149  1.00  0.00     0.272 C 
ATOM      2  C   UNL     1      26.394  37.533   6.968  1.00  0.00     0.113 C 
ATOM      3  C   UNL     1      26.924  38.564   6.034  1.00  0.00     0.145 C 
ATOM      4  C   UNL     1      27.902  39.451   6.719  1.00  0.00     0.142 C 
ATOM      5  C   UNL     1      27.594  39.663   8.158  1.00  0.00     0.178 C 
ATOM      6  O   UNL     1      26.649  38.963   8.797  1.00  0.00    -0.332 OA
ENDROOT
BRANCH   1   7
ATOM      7  O   UNL     1      25.234  37.186   8.939  1.00  0.00    -0.338 OA
BRANCH   7   8
ATOM      8  C   UNL     1      26.275  36.368   9.257  1.00  0.00     0.199 C 
BRANCH   8   9
ATOM      9  C   UNL     1      26.344  36.048  10.734  1.00  0.00     0.179 C 
ATOM     10  C   UNL     1      27.568  34.858  12.180  1.00  0.00     0.282 C 
ATOM     11  O   UNL     1      27.655  35.835  11.156  1.00  0.00    -0.341 OA
ATOM     12  C   UNL     1      26.507  35.183  13.166  1.00  0.00     0.202 C 
ATOM     13  C   UNL     1      25.946  36.579  13.066  1.00  0.00     0.179 C 
ATOM     14  C   UNL     1      25.709  37.032  11.637  1.00  0.00     0.177 C 
BRANCH  10  15
ATOM     15  O   UNL     1      28.806  34.557  12.687  1.00  0.00    -0.341 OA
BRANCH  15  16
ATOM     16  C   UNL     1      29.266  35.407  13.665  1.00  0.00     0.184 C 
ATOM     17  C   UNL     1      30.585  35.998  13.228  1.00  0.00     0.178 C 
ATOM     18  O   UNL     1      31.495  36.030  14.292  1.00  0.00    -0.341 OA
ATOM     19  C   UNL     1      31.927  34.744  14.516  1.00  0.00     0.281 C 
ATOM     20  C   UNL     1      29.429  34.582  14.922  1.00  0.00     0.180 C 
ATOM     21  C   UNL     1      30.777  33.947  15.043  1.00  0.00     0.202 C 
BRANCH  17  22
ATOM     22  C   UNL     1      30.479  37.397  12.710  1.00  0.00     0.191 C 
BRANCH  22  23
ATOM     23  O   UNL     1      29.135  37.760  12.494  1.00  0.00    -0.394 OA
ATOM     24  H   UNL     1      29.064  38.694  12.184  1.00  0.00     0.210 HD
ENDBRANCH  22  23
ENDBRANCH  17  22
BRANCH  19  25
ATOM     25  O   UNL     1      32.971  34.683  15.439  1.00  0.00    -0.350 OA
BRANCH  25  26
ATOM     26  C   UNL     1      33.583  35.879  15.700  1.00  0.00     0.169 C 
BRANCH  26  27
ATOM     27  C   UNL     1      34.278  35.951  17.043  1.00  0.00     0.119 C 
BRANCH  27  28
ATOM     28  N   UNL     1      35.610  36.510  16.921  1.00  0.00    -0.092 NA
ATOM     29  N   UNL     1      36.587  35.829  16.619  1.00  0.00     0.001 N 
ATOM     30  N   UNL     1      37.618  35.245  16.338  1.00  0.00    -0.003 NA
ENDBRANCH  27  28
ENDBRANCH  26  27
ENDBRANCH  25  26
ENDBRANCH  19  25
BRANCH  20  31
ATOM     31  O   UNL     1      29.259  35.428  16.033  1.00  0.00    -0.387 OA
ATOM     32  H   UNL     1      29.906  36.176  16.036  1.00  0.00     0.211 HD
ENDBRANCH  20  31
BRANCH  21  33
ATOM     33  O   UNL     1      30.787  32.700  14.375  1.00  0.00    -0.385 OA
ATOM     34  H   UNL     1      30.726  32.002  15.068  1.00  0.00     0.211 HD
ENDBRANCH  21  33
ENDBRANCH  15  16
ENDBRANCH  10  15
BRANCH  12  35
ATOM     35  O   UNL     1      25.460  34.229  13.192  1.00  0.00    -0.385 OA
ATOM     36  H   UNL     1      25.002  34.363  12.302  1.00  0.00     0.211 HD
ENDBRANCH  12  35
BRANCH  13  37
ATOM     37  O   UNL     1      26.669  37.484  13.820  1.00  0.00    -0.387 OA
ATOM     38  H   UNL     1      26.337  37.384  14.769  1.00  0.00     0.211 HD
ENDBRANCH  13  37
BRANCH  14  39
ATOM     39  O   UNL     1      26.353  38.266  11.488  1.00  0.00    -0.387 OA
ATOM     40  H   UNL     1      27.337  38.166  11.438  1.00  0.00     0.211 HD
ENDBRANCH  14  39
ENDBRANCH   8   9
ENDBRANCH   7   8
ENDBRANCH   1   7
BRANCH   1  41
ATOM     41  C   UNL     1      24.582  39.005   7.564  1.00  0.00     0.364 C 
ATOM     42  O   UNL     1      23.610  38.325   7.068  1.00  0.00    -0.246 OA
BRANCH  41  43
ATOM     43  O   UNL     1      24.438  40.359   7.491  1.00  0.00    -0.477 OA
ATOM     44  H   UNL     1      24.413  40.965   8.321  1.00  0.00     0.296 HD
ENDBRANCH  41  43
ENDBRANCH   1  41
BRANCH   3  45
ATOM     45  O   UNL     1      27.549  37.839   4.980  1.00  0.00    -0.391 OA
ATOM     46  H   UNL     1      26.807  37.703   4.312  1.00  0.00     0.211 HD
ENDBRANCH   3  45
BRANCH   5  47
ATOM     47  C   UNL     1      28.929  39.561   8.935  1.00  0.00     0.176 C 
BRANCH  47  48
ATOM     48  O   UNL     1      28.845  38.498   9.814  1.00  0.00    -0.388 OA
ATOM     49  H   UNL     1      28.056  37.937   9.729  1.00  0.00     0.211 HD
ENDBRANCH  47  48
BRANCH  47  50
ATOM     50  C   UNL     1      29.290  40.870   9.522  1.00  0.00     0.165 C 
BRANCH  50  51
ATOM     51  O   UNL     1      30.463  41.329   8.926  1.00  0.00    -0.388 OA
ATOM     52  H   UNL     1      31.082  40.545   8.946  1.00  0.00     0.211 HD
ENDBRANCH  50  51
BRANCH  50  53
ATOM     53  C   UNL     1      29.545  40.788  11.018  1.00  0.00     0.154 C 
BRANCH  53  54
ATOM     54  N   UNL     1      28.286  40.519  11.671  1.00  0.00    -0.319 N 
ATOM     55  C   UNL     1      28.133  40.835  13.073  1.00  0.00     0.407 C 
ATOM     56  H   UNL     1      27.471  40.095  11.173  1.00  0.00     0.167 HD
ATOM     57  O   UNL     1      29.078  41.340  13.732  1.00  0.00    -0.225 OA
BRANCH  55  58
ATOM     58  O   UNL     1      26.903  40.556  13.633  1.00  0.00    -0.443 OA
BRANCH  58  59
ATOM     59  C   UNL     1      25.838  41.454  13.533  1.00  0.00     0.294 C 
BRANCH  59  60
ATOM     60  C   UNL     1      24.996  41.180  12.359  1.00  0.00     0.121 A 
ATOM     61  C   UNL     1      23.855  40.364  12.391  1.00  0.00     0.144 A 
ATOM     62  N   UNL     1      25.115  41.608  11.109  1.00  0.00    -0.131 NA
ATOM     63  N   UNL     1      23.351  40.346  11.162  1.00  0.00    -0.220 N 
ATOM     64  N   UNL     1      24.116  41.093  10.416  1.00  0.00    -0.062 NA
BRANCH  63  65
ATOM     65  C   UNL     1      22.168  39.623  10.796  1.00  0.00     0.068 A 
ATOM     66  C   UNL     1      22.305  38.398  10.138  1.00  0.00     0.050 A 
ATOM     67  C   UNL     1      20.930  40.113  11.082  1.00  0.00     0.028 A 
ATOM     68  C   UNL     1      21.204  37.667   9.768  1.00  0.00     0.084 A 
ATOM     69  C   UNL     1      19.833  39.399  10.721  1.00  0.00     0.004 A 
ATOM     70  C   UNL     1      19.945  38.172  10.062  1.00  0.00     0.022 A 
BRANCH  68  71
ATOM     71  S   UNL     1      21.301  36.134   8.949  1.00  0.00     0.238 S 
ATOM     72  O   UNL     1      20.108  35.306   9.336  1.00  0.00    -0.207 OA
ATOM     73  O   UNL     1      22.543  35.406   9.349  1.00  0.00    -0.207 OA
BRANCH  71  74
ATOM     74  N   UNL     1      21.296  36.422   7.233  1.00  0.00    -0.225 NA
ATOM     75  H   UNL     1      21.701  37.369   7.057  1.00  0.00     0.137 HD
ATOM     76  H   UNL     1      20.351  36.279   6.820  1.00  0.00     0.137 HD
ENDBRANCH  71  74
ENDBRANCH  68  71
ENDBRANCH  63  65
ENDBRANCH  59  60
ENDBRANCH  58  59
ENDBRANCH  55  58
ENDBRANCH  53  54
ENDBRANCH  50  53
ENDBRANCH  47  50
ENDBRANCH   5  47
BRANCH   4  77
ATOM     77  N   UNL     1      27.851  40.753   6.034  1.00  0.00    -0.348 N 
ATOM     78  C   UNL     1      29.018  41.469   5.656  1.00  0.00     0.217 C 
ATOM     79  H   UNL     1      26.924  41.172   5.814  1.00  0.00     0.163 HD
ATOM     80  C   UNL     1      28.901  42.777   4.965  1.00  0.00     0.114 C 
ATOM     81  O   UNL     1      30.142  40.956   5.929  1.00  0.00    -0.275 OA
ENDBRANCH   4  77
TORSDOF 32
BEGIN_RES LYS A 131
REMARK  4 active torsions:
REMARK  status: ('A' for Active; 'I' for Inactive)
REMARK    1  A    between atoms: CA   and  CB  
REMARK    2  A    between atoms: CB   and  CG  
REMARK    3  A    between atoms: CG   and  CD  
REMARK    4  A    between atoms: CD   and  CE  
ROOT
ATOM      1  CA  LYS A 131      29.867  25.555  16.977  1.00 20.52     0.186 C 
ENDROOT
BRANCH   1   2
ATOM      2  CB  LYS A 131      28.345  25.722  17.026  1.00 20.94     0.034 C 
BRANCH   2   3
ATOM      3  CG  LYS A 131      27.602  24.399  16.924  1.00 22.96     0.005 C 
BRANCH   3   4
ATOM      4  CD  LYS A 131      26.633  24.205  18.057  1.00 24.33     0.041 C 
BRANCH   4   5
ATOM      5  CE  LYS A 131      26.384  25.541  18.749  1.00 26.91     0.338 C 
ATOM      6  NZ  LYS A 131      24.939  25.870  18.739  1.00 27.40     0.618 N 
ENDBRANCH   4   5
ENDBRANCH   3   4
ENDBRANCH   2   3
ENDBRANCH   1   2
END_RES LYS A 131
BEGIN_RES LYS A 135
REMARK  4 active torsions:
REMARK  status: ('A' for Active; 'I' for Inactive)
REMARK    5  A    between atoms: CA   and  CB  
REMARK    6  A    between atoms: CB   and  CG  
REMARK    7  A    between atoms: CG   and  CD  
REMARK    8  A    between atoms: CD   and  CE  
ROOT
ATOM      7  CA  LYS A 135      33.193  34.663   9.290  1.00 25.02     0.186 C 
ENDROOT
BRANCH   7   8
ATOM      8  CB  LYS A 135      32.060  35.360  10.034  1.00 26.63     0.034 C 
BRANCH   8   9
ATOM      9  CG  LYS A 135      30.711  34.727   9.808  1.00 29.45     0.005 C 
BRANCH   9  10
ATOM     10  CD  LYS A 135      30.444  34.551   8.321  1.00 32.00     0.041 C 
BRANCH  10  11
ATOM     11  CE  LYS A 135      29.538  35.655   7.809  1.00 34.25     0.338 C 
ATOM     12  NZ  LYS A 135      29.061  35.360   6.429  1.00 35.99     0.618 N 
ENDBRANCH  10  11
ENDBRANCH   9  10
ENDBRANCH   8   9
ENDBRANCH   7   8
END_RES LYS A 135
