REMARK VINA RESULT:    -3.170      3.067      6.874
REMARK INTER + INTRA:         -21.597
REMARK INTER:                 -11.494
REMARK INTRA:                 -10.103
REMARK UNBOUND:               -13.239
REMARK SMILES CCOC(=O)Cn1cc(COC(=O)NC[C@@H](O)C(O)[C@@H]2O[C@@](OC[C@H]3O[C@@H](O[C@H]4[C@H](O)[C@@H](O)[C@H](OCCN=[N+]=[N-])O[C@@H]4CO)[C@H](O)[C@@H](O)[C@H]3O)(C(=O)O)C[C@H](O)[C@H]2NC(C)=O)nn1
REMARK SMILES IDX 18 1 20 2 22 3 54 4 21 5 55 6 57 7 23 8 24 9 25 10 27 11
REMARK SMILES IDX 26 12 45 13 47 14 49 15 28 16 29 17 42 18 41 19 34 20 30 21
REMARK SMILES IDX 32 22 43 23 44 24 35 26 36 27 37 28 38 29 39 30 40 31 31 32
REMARK SMILES IDX 33 34 46 36 48 38 50 40 51 42 52 43 53 44 56 46 58 48 59 49
REMARK SMILES IDX 60 51 61 52 19 53 16 55 17 56 15 58 14 59 12 60 13 62 11 63
REMARK SMILES IDX 10 64 9 65 8 66 62 67 7 68 63 69 6 70 4 71 5 72 3 73 2 74
REMARK SMILES IDX 1 75
REMARK H PARENT 44 25 31 33 33 35 46 37 48 39 50 41 53 45 56 47 58 50 19 54
REMARK H PARENT 17 57 14 61
REMARK Flexibility Score: inf
ROOT
ATOM      1  C   UNL     1      30.153  35.765  14.784  1.00  0.00     0.176 C 
ENDROOT
BRANCH   1   2
ATOM      2  C   UNL     1      29.669  37.089  14.261  1.00  0.00     0.178 C 
ATOM      3  C   UNL     1      28.723  38.062  12.357  1.00  0.00     0.272 C 
ATOM      4  C   UNL     1      29.096  39.321  13.061  1.00  0.00     0.113 C 
ATOM      5  O   UNL     1      28.811  36.937  13.204  1.00  0.00    -0.332 OA
ATOM      6  C   UNL     1      30.467  39.306  13.657  1.00  0.00     0.145 C 
ATOM      7  C   UNL     1      30.899  37.857  13.813  1.00  0.00     0.142 C 
BRANCH   3   8
ATOM      8  O   UNL     1      29.423  37.798  11.200  1.00  0.00    -0.338 OA
BRANCH   8   9
ATOM      9  C   UNL     1      29.289  38.649  10.156  1.00  0.00     0.199 C 
BRANCH   9  10
ATOM     10  C   UNL     1      28.763  37.849   8.949  1.00  0.00     0.179 C 
ATOM     11  C   UNL     1      26.894  37.532   7.611  1.00  0.00     0.282 C 
ATOM     12  O   UNL     1      27.420  37.994   8.797  1.00  0.00    -0.341 OA
ATOM     13  C   UNL     1      27.601  38.043   6.393  1.00  0.00     0.202 C 
ATOM     14  C   UNL     1      29.026  37.557   6.476  1.00  0.00     0.179 C 
ATOM     15  C   UNL     1      29.605  38.107   7.736  1.00  0.00     0.177 C 
BRANCH  11  16
ATOM     16  O   UNL     1      25.543  37.804   7.476  1.00  0.00    -0.341 OA
BRANCH  16  17
ATOM     17  C   UNL     1      24.808  37.728   8.631  1.00  0.00     0.184 C 
ATOM     18  C   UNL     1      23.576  36.858   8.504  1.00  0.00     0.178 C 
ATOM     19  O   UNL     1      22.412  37.612   8.540  1.00  0.00    -0.341 OA
ATOM     20  C   UNL     1      22.219  38.231   9.797  1.00  0.00     0.281 C 
ATOM     21  C   UNL     1      24.365  39.131   9.044  1.00  0.00     0.180 C 
ATOM     22  C   UNL     1      23.450  38.952  10.245  1.00  0.00     0.202 C 
BRANCH  18  23
ATOM     23  C   UNL     1      23.615  35.753   9.528  1.00  0.00     0.191 C 
BRANCH  23  24
ATOM     24  O   UNL     1      22.543  34.860   9.342  1.00  0.00    -0.394 OA
ATOM     25  H   UNL     1      22.384  34.323  10.144  1.00  0.00     0.210 HD
ENDBRANCH  23  24
ENDBRANCH  18  23
BRANCH  20  26
ATOM     26  O   UNL     1      21.773  37.322  10.720  1.00  0.00    -0.350 OA
BRANCH  26  27
ATOM     27  C   UNL     1      20.493  37.373  11.160  1.00  0.00     0.169 C 
BRANCH  27  28
ATOM     28  C   UNL     1      19.522  36.349  10.708  1.00  0.00     0.119 C 
BRANCH  28  29
ATOM     29  N   UNL     1      19.017  36.460   9.382  1.00  0.00    -0.092 NA
ATOM     30  N   UNL     1      19.490  35.776   8.449  1.00  0.00     0.001 N 
ATOM     31  N   UNL     1      19.957  34.876   7.729  1.00  0.00    -0.003 NA
ENDBRANCH  28  29
ENDBRANCH  27  28
ENDBRANCH  26  27
ENDBRANCH  20  26
BRANCH  21  32
ATOM     32  O   UNL     1      25.488  39.878   9.411  1.00  0.00    -0.387 OA
ATOM     33  H   UNL     1      25.354  40.801   9.030  1.00  0.00     0.211 HD
ENDBRANCH  21  32
BRANCH  22  34
ATOM     34  O   UNL     1      23.177  40.203  10.807  1.00  0.00    -0.385 OA
ATOM     35  H   UNL     1      22.222  40.336  11.027  1.00  0.00     0.211 HD
ENDBRANCH  22  34
ENDBRANCH  16  17
ENDBRANCH  11  16
BRANCH  13  36
ATOM     36  O   UNL     1      26.979  37.522   5.265  1.00  0.00    -0.385 OA
ATOM     37  H   UNL     1      27.319  36.669   4.957  1.00  0.00     0.211 HD
ENDBRANCH  13  36
BRANCH  14  38
ATOM     38  O   UNL     1      29.726  38.093   5.372  1.00  0.00    -0.387 OA
ATOM     39  H   UNL     1      29.216  37.941   4.537  1.00  0.00     0.211 HD
ENDBRANCH  14  38
BRANCH  15  40
ATOM     40  O   UNL     1      29.808  39.492   7.536  1.00  0.00    -0.387 OA
ATOM     41  H   UNL     1      30.691  39.548   7.078  1.00  0.00     0.211 HD
ENDBRANCH  15  40
ENDBRANCH   9  10
ENDBRANCH   8   9
ENDBRANCH   3   8
BRANCH   3  42
ATOM     42  C   UNL     1      27.277  38.141  12.039  1.00  0.00     0.364 C 
ATOM     43  O   UNL     1      26.682  39.238  12.139  1.00  0.00    -0.246 OA
BRANCH  42  44
ATOM     44  O   UNL     1      26.586  37.032  11.640  1.00  0.00    -0.477 OA
ATOM     45  H   UNL     1      25.987  37.030  10.818  1.00  0.00     0.296 HD
ENDBRANCH  42  44
ENDBRANCH   3  42
BRANCH   6  46
ATOM     46  O   UNL     1      31.402  40.059  12.988  1.00  0.00    -0.391 OA
ATOM     47  H   UNL     1      31.321  41.008  13.287  1.00  0.00     0.211 HD
ENDBRANCH   6  46
BRANCH   7  48
ATOM     48  N   UNL     1      31.977  37.744  14.786  1.00  0.00    -0.348 N 
ATOM     49  C   UNL     1      31.898  38.335  16.070  1.00  0.00     0.217 C 
ATOM     50  H   UNL     1      32.824  37.210  14.530  1.00  0.00     0.163 HD
ATOM     51  C   UNL     1      32.996  38.227  17.076  1.00  0.00     0.114 C 
ATOM     52  O   UNL     1      30.853  38.977  16.364  1.00  0.00    -0.275 OA
ENDBRANCH   7  48
ENDBRANCH   1   2
BRANCH   1  53
ATOM     53  O   UNL     1      29.248  35.232  15.679  1.00  0.00    -0.388 OA
ATOM     54  H   UNL     1      29.530  34.347  16.050  1.00  0.00     0.211 HD
ENDBRANCH   1  53
BRANCH   1  55
ATOM     55  C   UNL     1      30.408  34.749  13.684  1.00  0.00     0.165 C 
BRANCH  55  56
ATOM     56  O   UNL     1      29.278  34.054  13.322  1.00  0.00    -0.388 OA
ATOM     57  H   UNL     1      29.255  33.789  12.374  1.00  0.00     0.211 HD
ENDBRANCH  55  56
BRANCH  55  58
ATOM     58  C   UNL     1      31.499  33.833  14.130  1.00  0.00     0.154 C 
BRANCH  58  59
ATOM     59  N   UNL     1      31.057  32.646  14.771  1.00  0.00    -0.319 N 
ATOM     60  C   UNL     1      31.073  32.411  16.172  1.00  0.00     0.407 C 
ATOM     61  H   UNL     1      30.668  31.828  14.182  1.00  0.00     0.167 HD
ATOM     62  O   UNL     1      31.486  33.261  16.978  1.00  0.00    -0.225 OA
BRANCH  60  63
ATOM     63  O   UNL     1      30.603  31.181  16.665  1.00  0.00    -0.443 OA
BRANCH  63  64
ATOM     64  C   UNL     1      29.311  30.750  16.394  1.00  0.00     0.294 C 
BRANCH  64  65
ATOM     65  C   UNL     1      28.291  31.813  16.472  1.00  0.00     0.120 A 
ATOM     66  C   UNL     1      27.316  32.086  15.531  1.00  0.00     0.139 A 
ATOM     67  N   UNL     1      28.112  32.719  17.442  1.00  0.00    -0.132 NA
ATOM     68  N   UNL     1      26.576  33.141  15.947  1.00  0.00    -0.241 N 
ATOM     69  N   UNL     1      27.085  33.496  17.107  1.00  0.00    -0.066 NA
BRANCH  68  70
ATOM     70  C   UNL     1      25.460  33.714  15.205  1.00  0.00     0.268 C 
BRANCH  70  71
ATOM     71  C   UNL     1      26.041  34.672  14.196  1.00  0.00     0.327 C 
ATOM     72  O   UNL     1      26.222  34.351  13.006  1.00  0.00    -0.250 OA
BRANCH  71  73
ATOM     73  O   UNL     1      26.399  35.959  14.558  1.00  0.00    -0.465 OA
BRANCH  73  74
ATOM     74  C   UNL     1      25.804  36.692  15.589  1.00  0.00     0.229 C 
ATOM     75  C   UNL     1      26.158  38.158  15.549  1.00  0.00     0.049 C 
ENDBRANCH  73  74
ENDBRANCH  71  73
ENDBRANCH  70  71
ENDBRANCH  68  70
ENDBRANCH  64  65
ENDBRANCH  63  64
ENDBRANCH  60  63
ENDBRANCH  58  59
ENDBRANCH  55  58
ENDBRANCH   1  55
TORSDOF 33
BEGIN_RES LYS A 131
REMARK  4 active torsions:
REMARK  status: ('A' for Active; 'I' for Inactive)
REMARK    1  A    between atoms: CA   and  CB  
REMARK    2  A    between atoms: CB   and  CG  
REMARK    3  A    between atoms: CG   and  CD  
REMARK    4  A    between atoms: CD   and  CE  
ROOT
ATOM      1  CA  LYS A 131      29.867  25.555  16.977  1.00 20.52     0.186 C 
ENDROOT
BRANCH   1   2
ATOM      2  CB  LYS A 131      28.345  25.722  17.026  1.00 20.94     0.034 C 
BRANCH   2   3
ATOM      3  CG  LYS A 131      27.601  24.402  16.892  1.00 22.96     0.005 C 
BRANCH   3   4
ATOM      4  CD  LYS A 131      26.152  24.527  17.273  1.00 24.33     0.041 C 
BRANCH   4   5
ATOM      5  CE  LYS A 131      25.636  23.178  17.761  1.00 26.91     0.338 C 
ATOM      6  NZ  LYS A 131      25.514  23.172  19.238  1.00 27.40     0.618 N 
ENDBRANCH   4   5
ENDBRANCH   3   4
ENDBRANCH   2   3
ENDBRANCH   1   2
END_RES LYS A 131
BEGIN_RES LYS A 135
REMARK  4 active torsions:
REMARK  status: ('A' for Active; 'I' for Inactive)
REMARK    5  A    between atoms: CA   and  CB  
REMARK    6  A    between atoms: CB   and  CG  
REMARK    7  A    between atoms: CG   and  CD  
REMARK    8  A    between atoms: CD   and  CE  
ROOT
ATOM      7  CA  LYS A 135      33.193  34.663   9.290  1.00 25.02     0.186 C 
ENDROOT
BRANCH   7   8
ATOM      8  CB  LYS A 135      32.060  35.360  10.034  1.00 26.63     0.034 C 
BRANCH   8   9
ATOM      9  CG  LYS A 135      30.749  34.620   9.965  1.00 29.45     0.005 C 
BRANCH   9  10
ATOM     10  CD  LYS A 135      30.325  34.413   8.519  1.00 32.00     0.041 C 
BRANCH  10  11
ATOM     11  CE  LYS A 135      28.815  34.322   8.414  1.00 34.25     0.338 C 
ATOM     12  NZ  LYS A 135      28.191  34.190   9.760  1.00 35.99     0.618 N 
ENDBRANCH  10  11
ENDBRANCH   9  10
ENDBRANCH   8   9
ENDBRANCH   7   8
END_RES LYS A 135
