REMARK VINA RESULT:    -7.257      3.629      9.235
REMARK INTER + INTRA:         -20.766
REMARK INTER:                 -10.747
REMARK INTRA:                 -10.019
REMARK UNBOUND:                -1.206
REMARK SMILES CC(=O)N[C@@H]1[C@@H](O)C[C@](OC[C@H]2O[C@@H](O[C@H]3[C@H](O)[C@@H](O)[C@H](OCCN=[N+]=[N-])O[C@@H]3CO)[C@H](O)[C@@H](O)[C@H]2O)(C(=O)O)O[C@H]1C(O)[C@H](O)CNC(=O)OCc1cn(C2CCc3ccccc3NC2=O)nn1
REMARK SMILES IDX 43 1 42 2 9 3 8 4 41 5 6 6 5 7 10 8 11 9 12 10 14 11 13 12
REMARK SMILES IDX 32 13 34 14 36 15 15 16 16 17 29 18 28 19 21 20 17 21 19 22
REMARK SMILES IDX 30 23 31 24 22 26 23 27 24 28 25 29 26 30 27 31 18 32 20 34
REMARK SMILES IDX 33 36 35 38 37 40 38 42 39 43 40 44 7 46 4 48 2 49 1 51 3 52
REMARK SMILES IDX 44 53 45 55 46 56 47 58 48 59 49 60 50 62 51 63 52 64 53 65
REMARK SMILES IDX 54 66 69 67 55 68 68 69 56 70 57 71 66 73 65 74 67 75 64 77
REMARK SMILES IDX 59 78 63 79 60 80 62 81 61 82 58 83
REMARK H PARENT 31 25 18 33 20 35 33 37 35 39 37 41 40 45 7 47 4 50 44 54
REMARK H PARENT 46 57 48 61 65 76
REMARK Flexibility Score: 90.00
ROOT
ATOM      1  C   UNL     1      23.460  39.409   8.490  1.00  0.00     0.176 C 
ENDROOT
BRANCH   1   2
ATOM      2  C   UNL     1      24.260  40.681   8.145  1.00  0.00     0.178 C 
ATOM      3  C   UNL     1      25.436  41.950   9.786  1.00  0.00     0.272 C 
ATOM      4  C   UNL     1      24.500  43.077   9.612  1.00  0.00     0.113 C 
ATOM      5  O   UNL     1      25.322  40.875   8.904  1.00  0.00    -0.332 OA
ATOM      6  C   UNL     1      23.137  42.640   9.194  1.00  0.00     0.145 C 
ATOM      7  C   UNL     1      23.294  41.813   7.926  1.00  0.00     0.142 C 
BRANCH   3   8
ATOM      8  O   UNL     1      25.471  41.394  11.016  1.00  0.00    -0.338 OA
BRANCH   8   9
ATOM      9  C   UNL     1      25.103  40.157  11.309  1.00  0.00     0.199 C 
BRANCH   9  10
ATOM     10  C   UNL     1      25.920  39.153  11.998  1.00  0.00     0.179 C 
ATOM     11  C   UNL     1      26.886  37.094  11.575  1.00  0.00     0.282 C 
ATOM     12  O   UNL     1      26.342  38.232  10.981  1.00  0.00    -0.341 OA
ATOM     13  C   UNL     1      27.297  37.228  12.988  1.00  0.00     0.202 C 
ATOM     14  C   UNL     1      27.757  38.569  13.445  1.00  0.00     0.179 C 
ATOM     15  C   UNL     1      27.265  39.655  12.521  1.00  0.00     0.177 C 
BRANCH  11  16
ATOM     16  O   UNL     1      27.893  36.592  10.724  1.00  0.00    -0.341 OA
BRANCH  16  17
ATOM     17  C   UNL     1      27.564  36.705   9.399  1.00  0.00     0.184 C 
ATOM     18  C   UNL     1      27.672  35.436   8.594  1.00  0.00     0.178 C 
ATOM     19  O   UNL     1      27.158  35.741   7.332  1.00  0.00    -0.341 OA
ATOM     20  C   UNL     1      28.064  36.465   6.571  1.00  0.00     0.281 C 
ATOM     21  C   UNL     1      28.438  37.736   8.701  1.00  0.00     0.180 C 
ATOM     22  C   UNL     1      29.006  37.282   7.406  1.00  0.00     0.202 C 
BRANCH  18  23
ATOM     23  C   UNL     1      26.803  34.331   9.159  1.00  0.00     0.191 C 
BRANCH  23  24
ATOM     24  O   UNL     1      27.374  33.749  10.289  1.00  0.00    -0.394 OA
ATOM     25  H   UNL     1      27.185  34.243  11.115  1.00  0.00     0.210 HD
ENDBRANCH  23  24
ENDBRANCH  18  23
BRANCH  20  26
ATOM     26  O   UNL     1      27.360  37.233   5.663  1.00  0.00    -0.350 OA
BRANCH  26  27
ATOM     27  C   UNL     1      28.132  38.259   5.147  1.00  0.00     0.169 C 
BRANCH  27  28
ATOM     28  C   UNL     1      27.380  39.502   4.794  1.00  0.00     0.119 C 
BRANCH  28  29
ATOM     29  N   UNL     1      27.240  40.326   5.983  1.00  0.00    -0.092 NA
ATOM     30  N   UNL     1      27.057  41.555   5.912  1.00  0.00     0.001 N 
ATOM     31  N   UNL     1      26.419  42.595   5.692  1.00  0.00    -0.003 NA
ENDBRANCH  28  29
ENDBRANCH  27  28
ENDBRANCH  26  27
ENDBRANCH  20  26
BRANCH  21  32
ATOM     32  O   UNL     1      27.784  38.974   8.599  1.00  0.00    -0.387 OA
ATOM     33  H   UNL     1      27.876  39.302   7.668  1.00  0.00     0.211 HD
ENDBRANCH  21  32
BRANCH  22  34
ATOM     34  O   UNL     1      30.219  36.571   7.565  1.00  0.00    -0.385 OA
ATOM     35  H   UNL     1      30.073  35.654   7.864  1.00  0.00     0.211 HD
ENDBRANCH  22  34
ENDBRANCH  16  17
ENDBRANCH  11  16
BRANCH  13  36
ATOM     36  O   UNL     1      26.319  36.677  13.822  1.00  0.00    -0.385 OA
ATOM     37  H   UNL     1      26.741  36.036  14.451  1.00  0.00     0.211 HD
ENDBRANCH  13  36
BRANCH  14  38
ATOM     38  O   UNL     1      29.132  38.634  13.661  1.00  0.00    -0.387 OA
ATOM     39  H   UNL     1      29.511  39.111  12.876  1.00  0.00     0.211 HD
ENDBRANCH  14  38
BRANCH  15  40
ATOM     40  O   UNL     1      28.157  39.793  11.429  1.00  0.00    -0.387 OA
ATOM     41  H   UNL     1      27.589  39.909  10.637  1.00  0.00     0.211 HD
ENDBRANCH  15  40
ENDBRANCH   9  10
ENDBRANCH   8   9
ENDBRANCH   3   8
BRANCH   3  42
ATOM     42  C   UNL     1      26.797  42.477   9.388  1.00  0.00     0.364 C 
ATOM     43  O   UNL     1      26.965  43.622   9.038  1.00  0.00    -0.246 OA
BRANCH  42  44
ATOM     44  O   UNL     1      27.904  41.621   9.421  1.00  0.00    -0.477 OA
ATOM     45  H   UNL     1      28.801  41.886   9.050  1.00  0.00     0.296 HD
ENDBRANCH  42  44
ENDBRANCH   3  42
BRANCH   6  46
ATOM     46  O   UNL     1      22.620  41.838  10.226  1.00  0.00    -0.391 OA
ATOM     47  H   UNL     1      22.069  42.334  10.854  1.00  0.00     0.211 HD
ENDBRANCH   6  46
BRANCH   7  48
ATOM     48  N   UNL     1      23.624  42.696   6.858  1.00  0.00    -0.348 N 
ATOM     49  C   UNL     1      22.631  43.111   5.927  1.00  0.00     0.217 C 
ATOM     50  H   UNL     1      24.599  43.056   6.730  1.00  0.00     0.163 HD
ATOM     51  C   UNL     1      22.927  44.030   4.794  1.00  0.00     0.114 C 
ATOM     52  O   UNL     1      21.482  42.683   6.081  1.00  0.00    -0.275 OA
ENDBRANCH   7  48
ENDBRANCH   1   2
BRANCH   1  53
ATOM     53  O   UNL     1      22.306  39.360   7.702  1.00  0.00    -0.388 OA
ATOM     54  H   UNL     1      22.078  40.223   7.291  1.00  0.00     0.211 HD
ENDBRANCH   1  53
BRANCH   1  55
ATOM     55  C   UNL     1      24.227  38.157   8.267  1.00  0.00     0.165 C 
BRANCH  55  56
ATOM     56  O   UNL     1      25.169  38.216   7.248  1.00  0.00    -0.388 OA
ATOM     57  H   UNL     1      24.808  38.812   6.540  1.00  0.00     0.211 HD
ENDBRANCH  55  56
BRANCH  55  58
ATOM     58  C   UNL     1      23.423  36.914   8.065  1.00  0.00     0.154 C 
BRANCH  58  59
ATOM     59  N   UNL     1      23.588  35.902   9.064  1.00  0.00    -0.319 N 
ATOM     60  C   UNL     1      22.865  35.854  10.278  1.00  0.00     0.407 C 
ATOM     61  H   UNL     1      24.285  35.150   8.887  1.00  0.00     0.167 HD
ATOM     62  O   UNL     1      22.008  36.728  10.556  1.00  0.00    -0.225 OA
BRANCH  60  63
ATOM     63  O   UNL     1      23.110  34.831  11.162  1.00  0.00    -0.443 OA
BRANCH  63  64
ATOM     64  C   UNL     1      24.317  34.645  11.815  1.00  0.00     0.294 C 
BRANCH  64  65
ATOM     65  C   UNL     1      24.187  33.638  12.871  1.00  0.00     0.120 A 
ATOM     66  C   UNL     1      25.054  33.433  13.916  1.00  0.00     0.139 A 
ATOM     67  N   UNL     1      23.211  32.714  13.036  1.00  0.00    -0.132 NA
ATOM     68  N   UNL     1      24.599  32.410  14.682  1.00  0.00    -0.240 N 
ATOM     69  N   UNL     1      23.483  32.001  14.117  1.00  0.00    -0.066 NA
BRANCH  68  70
ATOM     70  C   UNL     1      25.229  31.871  15.899  1.00  0.00     0.198 C 
BRANCH  70  71
ATOM     71  C   UNL     1      26.255  30.902  15.446  1.00  0.00     0.042 CG0
ATOM     72  G   UNL     1      27.331  30.554  16.414  1.00  0.00     0.000 G0
ENDBRANCH  70  71
BRANCH  70  73
ATOM     73  C   UNL     1      25.714  33.036  16.646  1.00  0.00     0.249 C 
ATOM     74  N   UNL     1      27.007  33.618  16.696  1.00  0.00    -0.324 N 
ATOM     75  O   UNL     1      24.841  33.608  17.353  1.00  0.00    -0.272 OA
ATOM     76  H   UNL     1      27.095  34.622  16.965  1.00  0.00     0.170 HD
BRANCH  74  77
ATOM     77  C   UNL     1      28.224  32.902  16.394  1.00  0.00     0.044 A 
ATOM     78  C   UNL     1      28.423  31.533  16.255  1.00  0.00    -0.024 A 
ATOM     79  C   UNL     1      29.292  33.758  16.237  1.00  0.00     0.026 A 
ATOM     80  C   UNL     1      29.661  31.011  15.961  1.00  0.00     0.006 A 
ATOM     81  C   UNL     1      30.546  33.260  15.942  1.00  0.00     0.002 A 
ATOM     82  C   UNL     1      30.715  31.878  15.807  1.00  0.00     0.000 A 
BRANCH  78  83
ATOM     83  C   UNL     1      27.334  30.526  16.405  1.00  0.00     0.040 CG0
ATOM     84  G   UNL     1      26.262  30.900  15.442  1.00  0.00     0.000 G0
ENDBRANCH  78  83
ENDBRANCH  74  77
ENDBRANCH  70  73
ENDBRANCH  68  70
ENDBRANCH  64  65
ENDBRANCH  63  64
ENDBRANCH  60  63
ENDBRANCH  58  59
ENDBRANCH  55  58
ENDBRANCH   1  55
TORSDOF 30
BEGIN_RES LYS A 131
REMARK  4 active torsions:
REMARK  status: ('A' for Active; 'I' for Inactive)
REMARK    1  A    between atoms: CA   and  CB  
REMARK    2  A    between atoms: CB   and  CG  
REMARK    3  A    between atoms: CG   and  CD  
REMARK    4  A    between atoms: CD   and  CE  
ROOT
ATOM      1  CA  LYS A 131      29.867  25.555  16.977  1.00 20.52     0.186 C 
ENDROOT
BRANCH   1   2
ATOM      2  CB  LYS A 131      28.345  25.722  17.026  1.00 20.94     0.034 C 
BRANCH   2   3
ATOM      3  CG  LYS A 131      27.602  24.398  16.933  1.00 22.96     0.005 C 
BRANCH   3   4
ATOM      4  CD  LYS A 131      26.152  24.535  17.308  1.00 24.33     0.041 C 
BRANCH   4   5
ATOM      5  CE  LYS A 131      25.885  23.764  18.597  1.00 26.91     0.338 C 
ATOM      6  NZ  LYS A 131      24.477  23.304  18.644  1.00 27.40     0.618 N 
ENDBRANCH   4   5
ENDBRANCH   3   4
ENDBRANCH   2   3
ENDBRANCH   1   2
END_RES LYS A 131
BEGIN_RES LYS A 135
REMARK  4 active torsions:
REMARK  status: ('A' for Active; 'I' for Inactive)
REMARK    5  A    between atoms: CA   and  CB  
REMARK    6  A    between atoms: CB   and  CG  
REMARK    7  A    between atoms: CG   and  CD  
REMARK    8  A    between atoms: CD   and  CE  
ROOT
ATOM      7  CA  LYS A 135      33.193  34.663   9.290  1.00 25.02     0.186 C 
ENDROOT
BRANCH   7   8
ATOM      8  CB  LYS A 135      32.060  35.360  10.034  1.00 26.63     0.034 C 
BRANCH   8   9
ATOM      9  CG  LYS A 135      30.915  34.444  10.383  1.00 29.45     0.005 C 
BRANCH   9  10
ATOM     10  CD  LYS A 135      30.429  34.709  11.799  1.00 32.00     0.041 C 
BRANCH  10  11
ATOM     11  CE  LYS A 135      31.250  35.807  12.448  1.00 34.25     0.338 C 
ATOM     12  NZ  LYS A 135      32.204  35.247  13.444  1.00 35.99     0.618 N 
ENDBRANCH  10  11
ENDBRANCH   9  10
ENDBRANCH   8   9
ENDBRANCH   7   8
END_RES LYS A 135
