REMARK VINA RESULT:    -3.887      2.475      7.034
REMARK INTER + INTRA:         -22.110
REMARK INTER:                  -9.195
REMARK INTRA:                 -12.915
REMARK UNBOUND:               -12.543
REMARK SMILES CC(=O)N[C@@H]1[C@@H](O)C[C@](OC[C@H]2O[C@@H](O[C@H]3[C@H](O)[C@@H](O)[C@H](OCCN=[N+]=[N-])O[C@@H]3CO)[C@H](O)[C@@H](O)[C@H]2O)(C(=O)O)O[C@H]1C(O)[C@H](O)CNC(=O)OCc1cn(-c2ccncc2)nn1
REMARK SMILES IDX 9 1 8 2 6 3 5 4 42 5 41 6 10 7 11 8 12 9 14 10 13 11 32 12
REMARK SMILES IDX 34 13 36 14 15 15 16 16 29 17 28 18 21 19 17 20 19 21 30 22
REMARK SMILES IDX 31 23 22 25 23 26 24 27 25 28 26 29 27 30 18 31 20 33 33 35
REMARK SMILES IDX 35 37 37 39 38 41 39 42 40 43 7 45 43 47 44 48 45 50 46 51
REMARK SMILES IDX 47 53 48 54 49 55 50 57 51 58 52 59 53 60 54 61 63 62 55 63
REMARK SMILES IDX 62 64 56 65 57 66 61 67 58 68 60 69 59 70 4 71 2 72 1 74
REMARK SMILES IDX 3 75
REMARK H PARENT 31 24 18 32 20 34 33 36 35 38 37 40 40 44 7 46 44 49 46 52
REMARK H PARENT 48 56 4 73
REMARK Flexibility Score: inf
ROOT
ATOM      1  C   UNL     1      27.032  30.334  17.583  1.00  0.00     0.272 C 
ATOM      2  C   UNL     1      27.107  29.298  18.724  1.00  0.00     0.113 C 
ATOM      3  C   UNL     1      27.438  29.995  20.048  1.00  0.00     0.145 C 
ATOM      4  C   UNL     1      28.915  30.495  19.907  1.00  0.00     0.142 C 
ATOM      5  C   UNL     1      28.958  31.276  18.627  1.00  0.00     0.178 C 
ATOM      6  O   UNL     1      27.660  31.452  18.166  1.00  0.00    -0.332 OA
ENDROOT
BRANCH   1   7
ATOM      7  O   UNL     1      25.785  30.706  17.374  1.00  0.00    -0.338 OA
BRANCH   7   8
ATOM      8  C   UNL     1      24.626  30.279  17.129  1.00  0.00     0.199 C 
BRANCH   8   9
ATOM      9  C   UNL     1      23.698  31.008  16.206  1.00  0.00     0.179 C 
ATOM     10  C   UNL     1      23.903  32.694  14.582  1.00  0.00     0.282 C 
ATOM     11  O   UNL     1      24.559  31.907  15.499  1.00  0.00    -0.341 OA
ATOM     12  C   UNL     1      23.295  31.863  13.496  1.00  0.00     0.202 C 
ATOM     13  C   UNL     1      22.398  30.789  14.115  1.00  0.00     0.179 C 
ATOM     14  C   UNL     1      23.207  30.036  15.127  1.00  0.00     0.177 C 
BRANCH  10  15
ATOM     15  O   UNL     1      24.934  33.506  14.042  1.00  0.00    -0.341 OA
BRANCH  15  16
ATOM     16  C   UNL     1      25.276  34.545  14.840  1.00  0.00     0.184 C 
ATOM     17  C   UNL     1      25.108  35.874  14.223  1.00  0.00     0.178 C 
ATOM     18  O   UNL     1      25.379  36.889  15.164  1.00  0.00    -0.341 OA
ATOM     19  C   UNL     1      26.825  36.902  15.176  1.00  0.00     0.281 C 
ATOM     20  C   UNL     1      26.781  34.375  15.216  1.00  0.00     0.180 C 
ATOM     21  C   UNL     1      27.248  35.662  15.869  1.00  0.00     0.202 C 
BRANCH  17  22
ATOM     22  C   UNL     1      23.767  36.093  13.632  1.00  0.00     0.191 C 
BRANCH  22  23
ATOM     23  O   UNL     1      22.729  35.780  14.522  1.00  0.00    -0.394 OA
ATOM     24  H   UNL     1      22.346  34.906  14.213  1.00  0.00     0.210 HD
ENDBRANCH  22  23
ENDBRANCH  17  22
BRANCH  19  25
ATOM     25  O   UNL     1      27.153  38.022  15.889  1.00  0.00    -0.350 OA
BRANCH  25  26
ATOM     26  C   UNL     1      26.403  38.181  17.014  1.00  0.00     0.169 C 
BRANCH  26  27
ATOM     27  C   UNL     1      26.955  39.090  18.064  1.00  0.00     0.119 C 
BRANCH  27  28
ATOM     28  N   UNL     1      28.230  38.641  18.585  1.00  0.00    -0.092 NA
ATOM     29  N   UNL     1      28.514  37.470  18.796  1.00  0.00     0.001 N 
ATOM     30  N   UNL     1      28.608  36.314  19.219  1.00  0.00    -0.003 NA
ENDBRANCH  27  28
ENDBRANCH  26  27
ENDBRANCH  25  26
ENDBRANCH  19  25
BRANCH  20  31
ATOM     31  O   UNL     1      26.833  33.367  16.149  1.00  0.00    -0.387 OA
ATOM     32  H   UNL     1      26.752  33.730  17.087  1.00  0.00     0.211 HD
ENDBRANCH  20  31
BRANCH  21  33
ATOM     33  O   UNL     1      28.626  35.647  16.023  1.00  0.00    -0.385 OA
ATOM     34  H   UNL     1      28.980  34.792  15.665  1.00  0.00     0.211 HD
ENDBRANCH  21  33
ENDBRANCH  15  16
ENDBRANCH  10  15
BRANCH  12  35
ATOM     35  O   UNL     1      22.463  32.650  12.664  1.00  0.00    -0.385 OA
ATOM     36  H   UNL     1      21.852  32.011  12.226  1.00  0.00     0.211 HD
ENDBRANCH  12  35
BRANCH  13  37
ATOM     37  O   UNL     1      21.885  29.920  13.182  1.00  0.00    -0.387 OA
ATOM     38  H   UNL     1      21.071  29.448  13.544  1.00  0.00     0.211 HD
ENDBRANCH  13  37
BRANCH  14  39
ATOM     39  O   UNL     1      24.368  29.499  14.548  1.00  0.00    -0.387 OA
ATOM     40  H   UNL     1      25.035  30.236  14.400  1.00  0.00     0.211 HD
ENDBRANCH  14  39
ENDBRANCH   8   9
ENDBRANCH   7   8
ENDBRANCH   1   7
BRANCH   1  41
ATOM     41  C   UNL     1      27.746  29.856  16.395  1.00  0.00     0.364 C 
ATOM     42  O   UNL     1      28.081  30.642  15.450  1.00  0.00    -0.246 OA
BRANCH  41  43
ATOM     43  O   UNL     1      28.103  28.542  16.208  1.00  0.00    -0.477 OA
ATOM     44  H   UNL     1      27.756  27.752  16.707  1.00  0.00     0.296 HD
ENDBRANCH  41  43
ENDBRANCH   1  41
BRANCH   3  45
ATOM     45  O   UNL     1      26.648  31.103  20.197  1.00  0.00    -0.391 OA
ATOM     46  H   UNL     1      26.169  31.332  19.377  1.00  0.00     0.211 HD
ENDBRANCH   3  45
BRANCH   5  47
ATOM     47  C   UNL     1      29.433  32.724  18.811  1.00  0.00     0.176 C 
BRANCH  47  48
ATOM     48  O   UNL     1      28.149  33.397  19.018  1.00  0.00    -0.388 OA
ATOM     49  H   UNL     1      27.447  32.777  18.655  1.00  0.00     0.211 HD
ENDBRANCH  47  48
BRANCH  47  50
ATOM     50  C   UNL     1      30.074  33.374  17.665  1.00  0.00     0.165 C 
BRANCH  50  51
ATOM     51  O   UNL     1      29.812  32.888  16.407  1.00  0.00    -0.388 OA
ATOM     52  H   UNL     1      30.018  31.918  16.341  1.00  0.00     0.211 HD
ENDBRANCH  50  51
BRANCH  50  53
ATOM     53  C   UNL     1      31.423  33.933  17.902  1.00  0.00     0.154 C 
BRANCH  53  54
ATOM     54  N   UNL     1      32.123  34.411  16.738  1.00  0.00    -0.319 N 
ATOM     55  C   UNL     1      32.052  35.771  16.351  1.00  0.00     0.407 C 
ATOM     56  H   UNL     1      32.664  33.720  16.190  1.00  0.00     0.167 HD
ATOM     57  O   UNL     1      31.363  36.533  17.064  1.00  0.00    -0.225 OA
BRANCH  55  58
ATOM     58  O   UNL     1      32.685  36.293  15.259  1.00  0.00    -0.443 OA
BRANCH  58  59
ATOM     59  C   UNL     1      32.664  35.764  13.950  1.00  0.00     0.294 C 
BRANCH  59  60
ATOM     60  C   UNL     1      31.290  35.311  13.556  1.00  0.00     0.121 A 
ATOM     61  C   UNL     1      30.367  35.920  12.734  1.00  0.00     0.144 A 
ATOM     62  N   UNL     1      30.697  34.165  13.970  1.00  0.00    -0.131 NA
ATOM     63  N   UNL     1      29.267  35.149  12.670  1.00  0.00    -0.220 N 
ATOM     64  N   UNL     1      29.492  34.080  13.435  1.00  0.00    -0.062 NA
BRANCH  63  65
ATOM     65  C   UNL     1      28.097  35.447  11.921  1.00  0.00     0.069 A 
ATOM     66  C   UNL     1      27.158  34.510  11.546  1.00  0.00     0.048 A 
ATOM     67  C   UNL     1      27.883  36.756  11.549  1.00  0.00     0.048 A 
ATOM     68  C   UNL     1      26.028  34.846  10.819  1.00  0.00     0.113 A 
ATOM     69  C   UNL     1      26.750  37.082  10.822  1.00  0.00     0.113 A 
ATOM     70  N   UNL     1      25.860  36.144  10.476  1.00  0.00    -0.265 NA
ENDBRANCH  63  65
ENDBRANCH  59  60
ENDBRANCH  58  59
ENDBRANCH  55  58
ENDBRANCH  53  54
ENDBRANCH  50  53
ENDBRANCH  47  50
ENDBRANCH   5  47
BRANCH   4  71
ATOM     71  N   UNL     1      29.663  29.262  19.867  1.00  0.00    -0.348 N 
ATOM     72  C   UNL     1      30.630  28.874  20.819  1.00  0.00     0.217 C 
ATOM     73  H   UNL     1      29.491  28.601  19.087  1.00  0.00     0.163 HD
ATOM     74  C   UNL     1      31.331  27.589  20.674  1.00  0.00     0.114 C 
ATOM     75  O   UNL     1      30.892  29.617  21.785  1.00  0.00    -0.275 OA
ENDBRANCH   4  71
TORSDOF 30
BEGIN_RES LYS A 131
REMARK  4 active torsions:
REMARK  status: ('A' for Active; 'I' for Inactive)
REMARK    1  A    between atoms: CA   and  CB  
REMARK    2  A    between atoms: CB   and  CG  
REMARK    3  A    between atoms: CG   and  CD  
REMARK    4  A    between atoms: CD   and  CE  
ROOT
ATOM      1  CA  LYS A 131      29.867  25.555  16.977  1.00 20.52     0.186 C 
ENDROOT
BRANCH   1   2
ATOM      2  CB  LYS A 131      28.345  25.722  17.026  1.00 20.94     0.034 C 
BRANCH   2   3
ATOM      3  CG  LYS A 131      27.602  24.399  16.926  1.00 22.96     0.005 C 
BRANCH   3   4
ATOM      4  CD  LYS A 131      26.147  24.538  17.280  1.00 24.33     0.041 C 
BRANCH   4   5
ATOM      5  CE  LYS A 131      25.987  25.588  18.374  1.00 26.91     0.338 C 
ATOM      6  NZ  LYS A 131      24.799  26.435  18.112  1.00 27.40     0.618 N 
ENDBRANCH   4   5
ENDBRANCH   3   4
ENDBRANCH   2   3
ENDBRANCH   1   2
END_RES LYS A 131
BEGIN_RES LYS A 135
REMARK  4 active torsions:
REMARK  status: ('A' for Active; 'I' for Inactive)
REMARK    5  A    between atoms: CA   and  CB  
REMARK    6  A    between atoms: CB   and  CG  
REMARK    7  A    between atoms: CG   and  CD  
REMARK    8  A    between atoms: CD   and  CE  
ROOT
ATOM      7  CA  LYS A 135      33.193  34.663   9.290  1.00 25.02     0.186 C 
ENDROOT
BRANCH   7   8
ATOM      8  CB  LYS A 135      32.060  35.360  10.034  1.00 26.63     0.034 C 
BRANCH   8   9
ATOM      9  CG  LYS A 135      30.824  35.562   9.196  1.00 29.45     0.005 C 
BRANCH   9  10
ATOM     10  CD  LYS A 135      30.070  34.252   9.028  1.00 32.00     0.041 C 
BRANCH  10  11
ATOM     11  CE  LYS A 135      28.767  34.479   8.286  1.00 34.25     0.338 C 
ATOM     12  NZ  LYS A 135      28.960  35.399   7.131  1.00 35.99     0.618 N 
ENDBRANCH  10  11
ENDBRANCH   9  10
ENDBRANCH   8   9
ENDBRANCH   7   8
END_RES LYS A 135
