REMARK VINA RESULT:    -4.172      7.104     13.466
REMARK INTER + INTRA:         -21.213
REMARK INTER:                 -11.682
REMARK INTRA:                  -9.532
REMARK UNBOUND:               -10.944
REMARK SMILES CC(=O)N[C@@H]1[C@@H](O)C[C@](OC[C@H]2O[C@@H](O[C@H]3[C@H](O)[C@@H](O)[C@H](OCCN=[N+]=[N-])O[C@@H]3CO)[C@H](O)[C@@H](O)[C@H]2O)(C(=O)O)O[C@H]1C(O)[C@H](O)CNC(=O)OCc1cn(-c2cccnc2)nn1
REMARK SMILES IDX 9 1 8 2 6 3 5 4 42 5 41 6 10 7 11 8 12 9 14 10 13 11 32 12
REMARK SMILES IDX 34 13 36 14 15 15 16 16 29 17 28 18 21 19 17 20 19 21 30 22
REMARK SMILES IDX 31 23 22 25 23 26 24 27 25 28 26 29 27 30 18 31 20 33 33 35
REMARK SMILES IDX 35 37 37 39 38 41 39 42 40 43 7 45 43 47 44 48 45 50 46 51
REMARK SMILES IDX 47 53 48 54 49 55 50 57 51 58 52 59 53 60 54 61 63 62 55 63
REMARK SMILES IDX 62 64 56 65 57 66 61 67 58 68 60 69 59 70 4 71 2 72 1 74
REMARK SMILES IDX 3 75
REMARK H PARENT 31 24 18 32 20 34 33 36 35 38 37 40 40 44 7 46 44 49 46 52
REMARK H PARENT 48 56 4 73
REMARK Flexibility Score: inf
ROOT
ATOM      1  C   UNL     1      27.353  39.649   5.791  1.00  0.00     0.272 C 
ATOM      2  C   UNL     1      27.651  38.233   5.507  1.00  0.00     0.113 C 
ATOM      3  C   UNL     1      29.105  37.930   5.611  1.00  0.00     0.145 C 
ATOM      4  C   UNL     1      29.799  38.619   6.758  1.00  0.00     0.142 C 
ATOM      5  C   UNL     1      28.893  39.468   7.575  1.00  0.00     0.178 C 
ATOM      6  O   UNL     1      28.058  40.268   6.808  1.00  0.00    -0.332 OA
ENDROOT
BRANCH   1   7
ATOM      7  O   UNL     1      26.016  39.853   6.124  1.00  0.00    -0.338 OA
BRANCH   7   8
ATOM      8  C   UNL     1      25.701  41.035   6.714  1.00  0.00     0.199 C 
BRANCH   8   9
ATOM      9  C   UNL     1      24.237  41.346   6.346  1.00  0.00     0.179 C 
ATOM     10  C   UNL     1      23.312  40.659   8.386  1.00  0.00     0.282 C 
ATOM     11  O   UNL     1      23.404  40.535   7.016  1.00  0.00    -0.341 OA
ATOM     12  C   UNL     1      23.279  42.096   8.776  1.00  0.00     0.202 C 
ATOM     13  C   UNL     1      22.829  42.900   7.547  1.00  0.00     0.179 C 
ATOM     14  C   UNL     1      23.932  42.825   6.502  1.00  0.00     0.177 C 
BRANCH  10  15
ATOM     15  O   UNL     1      24.382  39.942   8.917  1.00  0.00    -0.341 OA
BRANCH  15  16
ATOM     16  C   UNL     1      24.084  38.671   9.283  1.00  0.00     0.184 C 
ATOM     17  C   UNL     1      24.453  38.284  10.682  1.00  0.00     0.178 C 
ATOM     18  O   UNL     1      23.610  37.238  11.060  1.00  0.00    -0.341 OA
ATOM     19  C   UNL     1      23.454  36.265  10.079  1.00  0.00     0.281 C 
ATOM     20  C   UNL     1      24.757  37.616   8.409  1.00  0.00     0.180 C 
ATOM     21  C   UNL     1      24.586  36.245   9.078  1.00  0.00     0.202 C 
BRANCH  17  22
ATOM     22  C   UNL     1      24.397  39.358  11.704  1.00  0.00     0.191 C 
BRANCH  22  23
ATOM     23  O   UNL     1      23.215  40.049  11.684  1.00  0.00    -0.394 OA
ATOM     24  H   UNL     1      22.809  39.927  10.788  1.00  0.00     0.210 HD
ENDBRANCH  22  23
ENDBRANCH  17  22
BRANCH  19  25
ATOM     25  O   UNL     1      22.268  36.348   9.409  1.00  0.00    -0.350 OA
BRANCH  25  26
ATOM     26  C   UNL     1      21.800  35.282   8.729  1.00  0.00     0.169 C 
BRANCH  26  27
ATOM     27  C   UNL     1      20.561  35.441   7.920  1.00  0.00     0.119 C 
BRANCH  27  28
ATOM     28  N   UNL     1      20.192  36.766   7.558  1.00  0.00    -0.092 NA
ATOM     29  N   UNL     1      19.076  37.254   7.832  1.00  0.00     0.001 N 
ATOM     30  N   UNL     1      17.859  37.439   7.659  1.00  0.00    -0.003 NA
ENDBRANCH  27  28
ENDBRANCH  26  27
ENDBRANCH  25  26
ENDBRANCH  19  25
BRANCH  20  31
ATOM     31  O   UNL     1      24.108  37.553   7.184  1.00  0.00    -0.387 OA
ATOM     32  H   UNL     1      23.732  38.427   6.901  1.00  0.00     0.211 HD
ENDBRANCH  20  31
BRANCH  21  33
ATOM     33  O   UNL     1      25.767  35.817   9.680  1.00  0.00    -0.385 OA
ATOM     34  H   UNL     1      26.499  35.905   9.022  1.00  0.00     0.211 HD
ENDBRANCH  21  33
ENDBRANCH  15  16
ENDBRANCH  10  15
BRANCH  12  35
ATOM     35  O   UNL     1      22.244  42.306   9.708  1.00  0.00    -0.385 OA
ATOM     36  H   UNL     1      21.687  41.470   9.747  1.00  0.00     0.211 HD
ENDBRANCH  12  35
BRANCH  13  37
ATOM     37  O   UNL     1      22.475  44.188   7.853  1.00  0.00    -0.387 OA
ATOM     38  H   UNL     1      22.175  44.658   7.035  1.00  0.00     0.211 HD
ENDBRANCH  13  37
BRANCH  14  39
ATOM     39  O   UNL     1      25.032  43.569   6.876  1.00  0.00    -0.387 OA
ATOM     40  H   UNL     1      24.708  44.323   7.438  1.00  0.00     0.211 HD
ENDBRANCH  14  39
ENDBRANCH   8   9
ENDBRANCH   7   8
ENDBRANCH   1   7
BRANCH   1  41
ATOM     41  C   UNL     1      27.601  40.415   4.508  1.00  0.00     0.364 C 
ATOM     42  O   UNL     1      28.642  41.086   4.410  1.00  0.00    -0.246 OA
BRANCH  41  43
ATOM     43  O   UNL     1      26.726  40.402   3.450  1.00  0.00    -0.477 OA
ATOM     44  H   UNL     1      25.809  39.974   3.456  1.00  0.00     0.296 HD
ENDBRANCH  41  43
ENDBRANCH   1  41
BRANCH   3  45
ATOM     45  O   UNL     1      29.208  36.526   5.752  1.00  0.00    -0.391 OA
ATOM     46  H   UNL     1      28.914  36.051   4.952  1.00  0.00     0.211 HD
ENDBRANCH   3  45
BRANCH   5  47
ATOM     47  C   UNL     1      28.155  38.766   8.666  1.00  0.00     0.176 C 
BRANCH  47  48
ATOM     48  O   UNL     1      27.445  39.749   9.403  1.00  0.00    -0.388 OA
ATOM     49  H   UNL     1      27.466  39.495  10.367  1.00  0.00     0.211 HD
ENDBRANCH  47  48
BRANCH  47  50
ATOM     50  C   UNL     1      28.977  38.019   9.667  1.00  0.00     0.165 C 
BRANCH  50  51
ATOM     51  O   UNL     1      27.947  37.440  10.526  1.00  0.00    -0.388 OA
ATOM     52  H   UNL     1      28.117  37.836  11.415  1.00  0.00     0.211 HD
ENDBRANCH  50  51
BRANCH  50  53
ATOM     53  C   UNL     1      29.752  38.860  10.630  1.00  0.00     0.154 C 
BRANCH  53  54
ATOM     54  N   UNL     1      30.937  38.288  11.184  1.00  0.00    -0.319 N 
ATOM     55  C   UNL     1      30.863  37.755  12.524  1.00  0.00     0.407 C 
ATOM     56  H   UNL     1      31.839  38.196  10.728  1.00  0.00     0.167 HD
ATOM     57  O   UNL     1      29.770  37.820  13.122  1.00  0.00    -0.225 OA
BRANCH  55  58
ATOM     58  O   UNL     1      31.954  37.191  13.136  1.00  0.00    -0.443 OA
BRANCH  58  59
ATOM     59  C   UNL     1      32.335  35.874  12.823  1.00  0.00     0.294 C 
BRANCH  59  60
ATOM     60  C   UNL     1      31.618  34.943  13.720  1.00  0.00     0.121 A 
ATOM     61  C   UNL     1      31.913  34.576  15.012  1.00  0.00     0.144 A 
ATOM     62  N   UNL     1      30.481  34.252  13.408  1.00  0.00    -0.131 NA
ATOM     63  N   UNL     1      30.989  33.705  15.447  1.00  0.00    -0.219 N 
ATOM     64  N   UNL     1      30.137  33.529  14.453  1.00  0.00    -0.062 NA
BRANCH  63  65
ATOM     65  C   UNL     1      30.848  33.042  16.700  1.00  0.00     0.085 A 
ATOM     66  C   UNL     1      30.373  31.753  16.810  1.00  0.00     0.031 A 
ATOM     67  C   UNL     1      31.182  33.677  17.881  1.00  0.00     0.139 A 
ATOM     68  C   UNL     1      30.239  31.135  18.033  1.00  0.00     0.022 A 
ATOM     69  N   UNL     1      31.045  33.058  19.080  1.00  0.00    -0.262 NA
ATOM     70  C   UNL     1      30.581  31.801  19.188  1.00  0.00     0.111 A 
ENDBRANCH  63  65
ENDBRANCH  59  60
ENDBRANCH  58  59
ENDBRANCH  55  58
ENDBRANCH  53  54
ENDBRANCH  50  53
ENDBRANCH  47  50
ENDBRANCH   5  47
BRANCH   4  71
ATOM     71  N   UNL     1      30.922  39.417   6.275  1.00  0.00    -0.348 N 
ATOM     72  C   UNL     1      32.075  39.708   7.045  1.00  0.00     0.217 C 
ATOM     73  H   UNL     1      30.909  39.817   5.297  1.00  0.00     0.163 HD
ATOM     74  C   UNL     1      33.199  40.537   6.508  1.00  0.00     0.114 C 
ATOM     75  O   UNL     1      32.179  39.267   8.221  1.00  0.00    -0.275 OA
ENDBRANCH   4  71
TORSDOF 30
BEGIN_RES LYS A 131
REMARK  4 active torsions:
REMARK  status: ('A' for Active; 'I' for Inactive)
REMARK    1  A    between atoms: CA   and  CB  
REMARK    2  A    between atoms: CB   and  CG  
REMARK    3  A    between atoms: CG   and  CD  
REMARK    4  A    between atoms: CD   and  CE  
ROOT
ATOM      1  CA  LYS A 131      29.867  25.555  16.977  1.00 20.52     0.186 C 
ENDROOT
BRANCH   1   2
ATOM      2  CB  LYS A 131      28.345  25.722  17.026  1.00 20.94     0.034 C 
BRANCH   2   3
ATOM      3  CG  LYS A 131      27.599  24.436  16.707  1.00 22.96     0.005 C 
BRANCH   3   4
ATOM      4  CD  LYS A 131      26.964  23.831  17.929  1.00 24.33     0.041 C 
BRANCH   4   5
ATOM      5  CE  LYS A 131      25.602  23.251  17.560  1.00 26.91     0.338 C 
ATOM      6  NZ  LYS A 131      24.757  24.281  16.913  1.00 27.40     0.618 N 
ENDBRANCH   4   5
ENDBRANCH   3   4
ENDBRANCH   2   3
ENDBRANCH   1   2
END_RES LYS A 131
BEGIN_RES LYS A 135
REMARK  4 active torsions:
REMARK  status: ('A' for Active; 'I' for Inactive)
REMARK    5  A    between atoms: CA   and  CB  
REMARK    6  A    between atoms: CB   and  CG  
REMARK    7  A    between atoms: CG   and  CD  
REMARK    8  A    between atoms: CD   and  CE  
ROOT
ATOM      7  CA  LYS A 135      33.193  34.663   9.290  1.00 25.02     0.186 C 
ENDROOT
BRANCH   7   8
ATOM      8  CB  LYS A 135      32.060  35.360  10.034  1.00 26.63     0.034 C 
BRANCH   8   9
ATOM      9  CG  LYS A 135      30.733  34.657   9.906  1.00 29.45     0.005 C 
BRANCH   9  10
ATOM     10  CD  LYS A 135      30.283  34.620   8.454  1.00 32.00     0.041 C 
BRANCH  10  11
ATOM     11  CE  LYS A 135      28.779  34.445   8.367  1.00 34.25     0.338 C 
ATOM     12  NZ  LYS A 135      28.258  33.695   9.543  1.00 35.99     0.618 N 
ENDBRANCH  10  11
ENDBRANCH   9  10
ENDBRANCH   8   9
ENDBRANCH   7   8
END_RES LYS A 135
