REMARK VINA RESULT:    -4.865      2.378      3.678
REMARK INTER + INTRA:         -21.988
REMARK INTER:                 -12.603
REMARK INTRA:                  -9.385
REMARK UNBOUND:                -9.729
REMARK SMILES CC(=O)N[C@@H]1[C@@H](O)C[C@](OC[C@H]2O[C@@H](O[C@H]3[C@H](O)[C@@H](O)[C@H](OCCN=[N+]=[N-])O[C@@H]3CO)[C@H](O)[C@@H](O)[C@H]2O)(C(=O)O)O[C@H]1C(O)[C@H](O)CNC(=O)OCc1cn(-c2ncccc2C#N)nn1
REMARK SMILES IDX 9 1 8 2 6 3 5 4 42 5 41 6 10 7 11 8 12 9 14 10 13 11 32 12
REMARK SMILES IDX 34 13 36 14 15 15 16 16 29 17 28 18 21 19 17 20 19 21 30 22
REMARK SMILES IDX 31 23 22 25 23 26 24 27 25 28 26 29 27 30 18 31 20 33 33 35
REMARK SMILES IDX 35 37 37 39 38 41 39 42 40 43 7 45 43 47 44 48 45 50 46 51
REMARK SMILES IDX 47 53 48 54 49 55 50 57 51 58 52 59 53 60 54 61 65 62 55 63
REMARK SMILES IDX 64 64 56 65 57 66 61 67 58 68 60 69 59 70 62 71 63 72 4 73
REMARK SMILES IDX 2 74 1 76 3 77
REMARK H PARENT 31 24 18 32 20 34 33 36 35 38 37 40 40 44 7 46 44 49 46 52
REMARK H PARENT 48 56 4 75
REMARK Flexibility Score: inf
ROOT
ATOM      1  C   UNL     1      30.740  30.486  20.616  1.00  0.00     0.272 C 
ATOM      2  C   UNL     1      31.587  29.369  20.176  1.00  0.00     0.113 C 
ATOM      3  C   UNL     1      31.361  28.119  20.931  1.00  0.00     0.145 C 
ATOM      4  C   UNL     1      29.991  27.912  21.489  1.00  0.00     0.142 C 
ATOM      5  C   UNL     1      28.967  28.956  21.147  1.00  0.00     0.178 C 
ATOM      6  O   UNL     1      29.438  30.161  20.921  1.00  0.00    -0.332 OA
ENDROOT
BRANCH   1   7
ATOM      7  O   UNL     1      30.632  31.603  19.889  1.00  0.00    -0.338 OA
BRANCH   7   8
ATOM      8  C   UNL     1      29.881  32.660  19.919  1.00  0.00     0.199 C 
BRANCH   8   9
ATOM      9  C   UNL     1      29.824  33.217  18.492  1.00  0.00     0.179 C 
ATOM     10  C   UNL     1      31.041  33.656  16.630  1.00  0.00     0.282 C 
ATOM     11  O   UNL     1      31.073  33.584  18.071  1.00  0.00    -0.341 OA
ATOM     12  C   UNL     1      30.982  32.283  16.066  1.00  0.00     0.202 C 
ATOM     13  C   UNL     1      29.834  31.483  16.690  1.00  0.00     0.179 C 
ATOM     14  C   UNL     1      29.035  32.399  17.538  1.00  0.00     0.177 C 
BRANCH  10  15
ATOM     15  O   UNL     1      32.095  34.364  16.168  1.00  0.00    -0.341 OA
BRANCH  15  16
ATOM     16  C   UNL     1      31.922  35.719  16.112  1.00  0.00     0.184 C 
ATOM     17  C   UNL     1      30.409  36.062  16.241  1.00  0.00     0.178 C 
ATOM     18  O   UNL     1      29.970  36.540  15.008  1.00  0.00    -0.341 OA
ATOM     19  C   UNL     1      30.270  35.626  13.987  1.00  0.00     0.281 C 
ATOM     20  C   UNL     1      32.435  36.370  14.854  1.00  0.00     0.180 C 
ATOM     21  C   UNL     1      31.726  35.762  13.639  1.00  0.00     0.202 C 
BRANCH  17  22
ATOM     22  C   UNL     1      30.240  37.061  17.340  1.00  0.00     0.191 C 
BRANCH  22  23
ATOM     23  O   UNL     1      30.944  36.691  18.500  1.00  0.00    -0.394 OA
ATOM     24  H   UNL     1      30.690  35.791  18.814  1.00  0.00     0.210 HD
ENDBRANCH  22  23
ENDBRANCH  17  22
BRANCH  19  25
ATOM     25  O   UNL     1      29.434  35.922  12.935  1.00  0.00    -0.350 OA
BRANCH  25  26
ATOM     26  C   UNL     1      28.530  34.873  12.683  1.00  0.00     0.169 C 
BRANCH  26  27
ATOM     27  C   UNL     1      27.105  35.388  12.712  1.00  0.00     0.119 C 
BRANCH  27  28
ATOM     28  N   UNL     1      26.400  34.584  13.719  1.00  0.00    -0.092 NA
ATOM     29  N   UNL     1      26.582  34.939  14.913  1.00  0.00     0.001 N 
ATOM     30  N   UNL     1      26.981  34.989  16.087  1.00  0.00    -0.003 NA
ENDBRANCH  27  28
ENDBRANCH  26  27
ENDBRANCH  25  26
ENDBRANCH  19  25
BRANCH  20  31
ATOM     31  O   UNL     1      32.273  37.736  14.849  1.00  0.00    -0.387 OA
ATOM     32  H   UNL     1      32.850  38.254  14.265  1.00  0.00     0.211 HD
ENDBRANCH  20  31
BRANCH  21  33
ATOM     33  O   UNL     1      32.307  34.539  13.319  1.00  0.00    -0.385 OA
ATOM     34  H   UNL     1      31.746  33.833  13.742  1.00  0.00     0.211 HD
ENDBRANCH  21  33
ENDBRANCH  15  16
ENDBRANCH  10  15
BRANCH  12  35
ATOM     35  O   UNL     1      30.807  32.319  14.694  1.00  0.00    -0.385 OA
ATOM     36  H   UNL     1      30.066  32.984  14.503  1.00  0.00     0.211 HD
ENDBRANCH  12  35
BRANCH  13  37
ATOM     37  O   UNL     1      30.376  30.414  17.441  1.00  0.00    -0.387 OA
ATOM     38  H   UNL     1      31.365  30.525  17.527  1.00  0.00     0.211 HD
ENDBRANCH  13  37
BRANCH  14  39
ATOM     39  O   UNL     1      27.985  31.768  18.211  1.00  0.00    -0.387 OA
ATOM     40  H   UNL     1      28.292  31.469  19.126  1.00  0.00     0.211 HD
ENDBRANCH  14  39
ENDBRANCH   8   9
ENDBRANCH   7   8
ENDBRANCH   1   7
BRANCH   1  41
ATOM     41  C   UNL     1      31.342  30.945  21.943  1.00  0.00     0.364 C 
ATOM     42  O   UNL     1      32.482  31.352  22.086  1.00  0.00    -0.246 OA
BRANCH  41  43
ATOM     43  O   UNL     1      30.539  30.903  23.101  1.00  0.00    -0.477 OA
ATOM     44  H   UNL     1      30.259  30.037  23.536  1.00  0.00     0.296 HD
ENDBRANCH  41  43
ENDBRANCH   1  41
BRANCH   3  45
ATOM     45  O   UNL     1      31.784  27.004  20.182  1.00  0.00    -0.391 OA
ATOM     46  H   UNL     1      31.067  26.307  20.344  1.00  0.00     0.211 HD
ENDBRANCH   3  45
BRANCH   5  47
ATOM     47  C   UNL     1      28.007  28.453  20.031  1.00  0.00     0.176 C 
BRANCH  47  48
ATOM     48  O   UNL     1      28.578  28.901  18.802  1.00  0.00    -0.388 OA
ATOM     49  H   UNL     1      29.153  28.218  18.417  1.00  0.00     0.211 HD
ENDBRANCH  47  48
BRANCH  47  50
ATOM     50  C   UNL     1      26.659  28.957  20.069  1.00  0.00     0.165 C 
BRANCH  50  51
ATOM     51  O   UNL     1      26.494  30.355  20.230  1.00  0.00    -0.388 OA
ATOM     52  H   UNL     1      26.617  30.799  19.332  1.00  0.00     0.211 HD
ENDBRANCH  50  51
BRANCH  50  53
ATOM     53  C   UNL     1      25.798  28.383  21.148  1.00  0.00     0.154 C 
BRANCH  53  54
ATOM     54  N   UNL     1      24.622  27.678  20.825  1.00  0.00    -0.319 N 
ATOM     55  C   UNL     1      24.463  26.389  20.318  1.00  0.00     0.407 C 
ATOM     56  H   UNL     1      23.678  28.205  20.981  1.00  0.00     0.167 HD
ATOM     57  O   UNL     1      25.497  25.708  20.111  1.00  0.00    -0.225 OA
BRANCH  55  58
ATOM     58  O   UNL     1      23.168  25.893  20.063  1.00  0.00    -0.443 OA
BRANCH  58  59
ATOM     59  C   UNL     1      22.833  25.529  18.757  1.00  0.00     0.294 C 
BRANCH  59  60
ATOM     60  C   UNL     1      22.578  26.672  17.902  1.00  0.00     0.121 A 
ATOM     61  C   UNL     1      23.298  27.039  16.829  1.00  0.00     0.146 A 
ATOM     62  N   UNL     1      21.575  27.638  18.075  1.00  0.00    -0.131 NA
ATOM     63  N   UNL     1      22.818  28.167  16.322  1.00  0.00    -0.201 N 
ATOM     64  N   UNL     1      21.815  28.458  17.095  1.00  0.00    -0.060 NA
BRANCH  63  65
ATOM     65  C   UNL     1      23.194  28.903  15.178  1.00  0.00     0.173 A 
ATOM     66  N   UNL     1      22.632  28.500  14.008  1.00  0.00    -0.236 NA
ATOM     67  C   UNL     1      24.193  29.885  15.218  1.00  0.00     0.097 A 
ATOM     68  C   UNL     1      23.108  29.113  12.790  1.00  0.00     0.113 A 
ATOM     69  C   UNL     1      24.601  30.419  14.015  1.00  0.00     0.025 A 
ATOM     70  C   UNL     1      24.053  30.018  12.870  1.00  0.00     0.022 A 
BRANCH  67  71
ATOM     71  C   UNL     1      24.751  30.434  16.413  1.00  0.00     0.103 C 
ATOM     72  N   UNL     1      25.217  30.917  17.420  1.00  0.00    -0.192 NA
ENDBRANCH  67  71
ENDBRANCH  63  65
ENDBRANCH  59  60
ENDBRANCH  58  59
ENDBRANCH  55  58
ENDBRANCH  53  54
ENDBRANCH  50  53
ENDBRANCH  47  50
ENDBRANCH   5  47
BRANCH   4  73
ATOM     73  N   UNL     1      30.178  27.608  22.891  1.00  0.00    -0.348 N 
ATOM     74  C   UNL     1      29.312  26.922  23.747  1.00  0.00     0.217 C 
ATOM     75  H   UNL     1      31.090  27.958  23.362  1.00  0.00     0.163 HD
ATOM     76  C   UNL     1      29.702  26.652  25.188  1.00  0.00     0.114 C 
ATOM     77  O   UNL     1      28.186  26.481  23.427  1.00  0.00    -0.275 OA
ENDBRANCH   4  73
TORSDOF 31
BEGIN_RES LYS A 131
REMARK  4 active torsions:
REMARK  status: ('A' for Active; 'I' for Inactive)
REMARK    1  A    between atoms: CA   and  CB  
REMARK    2  A    between atoms: CB   and  CG  
REMARK    3  A    between atoms: CG   and  CD  
REMARK    4  A    between atoms: CD   and  CE  
ROOT
ATOM      1  CA  LYS A 131      29.867  25.555  16.977  1.00 20.52     0.186 C 
ENDROOT
BRANCH   1   2
ATOM      2  CB  LYS A 131      28.345  25.722  17.026  1.00 20.94     0.034 C 
BRANCH   2   3
ATOM      3  CG  LYS A 131      27.599  24.483  16.555  1.00 22.96     0.005 C 
BRANCH   3   4
ATOM      4  CD  LYS A 131      27.028  23.696  17.702  1.00 24.33     0.041 C 
BRANCH   4   5
ATOM      5  CE  LYS A 131      25.565  23.370  17.417  1.00 26.91     0.338 C 
ATOM      6  NZ  LYS A 131      24.974  22.608  18.542  1.00 27.40     0.618 N 
ENDBRANCH   4   5
ENDBRANCH   3   4
ENDBRANCH   2   3
ENDBRANCH   1   2
END_RES LYS A 131
BEGIN_RES LYS A 135
REMARK  4 active torsions:
REMARK  status: ('A' for Active; 'I' for Inactive)
REMARK    5  A    between atoms: CA   and  CB  
REMARK    6  A    between atoms: CB   and  CG  
REMARK    7  A    between atoms: CG   and  CD  
REMARK    8  A    between atoms: CD   and  CE  
ROOT
ATOM      7  CA  LYS A 135      33.193  34.663   9.290  1.00 25.02     0.186 C 
ENDROOT
BRANCH   7   8
ATOM      8  CB  LYS A 135      32.060  35.360  10.034  1.00 26.63     0.034 C 
BRANCH   8   9
ATOM      9  CG  LYS A 135      30.726  34.677   9.876  1.00 29.45     0.005 C 
BRANCH   9  10
ATOM     10  CD  LYS A 135      30.401  34.468   8.405  1.00 32.00     0.041 C 
BRANCH  10  11
ATOM     11  CE  LYS A 135      29.245  35.356   7.984  1.00 34.25     0.338 C 
ATOM     12  NZ  LYS A 135      28.576  35.963   9.167  1.00 35.99     0.618 N 
ENDBRANCH  10  11
ENDBRANCH   9  10
ENDBRANCH   8   9
ENDBRANCH   7   8
END_RES LYS A 135
