REMARK VINA RESULT:    -4.872      3.177      8.090
REMARK INTER + INTRA:         -25.775
REMARK INTER:                 -11.938
REMARK INTRA:                 -13.837
REMARK UNBOUND:               -11.931
REMARK SMILES CC(=O)N[C@@H]1[C@@H](O)C[C@](OC[C@H]2O[C@@H](O[C@H]3[C@H](O)[C@@H](O)[C@H](OCCN=[N+]=[N-])O[C@@H]3CO)[C@H](O)[C@@H](O)[C@H]2O)(C(=O)O)O[C@H]1C(O)[C@H](O)CNC(=O)OCc1cn(CC(=O)NCC(O)Cn2ccnc2[N+](=O)[O-])nn1
REMARK SMILES IDX 47 1 45 2 43 3 42 4 9 5 8 6 41 7 6 8 5 9 10 10 11 11 12 12
REMARK SMILES IDX 14 13 13 14 32 15 34 16 36 17 15 18 16 19 29 20 28 21 21 22
REMARK SMILES IDX 17 23 19 24 30 25 31 26 22 28 23 29 24 30 25 31 26 32 27 33
REMARK SMILES IDX 18 34 20 36 33 38 35 40 37 42 38 44 39 45 40 46 7 48 4 50
REMARK SMILES IDX 2 51 1 53 3 54 44 55 46 57 48 59 49 60 50 62 51 63 52 64
REMARK SMILES IDX 53 65 54 66 73 67 55 68 72 69 56 70 57 71 58 72 59 73 60 75
REMARK SMILES IDX 61 76 62 77 63 79 64 80 65 81 68 82 66 83 67 84 69 85 70 86
REMARK SMILES IDX 71 87
REMARK H PARENT 31 27 18 35 20 37 33 39 35 41 37 43 40 47 7 49 4 52 44 56
REMARK H PARENT 46 58 48 61 59 74 62 78
REMARK Flexibility Score: inf
ROOT
ATOM      1  C   UNL     1      28.608  39.772  12.527  1.00  0.00     0.154 C 
ENDROOT
BRANCH   1   2
ATOM      2  C   UNL     1      29.274  39.104  13.682  1.00  0.00     0.165 C 
BRANCH   2   3
ATOM      3  C   UNL     1      30.735  38.878  13.559  1.00  0.00     0.176 C 
BRANCH   3   4
ATOM      4  C   UNL     1      31.411  37.995  14.524  1.00  0.00     0.178 C 
ATOM      5  C   UNL     1      31.787  35.807  15.213  1.00  0.00     0.272 C 
ATOM      6  C   UNL     1      32.978  36.459  15.823  1.00  0.00     0.113 C 
ATOM      7  O   UNL     1      31.039  36.673  14.395  1.00  0.00    -0.332 OA
ATOM      8  C   UNL     1      32.697  37.735  16.543  1.00  0.00     0.145 C 
ATOM      9  C   UNL     1      31.414  38.387  15.953  1.00  0.00     0.142 C 
BRANCH   5  10
ATOM     10  O   UNL     1      30.917  35.190  16.063  1.00  0.00    -0.338 OA
BRANCH  10  11
ATOM     11  C   UNL     1      31.364  34.114  16.763  1.00  0.00     0.199 C 
BRANCH  11  12
ATOM     12  C   UNL     1      30.280  33.088  17.033  1.00  0.00     0.179 C 
ATOM     13  C   UNL     1      27.985  32.751  16.809  1.00  0.00     0.282 C 
ATOM     14  O   UNL     1      29.037  33.608  17.113  1.00  0.00    -0.341 OA
ATOM     15  C   UNL     1      28.260  31.340  17.266  1.00  0.00     0.202 C 
ATOM     16  C   UNL     1      29.536  30.800  16.663  1.00  0.00     0.179 C 
ATOM     17  C   UNL     1      30.353  31.933  16.072  1.00  0.00     0.177 C 
BRANCH  13  18
ATOM     18  O   UNL     1      27.631  32.744  15.507  1.00  0.00    -0.341 OA
BRANCH  18  19
ATOM     19  C   UNL     1      26.824  33.679  14.979  1.00  0.00     0.184 C 
ATOM     20  C   UNL     1      25.521  33.217  14.386  1.00  0.00     0.178 C 
ATOM     21  O   UNL     1      24.698  34.345  14.326  1.00  0.00    -0.341 OA
ATOM     22  C   UNL     1      25.147  35.243  13.363  1.00  0.00     0.281 C 
ATOM     23  C   UNL     1      27.495  34.461  13.838  1.00  0.00     0.180 C 
ATOM     24  C   UNL     1      26.582  35.631  13.550  1.00  0.00     0.202 C 
BRANCH  20  25
ATOM     25  C   UNL     1      24.858  32.236  15.307  1.00  0.00     0.191 C 
BRANCH  25  26
ATOM     26  O   UNL     1      25.267  30.921  15.047  1.00  0.00    -0.394 OA
ATOM     27  H   UNL     1      26.140  31.026  14.551  1.00  0.00     0.210 HD
ENDBRANCH  25  26
ENDBRANCH  20  25
BRANCH  22  28
ATOM     28  O   UNL     1      24.379  36.398  13.489  1.00  0.00    -0.350 OA
BRANCH  28  29
ATOM     29  C   UNL     1      24.531  36.974  14.751  1.00  0.00     0.169 C 
BRANCH  29  30
ATOM     30  C   UNL     1      24.612  38.485  14.518  1.00  0.00     0.119 C 
BRANCH  30  31
ATOM     31  N   UNL     1      25.094  38.763  13.177  1.00  0.00    -0.092 NA
ATOM     32  N   UNL     1      24.989  39.942  12.777  1.00  0.00     0.001 N 
ATOM     33  N   UNL     1      25.183  41.104  12.442  1.00  0.00    -0.003 NA
ENDBRANCH  30  31
ENDBRANCH  29  30
ENDBRANCH  28  29
ENDBRANCH  22  28
BRANCH  23  34
ATOM     34  O   UNL     1      28.716  34.991  14.241  1.00  0.00    -0.387 OA
ATOM     35  H   UNL     1      28.901  34.554  15.132  1.00  0.00     0.211 HD
ENDBRANCH  23  34
BRANCH  24  36
ATOM     36  O   UNL     1      26.979  36.362  12.431  1.00  0.00    -0.385 OA
ATOM     37  H   UNL     1      27.896  36.053  12.170  1.00  0.00     0.211 HD
ENDBRANCH  24  36
ENDBRANCH  18  19
ENDBRANCH  13  18
BRANCH  15  38
ATOM     38  O   UNL     1      28.274  31.244  18.665  1.00  0.00    -0.385 OA
ATOM     39  H   UNL     1      29.225  31.004  18.896  1.00  0.00     0.211 HD
ENDBRANCH  15  38
BRANCH  16  40
ATOM     40  O   UNL     1      29.264  29.906  15.631  1.00  0.00    -0.387 OA
ATOM     41  H   UNL     1      28.430  29.377  15.800  1.00  0.00     0.211 HD
ENDBRANCH  16  40
BRANCH  17  42
ATOM     42  O   UNL     1      30.021  32.250  14.776  1.00  0.00    -0.387 OA
ATOM     43  H   UNL     1      30.770  32.103  14.136  1.00  0.00     0.211 HD
ENDBRANCH  17  42
ENDBRANCH  11  12
ENDBRANCH  10  11
ENDBRANCH   5  10
BRANCH   5  44
ATOM     44  C   UNL     1      32.312  34.793  14.226  1.00  0.00     0.364 C 
ATOM     45  O   UNL     1      33.530  34.542  14.271  1.00  0.00    -0.246 OA
BRANCH  44  46
ATOM     46  O   UNL     1      31.517  34.153  13.305  1.00  0.00    -0.477 OA
ATOM     47  H   UNL     1      31.793  33.231  12.921  1.00  0.00     0.296 HD
ENDBRANCH  44  46
ENDBRANCH   5  44
BRANCH   8  48
ATOM     48  O   UNL     1      32.627  37.687  17.898  1.00  0.00    -0.391 OA
ATOM     49  H   UNL     1      33.400  38.004  18.387  1.00  0.00     0.211 HD
ENDBRANCH   8  48
BRANCH   9  50
ATOM     50  N   UNL     1      31.480  39.765  16.264  1.00  0.00    -0.348 N 
ATOM     51  C   UNL     1      30.718  40.321  17.353  1.00  0.00     0.217 C 
ATOM     52  H   UNL     1      32.079  40.412  15.735  1.00  0.00     0.163 HD
ATOM     53  C   UNL     1      30.768  41.768  17.691  1.00  0.00     0.114 C 
ATOM     54  O   UNL     1      29.999  39.547  18.018  1.00  0.00    -0.275 OA
ENDBRANCH   9  50
ENDBRANCH   3   4
BRANCH   3  55
ATOM     55  O   UNL     1      31.346  40.156  13.497  1.00  0.00    -0.388 OA
ATOM     56  H   UNL     1      31.891  40.256  14.295  1.00  0.00     0.211 HD
ENDBRANCH   3  55
ENDBRANCH   2   3
BRANCH   2  57
ATOM     57  O   UNL     1      28.530  38.083  14.225  1.00  0.00    -0.388 OA
ATOM     58  H   UNL     1      27.973  38.320  14.988  1.00  0.00     0.211 HD
ENDBRANCH   2  57
ENDBRANCH   1   2
BRANCH   1  59
ATOM     59  N   UNL     1      28.416  38.844  11.446  1.00  0.00    -0.319 N 
ATOM     60  C   UNL     1      29.172  38.873  10.247  1.00  0.00     0.407 C 
ATOM     61  H   UNL     1      27.677  38.083  11.516  1.00  0.00     0.167 HD
ATOM     62  O   UNL     1      30.062  39.738  10.109  1.00  0.00    -0.225 OA
BRANCH  60  63
ATOM     63  O   UNL     1      28.992  38.000   9.195  1.00  0.00    -0.443 OA
BRANCH  63  64
ATOM     64  C   UNL     1      27.860  38.054   8.369  1.00  0.00     0.294 C 
BRANCH  64  65
ATOM     65  C   UNL     1      26.570  37.794   9.006  1.00  0.00     0.120 A 
ATOM     66  C   UNL     1      25.475  38.616   9.080  1.00  0.00     0.138 A 
ATOM     67  N   UNL     1      26.214  36.681   9.667  1.00  0.00    -0.132 NA
ATOM     68  N   UNL     1      24.498  37.987   9.774  1.00  0.00    -0.243 N 
ATOM     69  N   UNL     1      24.958  36.826  10.121  1.00  0.00    -0.067 NA
BRANCH  68  70
ATOM     70  C   UNL     1      23.167  38.511  10.054  1.00  0.00     0.245 C 
BRANCH  70  71
ATOM     71  C   UNL     1      22.237  38.051   9.002  1.00  0.00     0.241 C 
ATOM     72  O   UNL     1      21.503  38.876   8.360  1.00  0.00    -0.273 OA
ATOM     73  N   UNL     1      22.102  36.679   8.635  1.00  0.00    -0.352 N 
ATOM     74  H   UNL     1      22.674  35.971   9.125  1.00  0.00     0.163 HD
BRANCH  73  75
ATOM     75  C   UNL     1      21.163  36.324   7.587  1.00  0.00     0.151 C 
BRANCH  75  76
ATOM     76  C   UNL     1      20.275  35.184   7.977  1.00  0.00     0.168 C 
BRANCH  76  77
ATOM     77  O   UNL     1      19.468  34.760   6.936  1.00  0.00    -0.388 OA
ATOM     78  H   UNL     1      20.052  34.584   6.161  1.00  0.00     0.211 HD
ENDBRANCH  76  77
BRANCH  76  79
ATOM     79  C   UNL     1      19.430  35.648   9.154  1.00  0.00     0.239 C 
BRANCH  79  80
ATOM     80  N   UNL     1      19.347  34.646  10.177  1.00  0.00    -0.227 N 
ATOM     81  C   UNL     1      18.383  33.690  10.248  1.00  0.00     0.204 A 
ATOM     82  C   UNL     1      20.141  34.435  11.256  1.00  0.00     0.434 A 
ATOM     83  C   UNL     1      18.597  32.912  11.360  1.00  0.00     0.245 A 
ATOM     84  N   UNL     1      19.680  33.386  11.965  1.00  0.00    -0.074 NA
BRANCH  82  85
ATOM     85  N   UNL     1      21.300  35.199  11.584  1.00  0.00    -0.047 N 
ATOM     86  O   UNL     1      21.290  36.186  12.320  1.00  0.00    -0.390 OA
ATOM     87  O   UNL     1      22.515  34.815  11.033  1.00  0.00    -0.390 OA
ENDBRANCH  82  85
ENDBRANCH  79  80
ENDBRANCH  76  79
ENDBRANCH  75  76
ENDBRANCH  73  75
ENDBRANCH  70  71
ENDBRANCH  68  70
ENDBRANCH  64  65
ENDBRANCH  63  64
ENDBRANCH  60  63
ENDBRANCH   1  59
TORSDOF 37
BEGIN_RES LYS A 131
REMARK  4 active torsions:
REMARK  status: ('A' for Active; 'I' for Inactive)
REMARK    1  A    between atoms: CA   and  CB  
REMARK    2  A    between atoms: CB   and  CG  
REMARK    3  A    between atoms: CG   and  CD  
REMARK    4  A    between atoms: CD   and  CE  
ROOT
ATOM      1  CA  LYS A 131      29.867  25.555  16.977  1.00 20.52     0.186 C 
ENDROOT
BRANCH   1   2
ATOM      2  CB  LYS A 131      28.345  25.722  17.026  1.00 20.94     0.034 C 
BRANCH   2   3
ATOM      3  CG  LYS A 131      27.601  24.401  16.905  1.00 22.96     0.005 C 
BRANCH   3   4
ATOM      4  CD  LYS A 131      26.153  24.529  17.288  1.00 24.33     0.041 C 
BRANCH   4   5
ATOM      5  CE  LYS A 131      25.963  25.771  18.152  1.00 26.91     0.338 C 
ATOM      6  NZ  LYS A 131      25.728  25.389  19.565  1.00 27.40     0.618 N 
ENDBRANCH   4   5
ENDBRANCH   3   4
ENDBRANCH   2   3
ENDBRANCH   1   2
END_RES LYS A 131
BEGIN_RES LYS A 135
REMARK  4 active torsions:
REMARK  status: ('A' for Active; 'I' for Inactive)
REMARK    5  A    between atoms: CA   and  CB  
REMARK    6  A    between atoms: CB   and  CG  
REMARK    7  A    between atoms: CG   and  CD  
REMARK    8  A    between atoms: CD   and  CE  
ROOT
ATOM      7  CA  LYS A 135      33.193  34.663   9.290  1.00 25.02     0.186 C 
ENDROOT
BRANCH   7   8
ATOM      8  CB  LYS A 135      32.060  35.360  10.034  1.00 26.63     0.034 C 
BRANCH   8   9
ATOM      9  CG  LYS A 135      30.737  34.647   9.922  1.00 29.45     0.005 C 
BRANCH   9  10
ATOM     10  CD  LYS A 135      30.320  34.516   8.466  1.00 32.00     0.041 C 
BRANCH  10  11
ATOM     11  CE  LYS A 135      28.808  34.504   8.344  1.00 34.25     0.338 C 
ATOM     12  NZ  LYS A 135      28.183  33.785   9.489  1.00 35.99     0.618 N 
ENDBRANCH  10  11
ENDBRANCH   9  10
ENDBRANCH   8   9
ENDBRANCH   7   8
END_RES LYS A 135
