REMARK VINA RESULT:    -5.691      3.037      8.226
REMARK INTER + INTRA:         -24.511
REMARK INTER:                 -14.862
REMARK INTRA:                  -9.649
REMARK UNBOUND:                -9.504
REMARK SMILES CC(=O)N[C@@H]1[C@@H](O)C[C@](OC[C@H]2O[C@@H](O[C@H]3[C@H](O)[C@@H](O)[C@H](OCCN=[N+]=[N-])O[C@@H]3CO)[C@H](O)[C@@H](O)[C@H]2O)(C(=O)O)O[C@H]1C(O)[C@H](O)CNC(=O)OCc1cn(COCc2ccccc2)nn1
REMARK SMILES IDX 43 1 42 2 9 3 8 4 41 5 6 6 5 7 10 8 11 9 12 10 14 11 13 12
REMARK SMILES IDX 32 13 34 14 36 15 15 16 16 17 29 18 28 19 21 20 17 21 19 22
REMARK SMILES IDX 30 23 31 24 22 26 23 27 24 28 25 29 26 30 27 31 18 32 20 34
REMARK SMILES IDX 33 36 35 38 37 40 38 42 39 43 40 44 7 46 4 48 2 49 1 51 3 52
REMARK SMILES IDX 44 53 45 55 46 56 47 58 48 59 49 60 50 62 51 63 52 64 53 65
REMARK SMILES IDX 54 66 66 67 55 68 65 69 56 70 57 71 58 72 59 73 60 74 64 75
REMARK SMILES IDX 61 76 63 77 62 78
REMARK H PARENT 31 25 18 33 20 35 33 37 35 39 37 41 40 45 7 47 4 50 44 54
REMARK H PARENT 46 57 48 61
REMARK Flexibility Score: inf
ROOT
ATOM      1  C   UNL     1      28.854  37.533   6.782  1.00  0.00     0.176 C 
ENDROOT
BRANCH   1   2
ATOM      2  C   UNL     1      28.096  38.701   7.451  1.00  0.00     0.178 C 
ATOM      3  C   UNL     1      25.966  39.056   8.312  1.00  0.00     0.272 C 
ATOM      4  C   UNL     1      25.956  40.446   7.685  1.00  0.00     0.113 C 
ATOM      5  O   UNL     1      26.762  38.295   7.513  1.00  0.00    -0.332 OA
ATOM      6  C   UNL     1      26.708  40.417   6.376  1.00  0.00     0.145 C 
ATOM      7  C   UNL     1      28.174  39.960   6.647  1.00  0.00     0.142 C 
BRANCH   3   8
ATOM      8  O   UNL     1      24.654  38.544   8.355  1.00  0.00    -0.338 OA
BRANCH   8   9
ATOM      9  C   UNL     1      24.397  37.442   7.634  1.00  0.00     0.199 C 
BRANCH   9  10
ATOM     10  C   UNL     1      23.607  36.445   8.449  1.00  0.00     0.179 C 
ATOM     11  C   UNL     1      23.011  35.719  10.511  1.00  0.00     0.282 C 
ATOM     12  O   UNL     1      23.743  36.716   9.826  1.00  0.00    -0.341 OA
ATOM     13  C   UNL     1      21.515  35.992  10.401  1.00  0.00     0.202 C 
ATOM     14  C   UNL     1      21.363  36.983   9.237  1.00  0.00     0.179 C 
ATOM     15  C   UNL     1      22.165  36.389   8.098  1.00  0.00     0.177 C 
BRANCH  11  16
ATOM     16  O   UNL     1      23.353  35.786  11.834  1.00  0.00    -0.341 OA
BRANCH  16  17
ATOM     17  C   UNL     1      22.567  34.997  12.661  1.00  0.00     0.184 C 
ATOM     18  C   UNL     1      22.668  35.358  14.100  1.00  0.00     0.178 C 
ATOM     19  O   UNL     1      23.877  34.968  14.592  1.00  0.00    -0.341 OA
ATOM     20  C   UNL     1      24.065  33.609  14.672  1.00  0.00     0.281 C 
ATOM     21  C   UNL     1      22.897  33.564  12.423  1.00  0.00     0.180 C 
ATOM     22  C   UNL     1      23.537  32.822  13.537  1.00  0.00     0.202 C 
BRANCH  18  23
ATOM     23  C   UNL     1      21.483  34.799  14.852  1.00  0.00     0.191 C 
BRANCH  23  24
ATOM     24  O   UNL     1      20.328  34.811  14.062  1.00  0.00    -0.394 OA
ATOM     25  H   UNL     1      19.654  34.202  14.456  1.00  0.00     0.210 HD
ENDBRANCH  23  24
ENDBRANCH  18  23
BRANCH  20  26
ATOM     26  O   UNL     1      23.443  33.182  15.851  1.00  0.00    -0.350 OA
BRANCH  26  27
ATOM     27  C   UNL     1      23.431  31.821  16.021  1.00  0.00     0.169 C 
BRANCH  27  28
ATOM     28  C   UNL     1      24.810  31.430  16.524  1.00  0.00     0.119 C 
BRANCH  28  29
ATOM     29  N   UNL     1      25.431  30.428  15.688  1.00  0.00    -0.092 NA
ATOM     30  N   UNL     1      26.468  29.852  16.066  1.00  0.00     0.001 N 
ATOM     31  N   UNL     1      27.701  29.732  16.199  1.00  0.00    -0.003 NA
ENDBRANCH  28  29
ENDBRANCH  27  28
ENDBRANCH  26  27
ENDBRANCH  20  26
BRANCH  21  32
ATOM     32  O   UNL     1      21.713  32.849  12.089  1.00  0.00    -0.387 OA
ATOM     33  H   UNL     1      21.840  31.889  12.139  1.00  0.00     0.211 HD
ENDBRANCH  21  32
BRANCH  22  34
ATOM     34  O   UNL     1      24.637  32.104  13.000  1.00  0.00    -0.385 OA
ATOM     35  H   UNL     1      25.408  32.318  13.587  1.00  0.00     0.211 HD
ENDBRANCH  22  34
ENDBRANCH  16  17
ENDBRANCH  11  16
BRANCH  13  36
ATOM     36  O   UNL     1      20.805  34.854  10.017  1.00  0.00    -0.385 OA
ATOM     37  H   UNL     1      21.069  34.124  10.631  1.00  0.00     0.211 HD
ENDBRANCH  13  36
BRANCH  14  38
ATOM     38  O   UNL     1      21.995  38.143   9.664  1.00  0.00    -0.387 OA
ATOM     39  H   UNL     1      21.782  38.938   9.114  1.00  0.00     0.211 HD
ENDBRANCH  14  38
BRANCH  15  40
ATOM     40  O   UNL     1      21.854  36.970   6.879  1.00  0.00    -0.387 OA
ATOM     41  H   UNL     1      21.621  36.309   6.178  1.00  0.00     0.211 HD
ENDBRANCH  15  40
ENDBRANCH   9  10
ENDBRANCH   8   9
ENDBRANCH   3   8
BRANCH   3  42
ATOM     42  C   UNL     1      26.429  39.057   9.699  1.00  0.00     0.364 C 
ATOM     43  O   UNL     1      26.835  40.042  10.370  1.00  0.00    -0.246 OA
BRANCH  42  44
ATOM     44  O   UNL     1      26.440  37.835  10.414  1.00  0.00    -0.477 OA
ATOM     45  H   UNL     1      26.560  37.827  11.426  1.00  0.00     0.296 HD
ENDBRANCH  42  44
ENDBRANCH   3  42
BRANCH   6  46
ATOM     46  O   UNL     1      26.222  39.624   5.398  1.00  0.00    -0.391 OA
ATOM     47  H   UNL     1      25.930  40.138   4.583  1.00  0.00     0.211 HD
ENDBRANCH   6  46
BRANCH   7  48
ATOM     48  N   UNL     1      28.747  41.063   7.381  1.00  0.00    -0.348 N 
ATOM     49  C   UNL     1      30.133  41.305   7.272  1.00  0.00     0.217 C 
ATOM     50  H   UNL     1      28.164  41.658   7.973  1.00  0.00     0.163 HD
ATOM     51  C   UNL     1      30.745  42.444   8.008  1.00  0.00     0.114 C 
ATOM     52  O   UNL     1      30.870  40.565   6.547  1.00  0.00    -0.275 OA
ENDBRANCH   7  48
ENDBRANCH   1   2
BRANCH   1  53
ATOM     53  O   UNL     1      29.527  38.121   5.643  1.00  0.00    -0.388 OA
ATOM     54  H   UNL     1      30.393  38.475   6.005  1.00  0.00     0.211 HD
ENDBRANCH   1  53
BRANCH   1  55
ATOM     55  C   UNL     1      27.989  36.457   6.226  1.00  0.00     0.165 C 
BRANCH  55  56
ATOM     56  O   UNL     1      26.968  36.829   5.399  1.00  0.00    -0.388 OA
ATOM     57  H   UNL     1      26.315  36.122   5.202  1.00  0.00     0.211 HD
ENDBRANCH  55  56
BRANCH  55  58
ATOM     58  C   UNL     1      27.645  35.283   7.058  1.00  0.00     0.154 C 
BRANCH  58  59
ATOM     59  N   UNL     1      26.953  35.512   8.295  1.00  0.00    -0.319 N 
ATOM     60  C   UNL     1      27.032  34.666   9.432  1.00  0.00     0.407 C 
ATOM     61  H   UNL     1      26.350  36.357   8.406  1.00  0.00     0.167 HD
ATOM     62  O   UNL     1      27.744  33.656   9.406  1.00  0.00    -0.225 OA
BRANCH  60  63
ATOM     63  O   UNL     1      26.343  34.901  10.627  1.00  0.00    -0.443 OA
BRANCH  63  64
ATOM     64  C   UNL     1      26.882  34.425  11.862  1.00  0.00     0.294 C 
BRANCH  64  65
ATOM     65  C   UNL     1      27.931  35.318  12.403  1.00  0.00     0.120 A 
ATOM     66  C   UNL     1      29.197  34.890  12.747  1.00  0.00     0.141 A 
ATOM     67  N   UNL     1      27.892  36.629  12.669  1.00  0.00    -0.132 NA
ATOM     68  N   UNL     1      29.883  35.962  13.212  1.00  0.00    -0.226 N 
ATOM     69  N   UNL     1      29.063  37.000  13.151  1.00  0.00    -0.065 NA
BRANCH  68  70
ATOM     70  C   UNL     1      31.248  36.014  13.687  1.00  0.00     0.307 C 
BRANCH  70  71
ATOM     71  O   UNL     1      31.872  34.799  13.603  1.00  0.00    -0.355 OA
BRANCH  71  72
ATOM     72  C   UNL     1      32.665  34.595  14.721  1.00  0.00     0.198 C 
BRANCH  72  73
ATOM     73  C   UNL     1      31.907  33.743  15.704  1.00  0.00    -0.022 A 
ATOM     74  C   UNL     1      31.390  32.545  15.255  1.00  0.00     0.006 A 
ATOM     75  C   UNL     1      31.737  34.150  17.003  1.00  0.00     0.006 A 
ATOM     76  C   UNL     1      30.688  31.738  16.125  1.00  0.00     0.000 A 
ATOM     77  C   UNL     1      31.039  33.335  17.845  1.00  0.00     0.000 A 
ATOM     78  C   UNL     1      30.504  32.124  17.435  1.00  0.00     0.000 A 
ENDBRANCH  72  73
ENDBRANCH  71  72
ENDBRANCH  70  71
ENDBRANCH  68  70
ENDBRANCH  64  65
ENDBRANCH  63  64
ENDBRANCH  60  63
ENDBRANCH  58  59
ENDBRANCH  55  58
ENDBRANCH   1  55
TORSDOF 33
BEGIN_RES LYS A 131
REMARK  4 active torsions:
REMARK  status: ('A' for Active; 'I' for Inactive)
REMARK    1  A    between atoms: CA   and  CB  
REMARK    2  A    between atoms: CB   and  CG  
REMARK    3  A    between atoms: CG   and  CD  
REMARK    4  A    between atoms: CD   and  CE  
ROOT
ATOM      1  CA  LYS A 131      29.867  25.555  16.977  1.00 20.52     0.186 C 
ENDROOT
BRANCH   1   2
ATOM      2  CB  LYS A 131      28.345  25.722  17.026  1.00 20.94     0.034 C 
BRANCH   2   3
ATOM      3  CG  LYS A 131      27.603  24.395  16.979  1.00 22.96     0.005 C 
BRANCH   3   4
ATOM      4  CD  LYS A 131      26.262  24.471  17.655  1.00 24.33     0.041 C 
BRANCH   4   5
ATOM      5  CE  LYS A 131      25.560  23.122  17.546  1.00 26.91     0.338 C 
ATOM      6  NZ  LYS A 131      24.186  23.294  17.017  1.00 27.40     0.618 N 
ENDBRANCH   4   5
ENDBRANCH   3   4
ENDBRANCH   2   3
ENDBRANCH   1   2
END_RES LYS A 131
BEGIN_RES LYS A 135
REMARK  4 active torsions:
REMARK  status: ('A' for Active; 'I' for Inactive)
REMARK    5  A    between atoms: CA   and  CB  
REMARK    6  A    between atoms: CB   and  CG  
REMARK    7  A    between atoms: CG   and  CD  
REMARK    8  A    between atoms: CD   and  CE  
ROOT
ATOM      7  CA  LYS A 135      33.193  34.663   9.290  1.00 25.02     0.186 C 
ENDROOT
BRANCH   7   8
ATOM      8  CB  LYS A 135      32.060  35.360  10.034  1.00 26.63     0.034 C 
BRANCH   8   9
ATOM      9  CG  LYS A 135      30.803  35.507   9.216  1.00 29.45     0.005 C 
BRANCH   9  10
ATOM     10  CD  LYS A 135      30.015  36.730   9.659  1.00 32.00     0.041 C 
BRANCH  10  11
ATOM     11  CE  LYS A 135      30.943  37.906   9.893  1.00 34.25     0.338 C 
ATOM     12  NZ  LYS A 135      30.197  39.083  10.417  1.00 35.99     0.618 N 
ENDBRANCH  10  11
ENDBRANCH   9  10
ENDBRANCH   8   9
ENDBRANCH   7   8
END_RES LYS A 135
