REMARK VINA RESULT:    -5.651      5.754     11.921
REMARK INTER + INTRA:         -23.988
REMARK INTER:                 -10.155
REMARK INTRA:                 -13.832
REMARK UNBOUND:                -9.416
REMARK SMILES CC(=O)N[C@@H]1[C@@H](O)C[C@](OC[C@H]2O[C@@H](O[C@H]3[C@H](O)[C@@H](O)[C@H](OCCN=[N+]=[N-])O[C@@H]3CO)[C@H](O)[C@@H](O)[C@H]2O)(C(=O)O)O[C@H]1C(O)[C@H](O)CNC(=O)OCc1cn(C(C)(C)C(=O)c2c[nH]c3ccccc23)nn1
REMARK SMILES IDX 9 1 8 2 6 3 5 4 42 5 41 6 10 7 11 8 12 9 14 10 13 11 32 12
REMARK SMILES IDX 34 13 36 14 15 15 16 16 29 17 28 18 21 19 17 20 19 21 30 22
REMARK SMILES IDX 31 23 22 25 23 26 24 27 25 28 26 29 27 30 18 31 20 33 33 35
REMARK SMILES IDX 35 37 37 39 38 41 39 42 40 43 7 45 43 47 44 48 45 50 46 51
REMARK SMILES IDX 47 53 48 54 49 55 50 57 51 58 52 59 53 60 54 61 71 62 55 63
REMARK SMILES IDX 70 64 56 65 57 66 58 67 59 68 60 69 61 70 62 71 69 72 63 73
REMARK SMILES IDX 64 74 68 75 65 77 67 78 66 79 4 80 2 81 1 83 3 84
REMARK H PARENT 31 24 18 32 20 34 33 36 35 38 37 40 40 44 7 46 44 49 46 52
REMARK H PARENT 48 56 63 76 4 82
REMARK Flexibility Score: inf
ROOT
ATOM      1  C   UNL     1      26.036  34.087  14.793  1.00  0.00     0.272 C 
ATOM      2  C   UNL     1      26.329  35.528  14.411  1.00  0.00     0.113 C 
ATOM      3  C   UNL     1      27.641  35.657  13.678  1.00  0.00     0.145 C 
ATOM      4  C   UNL     1      28.800  35.336  14.685  1.00  0.00     0.142 C 
ATOM      5  C   UNL     1      28.261  34.247  15.556  1.00  0.00     0.178 C 
ATOM      6  O   UNL     1      27.305  33.509  14.892  1.00  0.00    -0.332 OA
ENDROOT
BRANCH   1   7
ATOM      7  O   UNL     1      25.222  33.392  13.995  1.00  0.00    -0.338 OA
BRANCH   7   8
ATOM      8  C   UNL     1      24.199  32.623  14.164  1.00  0.00     0.199 C 
BRANCH   8   9
ATOM      9  C   UNL     1      24.078  31.476  13.159  1.00  0.00     0.179 C 
ATOM     10  C   UNL     1      23.941  29.622  14.632  1.00  0.00     0.282 C 
ATOM     11  O   UNL     1      24.573  30.323  13.666  1.00  0.00    -0.341 OA
ATOM     12  C   UNL     1      22.459  29.481  14.422  1.00  0.00     0.202 C 
ATOM     13  C   UNL     1      22.083  29.990  13.035  1.00  0.00     0.179 C 
ATOM     14  C   UNL     1      22.634  31.337  12.760  1.00  0.00     0.177 C 
BRANCH  10  15
ATOM     15  O   UNL     1      24.164  30.190  15.873  1.00  0.00    -0.341 OA
BRANCH  15  16
ATOM     16  C   UNL     1      25.068  29.510  16.636  1.00  0.00     0.184 C 
ATOM     17  C   UNL     1      24.651  29.100  18.002  1.00  0.00     0.178 C 
ATOM     18  O   UNL     1      25.529  28.070  18.396  1.00  0.00    -0.341 OA
ATOM     19  C   UNL     1      26.833  28.461  18.486  1.00  0.00     0.281 C 
ATOM     20  C   UNL     1      26.396  30.229  16.769  1.00  0.00     0.180 C 
ATOM     21  C   UNL     1      27.371  29.186  17.271  1.00  0.00     0.202 C 
BRANCH  17  22
ATOM     22  C   UNL     1      23.263  28.497  18.081  1.00  0.00     0.191 C 
BRANCH  22  23
ATOM     23  O   UNL     1      22.349  29.557  18.056  1.00  0.00    -0.394 OA
ATOM     24  H   UNL     1      21.422  29.264  18.212  1.00  0.00     0.210 HD
ENDBRANCH  22  23
ENDBRANCH  17  22
BRANCH  19  25
ATOM     25  O   UNL     1      27.614  27.309  18.619  1.00  0.00    -0.350 OA
BRANCH  25  26
ATOM     26  C   UNL     1      27.407  26.782  19.880  1.00  0.00     0.169 C 
BRANCH  26  27
ATOM     27  C   UNL     1      28.000  27.636  20.967  1.00  0.00     0.119 C 
BRANCH  27  28
ATOM     28  N   UNL     1      27.141  27.777  22.122  1.00  0.00    -0.092 NA
ATOM     29  N   UNL     1      26.025  28.327  22.028  1.00  0.00     0.001 N 
ATOM     30  N   UNL     1      24.817  28.413  21.791  1.00  0.00    -0.003 NA
ENDBRANCH  27  28
ENDBRANCH  26  27
ENDBRANCH  25  26
ENDBRANCH  19  25
BRANCH  20  31
ATOM     31  O   UNL     1      26.847  30.755  15.581  1.00  0.00    -0.387 OA
ATOM     32  H   UNL     1      26.512  31.673  15.504  1.00  0.00     0.211 HD
ENDBRANCH  20  31
BRANCH  21  33
ATOM     33  O   UNL     1      28.533  29.847  17.669  1.00  0.00    -0.385 OA
ATOM     34  H   UNL     1      28.541  30.797  17.373  1.00  0.00     0.211 HD
ENDBRANCH  21  33
ENDBRANCH  15  16
ENDBRANCH  10  15
BRANCH  12  35
ATOM     35  O   UNL     1      21.984  28.183  14.609  1.00  0.00    -0.385 OA
ATOM     36  H   UNL     1      22.416  27.790  15.396  1.00  0.00     0.211 HD
ENDBRANCH  12  35
BRANCH  13  37
ATOM     37  O   UNL     1      20.668  30.002  13.026  1.00  0.00    -0.387 OA
ATOM     38  H   UNL     1      20.306  29.215  13.501  1.00  0.00     0.211 HD
ENDBRANCH  13  37
BRANCH  14  39
ATOM     39  O   UNL     1      21.913  32.324  13.476  1.00  0.00    -0.387 OA
ATOM     40  H   UNL     1      20.976  32.019  13.597  1.00  0.00     0.211 HD
ENDBRANCH  14  39
ENDBRANCH   8   9
ENDBRANCH   7   8
ENDBRANCH   1   7
BRANCH   1  41
ATOM     41  C   UNL     1      25.407  34.101  16.132  1.00  0.00     0.364 C 
ATOM     42  O   UNL     1      24.610  35.033  16.416  1.00  0.00    -0.246 OA
BRANCH  41  43
ATOM     43  O   UNL     1      25.638  33.165  17.089  1.00  0.00    -0.477 OA
ATOM     44  H   UNL     1      26.501  33.020  17.609  1.00  0.00     0.296 HD
ENDBRANCH  41  43
ENDBRANCH   1  41
BRANCH   3  45
ATOM     45  O   UNL     1      27.846  34.756  12.660  1.00  0.00    -0.391 OA
ATOM     46  H   UNL     1      28.745  34.839  12.231  1.00  0.00     0.211 HD
ENDBRANCH   3  45
BRANCH   5  47
ATOM     47  C   UNL     1      29.232  33.277  16.120  1.00  0.00     0.176 C 
BRANCH  47  48
ATOM     48  O   UNL     1      28.749  32.576  17.201  1.00  0.00    -0.388 OA
ATOM     49  H   UNL     1      29.227  32.749  18.060  1.00  0.00     0.211 HD
ENDBRANCH  47  48
BRANCH  47  50
ATOM     50  C   UNL     1      30.008  32.435  15.132  1.00  0.00     0.165 C 
BRANCH  50  51
ATOM     51  O   UNL     1      29.584  31.148  15.065  1.00  0.00    -0.388 OA
ATOM     52  H   UNL     1      28.666  31.033  15.348  1.00  0.00     0.211 HD
ENDBRANCH  50  51
BRANCH  50  53
ATOM     53  C   UNL     1      31.466  32.664  15.360  1.00  0.00     0.154 C 
BRANCH  53  54
ATOM     54  N   UNL     1      31.837  33.514  16.428  1.00  0.00    -0.319 N 
ATOM     55  C   UNL     1      32.491  34.783  16.253  1.00  0.00     0.407 C 
ATOM     56  H   UNL     1      31.636  33.232  17.435  1.00  0.00     0.167 HD
ATOM     57  O   UNL     1      32.796  35.210  15.120  1.00  0.00    -0.225 OA
BRANCH  55  58
ATOM     58  O   UNL     1      32.804  35.574  17.342  1.00  0.00    -0.443 OA
BRANCH  58  59
ATOM     59  C   UNL     1      32.549  35.168  18.656  1.00  0.00     0.294 C 
BRANCH  59  60
ATOM     60  C   UNL     1      31.070  35.214  18.878  1.00  0.00     0.120 A 
ATOM     61  C   UNL     1      30.378  34.491  19.867  1.00  0.00     0.139 A 
ATOM     62  N   UNL     1      30.108  35.878  18.226  1.00  0.00    -0.132 NA
ATOM     63  N   UNL     1      29.066  34.741  19.770  1.00  0.00    -0.239 N 
ATOM     64  N   UNL     1      28.915  35.582  18.776  1.00  0.00    -0.066 NA
BRANCH  63  65
ATOM     65  C   UNL     1      28.046  34.172  20.626  1.00  0.00     0.122 C 
ATOM     66  C   UNL     1      26.672  34.660  20.049  1.00  0.00     0.046 C 
ATOM     67  C   UNL     1      28.052  34.732  22.029  1.00  0.00     0.046 C 
BRANCH  65  68
ATOM     68  C   UNL     1      28.023  32.723  20.571  1.00  0.00     0.192 C 
ATOM     69  O   UNL     1      27.413  32.237  19.523  1.00  0.00    -0.291 OA
BRANCH  68  70
ATOM     70  C   UNL     1      28.552  31.740  21.467  1.00  0.00     0.045 A 
ATOM     71  C   UNL     1      27.929  31.371  22.666  1.00  0.00     0.095 A 
ATOM     72  C   UNL     1      29.715  31.001  21.388  1.00  0.00     0.010 A 
ATOM     73  N   UNL     1      28.688  30.466  23.254  1.00  0.00    -0.360 N 
ATOM     74  C   UNL     1      29.777  30.202  22.533  1.00  0.00     0.046 A 
ATOM     75  C   UNL     1      30.738  30.902  20.485  1.00  0.00     0.011 A 
ATOM     76  H   UNL     1      28.436  30.023  24.183  1.00  0.00     0.166 HD
ATOM     77  C   UNL     1      30.838  29.339  22.750  1.00  0.00     0.027 A 
ATOM     78  C   UNL     1      31.804  30.032  20.708  1.00  0.00     0.001 A 
ATOM     79  C   UNL     1      31.845  29.262  21.833  1.00  0.00     0.002 A 
ENDBRANCH  68  70
ENDBRANCH  65  68
ENDBRANCH  63  65
ENDBRANCH  59  60
ENDBRANCH  58  59
ENDBRANCH  55  58
ENDBRANCH  53  54
ENDBRANCH  50  53
ENDBRANCH  47  50
ENDBRANCH   5  47
BRANCH   4  80
ATOM     80  N   UNL     1      28.923  36.584  15.431  1.00  0.00    -0.348 N 
ATOM     81  C   UNL     1      29.846  37.612  15.110  1.00  0.00     0.217 C 
ATOM     82  H   UNL     1      28.294  36.741  16.265  1.00  0.00     0.163 HD
ATOM     83  C   UNL     1      29.971  38.881  15.875  1.00  0.00     0.114 C 
ATOM     84  O   UNL     1      30.598  37.399  14.098  1.00  0.00    -0.275 OA
ENDBRANCH   4  80
TORSDOF 32
BEGIN_RES LYS A 131
REMARK  4 active torsions:
REMARK  status: ('A' for Active; 'I' for Inactive)
REMARK    1  A    between atoms: CA   and  CB  
REMARK    2  A    between atoms: CB   and  CG  
REMARK    3  A    between atoms: CG   and  CD  
REMARK    4  A    between atoms: CD   and  CE  
ROOT
ATOM      1  CA  LYS A 131      29.867  25.555  16.977  1.00 20.52     0.186 C 
ENDROOT
BRANCH   1   2
ATOM      2  CB  LYS A 131      28.345  25.722  17.026  1.00 20.94     0.034 C 
BRANCH   2   3
ATOM      3  CG  LYS A 131      27.599  24.451  16.649  1.00 22.96     0.005 C 
BRANCH   3   4
ATOM      4  CD  LYS A 131      27.017  23.759  17.850  1.00 24.33     0.041 C 
BRANCH   4   5
ATOM      5  CE  LYS A 131      25.579  23.346  17.553  1.00 26.91     0.338 C 
ATOM      6  NZ  LYS A 131      24.832  24.471  16.942  1.00 27.40     0.618 N 
ENDBRANCH   4   5
ENDBRANCH   3   4
ENDBRANCH   2   3
ENDBRANCH   1   2
END_RES LYS A 131
BEGIN_RES LYS A 135
REMARK  4 active torsions:
REMARK  status: ('A' for Active; 'I' for Inactive)
REMARK    5  A    between atoms: CA   and  CB  
REMARK    6  A    between atoms: CB   and  CG  
REMARK    7  A    between atoms: CG   and  CD  
REMARK    8  A    between atoms: CD   and  CE  
ROOT
ATOM      7  CA  LYS A 135      33.193  34.663   9.290  1.00 25.02     0.186 C 
ENDROOT
BRANCH   7   8
ATOM      8  CB  LYS A 135      32.060  35.360  10.034  1.00 26.63     0.034 C 
BRANCH   8   9
ATOM      9  CG  LYS A 135      30.817  35.544   9.203  1.00 29.45     0.005 C 
BRANCH   9  10
ATOM     10  CD  LYS A 135      30.092  34.219   9.020  1.00 32.00     0.041 C 
BRANCH  10  11
ATOM     11  CE  LYS A 135      28.662  34.451   8.572  1.00 34.25     0.338 C 
ATOM     12  NZ  LYS A 135      27.703  33.702   9.430  1.00 35.99     0.618 N 
ENDBRANCH  10  11
ENDBRANCH   9  10
ENDBRANCH   8   9
ENDBRANCH   7   8
END_RES LYS A 135
