REMARK VINA RESULT:    -4.483      0.000      0.000
REMARK INTER + INTRA:         -23.996
REMARK INTER:                 -13.291
REMARK INTRA:                 -10.705
REMARK UNBOUND:               -12.699
REMARK SMILES CC(=O)N[C@@H]1[C@@H](O)C[C@](OC[C@H]2O[C@@H](O[C@H]3[C@H](O)[C@@H](O)[C@H](OCCN=[N+]=[N-])O[C@@H]3CO)[C@H](O)[C@@H](O)[C@H]2O)(C(=O)O)O[C@H]1C(O)[C@H](O)CNC(=O)OCc1cn(Cc2ccc(Br)cc2)nn1
REMARK SMILES IDX 9 1 8 2 6 3 5 4 42 5 41 6 10 7 11 8 12 9 14 10 13 11 32 12
REMARK SMILES IDX 34 13 36 14 15 15 16 16 29 17 28 18 21 19 17 20 19 21 30 22
REMARK SMILES IDX 31 23 22 25 23 26 24 27 25 28 26 29 27 30 18 31 20 33 33 35
REMARK SMILES IDX 35 37 37 39 38 41 39 42 40 43 7 45 43 47 44 48 45 50 46 51
REMARK SMILES IDX 47 53 48 54 49 55 50 57 51 58 52 59 53 60 54 61 65 62 55 63
REMARK SMILES IDX 64 64 56 65 57 66 58 67 63 68 59 69 62 70 60 71 61 72 4 73
REMARK SMILES IDX 2 74 1 76 3 77
REMARK H PARENT 31 24 18 32 20 34 33 36 35 38 37 40 40 44 7 46 44 49 46 52
REMARK H PARENT 48 56 4 75
REMARK Flexibility Score: inf
ROOT
ATOM      1  C   UNL     1      30.126  31.993  18.235  1.00  0.00     0.272 C 
ATOM      2  C   UNL     1      29.805  32.808  19.435  1.00  0.00     0.113 C 
ATOM      3  C   UNL     1      30.467  32.479  20.714  1.00  0.00     0.145 C 
ATOM      4  C   UNL     1      31.041  31.038  20.772  1.00  0.00     0.142 C 
ATOM      5  C   UNL     1      30.114  30.287  19.856  1.00  0.00     0.178 C 
ATOM      6  O   UNL     1      30.556  30.696  18.566  1.00  0.00    -0.332 OA
ENDROOT
BRANCH   1   7
ATOM      7  O   UNL     1      30.788  32.520  17.211  1.00  0.00    -0.338 OA
BRANCH   7   8
ATOM      8  C   UNL     1      31.037  32.217  15.994  1.00  0.00     0.199 C 
BRANCH   8   9
ATOM      9  C   UNL     1      31.092  33.361  15.009  1.00  0.00     0.179 C 
ATOM     10  C   UNL     1      30.001  34.446  13.342  1.00  0.00     0.282 C 
ATOM     11  O   UNL     1      30.081  33.321  14.085  1.00  0.00    -0.341 OA
ATOM     12  C   UNL     1      31.178  35.401  13.424  1.00  0.00     0.202 C 
ATOM     13  C   UNL     1      31.557  35.699  14.858  1.00  0.00     0.179 C 
ATOM     14  C   UNL     1      30.918  34.675  15.786  1.00  0.00     0.177 C 
BRANCH  10  15
ATOM     15  O   UNL     1      28.875  35.194  13.437  1.00  0.00    -0.341 OA
BRANCH  15  16
ATOM     16  C   UNL     1      27.696  34.854  12.901  1.00  0.00     0.184 C 
ATOM     17  C   UNL     1      27.089  35.819  11.934  1.00  0.00     0.178 C 
ATOM     18  O   UNL     1      25.909  36.366  12.358  1.00  0.00    -0.341 OA
ATOM     19  C   UNL     1      24.891  35.446  12.568  1.00  0.00     0.281 C 
ATOM     20  C   UNL     1      26.700  34.581  14.008  1.00  0.00     0.180 C 
ATOM     21  C   UNL     1      25.374  34.253  13.369  1.00  0.00     0.202 C 
BRANCH  17  22
ATOM     22  C   UNL     1      26.954  35.154  10.584  1.00  0.00     0.191 C 
BRANCH  22  23
ATOM     23  O   UNL     1      27.514  33.861  10.591  1.00  0.00    -0.394 OA
ATOM     24  H   UNL     1      28.013  33.696  11.411  1.00  0.00     0.210 HD
ENDBRANCH  22  23
ENDBRANCH  17  22
BRANCH  19  25
ATOM     25  O   UNL     1      24.242  35.044  11.413  1.00  0.00    -0.350 OA
BRANCH  25  26
ATOM     26  C   UNL     1      22.900  35.312  11.363  1.00  0.00     0.169 C 
BRANCH  26  27
ATOM     27  C   UNL     1      22.507  36.275  10.282  1.00  0.00     0.119 C 
BRANCH  27  28
ATOM     28  N   UNL     1      22.458  35.590   8.997  1.00  0.00    -0.092 NA
ATOM     29  N   UNL     1      21.392  35.491   8.393  1.00  0.00     0.001 N 
ATOM     30  N   UNL     1      20.358  35.129   7.788  1.00  0.00    -0.003 NA
ENDBRANCH  27  28
ENDBRANCH  26  27
ENDBRANCH  25  26
ENDBRANCH  19  25
BRANCH  20  31
ATOM     31  O   UNL     1      27.140  33.414  14.664  1.00  0.00    -0.387 OA
ATOM     32  H   UNL     1      26.360  32.937  15.063  1.00  0.00     0.211 HD
ENDBRANCH  20  31
BRANCH  21  33
ATOM     33  O   UNL     1      24.429  33.837  14.300  1.00  0.00    -0.385 OA
ATOM     34  H   UNL     1      24.864  33.864  15.190  1.00  0.00     0.211 HD
ENDBRANCH  21  33
ENDBRANCH  15  16
ENDBRANCH  10  15
BRANCH  12  35
ATOM     35  O   UNL     1      32.298  34.963  12.738  1.00  0.00    -0.385 OA
ATOM     36  H   UNL     1      32.427  33.987  12.740  1.00  0.00     0.211 HD
ENDBRANCH  12  35
BRANCH  13  37
ATOM     37  O   UNL     1      31.234  36.991  15.251  1.00  0.00    -0.387 OA
ATOM     38  H   UNL     1      30.509  37.302  14.655  1.00  0.00     0.211 HD
ENDBRANCH  13  37
BRANCH  14  39
ATOM     39  O   UNL     1      29.537  34.878  15.898  1.00  0.00    -0.387 OA
ATOM     40  H   UNL     1      29.071  34.359  15.214  1.00  0.00     0.211 HD
ENDBRANCH  14  39
ENDBRANCH   8   9
ENDBRANCH   7   8
ENDBRANCH   1   7
BRANCH   1  41
ATOM     41  C   UNL     1      28.762  31.694  17.592  1.00  0.00     0.364 C 
ATOM     42  O   UNL     1      28.523  30.534  17.261  1.00  0.00    -0.246 OA
BRANCH  41  43
ATOM     43  O   UNL     1      27.816  32.662  17.380  1.00  0.00    -0.477 OA
ATOM     44  H   UNL     1      27.053  32.488  16.707  1.00  0.00     0.296 HD
ENDBRANCH  41  43
ENDBRANCH   1  41
BRANCH   3  45
ATOM     45  O   UNL     1      31.391  33.397  21.187  1.00  0.00    -0.391 OA
ATOM     46  H   UNL     1      31.134  34.289  20.867  1.00  0.00     0.211 HD
ENDBRANCH   3  45
BRANCH   5  47
ATOM     47  C   UNL     1      30.116  28.807  19.931  1.00  0.00     0.176 C 
BRANCH  47  48
ATOM     48  O   UNL     1      31.321  28.287  20.272  1.00  0.00    -0.388 OA
ATOM     49  H   UNL     1      31.490  27.425  19.875  1.00  0.00     0.211 HD
ENDBRANCH  47  48
BRANCH  47  50
ATOM     50  C   UNL     1      28.961  28.106  20.514  1.00  0.00     0.165 C 
BRANCH  50  51
ATOM     51  O   UNL     1      28.623  26.941  19.807  1.00  0.00    -0.388 OA
ATOM     52  H   UNL     1      28.685  26.121  20.318  1.00  0.00     0.211 HD
ENDBRANCH  50  51
BRANCH  50  53
ATOM     53  C   UNL     1      27.759  28.862  20.912  1.00  0.00     0.154 C 
BRANCH  53  54
ATOM     54  N   UNL     1      26.907  29.296  19.817  1.00  0.00    -0.319 N 
ATOM     55  C   UNL     1      26.328  30.591  19.791  1.00  0.00     0.407 C 
ATOM     56  H   UNL     1      26.682  28.681  18.996  1.00  0.00     0.167 HD
ATOM     57  O   UNL     1      26.561  31.409  20.737  1.00  0.00    -0.225 OA
BRANCH  55  58
ATOM     58  O   UNL     1      25.494  31.038  18.770  1.00  0.00    -0.443 OA
BRANCH  58  59
ATOM     59  C   UNL     1      24.718  30.094  18.007  1.00  0.00     0.294 C 
BRANCH  59  60
ATOM     60  C   UNL     1      24.810  30.335  16.558  1.00  0.00     0.120 A 
ATOM     61  C   UNL     1      24.168  29.594  15.585  1.00  0.00     0.138 A 
ATOM     62  N   UNL     1      25.511  31.278  15.926  1.00  0.00    -0.132 NA
ATOM     63  N   UNL     1      24.497  30.108  14.394  1.00  0.00    -0.248 N 
ATOM     64  N   UNL     1      25.307  31.120  14.631  1.00  0.00    -0.067 NA
BRANCH  63  65
ATOM     65  C   UNL     1      24.060  29.688  13.077  1.00  0.00     0.181 C 
BRANCH  65  66
ATOM     66  C   UNL     1      22.679  30.106  12.745  1.00  0.00    -0.026 A 
ATOM     67  C   UNL     1      21.769  29.115  12.366  1.00  0.00     0.007 A 
ATOM     68  C   UNL     1      22.230  31.394  12.799  1.00  0.00     0.007 A 
ATOM     69  C   UNL     1      20.461  29.451  12.059  1.00  0.00     0.016 A 
ATOM     70  C   UNL     1      20.915  31.747  12.493  1.00  0.00     0.016 A 
ATOM     71  C   UNL     1      20.035  30.766  12.124  1.00  0.00     0.017 A 
ATOM     72  Br  UNL     1      18.209  31.194  11.694  1.00  0.00    -0.051 Br
ENDBRANCH  65  66
ENDBRANCH  63  65
ENDBRANCH  59  60
ENDBRANCH  58  59
ENDBRANCH  55  58
ENDBRANCH  53  54
ENDBRANCH  50  53
ENDBRANCH  47  50
ENDBRANCH   5  47
BRANCH   4  73
ATOM     73  N   UNL     1      31.109  30.607  22.121  1.00  0.00    -0.348 N 
ATOM     74  C   UNL     1      32.319  30.100  22.655  1.00  0.00     0.217 C 
ATOM     75  H   UNL     1      30.280  30.675  22.735  1.00  0.00     0.163 HD
ATOM     76  C   UNL     1      32.505  29.634  24.032  1.00  0.00     0.114 C 
ATOM     77  O   UNL     1      33.339  30.041  21.881  1.00  0.00    -0.275 OA
ENDBRANCH   4  73
TORSDOF 31
BEGIN_RES LYS A 131
REMARK  4 active torsions:
REMARK  status: ('A' for Active; 'I' for Inactive)
REMARK    1  A    between atoms: CA   and  CB  
REMARK    2  A    between atoms: CB   and  CG  
REMARK    3  A    between atoms: CG   and  CD  
REMARK    4  A    between atoms: CD   and  CE  
ROOT
ATOM      1  CA  LYS A 131      29.867  25.555  16.977  1.00 20.52     0.186 C 
ENDROOT
BRANCH   1   2
ATOM      2  CB  LYS A 131      28.345  25.722  17.026  1.00 20.94     0.034 C 
BRANCH   2   3
ATOM      3  CG  LYS A 131      27.599  24.429  16.735  1.00 22.96     0.005 C 
BRANCH   3   4
ATOM      4  CD  LYS A 131      26.935  23.869  17.962  1.00 24.33     0.041 C 
BRANCH   4   5
ATOM      5  CE  LYS A 131      25.596  23.247  17.577  1.00 26.91     0.338 C 
ATOM      6  NZ  LYS A 131      24.719  24.256  16.940  1.00 27.40     0.618 N 
ENDBRANCH   4   5
ENDBRANCH   3   4
ENDBRANCH   2   3
ENDBRANCH   1   2
END_RES LYS A 131
BEGIN_RES LYS A 135
REMARK  4 active torsions:
REMARK  status: ('A' for Active; 'I' for Inactive)
REMARK    5  A    between atoms: CA   and  CB  
REMARK    6  A    between atoms: CB   and  CG  
REMARK    7  A    between atoms: CG   and  CD  
REMARK    8  A    between atoms: CD   and  CE  
ROOT
ATOM      7  CA  LYS A 135      33.193  34.663   9.290  1.00 25.02     0.186 C 
ENDROOT
BRANCH   7   8
ATOM      8  CB  LYS A 135      32.060  35.360  10.034  1.00 26.63     0.034 C 
BRANCH   8   9
ATOM      9  CG  LYS A 135      30.697  34.802   9.716  1.00 29.45     0.005 C 
BRANCH   9  10
ATOM     10  CD  LYS A 135      30.577  34.492   8.231  1.00 32.00     0.041 C 
BRANCH  10  11
ATOM     11  CE  LYS A 135      29.246  34.978   7.692  1.00 34.25     0.338 C 
ATOM     12  NZ  LYS A 135      29.202  36.466   7.632  1.00 35.99     0.618 N 
ENDBRANCH  10  11
ENDBRANCH   9  10
ENDBRANCH   8   9
ENDBRANCH   7   8
END_RES LYS A 135
