REMARK VINA RESULT:    -4.483      2.697      5.402
REMARK INTER + INTRA:         -24.609
REMARK INTER:                 -12.692
REMARK INTRA:                 -11.917
REMARK UNBOUND:               -12.132
REMARK SMILES CCOCCc1c(-c2ccccc2)nc(N)nc1-n1cc(COC(=O)NC[C@@H](O)C(O)[C@@H]2O[C@@](OC[C@H]3O[C@@H](O[C@H]4[C@H](O)[C@@H](O)[C@H](OCCN=[N+]=[N-])O[C@@H]4CO)[C@H](O)[C@@H](O)[C@H]3O)(C(=O)O)C[C@H](O)[C@H]2NC(C)=O)nn1
REMARK SMILES IDX 30 1 32 2 34 3 66 4 33 5 67 6 69 7 35 8 36 9 37 10 39 11
REMARK SMILES IDX 38 12 57 13 59 14 61 15 40 16 41 17 54 18 53 19 46 20 42 21
REMARK SMILES IDX 44 22 55 23 56 24 47 26 48 27 49 28 50 29 51 30 52 31 43 32
REMARK SMILES IDX 45 34 58 36 60 38 62 40 63 42 64 43 65 44 68 46 70 48 71 49
REMARK SMILES IDX 72 51 73 52 31 53 28 55 29 56 27 58 26 59 24 60 25 62 23 63
REMARK SMILES IDX 22 64 21 65 20 66 74 67 19 68 75 69 18 70 17 71 6 72 15 73
REMARK SMILES IDX 7 74 14 75 5 76 4 77 3 78 2 79 1 80 16 81 8 84 9 85 13 86
REMARK SMILES IDX 10 87 12 88 11 89
REMARK H PARENT 56 25 43 33 45 35 58 37 60 39 62 41 65 45 68 47 70 50 31 54
REMARK H PARENT 29 57 26 61 16 82 16 83
REMARK Flexibility Score: inf
ROOT
ATOM      1  C   UNL     1      25.008  31.883  19.756  1.00  0.00     0.176 C 
ENDROOT
BRANCH   1   2
ATOM      2  C   UNL     1      24.887  30.395  19.891  1.00  0.00     0.178 C 
ATOM      3  C   UNL     1      25.886  28.737  21.206  1.00  0.00     0.272 C 
ATOM      4  C   UNL     1      24.910  27.855  20.423  1.00  0.00     0.113 C 
ATOM      5  O   UNL     1      25.648  30.054  21.050  1.00  0.00    -0.332 OA
ATOM      6  C   UNL     1      24.923  28.151  18.954  1.00  0.00     0.145 C 
ATOM      7  C   UNL     1      25.431  29.570  18.776  1.00  0.00     0.142 C 
BRANCH   3   8
ATOM      8  O   UNL     1      27.157  28.326  20.870  1.00  0.00    -0.338 OA
BRANCH   8   9
ATOM      9  C   UNL     1      28.184  29.093  21.352  1.00  0.00     0.199 C 
BRANCH   9  10
ATOM     10  C   UNL     1      29.180  29.473  20.267  1.00  0.00     0.179 C 
ATOM     11  C   UNL     1      29.777  31.490  19.257  1.00  0.00     0.282 C 
ATOM     12  O   UNL     1      28.796  30.672  19.741  1.00  0.00    -0.341 OA
ATOM     13  C   UNL     1      30.732  31.757  20.428  1.00  0.00     0.202 C 
ATOM     14  C   UNL     1      31.501  30.446  20.583  1.00  0.00     0.179 C 
ATOM     15  C   UNL     1      30.598  29.262  20.609  1.00  0.00     0.177 C 
BRANCH  11  16
ATOM     16  O   UNL     1      29.227  32.646  18.753  1.00  0.00    -0.341 OA
BRANCH  16  17
ATOM     17  C   UNL     1      29.092  32.610  17.375  1.00  0.00     0.184 C 
ATOM     18  C   UNL     1      30.420  32.602  16.697  1.00  0.00     0.178 C 
ATOM     19  O   UNL     1      30.763  33.722  16.007  1.00  0.00    -0.341 OA
ATOM     20  C   UNL     1      29.833  34.318  15.215  1.00  0.00     0.281 C 
ATOM     21  C   UNL     1      28.166  33.681  16.884  1.00  0.00     0.180 C 
ATOM     22  C   UNL     1      28.410  33.919  15.417  1.00  0.00     0.202 C 
BRANCH  18  23
ATOM     23  C   UNL     1      30.630  31.327  15.880  1.00  0.00     0.191 C 
BRANCH  23  24
ATOM     24  O   UNL     1      29.429  30.817  15.421  1.00  0.00    -0.394 OA
ATOM     25  H   UNL     1      28.707  31.391  15.784  1.00  0.00     0.210 HD
ENDBRANCH  23  24
ENDBRANCH  18  23
BRANCH  20  26
ATOM     26  O   UNL     1      30.189  34.079  13.892  1.00  0.00    -0.350 OA
BRANCH  26  27
ATOM     27  C   UNL     1      30.876  35.108  13.296  1.00  0.00     0.169 C 
BRANCH  27  28
ATOM     28  C   UNL     1      30.566  36.470  13.868  1.00  0.00     0.119 C 
BRANCH  28  29
ATOM     29  N   UNL     1      31.824  37.145  14.182  1.00  0.00    -0.092 NA
ATOM     30  N   UNL     1      32.582  36.722  15.064  1.00  0.00     0.001 N 
ATOM     31  N   UNL     1      33.160  36.258  16.045  1.00  0.00    -0.003 NA
ENDBRANCH  28  29
ENDBRANCH  27  28
ENDBRANCH  26  27
ENDBRANCH  20  26
BRANCH  21  32
ATOM     32  O   UNL     1      26.821  33.340  17.048  1.00  0.00    -0.387 OA
ATOM     33  H   UNL     1      26.701  32.359  17.165  1.00  0.00     0.211 HD
ENDBRANCH  21  32
BRANCH  22  34
ATOM     34  O   UNL     1      27.594  34.978  15.021  1.00  0.00    -0.385 OA
ATOM     35  H   UNL     1      27.825  35.314  14.119  1.00  0.00     0.211 HD
ENDBRANCH  22  34
ENDBRANCH  16  17
ENDBRANCH  11  16
BRANCH  13  36
ATOM     36  O   UNL     1      31.607  32.785  20.176  1.00  0.00    -0.385 OA
ATOM     37  H   UNL     1      31.142  33.665  20.136  1.00  0.00     0.211 HD
ENDBRANCH  13  36
BRANCH  14  38
ATOM     38  O   UNL     1      32.443  30.486  21.585  1.00  0.00    -0.387 OA
ATOM     39  H   UNL     1      33.121  31.211  21.431  1.00  0.00     0.211 HD
ENDBRANCH  14  38
BRANCH  15  40
ATOM     40  O   UNL     1      30.675  28.701  21.902  1.00  0.00    -0.387 OA
ATOM     41  H   UNL     1      31.596  28.818  22.251  1.00  0.00     0.211 HD
ENDBRANCH  15  40
ENDBRANCH   9  10
ENDBRANCH   8   9
ENDBRANCH   3   8
BRANCH   3  42
ATOM     42  C   UNL     1      25.612  28.368  22.631  1.00  0.00     0.364 C 
ATOM     43  O   UNL     1      25.729  29.333  23.466  1.00  0.00    -0.246 OA
BRANCH  42  44
ATOM     44  O   UNL     1      25.260  27.127  23.079  1.00  0.00    -0.477 OA
ATOM     45  H   UNL     1      24.973  27.007  24.046  1.00  0.00     0.296 HD
ENDBRANCH  42  44
ENDBRANCH   3  42
BRANCH   6  46
ATOM     46  O   UNL     1      25.782  27.215  18.357  1.00  0.00    -0.391 OA
ATOM     47  H   UNL     1      25.946  26.447  18.938  1.00  0.00     0.211 HD
ENDBRANCH   6  46
BRANCH   7  48
ATOM     48  N   UNL     1      25.206  30.046  17.446  1.00  0.00    -0.348 N 
ATOM     49  C   UNL     1      26.161  29.950  16.401  1.00  0.00     0.217 C 
ATOM     50  H   UNL     1      24.274  30.470  17.251  1.00  0.00     0.163 HD
ATOM     51  C   UNL     1      25.820  30.474  15.063  1.00  0.00     0.114 C 
ATOM     52  O   UNL     1      27.273  29.424  16.617  1.00  0.00    -0.275 OA
ENDBRANCH   7  48
ENDBRANCH   1   2
BRANCH   1  53
ATOM     53  O   UNL     1      26.419  32.137  19.667  1.00  0.00    -0.388 OA
ATOM     54  H   UNL     1      26.723  31.649  18.873  1.00  0.00     0.211 HD
ENDBRANCH   1  53
BRANCH   1  55
ATOM     55  C   UNL     1      24.492  32.741  20.839  1.00  0.00     0.165 C 
BRANCH  55  56
ATOM     56  O   UNL     1      23.075  32.711  20.692  1.00  0.00    -0.388 OA
ATOM     57  H   UNL     1      22.820  33.422  20.071  1.00  0.00     0.211 HD
ENDBRANCH  55  56
BRANCH  55  58
ATOM     58  C   UNL     1      24.924  34.147  20.875  1.00  0.00     0.154 C 
BRANCH  58  59
ATOM     59  N   UNL     1      25.323  34.712  19.645  1.00  0.00    -0.319 N 
ATOM     60  C   UNL     1      24.469  35.234  18.656  1.00  0.00     0.407 C 
ATOM     61  H   UNL     1      26.374  34.780  19.372  1.00  0.00     0.167 HD
ATOM     62  O   UNL     1      23.225  35.242  18.781  1.00  0.00    -0.225 OA
BRANCH  60  63
ATOM     63  O   UNL     1      24.952  35.783  17.464  1.00  0.00    -0.443 OA
BRANCH  63  64
ATOM     64  C   UNL     1      24.091  36.182  16.419  1.00  0.00     0.294 C 
BRANCH  64  65
ATOM     65  C   UNL     1      24.347  35.417  15.176  1.00  0.00     0.121 A 
ATOM     66  C   UNL     1      24.110  35.824  13.889  1.00  0.00     0.146 A 
ATOM     67  N   UNL     1      24.840  34.162  15.063  1.00  0.00    -0.131 NA
ATOM     68  N   UNL     1      24.462  34.808  13.015  1.00  0.00    -0.202 N 
ATOM     69  N   UNL     1      24.888  33.850  13.782  1.00  0.00    -0.060 NA
BRANCH  68  70
ATOM     70  C   UNL     1      24.279  35.004  11.635  1.00  0.00     0.164 A 
ATOM     71  N   UNL     1      23.014  35.048  11.148  1.00  0.00    -0.193 NA
ATOM     72  C   UNL     1      25.320  35.238  10.724  1.00  0.00     0.026 A 
ATOM     73  C   UNL     1      22.723  35.302   9.872  1.00  0.00     0.222 A 
ATOM     74  C   UNL     1      25.046  35.504   9.417  1.00  0.00     0.081 A 
ATOM     75  N   UNL     1      23.729  35.527   9.024  1.00  0.00    -0.213 NA
BRANCH  72  76
ATOM     76  C   UNL     1      26.678  35.062  11.251  1.00  0.00     0.070 C 
BRANCH  76  77
ATOM     77  C   UNL     1      27.288  36.320  11.833  1.00  0.00     0.165 C 
BRANCH  77  78
ATOM     78  O   UNL     1      26.834  37.509  11.352  1.00  0.00    -0.381 OA
BRANCH  78  79
ATOM     79  C   UNL     1      26.258  38.380  12.227  1.00  0.00     0.156 C 
ATOM     80  C   UNL     1      24.908  38.893  11.696  1.00  0.00     0.035 C 
ENDBRANCH  78  79
ENDBRANCH  77  78
ENDBRANCH  76  77
ENDBRANCH  72  76
BRANCH  73  81
ATOM     81  N   UNL     1      21.370  35.334   9.406  1.00  0.00    -0.368 N 
ATOM     82  H   UNL     1      20.603  35.623  10.047  1.00  0.00     0.159 HD
ATOM     83  H   UNL     1      21.103  35.081   8.441  1.00  0.00     0.159 HD
ENDBRANCH  73  81
BRANCH  74  84
ATOM     84  C   UNL     1      26.058  35.782   8.422  1.00  0.00     0.001 A 
ATOM     85  C   UNL     1      26.142  37.078   7.920  1.00  0.00     0.010 A 
ATOM     86  C   UNL     1      26.950  34.821   7.980  1.00  0.00     0.010 A 
ATOM     87  C   UNL     1      27.105  37.429   6.982  1.00  0.00     0.001 A 
ATOM     88  C   UNL     1      27.895  35.189   7.051  1.00  0.00     0.001 A 
ATOM     89  C   UNL     1      27.985  36.465   6.552  1.00  0.00     0.000 A 
ENDBRANCH  74  84
ENDBRANCH  68  70
ENDBRANCH  64  65
ENDBRANCH  63  64
ENDBRANCH  60  63
ENDBRANCH  58  59
ENDBRANCH  55  58
ENDBRANCH   1  55
TORSDOF 36
BEGIN_RES LYS A 131
REMARK  4 active torsions:
REMARK  status: ('A' for Active; 'I' for Inactive)
REMARK    1  A    between atoms: CA   and  CB  
REMARK    2  A    between atoms: CB   and  CG  
REMARK    3  A    between atoms: CG   and  CD  
REMARK    4  A    between atoms: CD   and  CE  
ROOT
ATOM      1  CA  LYS A 131      29.867  25.555  16.977  1.00 20.52     0.186 C 
ENDROOT
BRANCH   1   2
ATOM      2  CB  LYS A 131      28.345  25.722  17.026  1.00 20.94     0.034 C 
BRANCH   2   3
ATOM      3  CG  LYS A 131      27.599  24.430  16.731  1.00 22.96     0.005 C 
BRANCH   3   4
ATOM      4  CD  LYS A 131      26.988  23.833  17.969  1.00 24.33     0.041 C 
BRANCH   4   5
ATOM      5  CE  LYS A 131      25.589  23.317  17.648  1.00 26.91     0.338 C 
ATOM      6  NZ  LYS A 131      24.836  24.317  16.854  1.00 27.40     0.618 N 
ENDBRANCH   4   5
ENDBRANCH   3   4
ENDBRANCH   2   3
ENDBRANCH   1   2
END_RES LYS A 131
BEGIN_RES LYS A 135
REMARK  4 active torsions:
REMARK  status: ('A' for Active; 'I' for Inactive)
REMARK    5  A    between atoms: CA   and  CB  
REMARK    6  A    between atoms: CB   and  CG  
REMARK    7  A    between atoms: CG   and  CD  
REMARK    8  A    between atoms: CD   and  CE  
ROOT
ATOM      7  CA  LYS A 135      33.193  34.663   9.290  1.00 25.02     0.186 C 
ENDROOT
BRANCH   7   8
ATOM      8  CB  LYS A 135      32.060  35.360  10.034  1.00 26.63     0.034 C 
BRANCH   8   9
ATOM      9  CG  LYS A 135      30.770  35.409   9.257  1.00 29.45     0.005 C 
BRANCH   9  10
ATOM     10  CD  LYS A 135      30.107  36.771   9.403  1.00 32.00     0.041 C 
BRANCH  10  11
ATOM     11  CE  LYS A 135      30.955  37.686  10.266  1.00 34.25     0.338 C 
ATOM     12  NZ  LYS A 135      30.104  38.620  11.054  1.00 35.99     0.618 N 
ENDBRANCH  10  11
ENDBRANCH   9  10
ENDBRANCH   8   9
ENDBRANCH   7   8
END_RES LYS A 135
