REMARK VINA RESULT:    -4.139      3.201      8.917
REMARK INTER + INTRA:         -23.915
REMARK INTER:                 -11.243
REMARK INTRA:                 -12.672
REMARK UNBOUND:               -13.000
REMARK SMILES CC(=O)N[C@@H]1[C@@H](O)C[C@](OC[C@H]2O[C@@H](O[C@H]3[C@H](O)[C@@H](O)[C@H](OCCN=[N+]=[N-])O[C@@H]3CO)[C@H](O)[C@@H](O)[C@H]2O)(C(=O)O)O[C@H]1C(O)[C@H](O)CNC(=O)OCc1cn(C(C)CC(=O)c2ccccc2)nn1
REMARK SMILES IDX 43 1 42 2 9 3 8 4 41 5 6 6 5 7 10 8 11 9 12 10 14 11 13 12
REMARK SMILES IDX 32 13 34 14 36 15 15 16 16 17 29 18 28 19 21 20 17 21 19 22
REMARK SMILES IDX 30 23 31 24 22 26 23 27 24 28 25 29 26 30 27 31 18 32 20 34
REMARK SMILES IDX 33 36 35 38 37 40 38 42 39 43 40 44 7 46 4 48 2 49 1 51 3 52
REMARK SMILES IDX 44 53 45 55 46 56 47 58 48 59 49 60 50 62 51 63 52 64 53 65
REMARK SMILES IDX 54 66 68 67 55 68 67 69 56 70 57 71 58 72 59 73 60 74 61 75
REMARK SMILES IDX 62 76 66 77 63 78 65 79 64 80
REMARK H PARENT 31 25 18 33 20 35 33 37 35 39 37 41 40 45 7 47 4 50 44 54
REMARK H PARENT 46 57 48 61
REMARK Flexibility Score: inf
ROOT
ATOM      1  C   UNL     1      30.726  32.892  17.403  1.00  0.00     0.176 C 
ENDROOT
BRANCH   1   2
ATOM      2  C   UNL     1      30.079  34.200  17.537  1.00  0.00     0.178 C 
ATOM      3  C   UNL     1      28.550  34.865  15.868  1.00  0.00     0.272 C 
ATOM      4  C   UNL     1      28.882  36.312  16.005  1.00  0.00     0.113 C 
ATOM      5  O   UNL     1      28.794  34.320  17.182  1.00  0.00    -0.332 OA
ATOM      6  C   UNL     1      30.082  36.526  16.907  1.00  0.00     0.145 C 
ATOM      7  C   UNL     1      30.954  35.328  16.945  1.00  0.00     0.142 C 
BRANCH   3   8
ATOM      8  O   UNL     1      29.146  34.086  15.015  1.00  0.00    -0.338 OA
BRANCH   8   9
ATOM      9  C   UNL     1      29.253  33.925  13.744  1.00  0.00     0.199 C 
BRANCH   9  10
ATOM     10  C   UNL     1      29.857  34.857  12.743  1.00  0.00     0.179 C 
ATOM     11  C   UNL     1      29.385  37.045  11.974  1.00  0.00     0.282 C 
ATOM     12  O   UNL     1      29.024  35.884  12.548  1.00  0.00    -0.341 OA
ATOM     13  C   UNL     1      30.601  37.621  12.621  1.00  0.00     0.202 C 
ATOM     14  C   UNL     1      31.632  36.628  12.914  1.00  0.00     0.179 C 
ATOM     15  C   UNL     1      31.292  35.177  12.880  1.00  0.00     0.177 C 
BRANCH  11  16
ATOM     16  O   UNL     1      28.269  37.906  12.153  1.00  0.00    -0.341 OA
BRANCH  16  17
ATOM     17  C   UNL     1      27.113  37.214  11.881  1.00  0.00     0.184 C 
ATOM     18  C   UNL     1      26.814  37.200  10.411  1.00  0.00     0.178 C 
ATOM     19  O   UNL     1      26.539  38.470   9.928  1.00  0.00    -0.341 OA
ATOM     20  C   UNL     1      25.557  39.174  10.553  1.00  0.00     0.281 C 
ATOM     21  C   UNL     1      25.948  37.901  12.625  1.00  0.00     0.180 C 
ATOM     22  C   UNL     1      25.643  39.230  12.039  1.00  0.00     0.202 C 
BRANCH  18  23
ATOM     23  C   UNL     1      25.709  36.219  10.075  1.00  0.00     0.191 C 
BRANCH  23  24
ATOM     24  O   UNL     1      25.402  36.204   8.721  1.00  0.00    -0.394 OA
ATOM     25  H   UNL     1      24.462  36.504   8.598  1.00  0.00     0.210 HD
ENDBRANCH  23  24
ENDBRANCH  18  23
BRANCH  20  26
ATOM     26  O   UNL     1      24.281  38.878  10.145  1.00  0.00    -0.350 OA
BRANCH  26  27
ATOM     27  C   UNL     1      23.953  39.303   8.887  1.00  0.00     0.169 C 
BRANCH  27  28
ATOM     28  C   UNL     1      24.732  40.518   8.457  1.00  0.00     0.119 C 
BRANCH  28  29
ATOM     29  N   UNL     1      25.226  40.295   7.110  1.00  0.00    -0.092 NA
ATOM     30  N   UNL     1      26.025  39.386   6.902  1.00  0.00     0.001 N 
ATOM     31  N   UNL     1      26.661  38.355   6.676  1.00  0.00    -0.003 NA
ENDBRANCH  28  29
ENDBRANCH  27  28
ENDBRANCH  26  27
ENDBRANCH  20  26
BRANCH  21  32
ATOM     32  O   UNL     1      24.847  37.057  12.696  1.00  0.00    -0.387 OA
ATOM     33  H   UNL     1      24.758  36.621  13.578  1.00  0.00     0.211 HD
ENDBRANCH  21  32
BRANCH  22  34
ATOM     34  O   UNL     1      26.506  40.224  12.504  1.00  0.00    -0.385 OA
ATOM     35  H   UNL     1      26.586  40.874  11.760  1.00  0.00     0.211 HD
ENDBRANCH  22  34
ENDBRANCH  16  17
ENDBRANCH  11  16
BRANCH  13  36
ATOM     36  O   UNL     1      31.167  38.619  11.775  1.00  0.00    -0.385 OA
ATOM     37  H   UNL     1      31.656  39.224  12.394  1.00  0.00     0.211 HD
ENDBRANCH  13  36
BRANCH  14  38
ATOM     38  O   UNL     1      32.198  36.954  14.180  1.00  0.00    -0.387 OA
ATOM     39  H   UNL     1      31.820  37.789  14.540  1.00  0.00     0.211 HD
ENDBRANCH  14  38
BRANCH  15  40
ATOM     40  O   UNL     1      31.953  34.558  13.922  1.00  0.00    -0.387 OA
ATOM     41  H   UNL     1      32.908  34.478  13.876  1.00  0.00     0.211 HD
ENDBRANCH  15  40
ENDBRANCH   9  10
ENDBRANCH   8   9
ENDBRANCH   3   8
BRANCH   3  42
ATOM     42  C   UNL     1      27.028  34.764  15.774  1.00  0.00     0.364 C 
ATOM     43  O   UNL     1      26.405  34.114  16.622  1.00  0.00    -0.246 OA
BRANCH  42  44
ATOM     44  O   UNL     1      26.342  35.390  14.758  1.00  0.00    -0.477 OA
ATOM     45  H   UNL     1      26.887  35.919  14.087  1.00  0.00     0.296 HD
ENDBRANCH  42  44
ENDBRANCH   3  42
BRANCH   6  46
ATOM     46  O   UNL     1      30.763  37.693  16.578  1.00  0.00    -0.391 OA
ATOM     47  H   UNL     1      30.090  38.338  16.177  1.00  0.00     0.211 HD
ENDBRANCH   6  46
BRANCH   7  48
ATOM     48  N   UNL     1      32.053  35.527  17.885  1.00  0.00    -0.348 N 
ATOM     49  C   UNL     1      33.405  35.685  17.476  1.00  0.00     0.217 C 
ATOM     50  H   UNL     1      31.841  35.556  18.899  1.00  0.00     0.163 HD
ATOM     51  C   UNL     1      34.504  35.882  18.424  1.00  0.00     0.114 C 
ATOM     52  O   UNL     1      33.674  35.650  16.227  1.00  0.00    -0.275 OA
ENDBRANCH   7  48
ENDBRANCH   1   2
BRANCH   1  53
ATOM     53  O   UNL     1      31.293  32.651  16.129  1.00  0.00    -0.388 OA
ATOM     54  H   UNL     1      30.620  32.094  15.629  1.00  0.00     0.211 HD
ENDBRANCH   1  53
BRANCH   1  55
ATOM     55  C   UNL     1      29.901  31.665  17.728  1.00  0.00     0.165 C 
BRANCH  55  56
ATOM     56  O   UNL     1      30.543  30.725  18.466  1.00  0.00    -0.388 OA
ATOM     57  H   UNL     1      31.120  31.160  19.137  1.00  0.00     0.211 HD
ENDBRANCH  55  56
BRANCH  55  58
ATOM     58  C   UNL     1      29.471  31.069  16.379  1.00  0.00     0.154 C 
BRANCH  58  59
ATOM     59  N   UNL     1      28.127  31.486  16.049  1.00  0.00    -0.319 N 
ATOM     60  C   UNL     1      26.992  30.648  15.977  1.00  0.00     0.407 C 
ATOM     61  H   UNL     1      27.926  32.514  15.841  1.00  0.00     0.167 HD
ATOM     62  O   UNL     1      27.072  29.436  16.253  1.00  0.00    -0.225 OA
BRANCH  60  63
ATOM     63  O   UNL     1      25.734  31.150  15.588  1.00  0.00    -0.443 OA
BRANCH  63  64
ATOM     64  C   UNL     1      25.170  30.689  14.341  1.00  0.00     0.294 C 
BRANCH  64  65
ATOM     65  C   UNL     1      24.598  31.944  13.728  1.00  0.00     0.120 A 
ATOM     66  C   UNL     1      23.255  32.049  13.318  1.00  0.00     0.138 A 
ATOM     67  N   UNL     1      25.154  33.098  13.412  1.00  0.00    -0.132 NA
ATOM     68  N   UNL     1      23.065  33.259  12.770  1.00  0.00    -0.249 N 
ATOM     69  N   UNL     1      24.217  33.879  12.835  1.00  0.00    -0.067 NA
BRANCH  68  70
ATOM     70  C   UNL     1      21.787  33.703  12.209  1.00  0.00     0.114 C 
ATOM     71  C   UNL     1      20.788  32.598  12.347  1.00  0.00     0.034 C 
BRANCH  70  72
ATOM     72  C   UNL     1      21.384  35.018  12.791  1.00  0.00     0.108 C 
BRANCH  72  73
ATOM     73  C   UNL     1      21.564  36.056  11.741  1.00  0.00     0.164 C 
ATOM     74  O   UNL     1      22.157  37.111  11.973  1.00  0.00    -0.294 OA
BRANCH  73  75
ATOM     75  C   UNL     1      21.007  35.772  10.409  1.00  0.00     0.018 A 
ATOM     76  C   UNL     1      19.705  35.492  10.208  1.00  0.00     0.012 A 
ATOM     77  C   UNL     1      21.903  35.811   9.329  1.00  0.00     0.012 A 
ATOM     78  C   UNL     1      19.228  35.238   8.910  1.00  0.00     0.001 A 
ATOM     79  C   UNL     1      21.420  35.560   8.077  1.00  0.00     0.001 A 
ATOM     80  C   UNL     1      20.100  35.275   7.847  1.00  0.00     0.000 A 
ENDBRANCH  73  75
ENDBRANCH  72  73
ENDBRANCH  70  72
ENDBRANCH  68  70
ENDBRANCH  64  65
ENDBRANCH  63  64
ENDBRANCH  60  63
ENDBRANCH  58  59
ENDBRANCH  55  58
ENDBRANCH   1  55
TORSDOF 33
BEGIN_RES LYS A 131
REMARK  4 active torsions:
REMARK  status: ('A' for Active; 'I' for Inactive)
REMARK    1  A    between atoms: CA   and  CB  
REMARK    2  A    between atoms: CB   and  CG  
REMARK    3  A    between atoms: CG   and  CD  
REMARK    4  A    between atoms: CD   and  CE  
ROOT
ATOM      1  CA  LYS A 131      29.867  25.555  16.977  1.00 20.52     0.186 C 
ENDROOT
BRANCH   1   2
ATOM      2  CB  LYS A 131      28.345  25.722  17.026  1.00 20.94     0.034 C 
BRANCH   2   3
ATOM      3  CG  LYS A 131      27.599  24.475  16.575  1.00 22.96     0.005 C 
BRANCH   3   4
ATOM      4  CD  LYS A 131      27.032  23.705  17.735  1.00 24.33     0.041 C 
BRANCH   4   5
ATOM      5  CE  LYS A 131      25.765  24.393  18.233  1.00 26.91     0.338 C 
ATOM      6  NZ  LYS A 131      24.818  24.610  17.114  1.00 27.40     0.618 N 
ENDBRANCH   4   5
ENDBRANCH   3   4
ENDBRANCH   2   3
ENDBRANCH   1   2
END_RES LYS A 131
BEGIN_RES LYS A 135
REMARK  4 active torsions:
REMARK  status: ('A' for Active; 'I' for Inactive)
REMARK    5  A    between atoms: CA   and  CB  
REMARK    6  A    between atoms: CB   and  CG  
REMARK    7  A    between atoms: CG   and  CD  
REMARK    8  A    between atoms: CD   and  CE  
ROOT
ATOM      7  CA  LYS A 135      33.193  34.663   9.290  1.00 25.02     0.186 C 
ENDROOT
BRANCH   7   8
ATOM      8  CB  LYS A 135      32.060  35.360  10.034  1.00 26.63     0.034 C 
BRANCH   8   9
ATOM      9  CG  LYS A 135      30.857  35.643   9.172  1.00 29.45     0.005 C 
BRANCH   9  10
ATOM     10  CD  LYS A 135      30.259  34.348   8.644  1.00 32.00     0.041 C 
BRANCH  10  11
ATOM     11  CE  LYS A 135      28.746  34.446   8.583  1.00 34.25     0.338 C 
ATOM     12  NZ  LYS A 135      28.114  33.683   9.695  1.00 35.99     0.618 N 
ENDBRANCH  10  11
ENDBRANCH   9  10
ENDBRANCH   8   9
ENDBRANCH   7   8
END_RES LYS A 135
