REMARK VINA RESULT:    -5.351      4.436     10.583
REMARK INTER + INTRA:         -25.302
REMARK INTER:                 -11.640
REMARK INTRA:                 -13.663
REMARK UNBOUND:               -11.349
REMARK SMILES CC(=O)N[C@@H]1[C@@H](O)C[C@](OC[C@H]2O[C@@H](O[C@H]3[C@H](O)[C@@H](O)[C@H](OCCN=[N+]=[N-])O[C@@H]3CO)[C@H](O)[C@@H](O)[C@H]2O)(C(=O)O)O[C@H]1C(O)[C@H](O)CNC(=O)OCc1cn(-c2ccc(-c3c4ccc(=O)cc-4oc4cc(O)ccc34)c(C(=O)[O-])c2)nn1
REMARK SMILES IDX 9 1 8 2 6 3 5 4 42 5 41 6 10 7 11 8 12 9 14 10 13 11 32 12
REMARK SMILES IDX 34 13 36 14 15 15 16 16 29 17 28 18 21 19 17 20 19 21 30 22
REMARK SMILES IDX 31 23 22 25 23 26 24 27 25 28 26 29 27 30 18 31 20 33 33 35
REMARK SMILES IDX 35 37 37 39 38 41 39 42 40 43 7 45 43 47 44 48 45 50 46 51
REMARK SMILES IDX 47 53 48 54 49 55 50 57 51 58 52 59 53 60 54 61 82 62 55 63
REMARK SMILES IDX 81 64 56 65 80 66 57 67 76 68 58 69 59 70 77 71 78 72 79 73
REMARK SMILES IDX 60 74 75 75 61 76 74 77 69 78 67 79 62 80 73 81 70 82 68 83
REMARK SMILES IDX 66 84 63 85 71 86 64 87 65 88 72 89 4 91 2 92 1 94 3 95
REMARK H PARENT 31 24 18 32 20 34 33 36 35 38 37 40 40 44 7 46 44 49 46 52
REMARK H PARENT 48 56 72 90 4 93
REMARK Flexibility Score: inf
ROOT
ATOM      1  C   UNL     1      31.141  36.214  14.109  1.00  0.00     0.272 C 
ATOM      2  C   UNL     1      29.835  36.509  13.413  1.00  0.00     0.113 C 
ATOM      3  C   UNL     1      28.649  36.469  14.334  1.00  0.00     0.145 C 
ATOM      4  C   UNL     1      29.067  35.760  15.598  1.00  0.00     0.142 C 
ATOM      5  C   UNL     1      29.862  34.555  15.173  1.00  0.00     0.178 C 
ATOM      6  O   UNL     1      31.106  34.949  14.745  1.00  0.00    -0.332 OA
ENDROOT
BRANCH   1   7
ATOM      7  O   UNL     1      31.572  37.157  14.999  1.00  0.00    -0.338 OA
BRANCH   7   8
ATOM      8  C   UNL     1      31.131  38.409  14.758  1.00  0.00     0.199 C 
BRANCH   8   9
ATOM      9  C   UNL     1      30.810  39.160  16.059  1.00  0.00     0.179 C 
ATOM     10  C   UNL     1      31.081  39.024  18.345  1.00  0.00     0.282 C 
ATOM     11  O   UNL     1      30.902  38.379  17.152  1.00  0.00    -0.341 OA
ATOM     12  C   UNL     1      30.530  40.394  18.417  1.00  0.00     0.202 C 
ATOM     13  C   UNL     1      30.957  41.263  17.257  1.00  0.00     0.179 C 
ATOM     14  C   UNL     1      31.600  40.411  16.175  1.00  0.00     0.177 C 
BRANCH  10  15
ATOM     15  O   UNL     1      32.423  38.866  18.688  1.00  0.00    -0.341 OA
BRANCH  15  16
ATOM     16  C   UNL     1      32.740  37.615  19.105  1.00  0.00     0.184 C 
ATOM     17  C   UNL     1      33.461  37.605  20.418  1.00  0.00     0.178 C 
ATOM     18  O   UNL     1      33.381  36.334  21.004  1.00  0.00    -0.341 OA
ATOM     19  C   UNL     1      33.593  35.332  20.066  1.00  0.00     0.281 C 
ATOM     20  C   UNL     1      33.691  36.884  18.141  1.00  0.00     0.180 C 
ATOM     21  C   UNL     1      34.405  35.792  18.908  1.00  0.00     0.202 C 
BRANCH  17  22
ATOM     22  C   UNL     1      32.849  38.599  21.357  1.00  0.00     0.191 C 
BRANCH  22  23
ATOM     23  O   UNL     1      31.869  37.955  22.116  1.00  0.00    -0.394 OA
ATOM     24  H   UNL     1      31.014  38.390  21.904  1.00  0.00     0.210 HD
ENDBRANCH  22  23
ENDBRANCH  17  22
BRANCH  19  25
ATOM     25  O   UNL     1      32.404  34.759  19.667  1.00  0.00    -0.350 OA
BRANCH  25  26
ATOM     26  C   UNL     1      31.918  33.791  20.536  1.00  0.00     0.169 C 
BRANCH  26  27
ATOM     27  C   UNL     1      30.497  34.200  20.881  1.00  0.00     0.119 C 
BRANCH  27  28
ATOM     28  N   UNL     1      30.004  35.223  19.998  1.00  0.00    -0.092 NA
ATOM     29  N   UNL     1      29.473  36.227  20.490  1.00  0.00     0.001 N 
ATOM     30  N   UNL     1      29.152  37.386  20.758  1.00  0.00    -0.003 NA
ENDBRANCH  27  28
ENDBRANCH  26  27
ENDBRANCH  25  26
ENDBRANCH  19  25
BRANCH  20  31
ATOM     31  O   UNL     1      32.883  36.268  17.188  1.00  0.00    -0.387 OA
ATOM     32  H   UNL     1      32.108  36.806  16.916  1.00  0.00     0.211 HD
ENDBRANCH  20  31
BRANCH  21  33
ATOM     33  O   UNL     1      35.707  36.141  19.268  1.00  0.00    -0.385 OA
ATOM     34  H   UNL     1      35.802  35.850  20.228  1.00  0.00     0.211 HD
ENDBRANCH  21  33
ENDBRANCH  15  16
ENDBRANCH  10  15
BRANCH  12  35
ATOM     35  O   UNL     1      29.113  40.356  18.476  1.00  0.00    -0.385 OA
ATOM     36  H   UNL     1      28.796  39.602  17.894  1.00  0.00     0.211 HD
ENDBRANCH  12  35
BRANCH  13  37
ATOM     37  O   UNL     1      31.757  42.321  17.655  1.00  0.00    -0.387 OA
ATOM     38  H   UNL     1      31.640  42.439  18.627  1.00  0.00     0.211 HD
ENDBRANCH  13  37
BRANCH  14  39
ATOM     39  O   UNL     1      32.933  40.228  16.518  1.00  0.00    -0.387 OA
ATOM     40  H   UNL     1      33.362  41.128  16.417  1.00  0.00     0.211 HD
ENDBRANCH  14  39
ENDBRANCH   8   9
ENDBRANCH   7   8
ENDBRANCH   1   7
BRANCH   1  41
ATOM     41  C   UNL     1      32.130  35.985  12.981  1.00  0.00     0.364 C 
ATOM     42  O   UNL     1      32.330  36.802  12.065  1.00  0.00    -0.246 OA
BRANCH  41  43
ATOM     43  O   UNL     1      32.871  34.808  12.939  1.00  0.00    -0.477 OA
ATOM     44  H   UNL     1      32.416  33.909  12.860  1.00  0.00     0.296 HD
ENDBRANCH  41  43
ENDBRANCH   1  41
BRANCH   3  45
ATOM     45  O   UNL     1      28.176  37.752  14.532  1.00  0.00    -0.391 OA
ATOM     46  H   UNL     1      28.471  38.044  15.430  1.00  0.00     0.211 HD
ENDBRANCH   3  45
BRANCH   5  47
ATOM     47  C   UNL     1      30.100  33.620  16.363  1.00  0.00     0.176 C 
BRANCH  47  48
ATOM     48  O   UNL     1      30.829  34.346  17.336  1.00  0.00    -0.388 OA
ATOM     49  H   UNL     1      31.273  35.125  16.967  1.00  0.00     0.211 HD
ENDBRANCH  47  48
BRANCH  47  50
ATOM     50  C   UNL     1      30.970  32.470  15.975  1.00  0.00     0.165 C 
BRANCH  50  51
ATOM     51  O   UNL     1      30.891  32.256  14.598  1.00  0.00    -0.388 OA
ATOM     52  H   UNL     1      29.963  32.444  14.303  1.00  0.00     0.211 HD
ENDBRANCH  50  51
BRANCH  50  53
ATOM     53  C   UNL     1      30.744  31.207  16.728  1.00  0.00     0.154 C 
BRANCH  53  54
ATOM     54  N   UNL     1      29.341  30.871  16.824  1.00  0.00    -0.319 N 
ATOM     55  C   UNL     1      28.564  31.010  17.999  1.00  0.00     0.407 C 
ATOM     56  H   UNL     1      28.806  30.491  15.985  1.00  0.00     0.167 HD
ATOM     57  O   UNL     1      29.086  31.448  19.042  1.00  0.00    -0.225 OA
BRANCH  55  58
ATOM     58  O   UNL     1      27.217  30.674  18.054  1.00  0.00    -0.443 OA
BRANCH  58  59
ATOM     59  C   UNL     1      26.454  30.382  16.877  1.00  0.00     0.294 C 
BRANCH  59  60
ATOM     60  C   UNL     1      26.021  31.696  16.337  1.00  0.00     0.121 A 
ATOM     61  C   UNL     1      26.174  32.153  15.058  1.00  0.00     0.144 A 
ATOM     62  N   UNL     1      25.386  32.695  17.015  1.00  0.00    -0.131 NA
ATOM     63  N   UNL     1      25.648  33.393  14.966  1.00  0.00    -0.220 N 
ATOM     64  N   UNL     1      25.177  33.690  16.174  1.00  0.00    -0.062 NA
BRANCH  63  65
ATOM     65  C   UNL     1      25.614  34.194  13.795  1.00  0.00     0.067 A 
ATOM     66  C   UNL     1      25.294  35.531  13.833  1.00  0.00     0.039 A 
ATOM     67  C   UNL     1      25.916  33.614  12.588  1.00  0.00     0.029 A 
ATOM     68  C   UNL     1      25.281  36.265  12.671  1.00  0.00     0.007 A 
ATOM     69  C   UNL     1      25.902  34.353  11.425  1.00  0.00     0.012 A 
ATOM     70  C   UNL     1      25.585  35.691  11.439  1.00  0.00    -0.008 A 
BRANCH  68  71
ATOM     71  C   UNL     1      24.945  37.691  12.675  1.00  0.00     0.072 C 
ATOM     72  O   UNL     1      25.810  38.578  12.874  1.00  0.00    -0.545 OA
ATOM     73  O   UNL     1      23.645  38.075  12.455  1.00  0.00    -0.545 OA
ENDBRANCH  68  71
BRANCH  70  74
ATOM     74  C   UNL     1      25.570  36.479  10.219  1.00  0.00     0.004 A 
ATOM     75  C   UNL     1      24.424  36.512   9.464  1.00  0.00     0.026 A 
ATOM     76  C   UNL     1      26.664  37.189   9.795  1.00  0.00     0.026 A 
ATOM     77  C   UNL     1      23.281  35.831   9.811  1.00  0.00     0.016 A 
ATOM     78  C   UNL     1      24.428  37.268   8.297  1.00  0.00     0.139 A 
ATOM     79  C   UNL     1      26.618  37.980   8.546  1.00  0.00     0.139 A 
ATOM     80  C   UNL     1      27.842  37.204  10.497  1.00  0.00     0.016 A 
ATOM     81  C   UNL     1      22.132  35.872   9.043  1.00  0.00     0.047 A 
ATOM     82  C   UNL     1      23.283  37.303   7.539  1.00  0.00     0.093 A 
ATOM     83  O   UNL     1      25.484  37.948   7.896  1.00  0.00    -0.456 OA
ATOM     84  C   UNL     1      27.715  38.688   8.125  1.00  0.00     0.099 A 
ATOM     85  C   UNL     1      28.940  37.924  10.060  1.00  0.00     0.053 A 
ATOM     86  C   UNL     1      22.126  36.618   7.885  1.00  0.00     0.119 A 
ATOM     87  C   UNL     1      28.859  38.651   8.886  1.00  0.00     0.182 A 
ATOM     88  O   UNL     1      29.892  39.286   8.542  1.00  0.00    -0.290 OA
BRANCH  86  89
ATOM     89  O   UNL     1      20.970  36.654   7.121  1.00  0.00    -0.508 OA
ATOM     90  H   UNL     1      21.026  37.149   6.235  1.00  0.00     0.293 HD
ENDBRANCH  86  89
ENDBRANCH  70  74
ENDBRANCH  63  65
ENDBRANCH  59  60
ENDBRANCH  58  59
ENDBRANCH  55  58
ENDBRANCH  53  54
ENDBRANCH  50  53
ENDBRANCH  47  50
ENDBRANCH   5  47
BRANCH   4  91
ATOM     91  N   UNL     1      27.941  35.404  16.434  1.00  0.00    -0.348 N 
ATOM     92  C   UNL     1      27.489  36.334  17.390  1.00  0.00     0.217 C 
ATOM     93  H   UNL     1      27.444  34.489  16.365  1.00  0.00     0.163 HD
ATOM     94  C   UNL     1      26.345  36.075  18.300  1.00  0.00     0.114 C 
ATOM     95  O   UNL     1      28.055  37.474  17.525  1.00  0.00    -0.275 OA
ENDBRANCH   4  91
TORSDOF 33
BEGIN_RES LYS A 131
REMARK  4 active torsions:
REMARK  status: ('A' for Active; 'I' for Inactive)
REMARK    1  A    between atoms: CA   and  CB  
REMARK    2  A    between atoms: CB   and  CG  
REMARK    3  A    between atoms: CG   and  CD  
REMARK    4  A    between atoms: CD   and  CE  
ROOT
ATOM      1  CA  LYS A 131      29.867  25.555  16.977  1.00 20.52     0.186 C 
ENDROOT
BRANCH   1   2
ATOM      2  CB  LYS A 131      28.345  25.722  17.026  1.00 20.94     0.034 C 
BRANCH   2   3
ATOM      3  CG  LYS A 131      27.601  24.402  16.893  1.00 22.96     0.005 C 
BRANCH   3   4
ATOM      4  CD  LYS A 131      26.183  24.499  17.382  1.00 24.33     0.041 C 
BRANCH   4   5
ATOM      5  CE  LYS A 131      25.984  23.552  18.561  1.00 26.91     0.338 C 
ATOM      6  NZ  LYS A 131      25.364  24.266  19.702  1.00 27.40     0.618 N 
ENDBRANCH   4   5
ENDBRANCH   3   4
ENDBRANCH   2   3
ENDBRANCH   1   2
END_RES LYS A 131
BEGIN_RES LYS A 135
REMARK  4 active torsions:
REMARK  status: ('A' for Active; 'I' for Inactive)
REMARK    5  A    between atoms: CA   and  CB  
REMARK    6  A    between atoms: CB   and  CG  
REMARK    7  A    between atoms: CG   and  CD  
REMARK    8  A    between atoms: CD   and  CE  
ROOT
ATOM      7  CA  LYS A 135      33.193  34.663   9.290  1.00 25.02     0.186 C 
ENDROOT
BRANCH   7   8
ATOM      8  CB  LYS A 135      32.060  35.360  10.034  1.00 26.63     0.034 C 
BRANCH   8   9
ATOM      9  CG  LYS A 135      30.709  34.738   9.793  1.00 29.45     0.005 C 
BRANCH   9  10
ATOM     10  CD  LYS A 135      30.459  34.558   8.303  1.00 32.00     0.041 C 
BRANCH  10  11
ATOM     11  CE  LYS A 135      29.002  34.819   7.972  1.00 34.25     0.338 C 
ATOM     12  NZ  LYS A 135      28.868  35.561   6.687  1.00 35.99     0.618 N 
ENDBRANCH  10  11
ENDBRANCH   9  10
ENDBRANCH   8   9
ENDBRANCH   7   8
END_RES LYS A 135
