REMARK VINA RESULT:    -5.131      3.238      8.380
REMARK INTER + INTRA:         -22.867
REMARK INTER:                 -11.199
REMARK INTRA:                 -11.667
REMARK UNBOUND:                -9.487
REMARK SMILES CC(=O)N[C@@H]1[C@@H](O)C[C@](OC[C@H]2O[C@@H](O[C@H]3[C@H](O)[C@@H](O)[C@H](OCCN=[N+]=[N-])O[C@@H]3CO)[C@H](O)[C@@H](O)[C@H]2O)(C(=O)O)O[C@H]1C(O)[C@H](O)CNC(=O)OCc1cn(Cc2ccc(C(=O)O)cc2)nn1
REMARK SMILES IDX 43 1 42 2 9 3 8 4 41 5 6 6 5 7 10 8 11 9 12 10 14 11 13 12
REMARK SMILES IDX 32 13 34 14 36 15 15 16 16 17 29 18 28 19 21 20 17 21 19 22
REMARK SMILES IDX 30 23 31 24 22 26 23 27 24 28 25 29 26 30 27 31 18 32 20 34
REMARK SMILES IDX 33 36 35 38 37 40 38 42 39 43 40 44 7 46 4 48 2 49 1 51 3 52
REMARK SMILES IDX 44 53 45 55 46 56 47 58 48 59 49 60 50 62 51 63 52 64 53 65
REMARK SMILES IDX 54 66 67 67 55 68 66 69 56 70 57 71 58 72 65 73 59 74 64 75
REMARK SMILES IDX 60 76 61 77 62 78 63 79
REMARK H PARENT 31 25 18 33 20 35 33 37 35 39 37 41 40 45 7 47 4 50 44 54
REMARK H PARENT 46 57 48 61 63 80
REMARK Flexibility Score: inf
ROOT
ATOM      1  C   UNL     1      25.931  31.762  16.091  1.00  0.00     0.176 C 
ENDROOT
BRANCH   1   2
ATOM      2  C   UNL     1      27.096  31.590  17.090  1.00  0.00     0.178 C 
ATOM      3  C   UNL     1      29.335  32.351  17.015  1.00  0.00     0.272 C 
ATOM      4  C   UNL     1      29.775  30.948  17.140  1.00  0.00     0.113 C 
ATOM      5  O   UNL     1      28.001  32.518  16.746  1.00  0.00    -0.332 OA
ATOM      6  C   UNL     1      28.843  29.964  16.464  1.00  0.00     0.145 C 
ATOM      7  C   UNL     1      27.487  30.169  17.071  1.00  0.00     0.142 C 
BRANCH   3   8
ATOM      8  O   UNL     1      29.995  32.999  16.004  1.00  0.00    -0.338 OA
BRANCH   8   9
ATOM      9  C   UNL     1      31.325  32.831  15.846  1.00  0.00     0.199 C 
BRANCH   9  10
ATOM     10  C   UNL     1      31.888  33.915  14.895  1.00  0.00     0.179 C 
ATOM     11  C   UNL     1      31.205  35.362  13.201  1.00  0.00     0.282 C 
ATOM     12  O   UNL     1      30.917  34.256  13.999  1.00  0.00    -0.341 OA
ATOM     13  C   UNL     1      32.608  35.841  13.304  1.00  0.00     0.202 C 
ATOM     14  C   UNL     1      32.903  36.136  14.760  1.00  0.00     0.179 C 
ATOM     15  C   UNL     1      32.386  35.089  15.697  1.00  0.00     0.177 C 
BRANCH  11  16
ATOM     16  O   UNL     1      30.304  36.373  13.532  1.00  0.00    -0.341 OA
BRANCH  16  17
ATOM     17  C   UNL     1      29.092  36.197  12.932  1.00  0.00     0.184 C 
ATOM     18  C   UNL     1      28.603  37.420  12.246  1.00  0.00     0.178 C 
ATOM     19  O   UNL     1      27.504  37.131  11.424  1.00  0.00    -0.341 OA
ATOM     20  C   UNL     1      26.618  36.259  12.063  1.00  0.00     0.281 C 
ATOM     21  C   UNL     1      28.105  35.815  14.052  1.00  0.00     0.180 C 
ATOM     22  C   UNL     1      26.742  36.251  13.557  1.00  0.00     0.202 C 
BRANCH  18  23
ATOM     23  C   UNL     1      29.679  38.013  11.381  1.00  0.00     0.191 C 
BRANCH  23  24
ATOM     24  O   UNL     1      30.467  38.811  12.243  1.00  0.00    -0.394 OA
ATOM     25  H   UNL     1      31.187  38.280  12.633  1.00  0.00     0.210 HD
ENDBRANCH  23  24
ENDBRANCH  18  23
BRANCH  20  26
ATOM     26  O   UNL     1      26.755  35.003  11.519  1.00  0.00    -0.350 OA
BRANCH  26  27
ATOM     27  C   UNL     1      26.798  34.962  10.144  1.00  0.00     0.169 C 
BRANCH  27  28
ATOM     28  C   UNL     1      25.518  35.288   9.449  1.00  0.00     0.119 C 
BRANCH  28  29
ATOM     29  N   UNL     1      25.882  36.011   8.220  1.00  0.00    -0.092 NA
ATOM     30  N   UNL     1      26.244  37.182   8.226  1.00  0.00     0.001 N 
ATOM     31  N   UNL     1      26.447  38.366   8.471  1.00  0.00    -0.003 NA
ENDBRANCH  28  29
ENDBRANCH  27  28
ENDBRANCH  26  27
ENDBRANCH  20  26
BRANCH  21  32
ATOM     32  O   UNL     1      28.154  34.459  14.291  1.00  0.00    -0.387 OA
ATOM     33  H   UNL     1      28.494  33.952  13.484  1.00  0.00     0.211 HD
ENDBRANCH  21  32
BRANCH  22  34
ATOM     34  O   UNL     1      26.414  37.465  14.113  1.00  0.00    -0.385 OA
ATOM     35  H   UNL     1      26.352  37.433  15.084  1.00  0.00     0.211 HD
ENDBRANCH  22  34
ENDBRANCH  16  17
ENDBRANCH  11  16
BRANCH  13  36
ATOM     36  O   UNL     1      33.521  34.898  12.809  1.00  0.00    -0.385 OA
ATOM     37  H   UNL     1      33.422  34.092  13.386  1.00  0.00     0.211 HD
ENDBRANCH  13  36
BRANCH  14  38
ATOM     38  O   UNL     1      32.401  37.382  15.137  1.00  0.00    -0.387 OA
ATOM     39  H   UNL     1      32.052  37.303  16.069  1.00  0.00     0.211 HD
ENDBRANCH  14  38
BRANCH  15  40
ATOM     40  O   UNL     1      31.393  35.588  16.552  1.00  0.00    -0.387 OA
ATOM     41  H   UNL     1      31.135  34.845  17.159  1.00  0.00     0.211 HD
ENDBRANCH  15  40
ENDBRANCH   9  10
ENDBRANCH   8   9
ENDBRANCH   3   8
BRANCH   3  42
ATOM     42  C   UNL     1      29.571  33.041  18.337  1.00  0.00     0.364 C 
ATOM     43  O   UNL     1      29.435  34.285  18.445  1.00  0.00    -0.246 OA
BRANCH  42  44
ATOM     44  O   UNL     1      29.941  32.335  19.470  1.00  0.00    -0.477 OA
ATOM     45  H   UNL     1      29.806  31.312  19.449  1.00  0.00     0.296 HD
ENDBRANCH  42  44
ENDBRANCH   3  42
BRANCH   6  46
ATOM     46  O   UNL     1      28.899  30.201  15.108  1.00  0.00    -0.391 OA
ATOM     47  H   UNL     1      28.022  30.539  14.789  1.00  0.00     0.211 HD
ENDBRANCH   6  46
BRANCH   7  48
ATOM     48  N   UNL     1      27.514  29.655  18.434  1.00  0.00    -0.348 N 
ATOM     49  C   UNL     1      26.393  28.941  18.986  1.00  0.00     0.217 C 
ATOM     50  H   UNL     1      28.319  29.764  19.087  1.00  0.00     0.163 HD
ATOM     51  C   UNL     1      26.461  28.428  20.390  1.00  0.00     0.114 C 
ATOM     52  O   UNL     1      25.391  28.768  18.274  1.00  0.00    -0.275 OA
ENDBRANCH   7  48
ENDBRANCH   1   2
BRANCH   1  53
ATOM     53  O   UNL     1      25.303  30.602  15.771  1.00  0.00    -0.388 OA
ATOM     54  H   UNL     1      25.857  29.895  15.373  1.00  0.00     0.211 HD
ENDBRANCH   1  53
BRANCH   1  55
ATOM     55  C   UNL     1      24.992  32.860  16.529  1.00  0.00     0.165 C 
BRANCH  55  56
ATOM     56  O   UNL     1      25.533  34.067  16.220  1.00  0.00    -0.388 OA
ATOM     57  H   UNL     1      26.195  34.421  16.845  1.00  0.00     0.211 HD
ENDBRANCH  55  56
BRANCH  55  58
ATOM     58  C   UNL     1      24.539  32.620  17.917  1.00  0.00     0.154 C 
BRANCH  58  59
ATOM     59  N   UNL     1      23.891  31.348  18.071  1.00  0.00    -0.319 N 
ATOM     60  C   UNL     1      22.553  31.181  18.493  1.00  0.00     0.407 C 
ATOM     61  H   UNL     1      24.428  30.460  17.863  1.00  0.00     0.167 HD
ATOM     62  O   UNL     1      21.823  32.146  18.766  1.00  0.00    -0.225 OA
BRANCH  60  63
ATOM     63  O   UNL     1      21.951  29.915  18.631  1.00  0.00    -0.443 OA
BRANCH  63  64
ATOM     64  C   UNL     1      21.126  29.412  17.595  1.00  0.00     0.294 C 
BRANCH  64  65
ATOM     65  C   UNL     1      21.791  29.421  16.281  1.00  0.00     0.120 A 
ATOM     66  C   UNL     1      21.439  30.063  15.127  1.00  0.00     0.138 A 
ATOM     67  N   UNL     1      22.914  28.730  16.004  1.00  0.00    -0.132 NA
ATOM     68  N   UNL     1      22.353  29.745  14.184  1.00  0.00    -0.248 N 
ATOM     69  N   UNL     1      23.236  28.936  14.741  1.00  0.00    -0.067 NA
BRANCH  68  70
ATOM     70  C   UNL     1      22.333  30.219  12.824  1.00  0.00     0.181 C 
BRANCH  70  71
ATOM     71  C   UNL     1      22.498  31.685  12.779  1.00  0.00    -0.026 A 
ATOM     72  C   UNL     1      21.427  32.488  12.450  1.00  0.00     0.006 A 
ATOM     73  C   UNL     1      23.736  32.262  13.050  1.00  0.00     0.006 A 
ATOM     74  C   UNL     1      21.655  33.852  12.408  1.00  0.00     0.016 A 
ATOM     75  C   UNL     1      23.956  33.620  13.005  1.00  0.00     0.016 A 
ATOM     76  C   UNL     1      22.885  34.419  12.676  1.00  0.00     0.059 A 
BRANCH  76  77
ATOM     77  C   UNL     1      23.060  35.861  12.610  1.00  0.00     0.335 C 
ATOM     78  O   UNL     1      22.921  36.458  11.533  1.00  0.00    -0.246 OA
BRANCH  77  79
ATOM     79  O   UNL     1      23.383  36.564  13.749  1.00  0.00    -0.478 OA
ATOM     80  H   UNL     1      24.218  36.360  14.295  1.00  0.00     0.297 HD
ENDBRANCH  77  79
ENDBRANCH  76  77
ENDBRANCH  70  71
ENDBRANCH  68  70
ENDBRANCH  64  65
ENDBRANCH  63  64
ENDBRANCH  60  63
ENDBRANCH  58  59
ENDBRANCH  55  58
ENDBRANCH   1  55
TORSDOF 33
BEGIN_RES LYS A 131
REMARK  4 active torsions:
REMARK  status: ('A' for Active; 'I' for Inactive)
REMARK    1  A    between atoms: CA   and  CB  
REMARK    2  A    between atoms: CB   and  CG  
REMARK    3  A    between atoms: CG   and  CD  
REMARK    4  A    between atoms: CD   and  CE  
ROOT
ATOM      1  CA  LYS A 131      29.867  25.555  16.977  1.00 20.52     0.186 C 
ENDROOT
BRANCH   1   2
ATOM      2  CB  LYS A 131      28.345  25.722  17.026  1.00 20.94     0.034 C 
BRANCH   2   3
ATOM      3  CG  LYS A 131      27.602  24.399  16.917  1.00 22.96     0.005 C 
BRANCH   3   4
ATOM      4  CD  LYS A 131      26.629  24.202  18.047  1.00 24.33     0.041 C 
BRANCH   4   5
ATOM      5  CE  LYS A 131      25.513  25.236  17.945  1.00 26.91     0.338 C 
ATOM      6  NZ  LYS A 131      24.804  25.364  19.239  1.00 27.40     0.618 N 
ENDBRANCH   4   5
ENDBRANCH   3   4
ENDBRANCH   2   3
ENDBRANCH   1   2
END_RES LYS A 131
BEGIN_RES LYS A 135
REMARK  4 active torsions:
REMARK  status: ('A' for Active; 'I' for Inactive)
REMARK    5  A    between atoms: CA   and  CB  
REMARK    6  A    between atoms: CB   and  CG  
REMARK    7  A    between atoms: CG   and  CD  
REMARK    8  A    between atoms: CD   and  CE  
ROOT
ATOM      7  CA  LYS A 135      33.193  34.663   9.290  1.00 25.02     0.186 C 
ENDROOT
BRANCH   7   8
ATOM      8  CB  LYS A 135      32.060  35.360  10.034  1.00 26.63     0.034 C 
BRANCH   8   9
ATOM      9  CG  LYS A 135      30.690  34.880   9.631  1.00 29.45     0.005 C 
BRANCH   9  10
ATOM     10  CD  LYS A 135      30.119  35.754   8.524  1.00 32.00     0.041 C 
BRANCH  10  11
ATOM     11  CE  LYS A 135      29.330  34.915   7.537  1.00 34.25     0.338 C 
ATOM     12  NZ  LYS A 135      28.902  35.728   6.365  1.00 35.99     0.618 N 
ENDBRANCH  10  11
ENDBRANCH   9  10
ENDBRANCH   8   9
ENDBRANCH   7   8
END_RES LYS A 135
