REMARK VINA RESULT:    -4.975      2.724      6.869
REMARK INTER + INTRA:         -21.675
REMARK INTER:                 -11.413
REMARK INTRA:                 -10.262
REMARK UNBOUND:                -9.428
REMARK SMILES CC(=O)N[C@@H]1[C@@H](O)C[C@](OC[C@H]2O[C@@H](O[C@H]3[C@H](O)[C@@H](O)[C@H](OCCN=[N+]=[N-])O[C@@H]3CO)[C@H](O)[C@@H](O)[C@H]2O)(C(=O)O)O[C@H]1C(O)[C@H](O)CNC(=O)OCc1cn(-c2ccc(C)cc2)nn1
REMARK SMILES IDX 9 1 8 2 6 3 5 4 42 5 41 6 10 7 11 8 12 9 14 10 13 11 32 12
REMARK SMILES IDX 34 13 36 14 15 15 16 16 29 17 28 18 21 19 17 20 19 21 30 22
REMARK SMILES IDX 31 23 22 25 23 26 24 27 25 28 26 29 27 30 18 31 20 33 33 35
REMARK SMILES IDX 35 37 37 39 38 41 39 42 40 43 7 45 43 47 44 48 45 50 46 51
REMARK SMILES IDX 47 53 48 54 49 55 50 57 51 58 52 59 53 60 54 61 64 62 55 63
REMARK SMILES IDX 63 64 56 65 57 66 62 67 58 68 61 69 59 70 60 71 4 72 2 73
REMARK SMILES IDX 1 75 3 76
REMARK H PARENT 31 24 18 32 20 34 33 36 35 38 37 40 40 44 7 46 44 49 46 52
REMARK H PARENT 48 56 4 74
REMARK Flexibility Score: inf
ROOT
ATOM      1  C   UNL     1      26.564  37.741   8.172  1.00  0.00     0.272 C 
ATOM      2  C   UNL     1      27.351  37.152   7.006  1.00  0.00     0.113 C 
ATOM      3  C   UNL     1      28.295  38.133   6.422  1.00  0.00     0.145 C 
ATOM      4  C   UNL     1      28.873  39.114   7.379  1.00  0.00     0.142 C 
ATOM      5  C   UNL     1      28.547  38.886   8.851  1.00  0.00     0.178 C 
ATOM      6  O   UNL     1      27.280  38.440   9.020  1.00  0.00    -0.332 OA
ENDROOT
BRANCH   1   7
ATOM      7  O   UNL     1      26.081  36.589   8.866  1.00  0.00    -0.338 OA
BRANCH   7   8
ATOM      8  C   UNL     1      25.672  36.988  10.140  1.00  0.00     0.199 C 
BRANCH   8   9
ATOM      9  C   UNL     1      25.785  35.901  11.140  1.00  0.00     0.179 C 
ATOM     10  C   UNL     1      26.956  35.157  12.964  1.00  0.00     0.282 C 
ATOM     11  O   UNL     1      26.673  36.255  12.158  1.00  0.00    -0.341 OA
ATOM     12  C   UNL     1      25.769  34.791  13.771  1.00  0.00     0.202 C 
ATOM     13  C   UNL     1      24.536  35.462  13.232  1.00  0.00     0.179 C 
ATOM     14  C   UNL     1      24.467  35.465  11.719  1.00  0.00     0.177 C 
BRANCH  10  15
ATOM     15  O   UNL     1      28.015  35.472  13.812  1.00  0.00    -0.341 OA
BRANCH  15  16
ATOM     16  C   UNL     1      28.909  34.407  13.931  1.00  0.00     0.184 C 
ATOM     17  C   UNL     1      29.088  33.900  15.334  1.00  0.00     0.178 C 
ATOM     18  O   UNL     1      30.411  34.085  15.752  1.00  0.00    -0.341 OA
ATOM     19  C   UNL     1      30.681  35.440  15.815  1.00  0.00     0.281 C 
ATOM     20  C   UNL     1      30.244  34.939  13.457  1.00  0.00     0.180 C 
ATOM     21  C   UNL     1      30.609  36.065  14.436  1.00  0.00     0.202 C 
BRANCH  17  22
ATOM     22  C   UNL     1      28.887  32.376  15.377  1.00  0.00     0.191 C 
BRANCH  22  23
ATOM     23  O   UNL     1      30.052  31.719  14.992  1.00  0.00    -0.394 OA
ATOM     24  H   UNL     1      30.177  30.957  15.633  1.00  0.00     0.210 HD
ENDBRANCH  22  23
ENDBRANCH  17  22
BRANCH  19  25
ATOM     25  O   UNL     1      31.910  35.713  16.396  1.00  0.00    -0.350 OA
BRANCH  25  26
ATOM     26  C   UNL     1      32.663  36.622  15.695  1.00  0.00     0.169 C 
BRANCH  26  27
ATOM     27  C   UNL     1      33.243  37.740  16.513  1.00  0.00     0.119 C 
BRANCH  27  28
ATOM     28  N   UNL     1      32.244  38.712  16.884  1.00  0.00    -0.092 NA
ATOM     29  N   UNL     1      31.522  39.204  16.034  1.00  0.00     0.001 N 
ATOM     30  N   UNL     1      30.726  39.640  15.201  1.00  0.00    -0.003 NA
ENDBRANCH  27  28
ENDBRANCH  26  27
ENDBRANCH  25  26
ENDBRANCH  19  25
BRANCH  20  31
ATOM     31  O   UNL     1      31.241  33.975  13.455  1.00  0.00    -0.387 OA
ATOM     32  H   UNL     1      31.060  33.372  12.694  1.00  0.00     0.211 HD
ENDBRANCH  20  31
BRANCH  21  33
ATOM     33  O   UNL     1      29.486  36.918  14.434  1.00  0.00    -0.385 OA
ATOM     34  H   UNL     1      28.930  36.811  15.239  1.00  0.00     0.211 HD
ENDBRANCH  21  33
ENDBRANCH  15  16
ENDBRANCH  10  15
BRANCH  12  35
ATOM     35  O   UNL     1      25.583  33.397  13.840  1.00  0.00    -0.385 OA
ATOM     36  H   UNL     1      26.459  33.049  14.209  1.00  0.00     0.211 HD
ENDBRANCH  12  35
BRANCH  13  37
ATOM     37  O   UNL     1      24.406  36.703  13.804  1.00  0.00    -0.387 OA
ATOM     38  H   UNL     1      24.842  36.786  14.711  1.00  0.00     0.211 HD
ENDBRANCH  13  37
BRANCH  14  39
ATOM     39  O   UNL     1      23.500  36.367  11.316  1.00  0.00    -0.387 OA
ATOM     40  H   UNL     1      22.837  36.594  12.000  1.00  0.00     0.211 HD
ENDBRANCH  14  39
ENDBRANCH   8   9
ENDBRANCH   7   8
ENDBRANCH   1   7
BRANCH   1  41
ATOM     41  C   UNL     1      25.436  38.463   7.550  1.00  0.00     0.364 C 
ATOM     42  O   UNL     1      25.420  39.702   7.372  1.00  0.00    -0.246 OA
BRANCH  41  43
ATOM     43  O   UNL     1      24.327  37.702   7.134  1.00  0.00    -0.477 OA
ATOM     44  H   UNL     1      23.391  38.061   7.326  1.00  0.00     0.296 HD
ENDBRANCH  41  43
ENDBRANCH   1  41
BRANCH   3  45
ATOM     45  O   UNL     1      29.282  37.478   5.651  1.00  0.00    -0.391 OA
ATOM     46  H   UNL     1      29.843  36.976   6.325  1.00  0.00     0.211 HD
ENDBRANCH   3  45
BRANCH   5  47
ATOM     47  C   UNL     1      29.599  37.972   9.446  1.00  0.00     0.176 C 
BRANCH  47  48
ATOM     48  O   UNL     1      30.813  37.994   8.776  1.00  0.00    -0.388 OA
ATOM     49  H   UNL     1      30.891  37.109   8.331  1.00  0.00     0.211 HD
ENDBRANCH  47  48
BRANCH  47  50
ATOM     50  C   UNL     1      29.743  37.865  10.889  1.00  0.00     0.165 C 
BRANCH  50  51
ATOM     51  O   UNL     1      28.604  38.194  11.655  1.00  0.00    -0.388 OA
ATOM     52  H   UNL     1      28.754  37.953  12.607  1.00  0.00     0.211 HD
ENDBRANCH  50  51
BRANCH  50  53
ATOM     53  C   UNL     1      30.927  38.412  11.606  1.00  0.00     0.154 C 
BRANCH  53  54
ATOM     54  N   UNL     1      31.478  39.609  11.028  1.00  0.00    -0.319 N 
ATOM     55  C   UNL     1      30.910  40.889  11.299  1.00  0.00     0.407 C 
ATOM     56  H   UNL     1      32.309  39.554  10.395  1.00  0.00     0.167 HD
ATOM     57  O   UNL     1      29.922  40.963  12.069  1.00  0.00    -0.225 OA
BRANCH  55  58
ATOM     58  O   UNL     1      31.446  42.015  10.712  1.00  0.00    -0.443 OA
BRANCH  58  59
ATOM     59  C   UNL     1      30.930  42.610   9.571  1.00  0.00     0.294 C 
BRANCH  59  60
ATOM     60  C   UNL     1      31.815  42.427   8.419  1.00  0.00     0.121 A 
ATOM     61  C   UNL     1      32.567  41.274   8.123  1.00  0.00     0.144 A 
ATOM     62  N   UNL     1      32.097  43.272   7.438  1.00  0.00    -0.131 NA
ATOM     63  N   UNL     1      33.245  41.495   6.998  1.00  0.00    -0.220 N 
ATOM     64  N   UNL     1      32.947  42.713   6.598  1.00  0.00    -0.062 NA
BRANCH  63  65
ATOM     65  C   UNL     1      34.130  40.537   6.390  1.00  0.00     0.066 A 
ATOM     66  C   UNL     1      35.170  40.002   7.117  1.00  0.00     0.029 A 
ATOM     67  C   UNL     1      33.966  40.112   5.088  1.00  0.00     0.029 A 
ATOM     68  C   UNL     1      36.025  39.058   6.541  1.00  0.00     0.005 A 
ATOM     69  C   UNL     1      34.822  39.167   4.510  1.00  0.00     0.005 A 
ATOM     70  C   UNL     1      35.859  38.636   5.241  1.00  0.00    -0.051 A 
ATOM     71  C   UNL     1      36.768  37.616   4.627  1.00  0.00     0.044 C 
ENDBRANCH  63  65
ENDBRANCH  59  60
ENDBRANCH  58  59
ENDBRANCH  55  58
ENDBRANCH  53  54
ENDBRANCH  50  53
ENDBRANCH  47  50
ENDBRANCH   5  47
BRANCH   4  72
ATOM     72  N   UNL     1      28.660  40.489   6.971  1.00  0.00    -0.348 N 
ATOM     73  C   UNL     1      29.435  41.149   5.969  1.00  0.00     0.217 C 
ATOM     74  H   UNL     1      27.917  41.066   7.412  1.00  0.00     0.163 HD
ATOM     75  C   UNL     1      29.179  42.574   5.594  1.00  0.00     0.114 C 
ATOM     76  O   UNL     1      30.332  40.450   5.437  1.00  0.00    -0.275 OA
ENDBRANCH   4  72
TORSDOF 30
BEGIN_RES LYS A 131
REMARK  4 active torsions:
REMARK  status: ('A' for Active; 'I' for Inactive)
REMARK    1  A    between atoms: CA   and  CB  
REMARK    2  A    between atoms: CB   and  CG  
REMARK    3  A    between atoms: CG   and  CD  
REMARK    4  A    between atoms: CD   and  CE  
ROOT
ATOM      1  CA  LYS A 131      29.867  25.555  16.977  1.00 20.52     0.186 C 
ENDROOT
BRANCH   1   2
ATOM      2  CB  LYS A 131      28.345  25.722  17.026  1.00 20.94     0.034 C 
BRANCH   2   3
ATOM      3  CG  LYS A 131      27.602  24.399  16.922  1.00 22.96     0.005 C 
BRANCH   3   4
ATOM      4  CD  LYS A 131      26.628  24.206  18.050  1.00 24.33     0.041 C 
BRANCH   4   5
ATOM      5  CE  LYS A 131      26.390  25.540  18.752  1.00 26.91     0.338 C 
ATOM      6  NZ  LYS A 131      24.972  25.948  18.623  1.00 27.40     0.618 N 
ENDBRANCH   4   5
ENDBRANCH   3   4
ENDBRANCH   2   3
ENDBRANCH   1   2
END_RES LYS A 131
BEGIN_RES LYS A 135
REMARK  4 active torsions:
REMARK  status: ('A' for Active; 'I' for Inactive)
REMARK    5  A    between atoms: CA   and  CB  
REMARK    6  A    between atoms: CB   and  CG  
REMARK    7  A    between atoms: CG   and  CD  
REMARK    8  A    between atoms: CD   and  CE  
ROOT
ATOM      7  CA  LYS A 135      33.193  34.663   9.290  1.00 25.02     0.186 C 
ENDROOT
BRANCH   7   8
ATOM      8  CB  LYS A 135      32.060  35.360  10.034  1.00 26.63     0.034 C 
BRANCH   8   9
ATOM      9  CG  LYS A 135      30.746  34.626   9.956  1.00 29.45     0.005 C 
BRANCH   9  10
ATOM     10  CD  LYS A 135      30.319  34.443   8.508  1.00 32.00     0.041 C 
BRANCH  10  11
ATOM     11  CE  LYS A 135      28.807  34.387   8.402  1.00 34.25     0.338 C 
ATOM     12  NZ  LYS A 135      28.206  33.774   9.619  1.00 35.99     0.618 N 
ENDBRANCH  10  11
ENDBRANCH   9  10
ENDBRANCH   8   9
ENDBRANCH   7   8
END_RES LYS A 135
