REMARK VINA RESULT:    -3.789      2.751      7.248
REMARK INTER + INTRA:         -22.732
REMARK INTER:                 -11.878
REMARK INTRA:                 -10.854
REMARK UNBOUND:               -13.184
REMARK SMILES CC(=O)N[C@@H]1[C@@H](O)C[C@](OC[C@H]2O[C@@H](O[C@H]3[C@H](O)[C@@H](O)[C@H](OCCN=[N+]=[N-])O[C@@H]3CO)[C@H](O)[C@@H](O)[C@H]2O)(C(=O)O)O[C@H]1C(O)[C@H](O)CNC(=O)OCc1cn(-c2cc(Cl)ccc2C(=O)N(C)C)nn1
REMARK SMILES IDX 9 1 8 2 6 3 5 4 42 5 41 6 10 7 11 8 12 9 14 10 13 11 32 12
REMARK SMILES IDX 34 13 36 14 15 15 16 16 29 17 28 18 21 19 17 20 19 21 30 22
REMARK SMILES IDX 31 23 22 25 23 26 24 27 25 28 26 29 27 30 18 31 20 33 33 35
REMARK SMILES IDX 35 37 37 39 38 41 39 42 40 43 7 45 43 47 44 48 45 50 46 51
REMARK SMILES IDX 47 53 48 54 49 55 50 57 51 58 52 59 53 60 54 61 69 62 55 63
REMARK SMILES IDX 68 64 56 65 57 66 62 67 58 68 61 69 59 70 60 71 63 72 64 73
REMARK SMILES IDX 65 74 66 75 67 76 4 77 2 78 1 80 3 81
REMARK H PARENT 31 24 18 32 20 34 33 36 35 38 37 40 40 44 7 46 44 49 46 52
REMARK H PARENT 48 56 4 79
REMARK Flexibility Score: inf
ROOT
ATOM      1  C   UNL     1      29.437  32.745  17.547  1.00  0.00     0.272 C 
ATOM      2  C   UNL     1      30.184  31.477  17.376  1.00  0.00     0.113 C 
ATOM      3  C   UNL     1      29.531  30.627  16.316  1.00  0.00     0.145 C 
ATOM      4  C   UNL     1      28.120  30.360  16.783  1.00  0.00     0.142 C 
ATOM      5  C   UNL     1      27.395  31.610  17.060  1.00  0.00     0.178 C 
ATOM      6  O   UNL     1      28.088  32.734  17.376  1.00  0.00    -0.332 OA
ENDROOT
BRANCH   1   7
ATOM      7  O   UNL     1      29.936  33.749  16.732  1.00  0.00    -0.338 OA
BRANCH   7   8
ATOM      8  C   UNL     1      31.255  33.758  16.446  1.00  0.00     0.199 C 
BRANCH   8   9
ATOM      9  C   UNL     1      31.483  34.459  15.098  1.00  0.00     0.179 C 
ATOM     10  C   UNL     1      30.166  35.175  13.346  1.00  0.00     0.282 C 
ATOM     11  O   UNL     1      30.482  34.092  14.247  1.00  0.00    -0.341 OA
ATOM     12  C   UNL     1      31.484  35.741  12.868  1.00  0.00     0.202 C 
ATOM     13  C   UNL     1      32.204  36.474  13.981  1.00  0.00     0.179 C 
ATOM     14  C   UNL     1      31.759  35.888  15.309  1.00  0.00     0.177 C 
BRANCH  10  15
ATOM     15  O   UNL     1      29.387  36.002  14.035  1.00  0.00    -0.341 OA
BRANCH  15  16
ATOM     16  C   UNL     1      28.047  36.178  13.739  1.00  0.00     0.184 C 
ATOM     17  C   UNL     1      27.283  35.535  14.850  1.00  0.00     0.178 C 
ATOM     18  O   UNL     1      25.901  35.651  14.617  1.00  0.00    -0.341 OA
ATOM     19  C   UNL     1      25.702  34.650  13.605  1.00  0.00     0.281 C 
ATOM     20  C   UNL     1      27.708  35.530  12.421  1.00  0.00     0.180 C 
ATOM     21  C   UNL     1      26.256  35.172  12.332  1.00  0.00     0.202 C 
BRANCH  17  22
ATOM     22  C   UNL     1      27.628  36.156  16.188  1.00  0.00     0.191 C 
BRANCH  22  23
ATOM     23  O   UNL     1      27.232  35.293  17.188  1.00  0.00    -0.394 OA
ATOM     24  H   UNL     1      26.257  35.376  17.340  1.00  0.00     0.210 HD
ENDBRANCH  22  23
ENDBRANCH  17  22
BRANCH  19  25
ATOM     25  O   UNL     1      24.394  34.357  13.567  1.00  0.00    -0.350 OA
BRANCH  25  26
ATOM     26  C   UNL     1      23.534  35.423  13.772  1.00  0.00     0.169 C 
BRANCH  26  27
ATOM     27  C   UNL     1      22.657  35.735  12.577  1.00  0.00     0.119 C 
BRANCH  27  28
ATOM     28  N   UNL     1      22.832  34.746  11.536  1.00  0.00    -0.092 NA
ATOM     29  N   UNL     1      22.928  35.085  10.362  1.00  0.00     0.001 N 
ATOM     30  N   UNL     1      23.096  35.621   9.247  1.00  0.00    -0.003 NA
ENDBRANCH  27  28
ENDBRANCH  26  27
ENDBRANCH  25  26
ENDBRANCH  19  25
BRANCH  20  31
ATOM     31  O   UNL     1      27.984  36.380  11.344  1.00  0.00    -0.387 OA
ATOM     32  H   UNL     1      28.886  36.176  10.960  1.00  0.00     0.211 HD
ENDBRANCH  20  31
BRANCH  21  33
ATOM     33  O   UNL     1      26.089  34.227  11.322  1.00  0.00    -0.385 OA
ATOM     34  H   UNL     1      25.820  34.614  10.462  1.00  0.00     0.211 HD
ENDBRANCH  21  33
ENDBRANCH  15  16
ENDBRANCH  10  15
BRANCH  12  35
ATOM     35  O   UNL     1      32.287  34.636  12.524  1.00  0.00    -0.385 OA
ATOM     36  H   UNL     1      31.761  33.951  12.001  1.00  0.00     0.211 HD
ENDBRANCH  12  35
BRANCH  13  37
ATOM     37  O   UNL     1      31.992  37.826  14.005  1.00  0.00    -0.387 OA
ATOM     38  H   UNL     1      31.071  38.089  13.765  1.00  0.00     0.211 HD
ENDBRANCH  13  37
BRANCH  14  39
ATOM     39  O   UNL     1      30.836  36.636  15.981  1.00  0.00    -0.387 OA
ATOM     40  H   UNL     1      31.202  37.388  16.497  1.00  0.00     0.211 HD
ENDBRANCH  14  39
ENDBRANCH   8   9
ENDBRANCH   7   8
ENDBRANCH   1   7
BRANCH   1  41
ATOM     41  C   UNL     1      29.717  33.267  18.969  1.00  0.00     0.364 C 
ATOM     42  O   UNL     1      30.462  32.551  19.675  1.00  0.00    -0.246 OA
BRANCH  41  43
ATOM     43  O   UNL     1      29.202  34.426  19.459  1.00  0.00    -0.477 OA
ATOM     44  H   UNL     1      29.119  35.284  18.960  1.00  0.00     0.296 HD
ENDBRANCH  41  43
ENDBRANCH   1  41
BRANCH   3  45
ATOM     45  O   UNL     1      29.633  31.237  15.099  1.00  0.00    -0.391 OA
ATOM     46  H   UNL     1      30.510  31.475  14.782  1.00  0.00     0.211 HD
ENDBRANCH   3  45
BRANCH   5  47
ATOM     47  C   UNL     1      26.379  32.023  16.003  1.00  0.00     0.176 C 
BRANCH  47  48
ATOM     48  O   UNL     1      26.314  31.198  14.916  1.00  0.00    -0.388 OA
ATOM     49  H   UNL     1      26.408  31.652  14.037  1.00  0.00     0.211 HD
ENDBRANCH  47  48
BRANCH  47  50
ATOM     50  C   UNL     1      25.018  32.342  16.503  1.00  0.00     0.165 C 
BRANCH  50  51
ATOM     51  O   UNL     1      24.852  33.721  16.775  1.00  0.00    -0.388 OA
ATOM     52  H   UNL     1      25.615  34.076  17.289  1.00  0.00     0.211 HD
ENDBRANCH  50  51
BRANCH  50  53
ATOM     53  C   UNL     1      24.923  31.709  17.911  1.00  0.00     0.154 C 
BRANCH  53  54
ATOM     54  N   UNL     1      24.311  30.413  17.832  1.00  0.00    -0.319 N 
ATOM     55  C   UNL     1      23.939  29.704  18.992  1.00  0.00     0.407 C 
ATOM     56  H   UNL     1      24.118  29.944  16.898  1.00  0.00     0.167 HD
ATOM     57  O   UNL     1      24.111  30.194  20.131  1.00  0.00    -0.225 OA
BRANCH  55  58
ATOM     58  O   UNL     1      23.368  28.428  18.908  1.00  0.00    -0.443 OA
BRANCH  58  59
ATOM     59  C   UNL     1      22.046  28.236  18.489  1.00  0.00     0.294 C 
BRANCH  59  60
ATOM     60  C   UNL     1      21.972  28.058  17.006  1.00  0.00     0.121 A 
ATOM     61  C   UNL     1      20.780  28.143  16.259  1.00  0.00     0.144 A 
ATOM     62  N   UNL     1      22.924  27.803  16.122  1.00  0.00    -0.131 NA
ATOM     63  N   UNL     1      21.064  27.940  14.980  1.00  0.00    -0.219 N 
ATOM     64  N   UNL     1      22.388  27.734  14.931  1.00  0.00    -0.062 NA
BRANCH  63  65
ATOM     65  C   UNL     1      20.262  27.919  13.814  1.00  0.00     0.081 A 
ATOM     66  C   UNL     1      19.426  26.820  13.579  1.00  0.00     0.049 A 
ATOM     67  C   UNL     1      20.252  28.890  12.855  1.00  0.00     0.065 A 
ATOM     68  C   UNL     1      18.662  26.735  12.461  1.00  0.00     0.043 A 
ATOM     69  C   UNL     1      19.460  28.803  11.695  1.00  0.00     0.017 A 
ATOM     70  Cl  UNL     1      17.636  25.327  12.227  1.00  0.00    -0.084 Cl
ATOM     71  C   UNL     1      18.655  27.708  11.499  1.00  0.00     0.021 A 
BRANCH  67  72
ATOM     72  C   UNL     1      21.038  30.120  12.996  1.00  0.00     0.255 C 
ATOM     73  O   UNL     1      22.151  30.185  12.436  1.00  0.00    -0.269 OA
ATOM     74  N   UNL     1      20.544  31.192  13.744  1.00  0.00    -0.345 N 
ATOM     75  C   UNL     1      19.240  31.101  14.396  1.00  0.00     0.146 C 
ATOM     76  C   UNL     1      21.302  32.432  13.892  1.00  0.00     0.146 C 
ENDBRANCH  67  72
ENDBRANCH  63  65
ENDBRANCH  59  60
ENDBRANCH  58  59
ENDBRANCH  55  58
ENDBRANCH  53  54
ENDBRANCH  50  53
ENDBRANCH  47  50
ENDBRANCH   5  47
BRANCH   4  77
ATOM     77  N   UNL     1      28.233  29.486  17.954  1.00  0.00    -0.348 N 
ATOM     78  C   UNL     1      27.365  28.397  18.175  1.00  0.00     0.217 C 
ATOM     79  H   UNL     1      28.974  29.666  18.659  1.00  0.00     0.163 HD
ATOM     80  C   UNL     1      27.472  27.510  19.358  1.00  0.00     0.114 C 
ATOM     81  O   UNL     1      26.458  28.166  17.331  1.00  0.00    -0.275 OA
ENDBRANCH   4  77
TORSDOF 31
BEGIN_RES LYS A 131
REMARK  4 active torsions:
REMARK  status: ('A' for Active; 'I' for Inactive)
REMARK    1  A    between atoms: CA   and  CB  
REMARK    2  A    between atoms: CB   and  CG  
REMARK    3  A    between atoms: CG   and  CD  
REMARK    4  A    between atoms: CD   and  CE  
ROOT
ATOM      1  CA  LYS A 131      29.867  25.555  16.977  1.00 20.52     0.186 C 
ENDROOT
BRANCH   1   2
ATOM      2  CB  LYS A 131      28.345  25.722  17.026  1.00 20.94     0.034 C 
BRANCH   2   3
ATOM      3  CG  LYS A 131      27.601  24.402  16.896  1.00 22.96     0.005 C 
BRANCH   3   4
ATOM      4  CD  LYS A 131      26.535  24.247  17.945  1.00 24.33     0.041 C 
BRANCH   4   5
ATOM      5  CE  LYS A 131      25.210  23.898  17.276  1.00 26.91     0.338 C 
ATOM      6  NZ  LYS A 131      24.182  24.916  17.600  1.00 27.40     0.618 N 
ENDBRANCH   4   5
ENDBRANCH   3   4
ENDBRANCH   2   3
ENDBRANCH   1   2
END_RES LYS A 131
BEGIN_RES LYS A 135
REMARK  4 active torsions:
REMARK  status: ('A' for Active; 'I' for Inactive)
REMARK    5  A    between atoms: CA   and  CB  
REMARK    6  A    between atoms: CB   and  CG  
REMARK    7  A    between atoms: CG   and  CD  
REMARK    8  A    between atoms: CD   and  CE  
ROOT
ATOM      7  CA  LYS A 135      33.193  34.663   9.290  1.00 25.02     0.186 C 
ENDROOT
BRANCH   7   8
ATOM      8  CB  LYS A 135      32.060  35.360  10.034  1.00 26.63     0.034 C 
BRANCH   8   9
ATOM      9  CG  LYS A 135      30.773  35.419   9.253  1.00 29.45     0.005 C 
BRANCH   9  10
ATOM     10  CD  LYS A 135      30.264  34.018   8.950  1.00 32.00     0.041 C 
BRANCH  10  11
ATOM     11  CE  LYS A 135      28.752  33.966   9.055  1.00 34.25     0.338 C 
ATOM     12  NZ  LYS A 135      28.113  34.845   8.038  1.00 35.99     0.618 N 
ENDBRANCH  10  11
ENDBRANCH   9  10
ENDBRANCH   8   9
ENDBRANCH   7   8
END_RES LYS A 135
