REMARK VINA RESULT:    -4.075      4.803     11.106
REMARK INTER + INTRA:         -21.602
REMARK INTER:                 -12.696
REMARK INTRA:                  -8.906
REMARK UNBOUND:               -11.571
REMARK SMILES CC(=O)N[C@@H]1[C@@H](O)C[C@](OC[C@H]2O[C@@H](O[C@H]3[C@H](O)[C@@H](O)[C@H](OCCN=[N+]=[N-])O[C@@H]3CO)[C@H](O)[C@@H](O)[C@H]2O)(C(=O)O)O[C@H]1C(O)[C@H](O)CNC(=O)OCc1cn(-c2ccc3[nH]ncc3c2)nn1
REMARK SMILES IDX 9 1 8 2 6 3 5 4 42 5 41 6 10 7 11 8 12 9 14 10 13 11 32 12
REMARK SMILES IDX 34 13 36 14 15 15 16 16 29 17 28 18 21 19 17 20 19 21 30 22
REMARK SMILES IDX 31 23 22 25 23 26 24 27 25 28 26 29 27 30 18 31 20 33 33 35
REMARK SMILES IDX 35 37 37 39 38 41 39 42 40 43 7 45 43 47 44 48 45 50 46 51
REMARK SMILES IDX 47 53 48 54 49 55 50 57 51 58 52 59 53 60 54 61 66 62 55 63
REMARK SMILES IDX 65 64 56 65 57 66 64 67 58 68 63 69 59 70 62 71 60 72 61 73
REMARK SMILES IDX 4 75 2 76 1 78 3 79
REMARK H PARENT 31 24 18 32 20 34 33 36 35 38 37 40 40 44 7 46 44 49 46 52
REMARK H PARENT 48 56 60 74 4 77
REMARK Flexibility Score: inf
ROOT
ATOM      1  C   UNL     1      25.279  37.260   9.342  1.00  0.00     0.272 C 
ATOM      2  C   UNL     1      25.071  38.464  10.187  1.00  0.00     0.113 C 
ATOM      3  C   UNL     1      24.172  39.521   9.600  1.00  0.00     0.145 C 
ATOM      4  C   UNL     1      22.823  38.794   9.355  1.00  0.00     0.142 C 
ATOM      5  C   UNL     1      23.162  37.638   8.496  1.00  0.00     0.178 C 
ATOM      6  O   UNL     1      24.054  36.728   8.947  1.00  0.00    -0.332 OA
ENDROOT
BRANCH   1   7
ATOM      7  O   UNL     1      25.950  36.289  10.117  1.00  0.00    -0.338 OA
BRANCH   7   8
ATOM      8  C   UNL     1      26.232  36.653  11.392  1.00  0.00     0.199 C 
BRANCH   8   9
ATOM      9  C   UNL     1      27.284  35.723  12.038  1.00  0.00     0.179 C 
ATOM     10  C   UNL     1      28.357  36.049  14.065  1.00  0.00     0.282 C 
ATOM     11  O   UNL     1      28.222  36.438  12.721  1.00  0.00    -0.341 OA
ATOM     12  C   UNL     1      27.042  36.331  14.717  1.00  0.00     0.202 C 
ATOM     13  C   UNL     1      26.056  35.289  14.172  1.00  0.00     0.179 C 
ATOM     14  C   UNL     1      26.576  34.690  12.893  1.00  0.00     0.177 C 
BRANCH  10  15
ATOM     15  O   UNL     1      29.448  36.691  14.622  1.00  0.00    -0.341 OA
BRANCH  15  16
ATOM     16  C   UNL     1      30.335  35.748  15.127  1.00  0.00     0.184 C 
ATOM     17  C   UNL     1      31.139  36.212  16.304  1.00  0.00     0.178 C 
ATOM     18  O   UNL     1      31.906  35.224  16.793  1.00  0.00    -0.341 OA
ATOM     19  C   UNL     1      32.207  34.124  16.055  1.00  0.00     0.281 C 
ATOM     20  C   UNL     1      31.410  35.443  14.066  1.00  0.00     0.180 C 
ATOM     21  C   UNL     1      32.206  34.291  14.574  1.00  0.00     0.202 C 
BRANCH  17  22
ATOM     22  C   UNL     1      30.314  36.811  17.425  1.00  0.00     0.191 C 
BRANCH  22  23
ATOM     23  O   UNL     1      29.192  36.053  17.707  1.00  0.00    -0.394 OA
ATOM     24  H   UNL     1      28.817  36.434  18.559  1.00  0.00     0.210 HD
ENDBRANCH  22  23
ENDBRANCH  17  22
BRANCH  19  25
ATOM     25  O   UNL     1      31.347  33.122  16.432  1.00  0.00    -0.350 OA
BRANCH  25  26
ATOM     26  C   UNL     1      31.058  32.173  15.515  1.00  0.00     0.169 C 
BRANCH  26  27
ATOM     27  C   UNL     1      29.615  31.787  15.454  1.00  0.00     0.119 C 
BRANCH  27  28
ATOM     28  N   UNL     1      29.218  30.733  16.340  1.00  0.00    -0.092 NA
ATOM     29  N   UNL     1      29.079  30.871  17.539  1.00  0.00     0.001 N 
ATOM     30  N   UNL     1      29.280  30.901  18.774  1.00  0.00    -0.003 NA
ENDBRANCH  27  28
ENDBRANCH  26  27
ENDBRANCH  25  26
ENDBRANCH  19  25
BRANCH  20  31
ATOM     31  O   UNL     1      30.860  35.207  12.835  1.00  0.00    -0.387 OA
ATOM     32  H   UNL     1      30.625  36.031  12.335  1.00  0.00     0.211 HD
ENDBRANCH  20  31
BRANCH  21  33
ATOM     33  O   UNL     1      33.514  34.436  14.075  1.00  0.00    -0.385 OA
ATOM     34  H   UNL     1      33.560  35.136  13.375  1.00  0.00     0.211 HD
ENDBRANCH  21  33
ENDBRANCH  15  16
ENDBRANCH  10  15
BRANCH  12  35
ATOM     35  O   UNL     1      27.040  36.341  16.089  1.00  0.00    -0.385 OA
ATOM     36  H   UNL     1      26.931  35.418  16.472  1.00  0.00     0.211 HD
ENDBRANCH  12  35
BRANCH  13  37
ATOM     37  O   UNL     1      24.772  35.786  14.091  1.00  0.00    -0.387 OA
ATOM     38  H   UNL     1      24.445  35.601  13.160  1.00  0.00     0.211 HD
ENDBRANCH  13  37
BRANCH  14  39
ATOM     39  O   UNL     1      25.439  34.261  12.163  1.00  0.00    -0.387 OA
ATOM     40  H   UNL     1      24.759  33.864  12.728  1.00  0.00     0.211 HD
ENDBRANCH  14  39
ENDBRANCH   8   9
ENDBRANCH   7   8
ENDBRANCH   1   7
BRANCH   1  41
ATOM     41  C   UNL     1      26.027  37.512   8.081  1.00  0.00     0.364 C 
ATOM     42  O   UNL     1      27.135  38.135   8.187  1.00  0.00    -0.246 OA
BRANCH  41  43
ATOM     43  O   UNL     1      25.663  37.155   6.820  1.00  0.00    -0.477 OA
ATOM     44  H   UNL     1      26.264  37.273   6.003  1.00  0.00     0.296 HD
ENDBRANCH  41  43
ENDBRANCH   1  41
BRANCH   3  45
ATOM     45  O   UNL     1      24.007  40.522  10.538  1.00  0.00    -0.391 OA
ATOM     46  H   UNL     1      24.795  40.587  11.158  1.00  0.00     0.211 HD
ENDBRANCH   3  45
BRANCH   5  47
ATOM     47  C   UNL     1      21.941  37.038   7.866  1.00  0.00     0.176 C 
BRANCH  47  48
ATOM     48  O   UNL     1      22.346  36.804   6.501  1.00  0.00    -0.388 OA
ATOM     49  H   UNL     1      21.680  37.164   5.882  1.00  0.00     0.211 HD
ENDBRANCH  47  48
BRANCH  47  50
ATOM     50  C   UNL     1      21.541  35.676   8.378  1.00  0.00     0.165 C 
BRANCH  50  51
ATOM     51  O   UNL     1      20.623  35.175   7.414  1.00  0.00    -0.388 OA
ATOM     52  H   UNL     1      20.284  35.875   6.829  1.00  0.00     0.211 HD
ENDBRANCH  50  51
BRANCH  50  53
ATOM     53  C   UNL     1      20.895  35.649   9.710  1.00  0.00     0.154 C 
BRANCH  53  54
ATOM     54  N   UNL     1      21.177  34.550  10.565  1.00  0.00    -0.319 N 
ATOM     55  C   UNL     1      22.133  34.495  11.607  1.00  0.00     0.407 C 
ATOM     56  H   UNL     1      20.620  33.645  10.437  1.00  0.00     0.167 HD
ATOM     57  O   UNL     1      22.839  35.469  11.885  1.00  0.00    -0.225 OA
BRANCH  55  58
ATOM     58  O   UNL     1      22.291  33.325  12.343  1.00  0.00    -0.443 OA
BRANCH  58  59
ATOM     59  C   UNL     1      22.531  33.249  13.716  1.00  0.00     0.294 C 
BRANCH  59  60
ATOM     60  C   UNL     1      23.410  32.147  14.132  1.00  0.00     0.121 A 
ATOM     61  C   UNL     1      23.272  31.372  15.262  1.00  0.00     0.144 A 
ATOM     62  N   UNL     1      24.511  31.716  13.483  1.00  0.00    -0.131 NA
ATOM     63  N   UNL     1      24.294  30.513  15.238  1.00  0.00    -0.220 N 
ATOM     64  N   UNL     1      25.026  30.736  14.162  1.00  0.00    -0.062 NA
BRANCH  63  65
ATOM     65  C   UNL     1      24.543  29.518  16.231  1.00  0.00     0.067 A 
ATOM     66  C   UNL     1      23.518  28.754  16.743  1.00  0.00     0.030 A 
ATOM     67  C   UNL     1      25.820  29.308  16.698  1.00  0.00     0.040 A 
ATOM     68  C   UNL     1      23.760  27.800  17.701  1.00  0.00     0.030 A 
ATOM     69  C   UNL     1      26.047  28.335  17.669  1.00  0.00     0.022 A 
ATOM     70  C   UNL     1      25.028  27.560  18.194  1.00  0.00     0.065 A 
ATOM     71  C   UNL     1      27.215  27.944  18.282  1.00  0.00     0.143 A 
ATOM     72  N   UNL     1      25.571  26.727  19.097  1.00  0.00    -0.278 N 
ATOM     73  N   UNL     1      26.862  26.968  19.135  1.00  0.00    -0.183 NA
ATOM     74  H   UNL     1      25.031  26.022  19.655  1.00  0.00     0.190 HD
ENDBRANCH  63  65
ENDBRANCH  59  60
ENDBRANCH  58  59
ENDBRANCH  55  58
ENDBRANCH  53  54
ENDBRANCH  50  53
ENDBRANCH  47  50
ENDBRANCH   5  47
BRANCH   4  75
ATOM     75  N   UNL     1      22.076  39.778   8.565  1.00  0.00    -0.348 N 
ATOM     76  C   UNL     1      20.838  40.223   9.032  1.00  0.00     0.217 C 
ATOM     77  H   UNL     1      22.438  40.151   7.672  1.00  0.00     0.163 HD
ATOM     78  C   UNL     1      20.008  41.223   8.282  1.00  0.00     0.114 C 
ATOM     79  O   UNL     1      20.386  39.774  10.137  1.00  0.00    -0.275 OA
ENDBRANCH   4  75
TORSDOF 30
BEGIN_RES LYS A 131
REMARK  4 active torsions:
REMARK  status: ('A' for Active; 'I' for Inactive)
REMARK    1  A    between atoms: CA   and  CB  
REMARK    2  A    between atoms: CB   and  CG  
REMARK    3  A    between atoms: CG   and  CD  
REMARK    4  A    between atoms: CD   and  CE  
ROOT
ATOM      1  CA  LYS A 131      29.867  25.555  16.977  1.00 20.52     0.186 C 
ENDROOT
BRANCH   1   2
ATOM      2  CB  LYS A 131      28.345  25.722  17.026  1.00 20.94     0.034 C 
BRANCH   2   3
ATOM      3  CG  LYS A 131      27.599  24.488  16.541  1.00 22.96     0.005 C 
BRANCH   3   4
ATOM      4  CD  LYS A 131      27.000  23.706  17.677  1.00 24.33     0.041 C 
BRANCH   4   5
ATOM      5  CE  LYS A 131      25.492  23.594  17.477  1.00 26.91     0.338 C 
ATOM      6  NZ  LYS A 131      25.053  22.185  17.618  1.00 27.40     0.618 N 
ENDBRANCH   4   5
ENDBRANCH   3   4
ENDBRANCH   2   3
ENDBRANCH   1   2
END_RES LYS A 131
BEGIN_RES LYS A 135
REMARK  4 active torsions:
REMARK  status: ('A' for Active; 'I' for Inactive)
REMARK    5  A    between atoms: CA   and  CB  
REMARK    6  A    between atoms: CB   and  CG  
REMARK    7  A    between atoms: CG   and  CD  
REMARK    8  A    between atoms: CD   and  CE  
ROOT
ATOM      7  CA  LYS A 135      33.193  34.663   9.290  1.00 25.02     0.186 C 
ENDROOT
BRANCH   7   8
ATOM      8  CB  LYS A 135      32.060  35.360  10.034  1.00 26.63     0.034 C 
BRANCH   8   9
ATOM      9  CG  LYS A 135      30.816  35.543   9.203  1.00 29.45     0.005 C 
BRANCH   9  10
ATOM     10  CD  LYS A 135      30.056  34.231   9.079  1.00 32.00     0.041 C 
BRANCH  10  11
ATOM     11  CE  LYS A 135      28.664  34.473   8.527  1.00 34.25     0.338 C 
ATOM     12  NZ  LYS A 135      28.719  35.224   7.243  1.00 35.99     0.618 N 
ENDBRANCH  10  11
ENDBRANCH   9  10
ENDBRANCH   8   9
ENDBRANCH   7   8
END_RES LYS A 135
