REMARK VINA RESULT:    -5.149      3.680      7.812
REMARK INTER + INTRA:         -24.765
REMARK INTER:                 -14.545
REMARK INTRA:                 -10.220
REMARK UNBOUND:               -11.187
REMARK SMILES CC(=O)N[C@@H]1[C@@H](O)C[C@](OC[C@H]2O[C@@H](O[C@H]3[C@H](O)[C@@H](O)[C@H](OCCN=[N+]=[N-])O[C@@H]3CO)[C@H](O)[C@@H](O)[C@H]2O)(C(=O)O)O[C@H]1C(O)[C@H](O)CNC(=O)OCc1cn(-c2ccc(S(=O)(=O)Nc3nccs3)cc2)nn1
REMARK SMILES IDX 43 1 42 2 9 3 8 4 41 5 6 6 5 7 10 8 11 9 12 10 14 11 13 12
REMARK SMILES IDX 32 13 34 14 36 15 15 16 16 17 29 18 28 19 21 20 17 21 19 22
REMARK SMILES IDX 30 23 31 24 22 26 23 27 24 28 25 29 26 30 27 31 18 32 20 34
REMARK SMILES IDX 33 36 35 38 37 40 38 42 39 43 40 44 7 46 4 48 2 49 1 51 3 52
REMARK SMILES IDX 44 53 45 55 46 56 47 58 48 59 49 60 50 62 51 63 52 64 53 65
REMARK SMILES IDX 54 66 72 67 55 68 71 69 56 70 57 71 70 72 58 73 69 74 59 75
REMARK SMILES IDX 60 76 61 77 62 78 63 79 64 81 65 82 68 83 66 84 67 85
REMARK H PARENT 31 25 18 33 20 35 33 37 35 39 37 41 40 45 7 47 4 50 44 54
REMARK H PARENT 46 57 48 61 63 80
REMARK Flexibility Score: inf
ROOT
ATOM      1  C   UNL     1      23.690  35.231  12.587  1.00  0.00     0.176 C 
ENDROOT
BRANCH   1   2
ATOM      2  C   UNL     1      24.019  36.333  11.637  1.00  0.00     0.178 C 
ATOM      3  C   UNL     1      24.260  36.488   9.317  1.00  0.00     0.272 C 
ATOM      4  C   UNL     1      24.468  37.948   9.776  1.00  0.00     0.113 C 
ATOM      5  O   UNL     1      24.243  35.653  10.399  1.00  0.00    -0.332 OA
ATOM      6  C   UNL     1      25.509  38.091  10.821  1.00  0.00     0.145 C 
ATOM      7  C   UNL     1      25.336  37.022  11.902  1.00  0.00     0.142 C 
BRANCH   3   8
ATOM      8  O   UNL     1      25.286  36.107   8.489  1.00  0.00    -0.338 OA
BRANCH   8   9
ATOM      9  C   UNL     1      25.666  34.793   8.599  1.00  0.00     0.199 C 
BRANCH   9  10
ATOM     10  C   UNL     1      27.162  34.594   8.532  1.00  0.00     0.179 C 
ATOM     11  C   UNL     1      29.157  35.393   7.930  1.00  0.00     0.282 C 
ATOM     12  O   UNL     1      27.854  35.782   8.320  1.00  0.00    -0.341 OA
ATOM     13  C   UNL     1      29.886  35.024   9.200  1.00  0.00     0.202 C 
ATOM     14  C   UNL     1      28.879  34.823  10.337  1.00  0.00     0.179 C 
ATOM     15  C   UNL     1      27.695  34.019   9.834  1.00  0.00     0.177 C 
BRANCH  11  16
ATOM     16  O   UNL     1      29.818  36.365   7.259  1.00  0.00    -0.341 OA
BRANCH  16  17
ATOM     17  C   UNL     1      29.213  37.608   7.243  1.00  0.00     0.184 C 
ATOM     18  C   UNL     1      29.128  38.311   5.950  1.00  0.00     0.178 C 
ATOM     19  O   UNL     1      29.122  39.710   6.214  1.00  0.00    -0.341 OA
ATOM     20  C   UNL     1      30.411  40.157   6.538  1.00  0.00     0.281 C 
ATOM     21  C   UNL     1      29.807  38.517   8.311  1.00  0.00     0.180 C 
ATOM     22  C   UNL     1      30.923  39.400   7.750  1.00  0.00     0.202 C 
BRANCH  18  23
ATOM     23  C   UNL     1      27.818  38.104   5.190  1.00  0.00     0.191 C 
BRANCH  23  24
ATOM     24  O   UNL     1      27.250  36.879   5.368  1.00  0.00    -0.394 OA
ATOM     25  H   UNL     1      27.777  36.189   4.905  1.00  0.00     0.210 HD
ENDBRANCH  23  24
ENDBRANCH  18  23
BRANCH  20  26
ATOM     26  O   UNL     1      30.337  41.506   6.802  1.00  0.00    -0.350 OA
BRANCH  26  27
ATOM     27  C   UNL     1      31.112  42.309   6.006  1.00  0.00     0.169 C 
BRANCH  27  28
ATOM     28  C   UNL     1      31.822  41.563   4.900  1.00  0.00     0.119 C 
BRANCH  28  29
ATOM     29  N   UNL     1      33.216  41.498   5.253  1.00  0.00    -0.092 NA
ATOM     30  N   UNL     1      33.796  40.416   5.226  1.00  0.00     0.001 N 
ATOM     31  N   UNL     1      34.338  39.381   5.619  1.00  0.00    -0.003 NA
ENDBRANCH  28  29
ENDBRANCH  27  28
ENDBRANCH  26  27
ENDBRANCH  20  26
BRANCH  21  32
ATOM     32  O   UNL     1      28.840  39.379   8.825  1.00  0.00    -0.387 OA
ATOM     33  H   UNL     1      28.115  38.882   9.269  1.00  0.00     0.211 HD
ENDBRANCH  21  32
BRANCH  22  34
ATOM     34  O   UNL     1      32.070  38.663   7.488  1.00  0.00    -0.385 OA
ATOM     35  H   UNL     1      31.865  38.073   6.728  1.00  0.00     0.211 HD
ENDBRANCH  22  34
ENDBRANCH  16  17
ENDBRANCH  11  16
BRANCH  13  36
ATOM     36  O   UNL     1      30.525  33.763   9.100  1.00  0.00    -0.385 OA
ATOM     37  H   UNL     1      30.930  33.496   9.937  1.00  0.00     0.211 HD
ENDBRANCH  13  36
BRANCH  14  38
ATOM     38  O   UNL     1      28.511  36.042  10.887  1.00  0.00    -0.387 OA
ATOM     39  H   UNL     1      27.546  36.069  11.121  1.00  0.00     0.211 HD
ENDBRANCH  14  38
BRANCH  15  40
ATOM     40  O   UNL     1      26.729  34.019  10.829  1.00  0.00    -0.387 OA
ATOM     41  H   UNL     1      26.367  33.144  11.044  1.00  0.00     0.211 HD
ENDBRANCH  15  40
ENDBRANCH   9  10
ENDBRANCH   8   9
ENDBRANCH   3   8
BRANCH   3  42
ATOM     42  C   UNL     1      22.972  36.483   8.620  1.00  0.00     0.364 C 
ATOM     43  O   UNL     1      22.122  35.548   8.777  1.00  0.00    -0.246 OA
BRANCH  42  44
ATOM     44  O   UNL     1      22.587  37.487   7.749  1.00  0.00    -0.477 OA
ATOM     45  H   UNL     1      21.627  37.853   7.787  1.00  0.00     0.296 HD
ENDBRANCH  42  44
ENDBRANCH   3  42
BRANCH   6  46
ATOM     46  O   UNL     1      26.807  38.073  10.311  1.00  0.00    -0.391 OA
ATOM     47  H   UNL     1      26.916  37.294   9.716  1.00  0.00     0.211 HD
ENDBRANCH   6  46
BRANCH   7  48
ATOM     48  N   UNL     1      25.490  37.599  13.190  1.00  0.00    -0.348 N 
ATOM     49  C   UNL     1      26.594  37.233  14.010  1.00  0.00     0.217 C 
ATOM     50  H   UNL     1      24.819  38.294  13.569  1.00  0.00     0.163 HD
ATOM     51  C   UNL     1      26.828  37.785  15.354  1.00  0.00     0.114 C 
ATOM     52  O   UNL     1      27.437  36.380  13.567  1.00  0.00    -0.275 OA
ENDBRANCH   7  48
ENDBRANCH   1   2
BRANCH   1  53
ATOM     53  O   UNL     1      24.917  34.686  13.080  1.00  0.00    -0.388 OA
ATOM     54  H   UNL     1      25.593  35.382  13.171  1.00  0.00     0.211 HD
ENDBRANCH   1  53
BRANCH   1  55
ATOM     55  C   UNL     1      22.846  34.108  12.055  1.00  0.00     0.165 C 
BRANCH  55  56
ATOM     56  O   UNL     1      21.700  34.779  11.506  1.00  0.00    -0.388 OA
ATOM     57  H   UNL     1      21.643  35.686  11.902  1.00  0.00     0.211 HD
ENDBRANCH  55  56
BRANCH  55  58
ATOM     58  C   UNL     1      22.245  33.273  13.178  1.00  0.00     0.154 C 
BRANCH  58  59
ATOM     59  N   UNL     1      23.315  32.483  13.730  1.00  0.00    -0.319 N 
ATOM     60  C   UNL     1      23.548  31.127  13.381  1.00  0.00     0.407 C 
ATOM     61  H   UNL     1      23.994  32.907  14.444  1.00  0.00     0.167 HD
ATOM     62  O   UNL     1      22.834  30.554  12.550  1.00  0.00    -0.225 OA
BRANCH  60  63
ATOM     63  O   UNL     1      24.581  30.399  13.960  1.00  0.00    -0.443 OA
BRANCH  63  64
ATOM     64  C   UNL     1      24.820  30.255  15.333  1.00  0.00     0.294 C 
BRANCH  64  65
ATOM     65  C   UNL     1      26.227  30.404  15.742  1.00  0.00     0.121 A 
ATOM     66  C   UNL     1      26.976  31.584  15.713  1.00  0.00     0.144 A 
ATOM     67  N   UNL     1      27.069  29.488  16.217  1.00  0.00    -0.131 NA
ATOM     68  N   UNL     1      28.233  31.346  16.168  1.00  0.00    -0.220 N 
ATOM     69  N   UNL     1      28.258  30.060  16.467  1.00  0.00    -0.062 NA
BRANCH  68  70
ATOM     70  C   UNL     1      29.273  32.333  16.283  1.00  0.00     0.066 A 
ATOM     71  C   UNL     1      30.591  32.032  16.094  1.00  0.00     0.030 A 
ATOM     72  C   UNL     1      28.912  33.628  16.608  1.00  0.00     0.030 A 
ATOM     73  C   UNL     1      31.563  33.023  16.229  1.00  0.00     0.024 A 
ATOM     74  C   UNL     1      29.832  34.638  16.753  1.00  0.00     0.024 A 
ATOM     75  C   UNL     1      31.164  34.298  16.554  1.00  0.00     0.088 A 
BRANCH  75  76
ATOM     76  S   UNL     1      32.357  35.559  16.738  1.00  0.00     0.263 S 
ATOM     77  O   UNL     1      31.661  36.887  16.513  1.00  0.00    -0.201 OA
ATOM     78  O   UNL     1      33.356  35.380  15.629  1.00  0.00    -0.201 OA
BRANCH  76  79
ATOM     79  N   UNL     1      33.080  35.460  18.276  1.00  0.00    -0.255 N 
ATOM     80  H   UNL     1      34.055  35.793  18.383  1.00  0.00     0.182 HD
BRANCH  79  81
ATOM     81  C   UNL     1      32.365  34.945  19.344  1.00  0.00     0.196 A 
ATOM     82  N   UNL     1      32.232  33.856  19.996  1.00  0.00    -0.228 NA
ATOM     83  S   UNL     1      31.145  35.996  20.270  1.00  0.00    -0.105 S 
ATOM     84  C   UNL     1      31.448  33.659  20.991  1.00  0.00     0.125 A 
ATOM     85  C   UNL     1      30.655  34.681  21.439  1.00  0.00     0.089 A 
ENDBRANCH  79  81
ENDBRANCH  76  79
ENDBRANCH  75  76
ENDBRANCH  68  70
ENDBRANCH  64  65
ENDBRANCH  63  64
ENDBRANCH  60  63
ENDBRANCH  58  59
ENDBRANCH  55  58
ENDBRANCH   1  55
TORSDOF 33
BEGIN_RES LYS A 131
REMARK  4 active torsions:
REMARK  status: ('A' for Active; 'I' for Inactive)
REMARK    1  A    between atoms: CA   and  CB  
REMARK    2  A    between atoms: CB   and  CG  
REMARK    3  A    between atoms: CG   and  CD  
REMARK    4  A    between atoms: CD   and  CE  
ROOT
ATOM      1  CA  LYS A 131      29.867  25.555  16.977  1.00 20.52     0.186 C 
ENDROOT
BRANCH   1   2
ATOM      2  CB  LYS A 131      28.345  25.722  17.026  1.00 20.94     0.034 C 
BRANCH   2   3
ATOM      3  CG  LYS A 131      27.599  24.437  16.701  1.00 22.96     0.005 C 
BRANCH   3   4
ATOM      4  CD  LYS A 131      27.004  23.802  17.927  1.00 24.33     0.041 C 
BRANCH   4   5
ATOM      5  CE  LYS A 131      25.591  23.320  17.616  1.00 26.91     0.338 C 
ATOM      6  NZ  LYS A 131      24.824  24.378  16.917  1.00 27.40     0.618 N 
ENDBRANCH   4   5
ENDBRANCH   3   4
ENDBRANCH   2   3
ENDBRANCH   1   2
END_RES LYS A 131
BEGIN_RES LYS A 135
REMARK  4 active torsions:
REMARK  status: ('A' for Active; 'I' for Inactive)
REMARK    5  A    between atoms: CA   and  CB  
REMARK    6  A    between atoms: CB   and  CG  
REMARK    7  A    between atoms: CG   and  CD  
REMARK    8  A    between atoms: CD   and  CE  
ROOT
ATOM      7  CA  LYS A 135      33.193  34.663   9.290  1.00 25.02     0.186 C 
ENDROOT
BRANCH   7   8
ATOM      8  CB  LYS A 135      32.060  35.360  10.034  1.00 26.63     0.034 C 
BRANCH   8   9
ATOM      9  CG  LYS A 135      32.499  36.027  11.312  1.00 29.45     0.005 C 
BRANCH   9  10
ATOM     10  CD  LYS A 135      31.812  37.374  11.478  1.00 32.00     0.041 C 
BRANCH  10  11
ATOM     11  CE  LYS A 135      31.230  37.507  12.872  1.00 34.25     0.338 C 
ATOM     12  NZ  LYS A 135      30.794  36.185  13.400  1.00 35.99     0.618 N 
ENDBRANCH  10  11
ENDBRANCH   9  10
ENDBRANCH   8   9
ENDBRANCH   7   8
END_RES LYS A 135
