REMARK VINA RESULT:    -4.913      2.837      6.744
REMARK INTER + INTRA:         -22.511
REMARK INTER:                 -14.132
REMARK INTRA:                  -8.379
REMARK UNBOUND:               -10.416
REMARK SMILES CC(=O)N[C@@H]1[C@@H](O)C[C@](OC[C@H]2O[C@@H](O[C@H]3[C@H](O)[C@@H](O)[C@H](OCCN=[N+]=[N-])O[C@@H]3CO)[C@H](O)[C@@H](O)[C@H]2O)(C(=O)O)O[C@H]1C(O)[C@H](O)CNC(=O)OCc1cn(-c2ccc3c(c2)OCO3)nn1
REMARK SMILES IDX 9 1 8 2 6 3 5 4 42 5 41 6 10 7 11 8 12 9 14 10 13 11 32 12
REMARK SMILES IDX 34 13 36 14 15 15 16 16 29 17 28 18 21 19 17 20 19 21 30 22
REMARK SMILES IDX 31 23 22 25 23 26 24 27 25 28 26 29 27 30 18 31 20 33 33 35
REMARK SMILES IDX 35 37 37 39 38 41 39 42 40 43 7 45 43 47 44 48 45 50 46 51
REMARK SMILES IDX 47 53 48 54 49 55 50 57 51 58 52 59 53 60 54 61 66 62 55 63
REMARK SMILES IDX 65 64 56 65 57 66 61 67 58 68 60 69 59 70 62 71 64 72 63 73
REMARK SMILES IDX 4 74 2 75 1 77 3 78
REMARK H PARENT 31 24 18 32 20 34 33 36 35 38 37 40 40 44 7 46 44 49 46 52
REMARK H PARENT 48 56 4 76
REMARK Flexibility Score: inf
ROOT
ATOM      1  C   UNL     1      30.628  32.922  17.160  1.00  0.00     0.272 C 
ATOM      2  C   UNL     1      31.818  33.830  17.025  1.00  0.00     0.113 C 
ATOM      3  C   UNL     1      31.446  35.307  17.254  1.00  0.00     0.145 C 
ATOM      4  C   UNL     1      30.564  35.679  16.080  1.00  0.00     0.142 C 
ATOM      5  C   UNL     1      29.456  34.647  16.059  1.00  0.00     0.178 C 
ATOM      6  O   UNL     1      29.474  33.753  17.075  1.00  0.00    -0.332 OA
ENDROOT
BRANCH   1   7
ATOM      7  O   UNL     1      30.530  32.315  18.332  1.00  0.00    -0.338 OA
BRANCH   7   8
ATOM      8  C   UNL     1      29.778  32.486  19.375  1.00  0.00     0.199 C 
BRANCH   8   9
ATOM      9  C   UNL     1      29.307  31.335  20.223  1.00  0.00     0.179 C 
ATOM     10  C   UNL     1      27.306  30.273  20.765  1.00  0.00     0.282 C 
ATOM     11  O   UNL     1      27.941  31.404  20.323  1.00  0.00    -0.341 OA
ATOM     12  C   UNL     1      28.222  29.234  21.320  1.00  0.00     0.202 C 
ATOM     13  C   UNL     1      29.307  28.850  20.328  1.00  0.00     0.179 C 
ATOM     14  C   UNL     1      29.704  30.025  19.494  1.00  0.00     0.177 C 
BRANCH  10  15
ATOM     15  O   UNL     1      26.673  29.696  19.646  1.00  0.00    -0.341 OA
BRANCH  15  16
ATOM     16  C   UNL     1      25.695  30.491  19.109  1.00  0.00     0.184 C 
ATOM     17  C   UNL     1      24.342  29.931  19.461  1.00  0.00     0.178 C 
ATOM     18  O   UNL     1      23.894  28.965  18.592  1.00  0.00    -0.341 OA
ATOM     19  C   UNL     1      24.932  28.255  17.986  1.00  0.00     0.281 C 
ATOM     20  C   UNL     1      25.923  30.536  17.616  1.00  0.00     0.180 C 
ATOM     21  C   UNL     1      25.755  29.133  17.077  1.00  0.00     0.202 C 
BRANCH  17  22
ATOM     22  C   UNL     1      23.281  31.022  19.511  1.00  0.00     0.191 C 
BRANCH  22  23
ATOM     23  O   UNL     1      22.144  30.654  18.804  1.00  0.00    -0.394 OA
ATOM     24  H   UNL     1      22.363  30.145  17.964  1.00  0.00     0.210 HD
ENDBRANCH  22  23
ENDBRANCH  17  22
BRANCH  19  25
ATOM     25  O   UNL     1      24.318  27.286  17.204  1.00  0.00    -0.350 OA
BRANCH  25  26
ATOM     26  C   UNL     1      23.025  27.702  16.907  1.00  0.00     0.169 C 
BRANCH  26  27
ATOM     27  C   UNL     1      22.666  27.389  15.458  1.00  0.00     0.119 C 
BRANCH  27  28
ATOM     28  N   UNL     1      22.384  28.678  14.810  1.00  0.00    -0.092 NA
ATOM     29  N   UNL     1      22.979  28.960  13.747  1.00  0.00     0.001 N 
ATOM     30  N   UNL     1      23.702  29.070  12.741  1.00  0.00    -0.003 NA
ENDBRANCH  27  28
ENDBRANCH  26  27
ENDBRANCH  25  26
ENDBRANCH  19  25
BRANCH  20  31
ATOM     31  O   UNL     1      25.122  31.453  16.966  1.00  0.00    -0.387 OA
ATOM     32  H   UNL     1      25.072  31.315  15.974  1.00  0.00     0.211 HD
ENDBRANCH  20  31
BRANCH  21  33
ATOM     33  O   UNL     1      27.027  28.565  16.983  1.00  0.00    -0.385 OA
ATOM     34  H   UNL     1      27.362  28.223  17.851  1.00  0.00     0.211 HD
ENDBRANCH  21  33
ENDBRANCH  15  16
ENDBRANCH  10  15
BRANCH  12  35
ATOM     35  O   UNL     1      28.826  29.582  22.526  1.00  0.00    -0.385 OA
ATOM     36  H   UNL     1      29.670  29.040  22.615  1.00  0.00     0.211 HD
ENDBRANCH  12  35
BRANCH  13  37
ATOM     37  O   UNL     1      28.810  27.820  19.527  1.00  0.00    -0.387 OA
ATOM     38  H   UNL     1      28.268  28.127  18.778  1.00  0.00     0.211 HD
ENDBRANCH  13  37
BRANCH  14  39
ATOM     39  O   UNL     1      29.037  29.948  18.275  1.00  0.00    -0.387 OA
ATOM     40  H   UNL     1      29.606  30.095  17.502  1.00  0.00     0.211 HD
ENDBRANCH  14  39
ENDBRANCH   8   9
ENDBRANCH   7   8
ENDBRANCH   1   7
BRANCH   1  41
ATOM     41  C   UNL     1      30.530  31.991  15.990  1.00  0.00     0.364 C 
ATOM     42  O   UNL     1      29.478  31.262  15.949  1.00  0.00    -0.246 OA
BRANCH  41  43
ATOM     43  O   UNL     1      31.441  31.854  14.993  1.00  0.00    -0.477 OA
ATOM     44  H   UNL     1      32.384  32.209  15.035  1.00  0.00     0.296 HD
ENDBRANCH  41  43
ENDBRANCH   1  41
BRANCH   3  45
ATOM     45  O   UNL     1      30.723  35.323  18.454  1.00  0.00    -0.391 OA
ATOM     46  H   UNL     1      31.329  35.227  19.222  1.00  0.00     0.211 HD
ENDBRANCH   3  45
BRANCH   5  47
ATOM     47  C   UNL     1      28.163  35.465  16.259  1.00  0.00     0.176 C 
BRANCH  47  48
ATOM     48  O   UNL     1      28.008  36.457  15.334  1.00  0.00    -0.388 OA
ATOM     49  H   UNL     1      27.069  36.721  15.167  1.00  0.00     0.211 HD
ENDBRANCH  47  48
BRANCH  47  50
ATOM     50  C   UNL     1      26.937  34.559  16.259  1.00  0.00     0.165 C 
BRANCH  50  51
ATOM     51  O   UNL     1      26.814  33.839  17.399  1.00  0.00    -0.388 OA
ATOM     52  H   UNL     1      26.538  32.903  17.308  1.00  0.00     0.211 HD
ENDBRANCH  50  51
BRANCH  50  53
ATOM     53  C   UNL     1      27.064  33.685  15.051  1.00  0.00     0.154 C 
BRANCH  53  54
ATOM     54  N   UNL     1      26.055  33.951  14.073  1.00  0.00    -0.319 N 
ATOM     55  C   UNL     1      25.001  33.074  13.709  1.00  0.00     0.407 C 
ATOM     56  H   UNL     1      26.044  34.888  13.534  1.00  0.00     0.167 HD
ATOM     57  O   UNL     1      24.874  31.962  14.260  1.00  0.00    -0.225 OA
BRANCH  55  58
ATOM     58  O   UNL     1      24.071  33.424  12.726  1.00  0.00    -0.443 OA
BRANCH  58  59
ATOM     59  C   UNL     1      23.614  34.732  12.518  1.00  0.00     0.294 C 
BRANCH  59  60
ATOM     60  C   UNL     1      23.910  35.120  11.097  1.00  0.00     0.121 A 
ATOM     61  C   UNL     1      25.181  35.317  10.555  1.00  0.00     0.144 A 
ATOM     62  N   UNL     1      23.055  35.341  10.091  1.00  0.00    -0.131 NA
ATOM     63  N   UNL     1      25.046  35.649   9.252  1.00  0.00    -0.220 N 
ATOM     64  N   UNL     1      23.743  35.649   9.020  1.00  0.00    -0.062 NA
BRANCH  63  65
ATOM     65  C   UNL     1      26.058  35.930   8.317  1.00  0.00     0.070 A 
ATOM     66  C   UNL     1      26.930  34.955   7.921  1.00  0.00     0.032 A 
ATOM     67  C   UNL     1      26.182  37.190   7.784  1.00  0.00     0.079 A 
ATOM     68  C   UNL     1      27.932  35.250   6.984  1.00  0.00     0.053 A 
ATOM     69  C   UNL     1      27.160  37.497   6.863  1.00  0.00     0.167 A 
ATOM     70  C   UNL     1      28.034  36.518   6.468  1.00  0.00     0.165 A 
ATOM     71  O   UNL     1      27.465  38.671   6.209  1.00  0.00    -0.454 OA
ATOM     72  O   UNL     1      28.910  37.074   5.545  1.00  0.00    -0.454 OA
ATOM     73  C   UNL     1      28.747  38.465   5.604  1.00  0.00     0.468 C 
ENDBRANCH  63  65
ENDBRANCH  59  60
ENDBRANCH  58  59
ENDBRANCH  55  58
ENDBRANCH  53  54
ENDBRANCH  50  53
ENDBRANCH  47  50
ENDBRANCH   5  47
BRANCH   4  74
ATOM     74  N   UNL     1      31.355  35.720  14.888  1.00  0.00    -0.348 N 
ATOM     75  C   UNL     1      31.210  36.782  13.921  1.00  0.00     0.217 C 
ATOM     76  H   UNL     1      32.072  35.013  14.624  1.00  0.00     0.163 HD
ATOM     77  C   UNL     1      32.038  36.814  12.686  1.00  0.00     0.114 C 
ATOM     78  O   UNL     1      30.384  37.677  14.129  1.00  0.00    -0.275 OA
ENDBRANCH   4  74
TORSDOF 30
BEGIN_RES LYS A 131
REMARK  4 active torsions:
REMARK  status: ('A' for Active; 'I' for Inactive)
REMARK    1  A    between atoms: CA   and  CB  
REMARK    2  A    between atoms: CB   and  CG  
REMARK    3  A    between atoms: CG   and  CD  
REMARK    4  A    between atoms: CD   and  CE  
ROOT
ATOM      1  CA  LYS A 131      29.867  25.555  16.977  1.00 20.52     0.186 C 
ENDROOT
BRANCH   1   2
ATOM      2  CB  LYS A 131      28.345  25.722  17.026  1.00 20.94     0.034 C 
BRANCH   2   3
ATOM      3  CG  LYS A 131      27.599  24.432  16.722  1.00 22.96     0.005 C 
BRANCH   3   4
ATOM      4  CD  LYS A 131      26.215  24.425  17.310  1.00 24.33     0.041 C 
BRANCH   4   5
ATOM      5  CE  LYS A 131      26.279  24.879  18.765  1.00 26.91     0.338 C 
ATOM      6  NZ  LYS A 131      25.436  24.007  19.618  1.00 27.40     0.618 N 
ENDBRANCH   4   5
ENDBRANCH   3   4
ENDBRANCH   2   3
ENDBRANCH   1   2
END_RES LYS A 131
BEGIN_RES LYS A 135
REMARK  4 active torsions:
REMARK  status: ('A' for Active; 'I' for Inactive)
REMARK    5  A    between atoms: CA   and  CB  
REMARK    6  A    between atoms: CB   and  CG  
REMARK    7  A    between atoms: CG   and  CD  
REMARK    8  A    between atoms: CD   and  CE  
ROOT
ATOM      7  CA  LYS A 135      33.193  34.663   9.290  1.00 25.02     0.186 C 
ENDROOT
BRANCH   7   8
ATOM      8  CB  LYS A 135      32.060  35.360  10.034  1.00 26.63     0.034 C 
BRANCH   8   9
ATOM      9  CG  LYS A 135      30.791  35.475   9.229  1.00 29.45     0.005 C 
BRANCH   9  10
ATOM     10  CD  LYS A 135      29.652  35.994  10.093  1.00 32.00     0.041 C 
BRANCH  10  11
ATOM     11  CE  LYS A 135      29.037  34.865  10.897  1.00 34.25     0.338 C 
ATOM     12  NZ  LYS A 135      28.446  35.371  12.167  1.00 35.99     0.618 N 
ENDBRANCH  10  11
ENDBRANCH   9  10
ENDBRANCH   8   9
ENDBRANCH   7   8
END_RES LYS A 135
