REMARK VINA RESULT:    -4.009      3.226      6.470
REMARK INTER + INTRA:         -21.940
REMARK INTER:                  -9.718
REMARK INTRA:                 -12.222
REMARK UNBOUND:               -12.070
REMARK SMILES CC(=O)N[C@@H]1[C@@H](O)C[C@](OC[C@H]2O[C@@H](O[C@H]3[C@H](O)[C@@H](O)[C@H](OCCN=[N+]=[N-])O[C@@H]3CO)[C@H](O)[C@@H](O)[C@H]2O)(C(=O)O)O[C@H]1C(O)[C@H](O)CNC(=O)OCc1cn(-c2ccccc2I)nn1
REMARK SMILES IDX 9 1 8 2 6 3 5 4 42 5 41 6 10 7 11 8 12 9 14 10 13 11 32 12
REMARK SMILES IDX 34 13 36 14 15 15 16 16 29 17 28 18 21 19 17 20 19 21 30 22
REMARK SMILES IDX 31 23 22 25 23 26 24 27 25 28 26 29 27 30 18 31 20 33 33 35
REMARK SMILES IDX 35 37 37 39 38 41 39 42 40 43 7 45 43 47 44 48 45 50 46 51
REMARK SMILES IDX 47 53 48 54 49 55 50 57 51 58 52 59 53 60 54 61 64 62 55 63
REMARK SMILES IDX 63 64 56 65 57 66 61 67 58 68 60 69 62 70 59 71 4 72 2 73
REMARK SMILES IDX 1 75 3 76
REMARK H PARENT 31 24 18 32 20 34 33 36 35 38 37 40 40 44 7 46 44 49 46 52
REMARK H PARENT 48 56 4 74
REMARK Flexibility Score: inf
ROOT
ATOM      1  C   UNL     1      23.425  34.726  13.261  1.00  0.00     0.272 C 
ATOM      2  C   UNL     1      24.148  35.239  14.474  1.00  0.00     0.113 C 
ATOM      3  C   UNL     1      25.375  36.078  14.077  1.00  0.00     0.145 C 
ATOM      4  C   UNL     1      26.325  35.073  13.364  1.00  0.00     0.142 C 
ATOM      5  C   UNL     1      25.544  34.355  12.299  1.00  0.00     0.178 C 
ATOM      6  O   UNL     1      24.309  34.999  12.163  1.00  0.00    -0.332 OA
ENDROOT
BRANCH   1   7
ATOM      7  O   UNL     1      22.276  35.350  12.888  1.00  0.00    -0.338 OA
BRANCH   7   8
ATOM      8  C   UNL     1      22.125  36.380  12.110  1.00  0.00     0.199 C 
BRANCH   8   9
ATOM      9  C   UNL     1      20.972  36.504  11.195  1.00  0.00     0.179 C 
ATOM     10  C   UNL     1      21.561  37.596   9.278  1.00  0.00     0.282 C 
ATOM     11  O   UNL     1      20.856  37.629  10.450  1.00  0.00    -0.341 OA
ATOM     12  C   UNL     1      20.854  36.726   8.247  1.00  0.00     0.202 C 
ATOM     13  C   UNL     1      20.101  35.611   9.009  1.00  0.00     0.179 C 
ATOM     14  C   UNL     1      20.916  35.272  10.242  1.00  0.00     0.177 C 
BRANCH  10  15
ATOM     15  O   UNL     1      22.912  37.470   9.338  1.00  0.00    -0.341 OA
BRANCH  15  16
ATOM     16  C   UNL     1      23.639  38.612   9.093  1.00  0.00     0.184 C 
ATOM     17  C   UNL     1      22.980  39.907   9.490  1.00  0.00     0.178 C 
ATOM     18  O   UNL     1      23.503  40.964   8.750  1.00  0.00    -0.341 OA
ATOM     19  C   UNL     1      24.828  40.764   8.343  1.00  0.00     0.281 C 
ATOM     20  C   UNL     1      23.748  38.730   7.557  1.00  0.00     0.180 C 
ATOM     21  C   UNL     1      24.939  39.653   7.332  1.00  0.00     0.202 C 
BRANCH  17  22
ATOM     22  C   UNL     1      22.962  40.185  10.958  1.00  0.00     0.191 C 
BRANCH  22  23
ATOM     23  O   UNL     1      23.957  39.388  11.537  1.00  0.00    -0.394 OA
ATOM     24  H   UNL     1      24.349  39.898  12.298  1.00  0.00     0.210 HD
ENDBRANCH  22  23
ENDBRANCH  17  22
BRANCH  19  25
ATOM     25  O   UNL     1      25.695  40.660   9.387  1.00  0.00    -0.350 OA
BRANCH  25  26
ATOM     26  C   UNL     1      26.683  41.593   9.354  1.00  0.00     0.169 C 
BRANCH  26  27
ATOM     27  C   UNL     1      26.280  43.008   9.083  1.00  0.00     0.119 C 
BRANCH  27  28
ATOM     28  N   UNL     1      25.849  43.777  10.216  1.00  0.00    -0.092 NA
ATOM     29  N   UNL     1      24.640  43.714  10.504  1.00  0.00     0.001 N 
ATOM     30  N   UNL     1      23.488  43.856  10.916  1.00  0.00    -0.003 NA
ENDBRANCH  27  28
ENDBRANCH  26  27
ENDBRANCH  25  26
ENDBRANCH  19  25
BRANCH  20  31
ATOM     31  O   UNL     1      23.953  37.490   6.984  1.00  0.00    -0.387 OA
ATOM     32  H   UNL     1      23.704  37.572   6.025  1.00  0.00     0.211 HD
ENDBRANCH  20  31
BRANCH  21  33
ATOM     33  O   UNL     1      24.977  40.108   6.015  1.00  0.00    -0.385 OA
ATOM     34  H   UNL     1      25.918  39.974   5.668  1.00  0.00     0.211 HD
ENDBRANCH  21  33
ENDBRANCH  15  16
ENDBRANCH  10  15
BRANCH  12  35
ATOM     35  O   UNL     1      19.877  37.413   7.540  1.00  0.00    -0.385 OA
ATOM     36  H   UNL     1      19.054  37.390   8.095  1.00  0.00     0.211 HD
ENDBRANCH  12  35
BRANCH  13  37
ATOM     37  O   UNL     1      19.834  34.515   8.252  1.00  0.00    -0.387 OA
ATOM     38  H   UNL     1      20.595  33.869   8.135  1.00  0.00     0.211 HD
ENDBRANCH  13  37
BRANCH  14  39
ATOM     39  O   UNL     1      22.226  35.028   9.863  1.00  0.00    -0.387 OA
ATOM     40  H   UNL     1      22.509  34.119  10.196  1.00  0.00     0.211 HD
ENDBRANCH  14  39
ENDBRANCH   8   9
ENDBRANCH   7   8
ENDBRANCH   1   7
BRANCH   1  41
ATOM     41  C   UNL     1      23.265  33.263  13.349  1.00  0.00     0.364 C 
ATOM     42  O   UNL     1      22.547  32.576  12.602  1.00  0.00    -0.246 OA
BRANCH  41  43
ATOM     43  O   UNL     1      23.952  32.526  14.339  1.00  0.00    -0.477 OA
ATOM     44  H   UNL     1      24.312  33.020  15.168  1.00  0.00     0.296 HD
ENDBRANCH  41  43
ENDBRANCH   1  41
BRANCH   3  45
ATOM     45  O   UNL     1      25.050  37.121  13.239  1.00  0.00    -0.391 OA
ATOM     46  H   UNL     1      24.628  37.854  13.748  1.00  0.00     0.211 HD
ENDBRANCH   3  45
BRANCH   5  47
ATOM     47  C   UNL     1      26.211  34.604  10.920  1.00  0.00     0.176 C 
BRANCH  47  48
ATOM     48  O   UNL     1      27.552  35.055  11.230  1.00  0.00    -0.388 OA
ATOM     49  H   UNL     1      27.772  35.710  10.500  1.00  0.00     0.211 HD
ENDBRANCH  47  48
BRANCH  47  50
ATOM     50  C   UNL     1      25.632  35.801  10.228  1.00  0.00     0.165 C 
BRANCH  50  51
ATOM     51  O   UNL     1      24.888  35.366   9.099  1.00  0.00    -0.388 OA
ATOM     52  H   UNL     1      23.948  35.181   9.347  1.00  0.00     0.211 HD
ENDBRANCH  50  51
BRANCH  50  53
ATOM     53  C   UNL     1      26.533  36.879   9.801  1.00  0.00     0.154 C 
BRANCH  53  54
ATOM     54  N   UNL     1      26.624  38.018  10.695  1.00  0.00    -0.319 N 
ATOM     55  C   UNL     1      27.910  38.443  11.144  1.00  0.00     0.407 C 
ATOM     56  H   UNL     1      25.803  38.556  11.038  1.00  0.00     0.167 HD
ATOM     57  O   UNL     1      28.943  37.805  10.756  1.00  0.00    -0.225 OA
BRANCH  55  58
ATOM     58  O   UNL     1      28.140  39.513  11.984  1.00  0.00    -0.443 OA
BRANCH  58  59
ATOM     59  C   UNL     1      27.777  39.459  13.356  1.00  0.00     0.294 C 
BRANCH  59  60
ATOM     60  C   UNL     1      28.924  38.839  14.113  1.00  0.00     0.121 A 
ATOM     61  C   UNL     1      29.029  37.555  14.595  1.00  0.00     0.144 A 
ATOM     62  N   UNL     1      30.064  39.465  14.453  1.00  0.00    -0.131 NA
ATOM     63  N   UNL     1      30.231  37.488  15.199  1.00  0.00    -0.219 N 
ATOM     64  N   UNL     1      30.854  38.647  15.109  1.00  0.00    -0.062 NA
BRANCH  63  65
ATOM     65  C   UNL     1      30.786  36.355  15.859  1.00  0.00     0.080 A 
ATOM     66  C   UNL     1      30.445  36.060  17.174  1.00  0.00     0.029 A 
ATOM     67  C   UNL     1      31.680  35.529  15.219  1.00  0.00     0.039 A 
ATOM     68  C   UNL     1      31.021  34.940  17.784  1.00  0.00     0.002 A 
ATOM     69  C   UNL     1      32.246  34.411  15.846  1.00  0.00     0.017 A 
ATOM     70  I   UNL     1      32.220  35.954  13.219  1.00  0.00    -0.042 I 
ATOM     71  C   UNL     1      31.913  34.114  17.143  1.00  0.00     0.001 A 
ENDBRANCH  63  65
ENDBRANCH  59  60
ENDBRANCH  58  59
ENDBRANCH  55  58
ENDBRANCH  53  54
ENDBRANCH  50  53
ENDBRANCH  47  50
ENDBRANCH   5  47
BRANCH   4  72
ATOM     72  N   UNL     1      26.872  34.268  14.394  1.00  0.00    -0.348 N 
ATOM     73  C   UNL     1      28.252  33.858  14.415  1.00  0.00     0.217 C 
ATOM     74  H   UNL     1      26.317  33.926  15.198  1.00  0.00     0.163 HD
ATOM     75  C   UNL     1      28.831  33.020  15.483  1.00  0.00     0.114 C 
ATOM     76  O   UNL     1      28.963  34.255  13.454  1.00  0.00    -0.275 OA
ENDBRANCH   4  72
TORSDOF 30
BEGIN_RES LYS A 131
REMARK  4 active torsions:
REMARK  status: ('A' for Active; 'I' for Inactive)
REMARK    1  A    between atoms: CA   and  CB  
REMARK    2  A    between atoms: CB   and  CG  
REMARK    3  A    between atoms: CG   and  CD  
REMARK    4  A    between atoms: CD   and  CE  
ROOT
ATOM      1  CA  LYS A 131      29.867  25.555  16.977  1.00 20.52     0.186 C 
ENDROOT
BRANCH   1   2
ATOM      2  CB  LYS A 131      28.345  25.722  17.026  1.00 20.94     0.034 C 
BRANCH   2   3
ATOM      3  CG  LYS A 131      27.601  24.402  16.896  1.00 22.96     0.005 C 
BRANCH   3   4
ATOM      4  CD  LYS A 131      26.498  24.271  17.909  1.00 24.33     0.041 C 
BRANCH   4   5
ATOM      5  CE  LYS A 131      25.150  24.462  17.222  1.00 26.91     0.338 C 
ATOM      6  NZ  LYS A 131      24.530  25.741  17.642  1.00 27.40     0.618 N 
ENDBRANCH   4   5
ENDBRANCH   3   4
ENDBRANCH   2   3
ENDBRANCH   1   2
END_RES LYS A 131
BEGIN_RES LYS A 135
REMARK  4 active torsions:
REMARK  status: ('A' for Active; 'I' for Inactive)
REMARK    5  A    between atoms: CA   and  CB  
REMARK    6  A    between atoms: CB   and  CG  
REMARK    7  A    between atoms: CG   and  CD  
REMARK    8  A    between atoms: CD   and  CE  
ROOT
ATOM      7  CA  LYS A 135      33.193  34.663   9.290  1.00 25.02     0.186 C 
ENDROOT
BRANCH   7   8
ATOM      8  CB  LYS A 135      32.060  35.360  10.034  1.00 26.63     0.034 C 
BRANCH   8   9
ATOM      9  CG  LYS A 135      30.696  34.808   9.708  1.00 29.45     0.005 C 
BRANCH   9  10
ATOM     10  CD  LYS A 135      30.218  35.321   8.358  1.00 32.00     0.041 C 
BRANCH  10  11
ATOM     11  CE  LYS A 135      28.868  34.725   8.010  1.00 34.25     0.338 C 
ATOM     12  NZ  LYS A 135      28.258  35.422   6.844  1.00 35.99     0.618 N 
ENDBRANCH  10  11
ENDBRANCH   9  10
ENDBRANCH   8   9
ENDBRANCH   7   8
END_RES LYS A 135
