REMARK VINA RESULT:    -4.368      7.046     12.127
REMARK INTER + INTRA:         -21.995
REMARK INTER:                  -8.980
REMARK INTRA:                 -13.015
REMARK UNBOUND:               -11.242
REMARK SMILES CC(=O)N[C@@H]1[C@@H](O)C[C@](OC[C@H]2O[C@@H](O[C@H]3[C@H](O)[C@@H](O)[C@H](OCCN=[N+]=[N-])O[C@@H]3CO)[C@H](O)[C@@H](O)[C@H]2O)(C(=O)O)O[C@H]1C(O)[C@H](O)CNC(=O)OCc1cn(-c2c(C)cc(C)cc2C)nn1
REMARK SMILES IDX 9 1 8 2 6 3 5 4 42 5 41 6 10 7 11 8 12 9 14 10 13 11 32 12
REMARK SMILES IDX 34 13 36 14 15 15 16 16 29 17 28 18 21 19 17 20 19 21 30 22
REMARK SMILES IDX 31 23 22 25 23 26 24 27 25 28 26 29 27 30 18 31 20 33 33 35
REMARK SMILES IDX 35 37 37 39 38 41 39 42 40 43 7 45 43 47 44 48 45 50 46 51
REMARK SMILES IDX 47 53 48 54 49 55 50 57 51 58 52 59 53 60 54 61 66 62 55 63
REMARK SMILES IDX 65 64 56 65 57 66 63 67 58 68 59 69 62 70 64 71 60 72 61 73
REMARK SMILES IDX 4 74 2 75 1 77 3 78
REMARK H PARENT 31 24 18 32 20 34 33 36 35 38 37 40 40 44 7 46 44 49 46 52
REMARK H PARENT 48 56 4 76
REMARK Flexibility Score: inf
ROOT
ATOM      1  C   UNL     1      26.670  32.511  16.314  1.00  0.00     0.272 C 
ATOM      2  C   UNL     1      25.564  31.743  16.926  1.00  0.00     0.113 C 
ATOM      3  C   UNL     1      24.651  31.006  15.978  1.00  0.00     0.145 C 
ATOM      4  C   UNL     1      24.500  31.781  14.708  1.00  0.00     0.142 C 
ATOM      5  C   UNL     1      24.808  33.237  15.080  1.00  0.00     0.178 C 
ATOM      6  O   UNL     1      26.217  33.303  15.249  1.00  0.00    -0.332 OA
ENDROOT
BRANCH   1   7
ATOM      7  O   UNL     1      27.787  31.827  15.938  1.00  0.00    -0.338 OA
BRANCH   7   8
ATOM      8  C   UNL     1      28.298  30.863  16.727  1.00  0.00     0.199 C 
BRANCH   8   9
ATOM      9  C   UNL     1      29.814  31.094  16.816  1.00  0.00     0.179 C 
ATOM     10  C   UNL     1      31.248  32.895  16.780  1.00  0.00     0.282 C 
ATOM     11  O   UNL     1      30.166  32.269  16.179  1.00  0.00    -0.341 OA
ATOM     12  C   UNL     1      30.747  33.409  18.105  1.00  0.00     0.202 C 
ATOM     13  C   UNL     1      30.449  32.178  18.948  1.00  0.00     0.179 C 
ATOM     14  C   UNL     1      30.368  30.907  18.179  1.00  0.00     0.177 C 
BRANCH  10  15
ATOM     15  O   UNL     1      31.875  33.786  15.996  1.00  0.00    -0.341 OA
BRANCH  15  16
ATOM     16  C   UNL     1      31.159  34.743  15.372  1.00  0.00     0.184 C 
ATOM     17  C   UNL     1      31.192  34.502  13.873  1.00  0.00     0.178 C 
ATOM     18  O   UNL     1      32.045  35.335  13.214  1.00  0.00    -0.341 OA
ATOM     19  C   UNL     1      31.720  36.680  13.293  1.00  0.00     0.281 C 
ATOM     20  C   UNL     1      31.789  36.106  15.675  1.00  0.00     0.180 C 
ATOM     21  C   UNL     1      31.329  37.130  14.654  1.00  0.00     0.202 C 
BRANCH  17  22
ATOM     22  C   UNL     1      29.787  34.498  13.293  1.00  0.00     0.191 C 
BRANCH  22  23
ATOM     23  O   UNL     1      28.841  34.310  14.297  1.00  0.00    -0.394 OA
ATOM     24  H   UNL     1      29.215  33.931  15.125  1.00  0.00     0.210 HD
ENDBRANCH  22  23
ENDBRANCH  17  22
BRANCH  19  25
ATOM     25  O   UNL     1      30.701  37.008  12.386  1.00  0.00    -0.350 OA
BRANCH  25  26
ATOM     26  C   UNL     1      30.997  38.085  11.590  1.00  0.00     0.169 C 
BRANCH  26  27
ATOM     27  C   UNL     1      30.042  39.235  11.690  1.00  0.00     0.119 C 
BRANCH  27  28
ATOM     28  N   UNL     1      30.115  39.900  12.979  1.00  0.00    -0.092 NA
ATOM     29  N   UNL     1      29.293  40.785  13.288  1.00  0.00     0.001 N 
ATOM     30  N   UNL     1      28.357  41.581  13.426  1.00  0.00    -0.003 NA
ENDBRANCH  27  28
ENDBRANCH  26  27
ENDBRANCH  25  26
ENDBRANCH  19  25
BRANCH  20  31
ATOM     31  O   UNL     1      31.476  36.581  16.924  1.00  0.00    -0.387 OA
ATOM     32  H   UNL     1      30.950  35.957  17.487  1.00  0.00     0.211 HD
ENDBRANCH  20  31
BRANCH  21  33
ATOM     33  O   UNL     1      31.992  38.320  14.947  1.00  0.00    -0.385 OA
ATOM     34  H   UNL     1      32.523  38.237  15.788  1.00  0.00     0.211 HD
ENDBRANCH  21  33
ENDBRANCH  15  16
ENDBRANCH  10  15
BRANCH  12  35
ATOM     35  O   UNL     1      31.706  34.152  18.788  1.00  0.00    -0.385 OA
ATOM     36  H   UNL     1      31.325  34.351  19.697  1.00  0.00     0.211 HD
ENDBRANCH  12  35
BRANCH  13  37
ATOM     37  O   UNL     1      29.274  32.339  19.680  1.00  0.00    -0.387 OA
ATOM     38  H   UNL     1      28.788  31.488  19.832  1.00  0.00     0.211 HD
ENDBRANCH  13  37
BRANCH  14  39
ATOM     39  O   UNL     1      29.540  30.023  18.913  1.00  0.00    -0.387 OA
ATOM     40  H   UNL     1      29.427  30.341  19.839  1.00  0.00     0.211 HD
ENDBRANCH  14  39
ENDBRANCH   8   9
ENDBRANCH   7   8
ENDBRANCH   1   7
BRANCH   1  41
ATOM     41  C   UNL     1      27.075  33.548  17.338  1.00  0.00     0.364 C 
ATOM     42  O   UNL     1      27.766  34.506  16.975  1.00  0.00    -0.246 OA
BRANCH  41  43
ATOM     43  O   UNL     1      26.688  33.446  18.660  1.00  0.00    -0.477 OA
ATOM     44  H   UNL     1      25.815  33.777  19.031  1.00  0.00     0.296 HD
ENDBRANCH  41  43
ENDBRANCH   1  41
BRANCH   3  45
ATOM     45  O   UNL     1      25.187  29.731  15.802  1.00  0.00    -0.391 OA
ATOM     46  H   UNL     1      25.824  29.759  15.017  1.00  0.00     0.211 HD
ENDBRANCH   3  45
BRANCH   5  47
ATOM     47  C   UNL     1      24.520  34.226  14.021  1.00  0.00     0.176 C 
BRANCH  47  48
ATOM     48  O   UNL     1      23.084  34.259  13.880  1.00  0.00    -0.388 OA
ATOM     49  H   UNL     1      22.868  34.446  12.931  1.00  0.00     0.211 HD
ENDBRANCH  47  48
BRANCH  47  50
ATOM     50  C   UNL     1      24.957  33.890  12.609  1.00  0.00     0.165 C 
BRANCH  50  51
ATOM     51  O   UNL     1      26.335  34.336  12.616  1.00  0.00    -0.388 OA
ATOM     52  H   UNL     1      26.383  35.207  13.055  1.00  0.00     0.211 HD
ENDBRANCH  50  51
BRANCH  50  53
ATOM     53  C   UNL     1      24.321  34.807  11.593  1.00  0.00     0.154 C 
BRANCH  53  54
ATOM     54  N   UNL     1      24.424  36.209  11.856  1.00  0.00    -0.319 N 
ATOM     55  C   UNL     1      25.124  37.049  10.937  1.00  0.00     0.407 C 
ATOM     56  H   UNL     1      23.992  36.633  12.725  1.00  0.00     0.167 HD
ATOM     57  O   UNL     1      25.630  36.483   9.929  1.00  0.00    -0.225 OA
BRANCH  55  58
ATOM     58  O   UNL     1      25.251  38.420  11.124  1.00  0.00    -0.443 OA
BRANCH  58  59
ATOM     59  C   UNL     1      26.325  38.984  11.838  1.00  0.00     0.294 C 
BRANCH  59  60
ATOM     60  C   UNL     1      26.621  38.295  13.123  1.00  0.00     0.121 A 
ATOM     61  C   UNL     1      26.322  38.705  14.402  1.00  0.00     0.144 A 
ATOM     62  N   UNL     1      27.260  37.099  13.273  1.00  0.00    -0.131 NA
ATOM     63  N   UNL     1      26.769  37.785  15.273  1.00  0.00    -0.220 N 
ATOM     64  N   UNL     1      27.332  36.827  14.537  1.00  0.00    -0.062 NA
BRANCH  63  65
ATOM     65  C   UNL     1      26.689  37.792  16.711  1.00  0.00     0.072 A 
ATOM     66  C   UNL     1      27.726  38.383  17.388  1.00  0.00    -0.025 A 
ATOM     67  C   UNL     1      25.629  37.231  17.334  1.00  0.00    -0.025 A 
ATOM     68  C   UNL     1      28.889  38.996  16.656  1.00  0.00     0.047 C 
ATOM     69  C   UNL     1      27.669  38.397  18.767  1.00  0.00     0.009 A 
ATOM     70  C   UNL     1      25.615  37.269  18.733  1.00  0.00     0.009 A 
ATOM     71  C   UNL     1      24.487  36.585  16.635  1.00  0.00     0.047 C 
ATOM     72  C   UNL     1      26.624  37.846  19.464  1.00  0.00    -0.050 A 
ATOM     73  C   UNL     1      26.621  37.896  20.947  1.00  0.00     0.044 C 
ENDBRANCH  63  65
ENDBRANCH  59  60
ENDBRANCH  58  59
ENDBRANCH  55  58
ENDBRANCH  53  54
ENDBRANCH  50  53
ENDBRANCH  47  50
ENDBRANCH   5  47
BRANCH   4  74
ATOM     74  N   UNL     1      23.301  31.616  14.008  1.00  0.00    -0.348 N 
ATOM     75  C   UNL     1      23.075  30.566  13.072  1.00  0.00     0.217 C 
ATOM     76  H   UNL     1      22.509  32.263  14.175  1.00  0.00     0.163 HD
ATOM     77  C   UNL     1      21.779  30.417  12.342  1.00  0.00     0.114 C 
ATOM     78  O   UNL     1      24.002  29.763  12.877  1.00  0.00    -0.275 OA
ENDBRANCH   4  74
TORSDOF 30
BEGIN_RES LYS A 131
REMARK  4 active torsions:
REMARK  status: ('A' for Active; 'I' for Inactive)
REMARK    1  A    between atoms: CA   and  CB  
REMARK    2  A    between atoms: CB   and  CG  
REMARK    3  A    between atoms: CG   and  CD  
REMARK    4  A    between atoms: CD   and  CE  
ROOT
ATOM      1  CA  LYS A 131      29.867  25.555  16.977  1.00 20.52     0.186 C 
ENDROOT
BRANCH   1   2
ATOM      2  CB  LYS A 131      28.345  25.722  17.026  1.00 20.94     0.034 C 
BRANCH   2   3
ATOM      3  CG  LYS A 131      27.601  24.401  16.906  1.00 22.96     0.005 C 
BRANCH   3   4
ATOM      4  CD  LYS A 131      26.527  24.259  17.949  1.00 24.33     0.041 C 
BRANCH   4   5
ATOM      5  CE  LYS A 131      25.186  24.011  17.267  1.00 26.91     0.338 C 
ATOM      6  NZ  LYS A 131      24.069  24.387  18.166  1.00 27.40     0.618 N 
ENDBRANCH   4   5
ENDBRANCH   3   4
ENDBRANCH   2   3
ENDBRANCH   1   2
END_RES LYS A 131
BEGIN_RES LYS A 135
REMARK  4 active torsions:
REMARK  status: ('A' for Active; 'I' for Inactive)
REMARK    5  A    between atoms: CA   and  CB  
REMARK    6  A    between atoms: CB   and  CG  
REMARK    7  A    between atoms: CG   and  CD  
REMARK    8  A    between atoms: CD   and  CE  
ROOT
ATOM      7  CA  LYS A 135      33.193  34.663   9.290  1.00 25.02     0.186 C 
ENDROOT
BRANCH   7   8
ATOM      8  CB  LYS A 135      32.060  35.360  10.034  1.00 26.63     0.034 C 
BRANCH   8   9
ATOM      9  CG  LYS A 135      30.715  34.714   9.825  1.00 29.45     0.005 C 
BRANCH   9  10
ATOM     10  CD  LYS A 135      30.153  35.073   8.458  1.00 32.00     0.041 C 
BRANCH  10  11
ATOM     11  CE  LYS A 135      28.750  34.520   8.296  1.00 34.25     0.338 C 
ATOM     12  NZ  LYS A 135      28.256  33.930   9.571  1.00 35.99     0.618 N 
ENDBRANCH  10  11
ENDBRANCH   9  10
ENDBRANCH   8   9
ENDBRANCH   7   8
END_RES LYS A 135
