REMARK VINA RESULT:    -4.813      2.454      3.618
REMARK INTER + INTRA:         -23.601
REMARK INTER:                 -10.657
REMARK INTRA:                 -12.944
REMARK UNBOUND:               -10.207
REMARK SMILES CC(=O)N[C@@H]1[C@@H](O)C[C@](OC[C@H]2O[C@@H](O[C@H]3[C@H](O)[C@@H](O)[C@H](OCCN=[N+]=[N-])O[C@@H]3CO)[C@H](O)[C@@H](O)[C@H]2O)(C(=O)O)O[C@H]1C(O)[C@H](O)CNC(=O)OCc1cn(C[C@H](CC(=O)O)CC(C)C)nn1
REMARK SMILES IDX 43 1 42 2 9 3 8 4 41 5 6 6 5 7 10 8 11 9 12 10 14 11 13 12
REMARK SMILES IDX 32 13 34 14 36 15 15 16 16 17 29 18 28 19 21 20 17 21 19 22
REMARK SMILES IDX 30 23 31 24 22 26 23 27 24 28 25 29 26 30 27 31 18 32 20 34
REMARK SMILES IDX 33 36 35 38 37 40 38 42 39 43 40 44 7 46 4 48 2 49 1 51 3 52
REMARK SMILES IDX 44 53 45 55 46 56 47 58 48 59 49 60 50 62 51 63 52 64 53 65
REMARK SMILES IDX 54 66 67 67 55 68 66 69 56 70 57 71 58 72 59 73 60 74 61 75
REMARK SMILES IDX 62 77 63 78 64 79 65 80
REMARK H PARENT 31 25 18 33 20 35 33 37 35 39 37 41 40 45 7 47 4 50 44 54
REMARK H PARENT 46 57 48 61 61 76
REMARK Flexibility Score: inf
ROOT
ATOM      1  C   UNL     1      30.298  32.825  15.866  1.00  0.00     0.176 C 
ENDROOT
BRANCH   1   2
ATOM      2  C   UNL     1      29.811  31.638  16.649  1.00  0.00     0.178 C 
ATOM      3  C   UNL     1      27.447  31.180  16.757  1.00  0.00     0.272 C 
ATOM      4  C   UNL     1      27.360  31.828  18.092  1.00  0.00     0.113 C 
ATOM      5  O   UNL     1      28.596  31.324  16.129  1.00  0.00    -0.332 OA
ATOM      6  C   UNL     1      28.527  32.602  18.556  1.00  0.00     0.145 C 
ATOM      7  C   UNL     1      29.854  31.997  18.094  1.00  0.00     0.142 C 
BRANCH   3   8
ATOM      8  O   UNL     1      26.409  31.682  15.924  1.00  0.00    -0.338 OA
BRANCH   8   9
ATOM      9  C   UNL     1      26.796  32.651  15.052  1.00  0.00     0.199 C 
BRANCH   9  10
ATOM     10  C   UNL     1      25.910  33.904  15.223  1.00  0.00     0.179 C 
ATOM     11  C   UNL     1      25.809  35.922  16.366  1.00  0.00     0.282 C 
ATOM     12  O   UNL     1      26.611  34.920  15.841  1.00  0.00    -0.341 OA
ATOM     13  C   UNL     1      24.611  36.068  15.414  1.00  0.00     0.202 C 
ATOM     14  C   UNL     1      25.049  35.823  13.985  1.00  0.00     0.179 C 
ATOM     15  C   UNL     1      25.518  34.416  13.829  1.00  0.00     0.177 C 
BRANCH  11  16
ATOM     16  O   UNL     1      26.480  37.116  16.279  1.00  0.00    -0.341 OA
BRANCH  16  17
ATOM     17  C   UNL     1      27.578  37.261  17.085  1.00  0.00     0.184 C 
ATOM     18  C   UNL     1      27.525  38.441  18.011  1.00  0.00     0.178 C 
ATOM     19  O   UNL     1      28.464  39.403  17.788  1.00  0.00    -0.341 OA
ATOM     20  C   UNL     1      29.776  38.969  17.800  1.00  0.00     0.281 C 
ATOM     21  C   UNL     1      28.780  37.444  16.182  1.00  0.00     0.180 C 
ATOM     22  C   UNL     1      30.003  37.688  17.076  1.00  0.00     0.202 C 
BRANCH  18  23
ATOM     23  C   UNL     1      27.536  37.912  19.434  1.00  0.00     0.191 C 
BRANCH  23  24
ATOM     24  O   UNL     1      27.908  36.571  19.474  1.00  0.00    -0.394 OA
ATOM     25  H   UNL     1      27.594  36.117  20.304  1.00  0.00     0.210 HD
ENDBRANCH  23  24
ENDBRANCH  18  23
BRANCH  20  26
ATOM     26  O   UNL     1      30.208  38.970  19.118  1.00  0.00    -0.350 OA
BRANCH  26  27
ATOM     27  C   UNL     1      31.587  38.975  19.240  1.00  0.00     0.169 C 
BRANCH  27  28
ATOM     28  C   UNL     1      31.909  38.451  20.634  1.00  0.00     0.119 C 
BRANCH  28  29
ATOM     29  N   UNL     1      32.202  37.035  20.467  1.00  0.00    -0.092 NA
ATOM     30  N   UNL     1      31.317  36.299  20.099  1.00  0.00     0.001 N 
ATOM     31  N   UNL     1      30.587  35.321  19.891  1.00  0.00    -0.003 NA
ENDBRANCH  28  29
ENDBRANCH  27  28
ENDBRANCH  26  27
ENDBRANCH  20  26
BRANCH  21  32
ATOM     32  O   UNL     1      28.948  36.332  15.378  1.00  0.00    -0.387 OA
ATOM     33  H   UNL     1      29.668  35.770  15.806  1.00  0.00     0.211 HD
ENDBRANCH  21  32
BRANCH  22  34
ATOM     34  O   UNL     1      31.093  37.752  16.183  1.00  0.00    -0.385 OA
ATOM     35  H   UNL     1      31.911  37.696  16.721  1.00  0.00     0.211 HD
ENDBRANCH  22  34
ENDBRANCH  16  17
ENDBRANCH  11  16
BRANCH  13  36
ATOM     36  O   UNL     1      23.526  35.324  15.802  1.00  0.00    -0.385 OA
ATOM     37  H   UNL     1      23.465  34.443  15.392  1.00  0.00     0.211 HD
ENDBRANCH  13  36
BRANCH  14  38
ATOM     38  O   UNL     1      26.138  36.693  13.771  1.00  0.00    -0.387 OA
ATOM     39  H   UNL     1      26.628  36.479  12.962  1.00  0.00     0.211 HD
ENDBRANCH  14  38
BRANCH  15  40
ATOM     40  O   UNL     1      26.659  34.441  13.000  1.00  0.00    -0.387 OA
ATOM     41  H   UNL     1      27.448  34.702  13.501  1.00  0.00     0.211 HD
ENDBRANCH  15  40
ENDBRANCH   9  10
ENDBRANCH   8   9
ENDBRANCH   3   8
BRANCH   3  42
ATOM     42  C   UNL     1      27.077  29.714  16.882  1.00  0.00     0.364 C 
ATOM     43  O   UNL     1      26.098  29.261  16.277  1.00  0.00    -0.246 OA
BRANCH  42  44
ATOM     44  O   UNL     1      27.820  28.878  17.664  1.00  0.00    -0.477 OA
ATOM     45  H   UNL     1      27.968  29.030  18.661  1.00  0.00     0.296 HD
ENDBRANCH  42  44
ENDBRANCH   3  42
BRANCH   6  46
ATOM     46  O   UNL     1      28.524  33.954  18.293  1.00  0.00    -0.391 OA
ATOM     47  H   UNL     1      29.448  34.197  18.035  1.00  0.00     0.211 HD
ENDBRANCH   6  46
BRANCH   7  48
ATOM     48  N   UNL     1      30.122  30.919  19.007  1.00  0.00    -0.348 N 
ATOM     49  C   UNL     1      30.977  31.185  20.142  1.00  0.00     0.217 C 
ATOM     50  H   UNL     1      29.759  29.944  18.930  1.00  0.00     0.163 HD
ATOM     51  C   UNL     1      31.250  30.057  21.100  1.00  0.00     0.114 C 
ATOM     52  O   UNL     1      31.488  32.313  20.348  1.00  0.00    -0.275 OA
ENDBRANCH   7  48
ENDBRANCH   1   2
BRANCH   1  53
ATOM     53  O   UNL     1      30.738  32.367  14.588  1.00  0.00    -0.388 OA
ATOM     54  H   UNL     1      31.175  31.483  14.694  1.00  0.00     0.211 HD
ENDBRANCH   1  53
BRANCH   1  55
ATOM     55  C   UNL     1      31.501  33.562  16.409  1.00  0.00     0.165 C 
BRANCH  55  56
ATOM     56  O   UNL     1      30.862  34.756  16.960  1.00  0.00    -0.388 OA
ATOM     57  H   UNL     1      29.958  34.390  17.224  1.00  0.00     0.211 HD
ENDBRANCH  55  56
BRANCH  55  58
ATOM     58  C   UNL     1      32.368  34.129  15.338  1.00  0.00     0.154 C 
BRANCH  58  59
ATOM     59  N   UNL     1      31.710  35.129  14.575  1.00  0.00    -0.319 N 
ATOM     60  C   UNL     1      32.402  35.588  13.392  1.00  0.00     0.407 C 
ATOM     61  H   UNL     1      30.796  35.581  14.756  1.00  0.00     0.167 HD
ATOM     62  O   UNL     1      33.526  35.092  13.094  1.00  0.00    -0.225 OA
BRANCH  60  63
ATOM     63  O   UNL     1      31.906  36.560  12.552  1.00  0.00    -0.443 OA
BRANCH  63  64
ATOM     64  C   UNL     1      30.883  37.480  12.870  1.00  0.00     0.294 C 
BRANCH  64  65
ATOM     65  C   UNL     1      29.686  37.349  11.992  1.00  0.00     0.120 A 
ATOM     66  C   UNL     1      29.406  38.007  10.816  1.00  0.00     0.138 A 
ATOM     67  N   UNL     1      28.658  36.529  12.229  1.00  0.00    -0.132 NA
ATOM     68  N   UNL     1      28.195  37.565  10.358  1.00  0.00    -0.252 N 
ATOM     69  N   UNL     1      27.793  36.682  11.242  1.00  0.00    -0.067 NA
BRANCH  68  70
ATOM     70  C   UNL     1      27.509  37.992   9.195  1.00  0.00     0.150 C 
BRANCH  70  71
ATOM     71  C   UNL     1      26.373  37.158   8.777  1.00  0.00     0.022 C 
BRANCH  71  72
ATOM     72  C   UNL     1      26.397  36.622   7.394  1.00  0.00     0.128 C 
BRANCH  72  73
ATOM     73  C   UNL     1      27.124  37.403   6.385  1.00  0.00     0.303 C 
ATOM     74  O   UNL     1      28.210  36.960   5.928  1.00  0.00    -0.252 OA
BRANCH  73  75
ATOM     75  O   UNL     1      26.682  38.624   5.893  1.00  0.00    -0.481 OA
ATOM     76  H   UNL     1      25.694  38.812   5.811  1.00  0.00     0.296 HD
ENDBRANCH  73  75
ENDBRANCH  72  73
ENDBRANCH  71  72
BRANCH  71  77
ATOM     77  C   UNL     1      25.025  37.682   9.181  1.00  0.00     0.009 C 
BRANCH  77  78
ATOM     78  C   UNL     1      24.004  36.753   9.661  1.00  0.00    -0.017 C 
ATOM     79  C   UNL     1      22.916  36.334   8.739  1.00  0.00     0.007 C 
ATOM     80  C   UNL     1      24.553  35.509  10.335  1.00  0.00     0.007 C 
ENDBRANCH  77  78
ENDBRANCH  71  77
ENDBRANCH  70  71
ENDBRANCH  68  70
ENDBRANCH  64  65
ENDBRANCH  63  64
ENDBRANCH  60  63
ENDBRANCH  58  59
ENDBRANCH  55  58
ENDBRANCH   1  55
TORSDOF 36
BEGIN_RES LYS A 131
REMARK  4 active torsions:
REMARK  status: ('A' for Active; 'I' for Inactive)
REMARK    1  A    between atoms: CA   and  CB  
REMARK    2  A    between atoms: CB   and  CG  
REMARK    3  A    between atoms: CG   and  CD  
REMARK    4  A    between atoms: CD   and  CE  
ROOT
ATOM      1  CA  LYS A 131      29.867  25.555  16.977  1.00 20.52     0.186 C 
ENDROOT
BRANCH   1   2
ATOM      2  CB  LYS A 131      28.345  25.722  17.026  1.00 20.94     0.034 C 
BRANCH   2   3
ATOM      3  CG  LYS A 131      27.601  24.402  16.889  1.00 22.96     0.005 C 
BRANCH   3   4
ATOM      4  CD  LYS A 131      26.300  24.405  17.643  1.00 24.33     0.041 C 
BRANCH   4   5
ATOM      5  CE  LYS A 131      26.063  25.786  18.245  1.00 26.91     0.338 C 
ATOM      6  NZ  LYS A 131      24.822  26.384  17.698  1.00 27.40     0.618 N 
ENDBRANCH   4   5
ENDBRANCH   3   4
ENDBRANCH   2   3
ENDBRANCH   1   2
END_RES LYS A 131
BEGIN_RES LYS A 135
REMARK  4 active torsions:
REMARK  status: ('A' for Active; 'I' for Inactive)
REMARK    5  A    between atoms: CA   and  CB  
REMARK    6  A    between atoms: CB   and  CG  
REMARK    7  A    between atoms: CG   and  CD  
REMARK    8  A    between atoms: CD   and  CE  
ROOT
ATOM      7  CA  LYS A 135      33.193  34.663   9.290  1.00 25.02     0.186 C 
ENDROOT
BRANCH   7   8
ATOM      8  CB  LYS A 135      32.060  35.360  10.034  1.00 26.63     0.034 C 
BRANCH   8   9
ATOM      9  CG  LYS A 135      30.725  34.680   9.873  1.00 29.45     0.005 C 
BRANCH   9  10
ATOM     10  CD  LYS A 135      30.303  34.665   8.412  1.00 32.00     0.041 C 
BRANCH  10  11
ATOM     11  CE  LYS A 135      28.813  34.409   8.290  1.00 34.25     0.338 C 
ATOM     12  NZ  LYS A 135      28.281  33.746   9.513  1.00 35.99     0.618 N 
ENDBRANCH  10  11
ENDBRANCH   9  10
ENDBRANCH   8   9
ENDBRANCH   7   8
END_RES LYS A 135
