REMARK VINA RESULT:    -4.652      2.815      6.352
REMARK INTER + INTRA:         -22.616
REMARK INTER:                 -13.523
REMARK INTRA:                  -9.092
REMARK UNBOUND:               -10.485
REMARK SMILES CC(=O)N[C@@H]1[C@@H](O)C[C@](OC[C@H]2O[C@@H](O[C@H]3[C@H](O)[C@@H](O)[C@H](OCCN=[N+]=[N-])O[C@@H]3CO)[C@H](O)[C@@H](O)[C@H]2O)(C(=O)O)O[C@H]1C(O)[C@H](O)CNC(=O)OCc1cn(CC(O)c2ccccc2)nn1
REMARK SMILES IDX 9 1 8 2 6 3 5 4 42 5 41 6 10 7 11 8 12 9 14 10 13 11 32 12
REMARK SMILES IDX 34 13 36 14 15 15 16 16 29 17 28 18 21 19 17 20 19 21 30 22
REMARK SMILES IDX 31 23 22 25 23 26 24 27 25 28 26 29 27 30 18 31 20 33 33 35
REMARK SMILES IDX 35 37 37 39 38 41 39 42 40 43 7 45 43 47 44 48 45 50 46 51
REMARK SMILES IDX 47 53 48 54 49 55 50 57 51 58 52 59 53 60 54 61 66 62 55 63
REMARK SMILES IDX 65 64 56 65 57 66 58 67 59 69 60 70 64 71 61 72 63 73 62 74
REMARK SMILES IDX 4 75 2 76 1 78 3 79
REMARK H PARENT 31 24 18 32 20 34 33 36 35 38 37 40 40 44 7 46 44 49 46 52
REMARK H PARENT 48 56 58 68 4 77
REMARK Flexibility Score: inf
ROOT
ATOM      1  C   UNL     1      25.542  38.794   7.575  1.00  0.00     0.272 C 
ATOM      2  C   UNL     1      26.513  38.797   6.456  1.00  0.00     0.113 C 
ATOM      3  C   UNL     1      27.526  37.708   6.441  1.00  0.00     0.145 C 
ATOM      4  C   UNL     1      27.550  37.041   7.780  1.00  0.00     0.142 C 
ATOM      5  C   UNL     1      27.391  38.124   8.833  1.00  0.00     0.178 C 
ATOM      6  O   UNL     1      26.201  38.782   8.809  1.00  0.00    -0.332 OA
ENDROOT
BRANCH   1   7
ATOM      7  O   UNL     1      24.618  37.792   7.611  1.00  0.00    -0.338 OA
BRANCH   7   8
ATOM      8  C   UNL     1      23.842  37.671   8.721  1.00  0.00     0.199 C 
BRANCH   8   9
ATOM      9  C   UNL     1      23.204  36.303   8.800  1.00  0.00     0.179 C 
ATOM     10  C   UNL     1      22.030  35.050  10.330  1.00  0.00     0.282 C 
ATOM     11  O   UNL     1      23.085  35.894  10.113  1.00  0.00    -0.341 OA
ATOM     12  C   UNL     1      20.666  35.657  10.085  1.00  0.00     0.202 C 
ATOM     13  C   UNL     1      20.795  36.647   8.948  1.00  0.00     0.179 C 
ATOM     14  C   UNL     1      21.918  36.157   8.057  1.00  0.00     0.177 C 
BRANCH  10  15
ATOM     15  O   UNL     1      21.994  34.585  11.641  1.00  0.00    -0.341 OA
BRANCH  15  16
ATOM     16  C   UNL     1      23.085  34.893  12.406  1.00  0.00     0.184 C 
ATOM     17  C   UNL     1      23.803  33.580  12.695  1.00  0.00     0.178 C 
ATOM     18  O   UNL     1      23.495  33.109  13.954  1.00  0.00    -0.341 OA
ATOM     19  C   UNL     1      22.094  33.118  14.086  1.00  0.00     0.281 C 
ATOM     20  C   UNL     1      22.558  35.531  13.686  1.00  0.00     0.180 C 
ATOM     21  C   UNL     1      21.703  34.543  14.461  1.00  0.00     0.202 C 
BRANCH  17  22
ATOM     22  C   UNL     1      25.301  33.729  12.497  1.00  0.00     0.191 C 
BRANCH  22  23
ATOM     23  O   UNL     1      25.711  35.044  12.697  1.00  0.00    -0.394 OA
ATOM     24  H   UNL     1      26.040  35.195  13.622  1.00  0.00     0.210 HD
ENDBRANCH  22  23
ENDBRANCH  17  22
BRANCH  19  25
ATOM     25  O   UNL     1      21.781  32.203  15.060  1.00  0.00    -0.350 OA
BRANCH  25  26
ATOM     26  C   UNL     1      22.838  31.760  15.819  1.00  0.00     0.169 C 
BRANCH  26  27
ATOM     27  C   UNL     1      22.907  30.266  15.974  1.00  0.00     0.119 C 
BRANCH  27  28
ATOM     28  N   UNL     1      24.028  29.736  15.190  1.00  0.00    -0.092 NA
ATOM     29  N   UNL     1      23.829  29.695  13.966  1.00  0.00     0.001 N 
ATOM     30  N   UNL     1      23.923  29.710  12.739  1.00  0.00    -0.003 NA
ENDBRANCH  27  28
ENDBRANCH  26  27
ENDBRANCH  25  26
ENDBRANCH  19  25
BRANCH  20  31
ATOM     31  O   UNL     1      23.614  35.977  14.469  1.00  0.00    -0.387 OA
ATOM     32  H   UNL     1      24.374  36.253  13.883  1.00  0.00     0.211 HD
ENDBRANCH  20  31
BRANCH  21  33
ATOM     33  O   UNL     1      20.356  34.793  14.267  1.00  0.00    -0.385 OA
ATOM     34  H   UNL     1      20.097  35.535  14.867  1.00  0.00     0.211 HD
ENDBRANCH  21  33
ENDBRANCH  15  16
ENDBRANCH  10  15
BRANCH  12  35
ATOM     35  O   UNL     1      19.785  34.638   9.709  1.00  0.00    -0.385 OA
ATOM     36  H   UNL     1      19.173  34.481  10.479  1.00  0.00     0.211 HD
ENDBRANCH  12  35
BRANCH  13  37
ATOM     37  O   UNL     1      21.115  37.870   9.532  1.00  0.00    -0.387 OA
ATOM     38  H   UNL     1      22.068  38.066   9.551  1.00  0.00     0.211 HD
ENDBRANCH  13  37
BRANCH  14  39
ATOM     39  O   UNL     1      21.926  36.719   6.803  1.00  0.00    -0.387 OA
ATOM     40  H   UNL     1      22.554  36.283   6.171  1.00  0.00     0.211 HD
ENDBRANCH  14  39
ENDBRANCH   8   9
ENDBRANCH   7   8
ENDBRANCH   1   7
BRANCH   1  41
ATOM     41  C   UNL     1      24.875  40.161   7.538  1.00  0.00     0.364 C 
ATOM     42  O   UNL     1      24.209  40.488   6.570  1.00  0.00    -0.246 OA
BRANCH  41  43
ATOM     43  O   UNL     1      25.080  40.966   8.645  1.00  0.00    -0.477 OA
ATOM     44  H   UNL     1      24.794  41.919   8.567  1.00  0.00     0.296 HD
ENDBRANCH  41  43
ENDBRANCH   1  41
BRANCH   3  45
ATOM     45  O   UNL     1      27.327  36.822   5.381  1.00  0.00    -0.391 OA
ATOM     46  H   UNL     1      27.355  37.377   4.553  1.00  0.00     0.211 HD
ENDBRANCH   3  45
BRANCH   5  47
ATOM     47  C   UNL     1      27.730  37.473  10.150  1.00  0.00     0.176 C 
BRANCH  47  48
ATOM     48  O   UNL     1      26.840  36.409  10.363  1.00  0.00    -0.388 OA
ATOM     49  H   UNL     1      26.527  36.488  11.307  1.00  0.00     0.211 HD
ENDBRANCH  47  48
BRANCH  47  50
ATOM     50  C   UNL     1      27.734  38.443  11.284  1.00  0.00     0.165 C 
BRANCH  50  51
ATOM     51  O   UNL     1      28.030  39.720  10.890  1.00  0.00    -0.388 OA
ATOM     52  H   UNL     1      28.866  40.076  11.231  1.00  0.00     0.211 HD
ENDBRANCH  50  51
BRANCH  50  53
ATOM     53  C   UNL     1      28.448  37.960  12.520  1.00  0.00     0.154 C 
BRANCH  53  54
ATOM     54  N   UNL     1      27.688  37.103  13.382  1.00  0.00    -0.319 N 
ATOM     55  C   UNL     1      26.905  37.550  14.486  1.00  0.00     0.407 C 
ATOM     56  H   UNL     1      27.686  36.049  13.199  1.00  0.00     0.167 HD
ATOM     57  O   UNL     1      26.831  38.760  14.764  1.00  0.00    -0.225 OA
BRANCH  55  58
ATOM     58  O   UNL     1      26.209  36.660  15.274  1.00  0.00    -0.443 OA
BRANCH  58  59
ATOM     59  C   UNL     1      26.710  36.150  16.510  1.00  0.00     0.294 C 
BRANCH  59  60
ATOM     60  C   UNL     1      27.593  34.972  16.241  1.00  0.00     0.120 A 
ATOM     61  C   UNL     1      28.552  34.393  17.032  1.00  0.00     0.138 A 
ATOM     62  N   UNL     1      27.553  34.252  15.099  1.00  0.00    -0.132 NA
ATOM     63  N   UNL     1      29.083  33.327  16.363  1.00  0.00    -0.249 N 
ATOM     64  N   UNL     1      28.443  33.298  15.217  1.00  0.00    -0.067 NA
BRANCH  63  65
ATOM     65  C   UNL     1      30.127  32.444  16.861  1.00  0.00     0.182 C 
BRANCH  65  66
ATOM     66  C   UNL     1      31.373  32.579  16.003  1.00  0.00     0.166 C 
BRANCH  66  67
ATOM     67  O   UNL     1      30.961  32.183  14.709  1.00  0.00    -0.386 OA
ATOM     68  H   UNL     1      29.977  32.317  14.615  1.00  0.00     0.211 HD
ENDBRANCH  66  67
BRANCH  66  69
ATOM     69  C   UNL     1      31.934  33.932  15.966  1.00  0.00    -0.018 A 
ATOM     70  C   UNL     1      32.180  34.604  14.808  1.00  0.00     0.006 A 
ATOM     71  C   UNL     1      32.225  34.500  17.215  1.00  0.00     0.006 A 
ATOM     72  C   UNL     1      32.729  35.874  14.886  1.00  0.00     0.000 A 
ATOM     73  C   UNL     1      32.767  35.756  17.264  1.00  0.00     0.000 A 
ATOM     74  C   UNL     1      33.023  36.450  16.099  1.00  0.00     0.000 A 
ENDBRANCH  66  69
ENDBRANCH  65  66
ENDBRANCH  63  65
ENDBRANCH  59  60
ENDBRANCH  58  59
ENDBRANCH  55  58
ENDBRANCH  53  54
ENDBRANCH  50  53
ENDBRANCH  47  50
ENDBRANCH   5  47
BRANCH   4  75
ATOM     75  N   UNL     1      28.878  36.462   8.035  1.00  0.00    -0.348 N 
ATOM     76  C   UNL     1      29.067  35.081   8.295  1.00  0.00     0.217 C 
ATOM     77  H   UNL     1      29.724  37.071   8.030  1.00  0.00     0.163 HD
ATOM     78  C   UNL     1      30.391  34.461   8.556  1.00  0.00     0.114 C 
ATOM     79  O   UNL     1      28.047  34.338   8.301  1.00  0.00    -0.275 OA
ENDBRANCH   4  75
TORSDOF 33
BEGIN_RES LYS A 131
REMARK  4 active torsions:
REMARK  status: ('A' for Active; 'I' for Inactive)
REMARK    1  A    between atoms: CA   and  CB  
REMARK    2  A    between atoms: CB   and  CG  
REMARK    3  A    between atoms: CG   and  CD  
REMARK    4  A    between atoms: CD   and  CE  
ROOT
ATOM      1  CA  LYS A 131      29.867  25.555  16.977  1.00 20.52     0.186 C 
ENDROOT
BRANCH   1   2
ATOM      2  CB  LYS A 131      28.345  25.722  17.026  1.00 20.94     0.034 C 
BRANCH   2   3
ATOM      3  CG  LYS A 131      27.602  24.400  16.909  1.00 22.96     0.005 C 
BRANCH   3   4
ATOM      4  CD  LYS A 131      26.623  24.200  18.033  1.00 24.33     0.041 C 
BRANCH   4   5
ATOM      5  CE  LYS A 131      25.389  25.063  17.793  1.00 26.91     0.338 C 
ATOM      6  NZ  LYS A 131      25.078  25.870  18.997  1.00 27.40     0.618 N 
ENDBRANCH   4   5
ENDBRANCH   3   4
ENDBRANCH   2   3
ENDBRANCH   1   2
END_RES LYS A 131
BEGIN_RES LYS A 135
REMARK  4 active torsions:
REMARK  status: ('A' for Active; 'I' for Inactive)
REMARK    5  A    between atoms: CA   and  CB  
REMARK    6  A    between atoms: CB   and  CG  
REMARK    7  A    between atoms: CG   and  CD  
REMARK    8  A    between atoms: CD   and  CE  
ROOT
ATOM      7  CA  LYS A 135      33.193  34.663   9.290  1.00 25.02     0.186 C 
ENDROOT
BRANCH   7   8
ATOM      8  CB  LYS A 135      32.060  35.360  10.034  1.00 26.63     0.034 C 
BRANCH   8   9
ATOM      9  CG  LYS A 135      32.505  36.055  11.295  1.00 29.45     0.005 C 
BRANCH   9  10
ATOM     10  CD  LYS A 135      31.825  37.409  11.430  1.00 32.00     0.041 C 
BRANCH  10  11
ATOM     11  CE  LYS A 135      32.180  38.303  10.257  1.00 34.25     0.338 C 
ATOM     12  NZ  LYS A 135      30.959  38.740   9.526  1.00 35.99     0.618 N 
ENDBRANCH  10  11
ENDBRANCH   9  10
ENDBRANCH   8   9
ENDBRANCH   7   8
END_RES LYS A 135
