REMARK VINA RESULT:    -4.571      2.250      6.987
REMARK INTER + INTRA:         -22.194
REMARK INTER:                 -10.786
REMARK INTRA:                 -11.408
REMARK UNBOUND:               -10.943
REMARK SMILES CC(=O)N[C@@H]1[C@@H](O)C[C@](OC[C@H]2O[C@@H](O[C@H]3[C@H](O)[C@@H](O)[C@H](OCCN=[N+]=[N-])O[C@@H]3CO)[C@H](O)[C@@H](O)[C@H]2O)(C(=O)O)O[C@H]1C(O)[C@H](O)CNC(=O)OCc1cn([C@@H]2C[C@H]3CC[C@@H](C2)N3C)nn1
REMARK SMILES IDX 9 1 8 2 6 3 5 4 42 5 41 6 10 7 11 8 12 9 14 10 13 11 32 12
REMARK SMILES IDX 34 13 36 14 15 15 16 16 29 17 28 18 21 19 17 20 19 21 30 22
REMARK SMILES IDX 31 23 22 25 23 26 24 27 25 28 26 29 27 30 18 31 20 33 33 35
REMARK SMILES IDX 35 37 37 39 38 41 39 42 40 43 7 45 43 47 44 48 45 50 46 51
REMARK SMILES IDX 47 53 48 54 49 55 50 57 51 58 52 59 53 60 54 61 66 62 55 63
REMARK SMILES IDX 65 64 56 65 62 66 57 67 61 68 58 69 63 70 60 71 59 72 64 73
REMARK SMILES IDX 4 74 2 75 1 77 3 78
REMARK H PARENT 31 24 18 32 20 34 33 36 35 38 37 40 40 44 7 46 44 49 46 52
REMARK H PARENT 48 56 4 76
REMARK Flexibility Score: inf
ROOT
ATOM      1  C   UNL     1      30.567  33.254  17.076  1.00  0.00     0.272 C 
ATOM      2  C   UNL     1      31.687  34.214  17.038  1.00  0.00     0.113 C 
ATOM      3  C   UNL     1      31.236  35.594  16.583  1.00  0.00     0.145 C 
ATOM      4  C   UNL     1      30.483  35.464  15.238  1.00  0.00     0.142 C 
ATOM      5  C   UNL     1      29.576  34.299  15.236  1.00  0.00     0.178 C 
ATOM      6  O   UNL     1      29.406  33.874  16.538  1.00  0.00    -0.332 OA
ENDROOT
BRANCH   1   7
ATOM      7  O   UNL     1      30.218  32.604  18.205  1.00  0.00    -0.338 OA
BRANCH   7   8
ATOM      8  C   UNL     1      30.577  32.771  19.437  1.00  0.00     0.199 C 
BRANCH   8   9
ATOM      9  C   UNL     1      30.069  31.767  20.460  1.00  0.00     0.179 C 
ATOM     10  C   UNL     1      28.091  30.563  20.052  1.00  0.00     0.282 C 
ATOM     11  O   UNL     1      28.670  31.758  20.368  1.00  0.00    -0.341 OA
ATOM     12  C   UNL     1      28.468  29.442  20.961  1.00  0.00     0.202 C 
ATOM     13  C   UNL     1      29.953  29.366  21.024  1.00  0.00     0.179 C 
ATOM     14  C   UNL     1      30.654  30.409  20.226  1.00  0.00     0.177 C 
BRANCH  10  15
ATOM     15  O   UNL     1      28.161  30.249  18.706  1.00  0.00    -0.341 OA
BRANCH  15  16
ATOM     16  C   UNL     1      26.972  30.396  18.023  1.00  0.00     0.184 C 
ATOM     17  C   UNL     1      26.751  29.314  17.042  1.00  0.00     0.178 C 
ATOM     18  O   UNL     1      25.476  29.370  16.470  1.00  0.00    -0.341 OA
ATOM     19  C   UNL     1      24.831  30.590  16.680  1.00  0.00     0.281 C 
ATOM     20  C   UNL     1      27.066  31.692  17.147  1.00  0.00     0.180 C 
ATOM     21  C   UNL     1      25.728  31.796  16.491  1.00  0.00     0.202 C 
BRANCH  17  22
ATOM     22  C   UNL     1      27.048  27.921  17.476  1.00  0.00     0.191 C 
BRANCH  22  23
ATOM     23  O   UNL     1      26.481  27.666  18.723  1.00  0.00    -0.394 OA
ATOM     24  H   UNL     1      25.804  26.952  18.627  1.00  0.00     0.210 HD
ENDBRANCH  22  23
ENDBRANCH  17  22
BRANCH  19  25
ATOM     25  O   UNL     1      24.096  30.602  17.833  1.00  0.00    -0.350 OA
BRANCH  25  26
ATOM     26  C   UNL     1      23.246  29.589  18.103  1.00  0.00     0.169 C 
BRANCH  26  27
ATOM     27  C   UNL     1      22.815  29.472  19.518  1.00  0.00     0.119 C 
BRANCH  27  28
ATOM     28  N   UNL     1      23.811  29.756  20.493  1.00  0.00    -0.092 NA
ATOM     29  N   UNL     1      24.652  28.937  20.876  1.00  0.00     0.001 N 
ATOM     30  N   UNL     1      25.260  28.259  21.710  1.00  0.00    -0.003 NA
ENDBRANCH  27  28
ENDBRANCH  26  27
ENDBRANCH  25  26
ENDBRANCH  19  25
BRANCH  20  31
ATOM     31  O   UNL     1      27.296  32.797  17.925  1.00  0.00    -0.387 OA
ATOM     32  H   UNL     1      26.723  33.556  17.634  1.00  0.00     0.211 HD
ENDBRANCH  20  31
BRANCH  21  33
ATOM     33  O   UNL     1      25.868  32.033  15.120  1.00  0.00    -0.385 OA
ATOM     34  H   UNL     1      24.990  32.198  14.746  1.00  0.00     0.211 HD
ENDBRANCH  21  33
ENDBRANCH  15  16
ENDBRANCH  10  15
BRANCH  12  35
ATOM     35  O   UNL     1      27.948  29.695  22.248  1.00  0.00    -0.385 OA
ATOM     36  H   UNL     1      27.941  28.830  22.738  1.00  0.00     0.211 HD
ENDBRANCH  12  35
BRANCH  13  37
ATOM     37  O   UNL     1      30.410  28.098  20.591  1.00  0.00    -0.387 OA
ATOM     38  H   UNL     1      29.850  27.384  20.978  1.00  0.00     0.211 HD
ENDBRANCH  13  37
BRANCH  14  39
ATOM     39  O   UNL     1      30.697  30.034  18.878  1.00  0.00    -0.387 OA
ATOM     40  H   UNL     1      30.552  30.877  18.358  1.00  0.00     0.211 HD
ENDBRANCH  14  39
ENDBRANCH   8   9
ENDBRANCH   7   8
ENDBRANCH   1   7
BRANCH   1  41
ATOM     41  C   UNL     1      30.907  32.135  16.113  1.00  0.00     0.364 C 
ATOM     42  O   UNL     1      30.430  30.989  16.159  1.00  0.00    -0.246 OA
BRANCH  41  43
ATOM     43  O   UNL     1      31.820  32.369  15.080  1.00  0.00    -0.477 OA
ATOM     44  H   UNL     1      31.749  31.844  14.200  1.00  0.00     0.296 HD
ENDBRANCH  41  43
ENDBRANCH   1  41
BRANCH   3  45
ATOM     45  O   UNL     1      30.504  36.290  17.519  1.00  0.00    -0.391 OA
ATOM     46  H   UNL     1      31.145  36.817  18.086  1.00  0.00     0.211 HD
ENDBRANCH   3  45
BRANCH   5  47
ATOM     47  C   UNL     1      28.109  34.736  14.868  1.00  0.00     0.176 C 
BRANCH  47  48
ATOM     48  O   UNL     1      28.258  35.213  13.495  1.00  0.00    -0.388 OA
ATOM     49  H   UNL     1      27.360  35.054  13.075  1.00  0.00     0.211 HD
ENDBRANCH  47  48
BRANCH  47  50
ATOM     50  C   UNL     1      27.688  35.975  15.585  1.00  0.00     0.165 C 
BRANCH  50  51
ATOM     51  O   UNL     1      27.486  35.720  16.921  1.00  0.00    -0.388 OA
ATOM     52  H   UNL     1      27.769  36.414  17.537  1.00  0.00     0.211 HD
ENDBRANCH  50  51
BRANCH  50  53
ATOM     53  C   UNL     1      26.614  36.766  14.938  1.00  0.00     0.154 C 
BRANCH  53  54
ATOM     54  N   UNL     1      25.451  35.924  14.657  1.00  0.00    -0.319 N 
ATOM     55  C   UNL     1      24.400  35.813  15.573  1.00  0.00     0.407 C 
ATOM     56  H   UNL     1      25.429  35.417  13.760  1.00  0.00     0.167 HD
ATOM     57  O   UNL     1      24.472  36.458  16.661  1.00  0.00    -0.225 OA
BRANCH  55  58
ATOM     58  O   UNL     1      23.276  35.025  15.346  1.00  0.00    -0.443 OA
BRANCH  58  59
ATOM     59  C   UNL     1      22.869  34.708  14.021  1.00  0.00     0.294 C 
BRANCH  59  60
ATOM     60  C   UNL     1      23.021  33.238  13.789  1.00  0.00     0.120 A 
ATOM     61  C   UNL     1      22.326  32.218  14.405  1.00  0.00     0.138 A 
ATOM     62  N   UNL     1      23.859  32.641  12.947  1.00  0.00    -0.132 NA
ATOM     63  N   UNL     1      22.752  31.040  13.929  1.00  0.00    -0.249 N 
ATOM     64  N   UNL     1      23.704  31.344  13.027  1.00  0.00    -0.067 NA
BRANCH  63  65
ATOM     65  C   UNL     1      22.344  29.694  14.251  1.00  0.00     0.112 C 
ATOM     66  C   UNL     1      21.004  29.612  14.920  1.00  0.00     0.046 C 
ATOM     67  C   UNL     1      22.215  28.917  12.932  1.00  0.00     0.046 C 
ATOM     68  C   UNL     1      19.902  29.953  13.952  1.00  0.00     0.058 C 
ATOM     69  C   UNL     1      21.120  29.533  12.083  1.00  0.00     0.058 C 
ATOM     70  N   UNL     1      20.520  30.631  12.821  1.00  0.00    -0.300 NA
ATOM     71  C   UNL     1      19.291  28.724  13.330  1.00  0.00     0.021 C 
ATOM     72  C   UNL     1      19.948  28.576  11.986  1.00  0.00     0.021 C 
ATOM     73  C   UNL     1      19.486  31.288  12.081  1.00  0.00     0.105 C 
ENDBRANCH  63  65
ENDBRANCH  59  60
ENDBRANCH  58  59
ENDBRANCH  55  58
ENDBRANCH  53  54
ENDBRANCH  50  53
ENDBRANCH  47  50
ENDBRANCH   5  47
BRANCH   4  74
ATOM     74  N   UNL     1      31.501  35.478  14.180  1.00  0.00    -0.348 N 
ATOM     75  C   UNL     1      31.450  36.462  13.121  1.00  0.00     0.217 C 
ATOM     76  H   UNL     1      32.294  34.813  14.119  1.00  0.00     0.163 HD
ATOM     77  C   UNL     1      32.425  36.544  12.030  1.00  0.00     0.114 C 
ATOM     78  O   UNL     1      30.504  37.277  13.168  1.00  0.00    -0.275 OA
ENDBRANCH   4  74
TORSDOF 30
BEGIN_RES LYS A 131
REMARK  4 active torsions:
REMARK  status: ('A' for Active; 'I' for Inactive)
REMARK    1  A    between atoms: CA   and  CB  
REMARK    2  A    between atoms: CB   and  CG  
REMARK    3  A    between atoms: CG   and  CD  
REMARK    4  A    between atoms: CD   and  CE  
ROOT
ATOM      1  CA  LYS A 131      29.867  25.555  16.977  1.00 20.52     0.186 C 
ENDROOT
BRANCH   1   2
ATOM      2  CB  LYS A 131      28.345  25.722  17.026  1.00 20.94     0.034 C 
BRANCH   2   3
ATOM      3  CG  LYS A 131      27.599  24.455  16.637  1.00 22.96     0.005 C 
BRANCH   3   4
ATOM      4  CD  LYS A 131      27.079  23.713  17.837  1.00 24.33     0.041 C 
BRANCH   4   5
ATOM      5  CE  LYS A 131      25.721  24.279  18.237  1.00 26.91     0.338 C 
ATOM      6  NZ  LYS A 131      24.883  24.515  17.037  1.00 27.40     0.618 N 
ENDBRANCH   4   5
ENDBRANCH   3   4
ENDBRANCH   2   3
ENDBRANCH   1   2
END_RES LYS A 131
BEGIN_RES LYS A 135
REMARK  4 active torsions:
REMARK  status: ('A' for Active; 'I' for Inactive)
REMARK    5  A    between atoms: CA   and  CB  
REMARK    6  A    between atoms: CB   and  CG  
REMARK    7  A    between atoms: CG   and  CD  
REMARK    8  A    between atoms: CD   and  CE  
ROOT
ATOM      7  CA  LYS A 135      33.193  34.663   9.290  1.00 25.02     0.186 C 
ENDROOT
BRANCH   7   8
ATOM      8  CB  LYS A 135      32.060  35.360  10.034  1.00 26.63     0.034 C 
BRANCH   8   9
ATOM      9  CG  LYS A 135      30.802  35.505   9.217  1.00 29.45     0.005 C 
BRANCH   9  10
ATOM     10  CD  LYS A 135      30.147  34.150   8.996  1.00 32.00     0.041 C 
BRANCH  10  11
ATOM     11  CE  LYS A 135      28.683  34.319   8.634  1.00 34.25     0.338 C 
ATOM     12  NZ  LYS A 135      27.802  33.683   9.652  1.00 35.99     0.618 N 
ENDBRANCH  10  11
ENDBRANCH   9  10
ENDBRANCH   8   9
ENDBRANCH   7   8
END_RES LYS A 135
