REMARK VINA RESULT:    -3.297      0.000      0.000
REMARK INTER + INTRA:         -21.933
REMARK INTER:                  -9.765
REMARK INTRA:                 -12.168
REMARK UNBOUND:               -13.239
REMARK SMILES CCOC(=O)Cn1cc(COC(=O)NC[C@@H](O)C(O)[C@@H]2O[C@@](OC[C@H]3O[C@@H](O[C@H]4[C@H](O)[C@@H](O)[C@H](OCCN=[N+]=[N-])O[C@@H]4CO)[C@H](O)[C@@H](O)[C@H]3O)(C(=O)O)C[C@H](O)[C@H]2NC(C)=O)nn1
REMARK SMILES IDX 18 1 20 2 22 3 54 4 21 5 55 6 57 7 23 8 24 9 25 10 27 11
REMARK SMILES IDX 26 12 45 13 47 14 49 15 28 16 29 17 42 18 41 19 34 20 30 21
REMARK SMILES IDX 32 22 43 23 44 24 35 26 36 27 37 28 38 29 39 30 40 31 31 32
REMARK SMILES IDX 33 34 46 36 48 38 50 40 51 42 52 43 53 44 56 46 58 48 59 49
REMARK SMILES IDX 60 51 61 52 19 53 16 55 17 56 15 58 14 59 12 60 13 62 11 63
REMARK SMILES IDX 10 64 9 65 8 66 62 67 7 68 63 69 6 70 4 71 5 72 3 73 2 74
REMARK SMILES IDX 1 75
REMARK H PARENT 44 25 31 33 33 35 46 37 48 39 50 41 53 45 56 47 58 50 19 54
REMARK H PARENT 17 57 14 61
REMARK Flexibility Score: inf
ROOT
ATOM      1  C   UNL     1      28.455  34.693  15.069  1.00  0.00     0.176 C 
ENDROOT
BRANCH   1   2
ATOM      2  C   UNL     1      28.003  33.957  16.300  1.00  0.00     0.178 C 
ATOM      3  C   UNL     1      26.777  32.076  16.953  1.00  0.00     0.272 C 
ATOM      4  C   UNL     1      26.848  32.740  18.285  1.00  0.00     0.113 C 
ATOM      5  O   UNL     1      27.664  32.659  16.023  1.00  0.00    -0.332 OA
ATOM      6  C   UNL     1      26.571  34.209  18.252  1.00  0.00     0.145 C 
ATOM      7  C   UNL     1      26.788  34.700  16.829  1.00  0.00     0.142 C 
BRANCH   3   8
ATOM      8  O   UNL     1      25.522  32.013  16.386  1.00  0.00    -0.338 OA
BRANCH   8   9
ATOM      9  C   UNL     1      24.599  31.203  16.951  1.00  0.00     0.199 C 
BRANCH   9  10
ATOM     10  C   UNL     1      23.470  30.972  15.927  1.00  0.00     0.179 C 
ATOM     11  C   UNL     1      22.131  32.057  14.374  1.00  0.00     0.282 C 
ATOM     12  O   UNL     1      22.960  32.146  15.470  1.00  0.00    -0.341 OA
ATOM     13  C   UNL     1      22.713  31.278  13.234  1.00  0.00     0.202 C 
ATOM     14  C   UNL     1      22.952  29.877  13.736  1.00  0.00     0.179 C 
ATOM     15  C   UNL     1      23.894  29.977  14.889  1.00  0.00     0.177 C 
BRANCH  11  16
ATOM     16  O   UNL     1      21.729  33.293  13.896  1.00  0.00    -0.341 OA
BRANCH  16  17
ATOM     17  C   UNL     1      22.544  33.848  12.943  1.00  0.00     0.184 C 
ATOM     18  C   UNL     1      23.598  34.771  13.517  1.00  0.00     0.178 C 
ATOM     19  O   UNL     1      23.347  36.097  13.195  1.00  0.00    -0.341 OA
ATOM     20  C   UNL     1      23.459  36.335  11.806  1.00  0.00     0.281 C 
ATOM     21  C   UNL     1      21.696  34.645  11.952  1.00  0.00     0.180 C 
ATOM     22  C   UNL     1      22.675  35.337  11.015  1.00  0.00     0.202 C 
BRANCH  18  23
ATOM     23  C   UNL     1      24.972  34.299  13.118  1.00  0.00     0.191 C 
BRANCH  23  24
ATOM     24  O   UNL     1      25.399  33.243  13.944  1.00  0.00    -0.394 OA
ATOM     25  H   UNL     1      26.363  33.099  13.869  1.00  0.00     0.210 HD
ENDBRANCH  23  24
ENDBRANCH  18  23
BRANCH  20  26
ATOM     26  O   UNL     1      24.775  36.393  11.429  1.00  0.00    -0.350 OA
BRANCH  26  27
ATOM     27  C   UNL     1      25.244  37.472  10.760  1.00  0.00     0.169 C 
BRANCH  27  28
ATOM     28  C   UNL     1      26.039  37.279   9.523  1.00  0.00     0.119 C 
BRANCH  28  29
ATOM     29  N   UNL     1      25.364  36.767   8.379  1.00  0.00    -0.092 NA
ATOM     30  N   UNL     1      24.229  37.178   8.060  1.00  0.00     0.001 N 
ATOM     31  N   UNL     1      23.216  37.856   7.812  1.00  0.00    -0.003 NA
ENDBRANCH  28  29
ENDBRANCH  27  28
ENDBRANCH  26  27
ENDBRANCH  20  26
BRANCH  21  32
ATOM     32  O   UNL     1      20.889  33.765  11.228  1.00  0.00    -0.387 OA
ATOM     33  H   UNL     1      20.122  33.518  11.832  1.00  0.00     0.211 HD
ENDBRANCH  21  32
BRANCH  22  34
ATOM     34  O   UNL     1      21.969  35.911   9.954  1.00  0.00    -0.385 OA
ATOM     35  H   UNL     1      21.728  36.857  10.108  1.00  0.00     0.211 HD
ENDBRANCH  22  34
ENDBRANCH  16  17
ENDBRANCH  11  16
BRANCH  13  36
ATOM     36  O   UNL     1      21.798  31.266  12.189  1.00  0.00    -0.385 OA
ATOM     37  H   UNL     1      22.165  31.069  11.314  1.00  0.00     0.211 HD
ENDBRANCH  13  36
BRANCH  14  38
ATOM     38  O   UNL     1      23.571  29.148  12.695  1.00  0.00    -0.387 OA
ATOM     39  H   UNL     1      24.324  28.615  13.052  1.00  0.00     0.211 HD
ENDBRANCH  14  38
BRANCH  15  40
ATOM     40  O   UNL     1      25.169  30.293  14.364  1.00  0.00    -0.387 OA
ATOM     41  H   UNL     1      25.276  29.674  13.591  1.00  0.00     0.211 HD
ENDBRANCH  15  40
ENDBRANCH   9  10
ENDBRANCH   8   9
ENDBRANCH   3   8
BRANCH   3  42
ATOM     42  C   UNL     1      27.303  30.699  17.114  1.00  0.00     0.364 C 
ATOM     43  O   UNL     1      27.520  30.251  18.262  1.00  0.00    -0.246 OA
BRANCH  42  44
ATOM     44  O   UNL     1      27.556  29.914  16.024  1.00  0.00    -0.477 OA
ATOM     45  H   UNL     1      27.967  28.988  16.104  1.00  0.00     0.296 HD
ENDBRANCH  42  44
ENDBRANCH   3  42
BRANCH   6  46
ATOM     46  O   UNL     1      25.346  34.583  18.750  1.00  0.00    -0.391 OA
ATOM     47  H   UNL     1      25.162  35.523  18.468  1.00  0.00     0.211 HD
ENDBRANCH   6  46
BRANCH   7  48
ATOM     48  N   UNL     1      26.998  36.140  16.808  1.00  0.00    -0.348 N 
ATOM     49  C   UNL     1      25.944  37.052  16.561  1.00  0.00     0.217 C 
ATOM     50  H   UNL     1      27.949  36.507  16.984  1.00  0.00     0.163 HD
ATOM     51  C   UNL     1      26.146  38.531  16.536  1.00  0.00     0.114 C 
ATOM     52  O   UNL     1      24.791  36.583  16.354  1.00  0.00    -0.275 OA
ENDBRANCH   7  48
ENDBRANCH   1   2
BRANCH   1  53
ATOM     53  O   UNL     1      29.495  35.550  15.368  1.00  0.00    -0.388 OA
ATOM     54  H   UNL     1      29.198  36.490  15.539  1.00  0.00     0.211 HD
ENDBRANCH   1  53
BRANCH   1  55
ATOM     55  C   UNL     1      28.894  33.764  13.950  1.00  0.00     0.165 C 
BRANCH  55  56
ATOM     56  O   UNL     1      29.785  32.804  14.366  1.00  0.00    -0.388 OA
ATOM     57  H   UNL     1      30.096  32.917  15.295  1.00  0.00     0.211 HD
ENDBRANCH  55  56
BRANCH  55  58
ATOM     58  C   UNL     1      29.455  34.592  12.842  1.00  0.00     0.154 C 
BRANCH  58  59
ATOM     59  N   UNL     1      30.872  34.588  12.752  1.00  0.00    -0.319 N 
ATOM     60  C   UNL     1      31.710  35.725  12.899  1.00  0.00     0.407 C 
ATOM     61  H   UNL     1      31.397  33.665  12.556  1.00  0.00     0.167 HD
ATOM     62  O   UNL     1      31.252  36.856  13.133  1.00  0.00    -0.225 OA
BRANCH  60  63
ATOM     63  O   UNL     1      33.103  35.568  12.781  1.00  0.00    -0.443 OA
BRANCH  63  64
ATOM     64  C   UNL     1      33.832  34.906  13.761  1.00  0.00     0.294 C 
BRANCH  64  65
ATOM     65  C   UNL     1      33.100  34.704  15.026  1.00  0.00     0.120 A 
ATOM     66  C   UNL     1      33.164  35.507  16.148  1.00  0.00     0.139 A 
ATOM     67  N   UNL     1      32.251  33.718  15.342  1.00  0.00    -0.132 NA
ATOM     68  N   UNL     1      32.363  34.993  17.112  1.00  0.00    -0.241 N 
ATOM     69  N   UNL     1      31.826  33.913  16.587  1.00  0.00    -0.066 NA
BRANCH  68  70
ATOM     70  C   UNL     1      32.185  35.573  18.438  1.00  0.00     0.268 C 
BRANCH  70  71
ATOM     71  C   UNL     1      30.719  35.478  18.773  1.00  0.00     0.327 C 
ATOM     72  O   UNL     1      29.858  36.156  18.181  1.00  0.00    -0.250 OA
BRANCH  71  73
ATOM     73  O   UNL     1      30.267  34.623  19.763  1.00  0.00    -0.465 OA
BRANCH  73  74
ATOM     74  C   UNL     1      30.093  33.244  19.608  1.00  0.00     0.229 C 
ATOM     75  C   UNL     1      31.147  32.433  20.322  1.00  0.00     0.049 C 
ENDBRANCH  73  74
ENDBRANCH  71  73
ENDBRANCH  70  71
ENDBRANCH  68  70
ENDBRANCH  64  65
ENDBRANCH  63  64
ENDBRANCH  60  63
ENDBRANCH  58  59
ENDBRANCH  55  58
ENDBRANCH   1  55
TORSDOF 33
BEGIN_RES LYS A 131
REMARK  4 active torsions:
REMARK  status: ('A' for Active; 'I' for Inactive)
REMARK    1  A    between atoms: CA   and  CB  
REMARK    2  A    between atoms: CB   and  CG  
REMARK    3  A    between atoms: CG   and  CD  
REMARK    4  A    between atoms: CD   and  CE  
ROOT
ATOM      1  CA  LYS A 131      29.867  25.555  16.977  1.00 20.52     0.186 C 
ENDROOT
BRANCH   1   2
ATOM      2  CB  LYS A 131      28.345  25.722  17.026  1.00 20.94     0.034 C 
BRANCH   2   3
ATOM      3  CG  LYS A 131      27.601  24.401  16.901  1.00 22.96     0.005 C 
BRANCH   3   4
ATOM      4  CD  LYS A 131      26.536  24.249  17.951  1.00 24.33     0.041 C 
BRANCH   4   5
ATOM      5  CE  LYS A 131      25.204  23.924  17.281  1.00 26.91     0.338 C 
ATOM      6  NZ  LYS A 131      24.852  22.500  17.490  1.00 27.40     0.618 N 
ENDBRANCH   4   5
ENDBRANCH   3   4
ENDBRANCH   2   3
ENDBRANCH   1   2
END_RES LYS A 131
BEGIN_RES LYS A 135
REMARK  4 active torsions:
REMARK  status: ('A' for Active; 'I' for Inactive)
REMARK    5  A    between atoms: CA   and  CB  
REMARK    6  A    between atoms: CB   and  CG  
REMARK    7  A    between atoms: CG   and  CD  
REMARK    8  A    between atoms: CD   and  CE  
ROOT
ATOM      7  CA  LYS A 135      33.193  34.663   9.290  1.00 25.02     0.186 C 
ENDROOT
BRANCH   7   8
ATOM      8  CB  LYS A 135      32.060  35.360  10.034  1.00 26.63     0.034 C 
BRANCH   8   9
ATOM      9  CG  LYS A 135      30.817  35.544   9.202  1.00 29.45     0.005 C 
BRANCH   9  10
ATOM     10  CD  LYS A 135      30.255  34.198   8.772  1.00 32.00     0.041 C 
BRANCH  10  11
ATOM     11  CE  LYS A 135      28.857  34.003   9.327  1.00 34.25     0.338 C 
ATOM     12  NZ  LYS A 135      27.824  34.408   8.334  1.00 35.99     0.618 N 
ENDBRANCH  10  11
ENDBRANCH   9  10
ENDBRANCH   8   9
ENDBRANCH   7   8
END_RES LYS A 135
