REMARK VINA RESULT:    -4.746      4.564      9.783
REMARK INTER + INTRA:         -23.529
REMARK INTER:                 -13.222
REMARK INTRA:                 -10.307
REMARK UNBOUND:               -10.737
REMARK SMILES CC(=O)N[C@@H]1[C@@H](O)C[C@](OC[C@H]2O[C@@H](O[C@H]3[C@H](O)[C@@H](O)[C@H](OCCN=[N+]=[N-])O[C@@H]3CO)[C@H](O)[C@@H](O)[C@H]2O)(C(=O)O)O[C@H]1C(O)[C@H](O)CNC(=O)OCc1cn(CCNC(=O)NCc2ccco2)nn1
REMARK SMILES IDX 43 1 42 2 9 3 8 4 41 5 6 6 5 7 10 8 11 9 12 10 14 11 13 12
REMARK SMILES IDX 32 13 34 14 36 15 15 16 16 17 29 18 28 19 21 20 17 21 19 22
REMARK SMILES IDX 30 23 31 24 22 26 23 27 24 28 25 29 26 30 27 31 18 32 20 34
REMARK SMILES IDX 33 36 35 38 37 40 38 42 39 43 40 44 7 46 4 48 2 49 1 51 3 52
REMARK SMILES IDX 44 53 45 55 46 56 47 58 48 59 49 60 50 62 51 63 52 64 53 65
REMARK SMILES IDX 54 66 69 67 55 68 68 69 56 70 57 71 58 72 59 73 60 75 61 76
REMARK SMILES IDX 62 78 63 79 64 80 67 81 65 82 66 83
REMARK H PARENT 31 25 18 33 20 35 33 37 35 39 37 41 40 45 7 47 4 50 44 54
REMARK H PARENT 46 57 48 61 58 74 61 77
REMARK Flexibility Score: inf
ROOT
ATOM      1  C   UNL     1      25.553  36.179  11.608  1.00  0.00     0.176 C 
ENDROOT
BRANCH   1   2
ATOM      2  C   UNL     1      24.124  35.741  11.559  1.00  0.00     0.178 C 
ATOM      3  C   UNL     1      23.372  36.011   9.320  1.00  0.00     0.272 C 
ATOM      4  C   UNL     1      23.245  37.500   9.779  1.00  0.00     0.113 C 
ATOM      5  O   UNL     1      23.739  35.231  10.357  1.00  0.00    -0.332 OA
ATOM      6  C   UNL     1      22.636  37.635  11.117  1.00  0.00     0.145 C 
ATOM      7  C   UNL     1      23.136  36.671  12.164  1.00  0.00     0.142 C 
BRANCH   3   8
ATOM      8  O   UNL     1      24.409  36.046   8.413  1.00  0.00    -0.338 OA
BRANCH   8   9
ATOM      9  C   UNL     1      24.871  37.199   7.938  1.00  0.00     0.199 C 
BRANCH   9  10
ATOM     10  C   UNL     1      26.107  37.422   7.213  1.00  0.00     0.179 C 
ATOM     11  C   UNL     1      27.955  38.711   6.784  1.00  0.00     0.282 C 
ATOM     12  O   UNL     1      26.940  38.417   7.695  1.00  0.00    -0.341 OA
ATOM     13  C   UNL     1      28.254  37.637   5.804  1.00  0.00     0.202 C 
ATOM     14  C   UNL     1      28.030  36.231   6.279  1.00  0.00     0.179 C 
ATOM     15  C   UNL     1      26.948  36.135   7.314  1.00  0.00     0.177 C 
BRANCH  11  16
ATOM     16  O   UNL     1      29.126  39.100   7.413  1.00  0.00    -0.341 OA
BRANCH  16  17
ATOM     17  C   UNL     1      28.940  39.384   8.781  1.00  0.00     0.184 C 
ATOM     18  C   UNL     1      29.454  40.773   9.022  1.00  0.00     0.178 C 
ATOM     19  O   UNL     1      30.020  40.915  10.287  1.00  0.00    -0.341 OA
ATOM     20  C   UNL     1      31.168  40.132  10.296  1.00  0.00     0.281 C 
ATOM     21  C   UNL     1      29.611  38.305   9.563  1.00  0.00     0.180 C 
ATOM     22  C   UNL     1      30.786  38.692  10.379  1.00  0.00     0.202 C 
BRANCH  18  23
ATOM     23  C   UNL     1      28.264  41.732   8.981  1.00  0.00     0.191 C 
BRANCH  23  24
ATOM     24  O   UNL     1      27.115  40.973   9.294  1.00  0.00    -0.394 OA
ATOM     25  H   UNL     1      27.170  40.839  10.285  1.00  0.00     0.210 HD
ENDBRANCH  23  24
ENDBRANCH  18  23
BRANCH  20  26
ATOM     26  O   UNL     1      31.851  40.455  11.471  1.00  0.00    -0.350 OA
BRANCH  26  27
ATOM     27  C   UNL     1      31.012  41.077  12.396  1.00  0.00     0.169 C 
BRANCH  27  28
ATOM     28  C   UNL     1      30.712  40.036  13.477  1.00  0.00     0.119 C 
BRANCH  28  29
ATOM     29  N   UNL     1      29.320  40.218  13.849  1.00  0.00    -0.092 NA
ATOM     30  N   UNL     1      28.417  40.120  13.005  1.00  0.00     0.001 N 
ATOM     31  N   UNL     1      27.535  39.716  12.229  1.00  0.00    -0.003 NA
ENDBRANCH  28  29
ENDBRANCH  27  28
ENDBRANCH  26  27
ENDBRANCH  20  26
BRANCH  21  32
ATOM     32  O   UNL     1      28.628  37.714  10.383  1.00  0.00    -0.387 OA
ATOM     33  H   UNL     1      28.856  36.800  10.632  1.00  0.00     0.211 HD
ENDBRANCH  21  32
BRANCH  22  34
ATOM     34  O   UNL     1      31.908  37.963   9.909  1.00  0.00    -0.385 OA
ATOM     35  H   UNL     1      32.056  37.245  10.597  1.00  0.00     0.211 HD
ENDBRANCH  22  34
ENDBRANCH  16  17
ENDBRANCH  11  16
BRANCH  13  36
ATOM     36  O   UNL     1      27.673  37.867   4.549  1.00  0.00    -0.385 OA
ATOM     37  H   UNL     1      27.338  38.788   4.461  1.00  0.00     0.211 HD
ENDBRANCH  13  36
BRANCH  14  38
ATOM     38  O   UNL     1      29.213  35.643   6.744  1.00  0.00    -0.387 OA
ATOM     39  H   UNL     1      29.020  34.665   6.779  1.00  0.00     0.211 HD
ENDBRANCH  14  38
BRANCH  15  40
ATOM     40  O   UNL     1      27.412  35.942   8.593  1.00  0.00    -0.387 OA
ATOM     41  H   UNL     1      26.745  36.287   9.216  1.00  0.00     0.211 HD
ENDBRANCH  15  40
ENDBRANCH   9  10
ENDBRANCH   8   9
ENDBRANCH   3   8
BRANCH   3  42
ATOM     42  C   UNL     1      22.090  35.748   8.671  1.00  0.00     0.364 C 
ATOM     43  O   UNL     1      21.764  36.322   7.622  1.00  0.00    -0.246 OA
BRANCH  42  44
ATOM     44  O   UNL     1      21.145  34.846   9.171  1.00  0.00    -0.477 OA
ATOM     45  H   UNL     1      21.435  34.165   9.875  1.00  0.00     0.296 HD
ENDBRANCH  42  44
ENDBRANCH   3  42
BRANCH   6  46
ATOM     46  O   UNL     1      22.882  38.948  11.562  1.00  0.00    -0.391 OA
ATOM     47  H   UNL     1      23.047  39.529  10.777  1.00  0.00     0.211 HD
ENDBRANCH   6  46
BRANCH   7  48
ATOM     48  N   UNL     1      21.988  35.951  12.719  1.00  0.00    -0.348 N 
ATOM     49  C   UNL     1      21.907  35.652  14.085  1.00  0.00     0.217 C 
ATOM     50  H   UNL     1      21.228  35.667  12.065  1.00  0.00     0.163 HD
ATOM     51  C   UNL     1      20.759  34.919  14.698  1.00  0.00     0.114 C 
ATOM     52  O   UNL     1      22.871  36.029  14.825  1.00  0.00    -0.275 OA
ENDBRANCH   7  48
ENDBRANCH   1   2
BRANCH   1  53
ATOM     53  O   UNL     1      26.346  35.149  10.986  1.00  0.00    -0.388 OA
ATOM     54  H   UNL     1      25.715  34.603  10.494  1.00  0.00     0.211 HD
ENDBRANCH   1  53
BRANCH   1  55
ATOM     55  C   UNL     1      26.171  36.286  12.971  1.00  0.00     0.165 C 
BRANCH  55  56
ATOM     56  O   UNL     1      27.463  36.754  13.032  1.00  0.00    -0.388 OA
ATOM     57  H   UNL     1      27.613  37.409  13.759  1.00  0.00     0.211 HD
ENDBRANCH  55  56
BRANCH  55  58
ATOM     58  C   UNL     1      26.038  34.971  13.745  1.00  0.00     0.154 C 
BRANCH  58  59
ATOM     59  N   UNL     1      27.326  34.344  13.923  1.00  0.00    -0.319 N 
ATOM     60  C   UNL     1      28.123  34.522  15.077  1.00  0.00     0.407 C 
ATOM     61  H   UNL     1      27.683  33.729  13.166  1.00  0.00     0.167 HD
ATOM     62  O   UNL     1      27.704  35.260  16.007  1.00  0.00    -0.225 OA
BRANCH  60  63
ATOM     63  O   UNL     1      29.362  33.906  15.221  1.00  0.00    -0.443 OA
BRANCH  63  64
ATOM     64  C   UNL     1      29.674  33.275  16.458  1.00  0.00     0.294 C 
BRANCH  64  65
ATOM     65  C   UNL     1      28.918  31.985  16.442  1.00  0.00     0.120 A 
ATOM     66  C   UNL     1      27.975  31.610  17.360  1.00  0.00     0.138 A 
ATOM     67  N   UNL     1      29.032  30.986  15.531  1.00  0.00    -0.132 NA
ATOM     68  N   UNL     1      27.550  30.411  16.989  1.00  0.00    -0.250 N 
ATOM     69  N   UNL     1      28.193  30.039  15.882  1.00  0.00    -0.067 NA
BRANCH  68  70
ATOM     70  C   UNL     1      26.541  29.627  17.700  1.00  0.00     0.167 C 
BRANCH  70  71
ATOM     71  C   UNL     1      25.187  30.274  17.408  1.00  0.00     0.141 C 
BRANCH  71  72
ATOM     72  N   UNL     1      25.140  30.532  15.998  1.00  0.00    -0.336 N 
ATOM     73  C   UNL     1      24.367  29.785  15.087  1.00  0.00     0.315 C 
ATOM     74  H   UNL     1      25.730  31.334  15.649  1.00  0.00     0.165 HD
ATOM     75  O   UNL     1      23.675  28.816  15.466  1.00  0.00    -0.249 OA
ATOM     76  N   UNL     1      24.384  30.159  13.700  1.00  0.00    -0.331 N 
ATOM     77  H   UNL     1      24.981  30.981  13.428  1.00  0.00     0.165 HD
BRANCH  76  78
ATOM     78  C   UNL     1      23.608  29.424  12.741  1.00  0.00     0.193 C 
BRANCH  78  79
ATOM     79  C   UNL     1      22.274  30.057  12.560  1.00  0.00     0.122 A 
ATOM     80  C   UNL     1      22.024  31.416  12.710  1.00  0.00     0.047 A 
ATOM     81  O   UNL     1      21.170  29.468  12.246  1.00  0.00    -0.467 OA
ATOM     82  C   UNL     1      20.694  31.582  12.460  1.00  0.00     0.042 A 
ATOM     83  C   UNL     1      20.190  30.342  12.173  1.00  0.00     0.195 A 
ENDBRANCH  78  79
ENDBRANCH  76  78
ENDBRANCH  71  72
ENDBRANCH  70  71
ENDBRANCH  68  70
ENDBRANCH  64  65
ENDBRANCH  63  64
ENDBRANCH  60  63
ENDBRANCH  58  59
ENDBRANCH  55  58
ENDBRANCH   1  55
TORSDOF 34
BEGIN_RES LYS A 131
REMARK  4 active torsions:
REMARK  status: ('A' for Active; 'I' for Inactive)
REMARK    1  A    between atoms: CA   and  CB  
REMARK    2  A    between atoms: CB   and  CG  
REMARK    3  A    between atoms: CG   and  CD  
REMARK    4  A    between atoms: CD   and  CE  
ROOT
ATOM      1  CA  LYS A 131      29.867  25.555  16.977  1.00 20.52     0.186 C 
ENDROOT
BRANCH   1   2
ATOM      2  CB  LYS A 131      28.345  25.722  17.026  1.00 20.94     0.034 C 
BRANCH   2   3
ATOM      3  CG  LYS A 131      27.602  24.399  16.923  1.00 22.96     0.005 C 
BRANCH   3   4
ATOM      4  CD  LYS A 131      26.154  24.531  17.309  1.00 24.33     0.041 C 
BRANCH   4   5
ATOM      5  CE  LYS A 131      25.888  23.718  18.571  1.00 26.91     0.338 C 
ATOM      6  NZ  LYS A 131      25.513  24.610  19.694  1.00 27.40     0.618 N 
ENDBRANCH   4   5
ENDBRANCH   3   4
ENDBRANCH   2   3
ENDBRANCH   1   2
END_RES LYS A 131
BEGIN_RES LYS A 135
REMARK  4 active torsions:
REMARK  status: ('A' for Active; 'I' for Inactive)
REMARK    5  A    between atoms: CA   and  CB  
REMARK    6  A    between atoms: CB   and  CG  
REMARK    7  A    between atoms: CG   and  CD  
REMARK    8  A    between atoms: CD   and  CE  
ROOT
ATOM      7  CA  LYS A 135      33.193  34.663   9.290  1.00 25.02     0.186 C 
ENDROOT
BRANCH   7   8
ATOM      8  CB  LYS A 135      32.060  35.360  10.034  1.00 26.63     0.034 C 
BRANCH   8   9
ATOM      9  CG  LYS A 135      30.740  34.641   9.931  1.00 29.45     0.005 C 
BRANCH   9  10
ATOM     10  CD  LYS A 135      29.952  34.776  11.225  1.00 32.00     0.041 C 
BRANCH  10  11
ATOM     11  CE  LYS A 135      30.891  34.944  12.404  1.00 34.25     0.338 C 
ATOM     12  NZ  LYS A 135      30.693  36.264  13.064  1.00 35.99     0.618 N 
ENDBRANCH  10  11
ENDBRANCH   9  10
ENDBRANCH   8   9
ENDBRANCH   7   8
END_RES LYS A 135
