REMARK VINA RESULT:    -4.861      0.000      0.000
REMARK INTER + INTRA:         -22.622
REMARK INTER:                  -8.114
REMARK INTRA:                 -14.509
REMARK UNBOUND:               -10.230
REMARK SMILES CC(=O)N[C@@H]1[C@@H](O)C[C@](OC[C@H]2O[C@@H](O[C@H]3[C@H](O)[C@@H](O)[C@H](OCCN=[N+]=[N-])O[C@@H]3CO)[C@H](O)[C@@H](O)[C@H]2O)(C(=O)O)O[C@H]1C(O)[C@H](O)CNC(=O)OCc1cn(C(C)(C)CO)nn1
REMARK SMILES IDX 9 1 8 2 6 3 5 4 42 5 41 6 10 7 11 8 12 9 14 10 13 11 32 12
REMARK SMILES IDX 34 13 36 14 15 15 16 16 29 17 28 18 21 19 17 20 19 21 30 22
REMARK SMILES IDX 31 23 22 25 23 26 24 27 25 28 26 29 27 30 18 31 20 33 33 35
REMARK SMILES IDX 35 37 37 39 38 41 39 42 40 43 7 45 43 47 44 48 45 50 46 51
REMARK SMILES IDX 47 53 48 54 49 55 50 57 51 58 52 59 53 60 54 61 62 62 55 63
REMARK SMILES IDX 61 64 56 65 57 66 58 67 59 68 60 69 4 71 2 72 1 74 3 75
REMARK H PARENT 31 24 18 32 20 34 33 36 35 38 37 40 40 44 7 46 44 49 46 52
REMARK H PARENT 48 56 60 70 4 73
REMARK Flexibility Score: inf
ROOT
ATOM      1  C   UNL     1      31.800  34.939  13.900  1.00  0.00     0.272 C 
ATOM      2  C   UNL     1      32.567  34.110  14.896  1.00  0.00     0.113 C 
ATOM      3  C   UNL     1      32.144  34.546  16.278  1.00  0.00     0.145 C 
ATOM      4  C   UNL     1      32.758  35.953  16.461  1.00  0.00     0.142 C 
ATOM      5  C   UNL     1      32.296  36.776  15.296  1.00  0.00     0.178 C 
ATOM      6  O   UNL     1      31.325  36.144  14.543  1.00  0.00    -0.332 OA
ENDROOT
BRANCH   1   7
ATOM      7  O   UNL     1      30.646  34.368  13.471  1.00  0.00    -0.338 OA
BRANCH   7   8
ATOM      8  C   UNL     1      29.583  35.046  13.075  1.00  0.00     0.199 C 
BRANCH   8   9
ATOM      9  C   UNL     1      28.230  34.929  13.647  1.00  0.00     0.179 C 
ATOM     10  C   UNL     1      26.986  33.519  14.982  1.00  0.00     0.282 C 
ATOM     11  O   UNL     1      28.258  33.895  14.642  1.00  0.00    -0.341 OA
ATOM     12  C   UNL     1      25.902  34.491  14.678  1.00  0.00     0.202 C 
ATOM     13  C   UNL     1      26.328  35.940  14.763  1.00  0.00     0.179 C 
ATOM     14  C   UNL     1      27.780  36.133  14.466  1.00  0.00     0.177 C 
BRANCH  10  15
ATOM     15  O   UNL     1      27.007  33.106  16.317  1.00  0.00    -0.341 OA
BRANCH  15  16
ATOM     16  C   UNL     1      28.223  32.610  16.727  1.00  0.00     0.184 C 
ATOM     17  C   UNL     1      28.283  31.099  16.753  1.00  0.00     0.178 C 
ATOM     18  O   UNL     1      28.849  30.590  17.904  1.00  0.00    -0.341 OA
ATOM     19  C   UNL     1      28.198  30.880  19.072  1.00  0.00     0.281 C 
ATOM     20  C   UNL     1      28.416  33.111  18.170  1.00  0.00     0.180 C 
ATOM     21  C   UNL     1      27.504  32.221  18.994  1.00  0.00     0.202 C 
BRANCH  17  22
ATOM     22  C   UNL     1      29.202  30.700  15.605  1.00  0.00     0.191 C 
BRANCH  22  23
ATOM     23  O   UNL     1      30.062  31.758  15.306  1.00  0.00    -0.394 OA
ATOM     24  H   UNL     1      30.951  31.662  15.695  1.00  0.00     0.210 HD
ENDBRANCH  22  23
ENDBRANCH  17  22
BRANCH  19  25
ATOM     25  O   UNL     1      29.128  30.822  20.094  1.00  0.00    -0.350 OA
BRANCH  25  26
ATOM     26  C   UNL     1      28.681  31.186  21.325  1.00  0.00     0.169 C 
BRANCH  26  27
ATOM     27  C   UNL     1      29.566  32.198  22.035  1.00  0.00     0.119 C 
BRANCH  27  28
ATOM     28  N   UNL     1      30.823  32.376  21.332  1.00  0.00    -0.092 NA
ATOM     29  N   UNL     1      31.339  33.502  21.365  1.00  0.00     0.001 N 
ATOM     30  N   UNL     1      32.105  34.455  21.630  1.00  0.00    -0.003 NA
ENDBRANCH  27  28
ENDBRANCH  26  27
ENDBRANCH  25  26
ENDBRANCH  19  25
BRANCH  20  31
ATOM     31  O   UNL     1      29.766  32.890  18.457  1.00  0.00    -0.387 OA
ATOM     32  H   UNL     1      29.808  32.749  19.440  1.00  0.00     0.211 HD
ENDBRANCH  20  31
BRANCH  21  33
ATOM     33  O   UNL     1      26.328  32.034  18.248  1.00  0.00    -0.385 OA
ATOM     34  H   UNL     1      25.951  31.121  18.428  1.00  0.00     0.211 HD
ENDBRANCH  21  33
ENDBRANCH  15  16
ENDBRANCH  10  15
BRANCH  12  35
ATOM     35  O   UNL     1      25.211  34.235  13.493  1.00  0.00    -0.385 OA
ATOM     36  H   UNL     1      24.835  35.088  13.197  1.00  0.00     0.211 HD
ENDBRANCH  12  35
BRANCH  13  37
ATOM     37  O   UNL     1      25.989  36.491  16.011  1.00  0.00    -0.387 OA
ATOM     38  H   UNL     1      26.486  37.337  16.172  1.00  0.00     0.211 HD
ENDBRANCH  13  37
BRANCH  14  39
ATOM     39  O   UNL     1      28.459  36.052  15.704  1.00  0.00    -0.387 OA
ATOM     40  H   UNL     1      28.112  35.299  16.225  1.00  0.00     0.211 HD
ENDBRANCH  14  39
ENDBRANCH   8   9
ENDBRANCH   7   8
ENDBRANCH   1   7
BRANCH   1  41
ATOM     41  C   UNL     1      32.644  35.464  12.828  1.00  0.00     0.364 C 
ATOM     42  O   UNL     1      32.328  36.450  12.156  1.00  0.00    -0.246 OA
BRANCH  41  43
ATOM     43  O   UNL     1      33.877  34.879  12.487  1.00  0.00    -0.477 OA
ATOM     44  H   UNL     1      34.685  35.491  12.466  1.00  0.00     0.296 HD
ENDBRANCH  41  43
ENDBRANCH   1  41
BRANCH   3  45
ATOM     45  O   UNL     1      30.765  34.764  16.244  1.00  0.00    -0.391 OA
ATOM     46  H   UNL     1      30.467  35.030  15.351  1.00  0.00     0.211 HD
ENDBRANCH   3  45
BRANCH   5  47
ATOM     47  C   UNL     1      31.558  37.983  15.904  1.00  0.00     0.176 C 
BRANCH  47  48
ATOM     48  O   UNL     1      30.561  37.493  16.782  1.00  0.00    -0.388 OA
ATOM     49  H   UNL     1      30.920  36.859  17.425  1.00  0.00     0.211 HD
ENDBRANCH  47  48
BRANCH  47  50
ATOM     50  C   UNL     1      30.777  38.756  14.854  1.00  0.00     0.165 C 
BRANCH  50  51
ATOM     51  O   UNL     1      31.400  38.814  13.651  1.00  0.00    -0.388 OA
ATOM     52  H   UNL     1      30.976  39.381  12.966  1.00  0.00     0.211 HD
ENDBRANCH  50  51
BRANCH  50  53
ATOM     53  C   UNL     1      30.454  40.144  15.369  1.00  0.00     0.154 C 
BRANCH  53  54
ATOM     54  N   UNL     1      29.406  40.228  16.319  1.00  0.00    -0.319 N 
ATOM     55  C   UNL     1      29.521  40.824  17.578  1.00  0.00     0.407 C 
ATOM     56  H   UNL     1      28.443  39.808  16.075  1.00  0.00     0.167 HD
ATOM     57  O   UNL     1      30.576  41.351  17.970  1.00  0.00    -0.225 OA
BRANCH  55  58
ATOM     58  O   UNL     1      28.431  40.858  18.480  1.00  0.00    -0.443 OA
BRANCH  58  59
ATOM     59  C   UNL     1      27.192  40.271  18.154  1.00  0.00     0.294 C 
BRANCH  59  60
ATOM     60  C   UNL     1      27.105  38.838  18.503  1.00  0.00     0.120 A 
ATOM     61  C   UNL     1      26.262  38.249  19.423  1.00  0.00     0.139 A 
ATOM     62  N   UNL     1      27.830  37.834  17.986  1.00  0.00    -0.132 NA
ATOM     63  N   UNL     1      26.494  36.913  19.442  1.00  0.00    -0.244 N 
ATOM     64  N   UNL     1      27.453  36.688  18.559  1.00  0.00    -0.066 NA
BRANCH  63  65
ATOM     65  C   UNL     1      25.810  35.955  20.273  1.00  0.00     0.082 C 
ATOM     66  C   UNL     1      24.966  36.672  21.285  1.00  0.00     0.039 C 
ATOM     67  C   UNL     1      26.828  35.114  21.057  1.00  0.00     0.039 C 
BRANCH  65  68
ATOM     68  C   UNL     1      24.948  34.993  19.505  1.00  0.00     0.186 C 
BRANCH  68  69
ATOM     69  O   UNL     1      25.327  34.840  18.192  1.00  0.00    -0.394 OA
ATOM     70  H   UNL     1      24.905  35.446  17.563  1.00  0.00     0.210 HD
ENDBRANCH  68  69
ENDBRANCH  65  68
ENDBRANCH  63  65
ENDBRANCH  59  60
ENDBRANCH  58  59
ENDBRANCH  55  58
ENDBRANCH  53  54
ENDBRANCH  50  53
ENDBRANCH  47  50
ENDBRANCH   5  47
BRANCH   4  71
ATOM     71  N   UNL     1      34.168  35.747  16.549  1.00  0.00    -0.348 N 
ATOM     72  C   UNL     1      35.093  36.568  17.237  1.00  0.00     0.217 C 
ATOM     73  H   UNL     1      34.608  34.910  16.062  1.00  0.00     0.163 HD
ATOM     74  C   UNL     1      36.551  36.271  17.270  1.00  0.00     0.114 C 
ATOM     75  O   UNL     1      34.683  37.574  17.838  1.00  0.00    -0.275 OA
ENDBRANCH   4  71
TORSDOF 32
BEGIN_RES LYS A 131
REMARK  4 active torsions:
REMARK  status: ('A' for Active; 'I' for Inactive)
REMARK    1  A    between atoms: CA   and  CB  
REMARK    2  A    between atoms: CB   and  CG  
REMARK    3  A    between atoms: CG   and  CD  
REMARK    4  A    between atoms: CD   and  CE  
ROOT
ATOM      1  CA  LYS A 131      29.867  25.555  16.977  1.00 20.52     0.186 C 
ENDROOT
BRANCH   1   2
ATOM      2  CB  LYS A 131      28.345  25.722  17.026  1.00 20.94     0.034 C 
BRANCH   2   3
ATOM      3  CG  LYS A 131      27.599  24.481  16.559  1.00 22.96     0.005 C 
BRANCH   3   4
ATOM      4  CD  LYS A 131      27.220  23.584  17.705  1.00 24.33     0.041 C 
BRANCH   4   5
ATOM      5  CE  LYS A 131      25.726  23.282  17.641  1.00 26.91     0.338 C 
ATOM      6  NZ  LYS A 131      25.004  24.377  16.952  1.00 27.40     0.618 N 
ENDBRANCH   4   5
ENDBRANCH   3   4
ENDBRANCH   2   3
ENDBRANCH   1   2
END_RES LYS A 131
BEGIN_RES LYS A 135
REMARK  4 active torsions:
REMARK  status: ('A' for Active; 'I' for Inactive)
REMARK    5  A    between atoms: CA   and  CB  
REMARK    6  A    between atoms: CB   and  CG  
REMARK    7  A    between atoms: CG   and  CD  
REMARK    8  A    between atoms: CD   and  CE  
ROOT
ATOM      7  CA  LYS A 135      33.193  34.663   9.290  1.00 25.02     0.186 C 
ENDROOT
BRANCH   7   8
ATOM      8  CB  LYS A 135      32.060  35.360  10.034  1.00 26.63     0.034 C 
BRANCH   8   9
ATOM      9  CG  LYS A 135      30.799  35.498   9.220  1.00 29.45     0.005 C 
BRANCH   9  10
ATOM     10  CD  LYS A 135      30.130  34.145   9.035  1.00 32.00     0.041 C 
BRANCH  10  11
ATOM     11  CE  LYS A 135      28.666  34.319   8.677  1.00 34.25     0.338 C 
ATOM     12  NZ  LYS A 135      27.784  33.751   9.733  1.00 35.99     0.618 N 
ENDBRANCH  10  11
ENDBRANCH   9  10
ENDBRANCH   8   9
ENDBRANCH   7   8
END_RES LYS A 135
