REMARK VINA RESULT:    -5.112      2.520      5.663
REMARK INTER + INTRA:         -22.650
REMARK INTER:                 -13.535
REMARK INTRA:                  -9.116
REMARK UNBOUND:               -10.068
REMARK SMILES CC(=O)N[C@@H]1[C@@H](O)C[C@](OC[C@H]2O[C@@H](O[C@H]3[C@H](O)[C@@H](O)[C@H](OCCN=[N+]=[N-])O[C@@H]3CO)[C@H](O)[C@@H](O)[C@H]2O)(C(=O)O)O[C@H]1C(O)[C@H](O)CNC(=O)OCc1cn(-c2cnc3ccccc3c2)nn1
REMARK SMILES IDX 9 1 8 2 6 3 5 4 42 5 41 6 10 7 11 8 12 9 14 10 13 11 32 12
REMARK SMILES IDX 34 13 36 14 15 15 16 16 29 17 28 18 21 19 17 20 19 21 30 22
REMARK SMILES IDX 31 23 22 25 23 26 24 27 25 28 26 29 27 30 18 31 20 33 33 35
REMARK SMILES IDX 35 37 37 39 38 41 39 42 40 43 7 45 43 47 44 48 45 50 46 51
REMARK SMILES IDX 47 53 48 54 49 55 50 57 51 58 52 59 53 60 54 61 67 62 55 63
REMARK SMILES IDX 66 64 56 65 57 66 65 67 58 68 64 69 59 70 63 71 60 72 62 73
REMARK SMILES IDX 61 74 4 75 2 76 1 78 3 79
REMARK H PARENT 31 24 18 32 20 34 33 36 35 38 37 40 40 44 7 46 44 49 46 52
REMARK H PARENT 48 56 4 77
REMARK Flexibility Score: inf
ROOT
ATOM      1  C   UNL     1      30.460  33.042  16.142  1.00  0.00     0.272 C 
ATOM      2  C   UNL     1      31.820  33.568  16.430  1.00  0.00     0.113 C 
ATOM      3  C   UNL     1      31.792  35.006  16.910  1.00  0.00     0.145 C 
ATOM      4  C   UNL     1      30.734  35.039  18.014  1.00  0.00     0.142 C 
ATOM      5  C   UNL     1      29.391  34.788  17.313  1.00  0.00     0.178 C 
ATOM      6  O   UNL     1      29.463  33.415  16.995  1.00  0.00    -0.332 OA
ENDROOT
BRANCH   1   7
ATOM      7  O   UNL     1      30.445  31.631  16.163  1.00  0.00    -0.338 OA
BRANCH   7   8
ATOM      8  C   UNL     1      29.446  31.065  15.421  1.00  0.00     0.199 C 
BRANCH   8   9
ATOM      9  C   UNL     1      28.444  30.435  16.364  1.00  0.00     0.179 C 
ATOM     10  C   UNL     1      28.118  29.582  18.470  1.00  0.00     0.282 C 
ATOM     11  O   UNL     1      28.824  30.484  17.690  1.00  0.00    -0.341 OA
ATOM     12  C   UNL     1      26.764  29.265  17.904  1.00  0.00     0.202 C 
ATOM     13  C   UNL     1      26.145  30.383  17.144  1.00  0.00     0.179 C 
ATOM     14  C   UNL     1      27.063  30.822  16.039  1.00  0.00     0.177 C 
BRANCH  10  15
ATOM     15  O   UNL     1      28.066  30.045  19.767  1.00  0.00    -0.341 OA
BRANCH  15  16
ATOM     16  C   UNL     1      29.309  30.024  20.401  1.00  0.00     0.184 C 
ATOM     17  C   UNL     1      29.411  28.955  21.462  1.00  0.00     0.178 C 
ATOM     18  O   UNL     1      29.910  29.358  22.661  1.00  0.00    -0.341 OA
ATOM     19  C   UNL     1      31.014  30.166  22.656  1.00  0.00     0.281 C 
ATOM     20  C   UNL     1      29.734  31.387  20.870  1.00  0.00     0.180 C 
ATOM     21  C   UNL     1      31.004  31.277  21.652  1.00  0.00     0.202 C 
BRANCH  17  22
ATOM     22  C   UNL     1      30.080  27.699  20.900  1.00  0.00     0.191 C 
BRANCH  22  23
ATOM     23  O   UNL     1      29.211  26.952  20.110  1.00  0.00    -0.394 OA
ATOM     24  H   UNL     1      29.445  26.002  20.077  1.00  0.00     0.210 HD
ENDBRANCH  22  23
ENDBRANCH  17  22
BRANCH  19  25
ATOM     25  O   UNL     1      32.216  29.455  22.629  1.00  0.00    -0.350 OA
BRANCH  25  26
ATOM     26  C   UNL     1      33.150  30.022  21.789  1.00  0.00     0.169 C 
BRANCH  26  27
ATOM     27  C   UNL     1      34.544  29.959  22.367  1.00  0.00     0.119 C 
BRANCH  27  28
ATOM     28  N   UNL     1      35.231  31.223  22.197  1.00  0.00    -0.092 NA
ATOM     29  N   UNL     1      34.685  32.207  21.699  1.00  0.00     0.001 N 
ATOM     30  N   UNL     1      34.050  33.257  21.590  1.00  0.00    -0.003 NA
ENDBRANCH  27  28
ENDBRANCH  26  27
ENDBRANCH  25  26
ENDBRANCH  19  25
BRANCH  20  31
ATOM     31  O   UNL     1      30.005  32.172  19.728  1.00  0.00    -0.387 OA
ATOM     32  H   UNL     1      30.099  31.588  18.928  1.00  0.00     0.211 HD
ENDBRANCH  20  31
BRANCH  21  33
ATOM     33  O   UNL     1      31.223  32.539  22.255  1.00  0.00    -0.385 OA
ATOM     34  H   UNL     1      31.287  33.241  21.541  1.00  0.00     0.211 HD
ENDBRANCH  21  33
ENDBRANCH  15  16
ENDBRANCH  10  15
BRANCH  12  35
ATOM     35  O   UNL     1      26.746  28.120  17.114  1.00  0.00    -0.385 OA
ATOM     36  H   UNL     1      25.984  27.532  17.333  1.00  0.00     0.211 HD
ENDBRANCH  12  35
BRANCH  13  37
ATOM     37  O   UNL     1      25.815  31.442  17.994  1.00  0.00    -0.387 OA
ATOM     38  H   UNL     1      25.236  32.069  17.530  1.00  0.00     0.211 HD
ENDBRANCH  13  37
BRANCH  14  39
ATOM     39  O   UNL     1      26.870  32.188  15.868  1.00  0.00    -0.387 OA
ATOM     40  H   UNL     1      27.299  32.730  16.557  1.00  0.00     0.211 HD
ENDBRANCH  14  39
ENDBRANCH   8   9
ENDBRANCH   7   8
ENDBRANCH   1   7
BRANCH   1  41
ATOM     41  C   UNL     1      30.055  33.510  14.771  1.00  0.00     0.364 C 
ATOM     42  O   UNL     1      28.830  33.722  14.492  1.00  0.00    -0.246 OA
BRANCH  41  43
ATOM     43  O   UNL     1      30.935  33.740  13.739  1.00  0.00    -0.477 OA
ATOM     44  H   UNL     1      30.638  34.084  12.813  1.00  0.00     0.296 HD
ENDBRANCH  41  43
ENDBRANCH   1  41
BRANCH   3  45
ATOM     45  O   UNL     1      33.017  35.436  17.360  1.00  0.00    -0.391 OA
ATOM     46  H   UNL     1      32.872  36.019  18.134  1.00  0.00     0.211 HD
ENDBRANCH   3  45
BRANCH   5  47
ATOM     47  C   UNL     1      28.238  34.915  18.271  1.00  0.00     0.176 C 
BRANCH  47  48
ATOM     48  O   UNL     1      27.545  33.676  18.252  1.00  0.00    -0.388 OA
ATOM     49  H   UNL     1      27.917  33.073  17.559  1.00  0.00     0.211 HD
ENDBRANCH  47  48
BRANCH  47  50
ATOM     50  C   UNL     1      27.204  35.963  17.883  1.00  0.00     0.165 C 
BRANCH  50  51
ATOM     51  O   UNL     1      25.965  35.257  18.086  1.00  0.00    -0.388 OA
ATOM     52  H   UNL     1      25.274  35.747  17.582  1.00  0.00     0.211 HD
ENDBRANCH  50  51
BRANCH  50  53
ATOM     53  C   UNL     1      27.214  36.182  16.385  1.00  0.00     0.154 C 
BRANCH  53  54
ATOM     54  N   UNL     1      26.678  35.143  15.590  1.00  0.00    -0.319 N 
ATOM     55  C   UNL     1      25.352  35.100  15.109  1.00  0.00     0.407 C 
ATOM     56  H   UNL     1      27.333  34.335  15.343  1.00  0.00     0.167 HD
ATOM     57  O   UNL     1      24.571  36.026  15.401  1.00  0.00    -0.225 OA
BRANCH  55  58
ATOM     58  O   UNL     1      24.977  34.026  14.335  1.00  0.00    -0.443 OA
BRANCH  58  59
ATOM     59  C   UNL     1      23.702  33.912  13.762  1.00  0.00     0.294 C 
BRANCH  59  60
ATOM     60  C   UNL     1      23.713  34.483  12.378  1.00  0.00     0.121 A 
ATOM     61  C   UNL     1      24.760  34.991  11.683  1.00  0.00     0.144 A 
ATOM     62  N   UNL     1      22.615  34.580  11.593  1.00  0.00    -0.131 NA
ATOM     63  N   UNL     1      24.269  35.384  10.492  1.00  0.00    -0.219 N 
ATOM     64  N   UNL     1      22.959  35.128  10.447  1.00  0.00    -0.062 NA
BRANCH  63  65
ATOM     65  C   UNL     1      25.048  35.980   9.459  1.00  0.00     0.085 A 
ATOM     66  C   UNL     1      24.834  37.275   9.111  1.00  0.00     0.140 A 
ATOM     67  C   UNL     1      26.020  35.215   8.834  1.00  0.00     0.040 A 
ATOM     68  N   UNL     1      25.585  37.826   8.136  1.00  0.00    -0.254 NA
ATOM     69  C   UNL     1      26.770  35.790   7.849  1.00  0.00     0.002 A 
ATOM     70  C   UNL     1      26.525  37.094   7.527  1.00  0.00     0.070 A 
ATOM     71  C   UNL     1      27.744  35.049   7.212  1.00  0.00     0.010 A 
ATOM     72  C   UNL     1      27.296  37.675   6.519  1.00  0.00     0.029 A 
ATOM     73  C   UNL     1      28.497  35.646   6.215  1.00  0.00     0.001 A 
ATOM     74  C   UNL     1      28.270  36.978   5.863  1.00  0.00     0.002 A 
ENDBRANCH  63  65
ENDBRANCH  59  60
ENDBRANCH  58  59
ENDBRANCH  55  58
ENDBRANCH  53  54
ENDBRANCH  50  53
ENDBRANCH  47  50
ENDBRANCH   5  47
BRANCH   4  75
ATOM     75  N   UNL     1      30.807  36.221  18.786  1.00  0.00    -0.348 N 
ATOM     76  C   UNL     1      30.939  36.154  20.223  1.00  0.00     0.217 C 
ATOM     77  H   UNL     1      30.790  37.186  18.396  1.00  0.00     0.163 HD
ATOM     78  C   UNL     1      31.015  37.368  21.037  1.00  0.00     0.114 C 
ATOM     79  O   UNL     1      30.983  34.995  20.736  1.00  0.00    -0.275 OA
ENDBRANCH   4  75
TORSDOF 30
BEGIN_RES LYS A 131
REMARK  4 active torsions:
REMARK  status: ('A' for Active; 'I' for Inactive)
REMARK    1  A    between atoms: CA   and  CB  
REMARK    2  A    between atoms: CB   and  CG  
REMARK    3  A    between atoms: CG   and  CD  
REMARK    4  A    between atoms: CD   and  CE  
ROOT
ATOM      1  CA  LYS A 131      29.867  25.555  16.977  1.00 20.52     0.186 C 
ENDROOT
BRANCH   1   2
ATOM      2  CB  LYS A 131      28.345  25.722  17.026  1.00 20.94     0.034 C 
BRANCH   2   3
ATOM      3  CG  LYS A 131      27.602  24.400  16.912  1.00 22.96     0.005 C 
BRANCH   3   4
ATOM      4  CD  LYS A 131      26.153  24.530  17.292  1.00 24.33     0.041 C 
BRANCH   4   5
ATOM      5  CE  LYS A 131      26.045  24.963  18.750  1.00 26.91     0.338 C 
ATOM      6  NZ  LYS A 131      25.508  23.859  19.581  1.00 27.40     0.618 N 
ENDBRANCH   4   5
ENDBRANCH   3   4
ENDBRANCH   2   3
ENDBRANCH   1   2
END_RES LYS A 131
BEGIN_RES LYS A 135
REMARK  4 active torsions:
REMARK  status: ('A' for Active; 'I' for Inactive)
REMARK    5  A    between atoms: CA   and  CB  
REMARK    6  A    between atoms: CB   and  CG  
REMARK    7  A    between atoms: CG   and  CD  
REMARK    8  A    between atoms: CD   and  CE  
ROOT
ATOM      7  CA  LYS A 135      33.193  34.663   9.290  1.00 25.02     0.186 C 
ENDROOT
BRANCH   7   8
ATOM      8  CB  LYS A 135      32.060  35.360  10.034  1.00 26.63     0.034 C 
BRANCH   8   9
ATOM      9  CG  LYS A 135      30.776  35.429   9.248  1.00 29.45     0.005 C 
BRANCH   9  10
ATOM     10  CD  LYS A 135      30.147  36.808   9.369  1.00 32.00     0.041 C 
BRANCH  10  11
ATOM     11  CE  LYS A 135      29.153  36.842  10.515  1.00 34.25     0.338 C 
ATOM     12  NZ  LYS A 135      29.636  37.718  11.618  1.00 35.99     0.618 N 
ENDBRANCH  10  11
ENDBRANCH   9  10
ENDBRANCH   8   9
ENDBRANCH   7   8
END_RES LYS A 135
