REMARK VINA RESULT:    -4.148      6.111     10.986
REMARK INTER + INTRA:         -22.843
REMARK INTER:                 -12.026
REMARK INTRA:                 -10.817
REMARK UNBOUND:               -12.269
REMARK SMILES CC(=O)N[C@@H]1[C@@H](O)C[C@](OC[C@H]2O[C@@H](O[C@H]3[C@H](O)[C@@H](O)[C@H](OCCN=[N+]=[N-])O[C@@H]3CO)[C@H](O)[C@@H](O)[C@H]2O)(C(=O)O)O[C@H]1C(O)[C@H](O)CNC(=O)OCc1cn(-c2cccc(S(N)(=O)=O)c2)nn1
REMARK SMILES IDX 9 1 8 2 6 3 5 4 42 5 41 6 10 7 11 8 12 9 14 10 13 11 32 12
REMARK SMILES IDX 34 13 36 14 15 15 16 16 29 17 28 18 21 19 17 20 19 21 30 22
REMARK SMILES IDX 31 23 22 25 23 26 24 27 25 28 26 29 27 30 18 31 20 33 33 35
REMARK SMILES IDX 35 37 37 39 38 41 39 42 40 43 7 45 43 47 44 48 45 50 46 51
REMARK SMILES IDX 47 53 48 54 49 55 50 57 51 58 52 59 53 60 54 61 67 62 55 63
REMARK SMILES IDX 66 64 56 65 65 66 57 67 60 68 58 69 59 70 61 71 63 72 64 73
REMARK SMILES IDX 62 74 4 77 2 78 1 80 3 81
REMARK H PARENT 31 24 18 32 20 34 33 36 35 38 37 40 40 44 7 46 44 49 46 52
REMARK H PARENT 48 56 62 75 62 76 4 79
REMARK Flexibility Score: inf
ROOT
ATOM      1  C   UNL     1      28.487  32.387  16.775  1.00  0.00     0.272 C 
ATOM      2  C   UNL     1      29.624  31.812  15.908  1.00  0.00     0.113 C 
ATOM      3  C   UNL     1      30.482  32.945  15.464  1.00  0.00     0.145 C 
ATOM      4  C   UNL     1      31.039  33.680  16.631  1.00  0.00     0.142 C 
ATOM      5  C   UNL     1      30.128  33.692  17.807  1.00  0.00     0.178 C 
ATOM      6  O   UNL     1      29.018  32.947  17.858  1.00  0.00    -0.332 OA
ENDROOT
BRANCH   1   7
ATOM      7  O   UNL     1      27.730  31.230  17.101  1.00  0.00    -0.338 OA
BRANCH   7   8
ATOM      8  C   UNL     1      27.333  31.320  18.400  1.00  0.00     0.199 C 
BRANCH   8   9
ATOM      9  C   UNL     1      27.407  29.998  19.133  1.00  0.00     0.179 C 
ATOM     10  C   UNL     1      28.799  28.834  20.441  1.00  0.00     0.282 C 
ATOM     11  O   UNL     1      28.169  30.096  20.296  1.00  0.00    -0.341 OA
ATOM     12  C   UNL     1      27.842  27.713  20.263  1.00  0.00     0.202 C 
ATOM     13  C   UNL     1      26.388  28.109  20.259  1.00  0.00     0.179 C 
ATOM     14  C   UNL     1      26.109  29.374  19.467  1.00  0.00     0.177 C 
BRANCH  10  15
ATOM     15  O   UNL     1      29.588  28.796  21.563  1.00  0.00    -0.341 OA
BRANCH  15  16
ATOM     16  C   UNL     1      30.617  27.886  21.530  1.00  0.00     0.184 C 
ATOM     17  C   UNL     1      31.240  27.792  22.902  1.00  0.00     0.178 C 
ATOM     18  O   UNL     1      32.637  27.743  22.813  1.00  0.00    -0.341 OA
ATOM     19  C   UNL     1      33.084  29.001  22.486  1.00  0.00     0.281 C 
ATOM     20  C   UNL     1      31.615  28.390  20.511  1.00  0.00     0.180 C 
ATOM     21  C   UNL     1      32.641  29.310  21.092  1.00  0.00     0.202 C 
BRANCH  17  22
ATOM     22  C   UNL     1      30.816  26.586  23.678  1.00  0.00     0.191 C 
BRANCH  22  23
ATOM     23  O   UNL     1      29.728  25.939  23.060  1.00  0.00    -0.394 OA
ATOM     24  H   UNL     1      28.885  26.424  23.223  1.00  0.00     0.210 HD
ENDBRANCH  22  23
ENDBRANCH  17  22
BRANCH  19  25
ATOM     25  O   UNL     1      34.473  29.109  22.546  1.00  0.00    -0.350 OA
BRANCH  25  26
ATOM     26  C   UNL     1      35.078  28.287  23.457  1.00  0.00     0.169 C 
BRANCH  26  27
ATOM     27  C   UNL     1      36.547  28.576  23.688  1.00  0.00     0.119 C 
BRANCH  27  28
ATOM     28  N   UNL     1      37.018  29.644  22.829  1.00  0.00    -0.092 NA
ATOM     29  N   UNL     1      37.930  30.400  23.154  1.00  0.00     0.001 N 
ATOM     30  N   UNL     1      38.813  31.208  23.383  1.00  0.00    -0.003 NA
ENDBRANCH  27  28
ENDBRANCH  26  27
ENDBRANCH  25  26
ENDBRANCH  19  25
BRANCH  20  31
ATOM     31  O   UNL     1      32.297  27.283  19.973  1.00  0.00    -0.387 OA
ATOM     32  H   UNL     1      33.236  27.238  20.280  1.00  0.00     0.211 HD
ENDBRANCH  20  31
BRANCH  21  33
ATOM     33  O   UNL     1      32.156  30.639  21.088  1.00  0.00    -0.385 OA
ATOM     34  H   UNL     1      32.921  31.226  21.292  1.00  0.00     0.211 HD
ENDBRANCH  21  33
ENDBRANCH  15  16
ENDBRANCH  10  15
BRANCH  12  35
ATOM     35  O   UNL     1      28.138  26.901  19.141  1.00  0.00    -0.385 OA
ATOM     36  H   UNL     1      28.612  27.535  18.514  1.00  0.00     0.211 HD
ENDBRANCH  12  35
BRANCH  13  37
ATOM     37  O   UNL     1      25.850  28.124  21.532  1.00  0.00    -0.387 OA
ATOM     38  H   UNL     1      26.081  27.231  21.943  1.00  0.00     0.211 HD
ENDBRANCH  13  37
BRANCH  14  39
ATOM     39  O   UNL     1      25.395  30.234  20.310  1.00  0.00    -0.387 OA
ATOM     40  H   UNL     1      24.531  30.509  19.912  1.00  0.00     0.211 HD
ENDBRANCH  14  39
ENDBRANCH   8   9
ENDBRANCH   7   8
ENDBRANCH   1   7
BRANCH   1  41
ATOM     41  C   UNL     1      27.696  33.256  15.870  1.00  0.00     0.364 C 
ATOM     42  O   UNL     1      26.905  32.690  15.029  1.00  0.00    -0.246 OA
BRANCH  41  43
ATOM     43  O   UNL     1      27.708  34.619  15.826  1.00  0.00    -0.477 OA
ATOM     44  H   UNL     1      28.310  35.193  16.430  1.00  0.00     0.296 HD
ENDBRANCH  41  43
ENDBRANCH   1  41
BRANCH   3  45
ATOM     45  O   UNL     1      31.523  32.356  14.692  1.00  0.00    -0.391 OA
ATOM     46  H   UNL     1      31.987  33.148  14.275  1.00  0.00     0.211 HD
ENDBRANCH   3  45
BRANCH   5  47
ATOM     47  C   UNL     1      30.993  33.421  19.062  1.00  0.00     0.176 C 
BRANCH  47  48
ATOM     48  O   UNL     1      30.389  32.423  19.804  1.00  0.00    -0.388 OA
ATOM     49  H   UNL     1      30.208  31.593  19.332  1.00  0.00     0.211 HD
ENDBRANCH  47  48
BRANCH  47  50
ATOM     50  C   UNL     1      31.284  34.684  19.775  1.00  0.00     0.165 C 
BRANCH  50  51
ATOM     51  O   UNL     1      32.660  34.798  19.959  1.00  0.00    -0.388 OA
ATOM     52  H   UNL     1      32.771  35.585  20.565  1.00  0.00     0.211 HD
ENDBRANCH  50  51
BRANCH  50  53
ATOM     53  C   UNL     1      30.637  34.739  21.150  1.00  0.00     0.154 C 
BRANCH  53  54
ATOM     54  N   UNL     1      31.676  34.577  22.139  1.00  0.00    -0.319 N 
ATOM     55  C   UNL     1      31.687  33.394  22.969  1.00  0.00     0.407 C 
ATOM     56  H   UNL     1      32.428  35.287  22.288  1.00  0.00     0.167 HD
ATOM     57  O   UNL     1      30.806  32.505  22.844  1.00  0.00    -0.225 OA
BRANCH  55  58
ATOM     58  O   UNL     1      32.710  33.303  23.891  1.00  0.00    -0.443 OA
BRANCH  58  59
ATOM     59  C   UNL     1      33.716  32.342  23.766  1.00  0.00     0.294 C 
BRANCH  59  60
ATOM     60  C   UNL     1      34.950  32.907  23.201  1.00  0.00     0.121 A 
ATOM     61  C   UNL     1      35.299  32.819  21.845  1.00  0.00     0.144 A 
ATOM     62  N   UNL     1      35.930  33.575  23.797  1.00  0.00    -0.131 NA
ATOM     63  N   UNL     1      36.466  33.436  21.701  1.00  0.00    -0.220 N 
ATOM     64  N   UNL     1      36.823  33.878  22.873  1.00  0.00    -0.062 NA
BRANCH  63  65
ATOM     65  C   UNL     1      37.149  33.566  20.446  1.00  0.00     0.068 A 
ATOM     66  C   UNL     1      36.840  34.650  19.621  1.00  0.00     0.050 A 
ATOM     67  C   UNL     1      38.085  32.655  20.059  1.00  0.00     0.028 A 
ATOM     68  C   UNL     1      37.466  34.820  18.411  1.00  0.00     0.084 A 
ATOM     69  C   UNL     1      38.711  32.812  18.865  1.00  0.00     0.004 A 
ATOM     70  C   UNL     1      38.418  33.888  18.023  1.00  0.00     0.022 A 
BRANCH  68  71
ATOM     71  S   UNL     1      37.131  36.146  17.335  1.00  0.00     0.238 S 
ATOM     72  O   UNL     1      36.861  35.595  15.963  1.00  0.00    -0.207 OA
ATOM     73  O   UNL     1      38.306  37.067  17.261  1.00  0.00    -0.207 OA
BRANCH  71  74
ATOM     74  N   UNL     1      35.732  36.997  17.922  1.00  0.00    -0.225 NA
ATOM     75  H   UNL     1      35.722  37.949  17.492  1.00  0.00     0.137 HD
ATOM     76  H   UNL     1      35.688  36.998  18.962  1.00  0.00     0.137 HD
ENDBRANCH  71  74
ENDBRANCH  68  71
ENDBRANCH  63  65
ENDBRANCH  59  60
ENDBRANCH  58  59
ENDBRANCH  55  58
ENDBRANCH  53  54
ENDBRANCH  50  53
ENDBRANCH  47  50
ENDBRANCH   5  47
BRANCH   4  77
ATOM     77  N   UNL     1      31.258  35.069  16.196  1.00  0.00    -0.348 N 
ATOM     78  C   UNL     1      32.465  35.773  16.451  1.00  0.00     0.217 C 
ATOM     79  H   UNL     1      30.501  35.562  15.679  1.00  0.00     0.163 HD
ATOM     80  C   UNL     1      32.627  37.173  15.984  1.00  0.00     0.114 C 
ATOM     81  O   UNL     1      33.382  35.169  17.082  1.00  0.00    -0.275 OA
ENDBRANCH   4  77
TORSDOF 32
BEGIN_RES LYS A 131
REMARK  4 active torsions:
REMARK  status: ('A' for Active; 'I' for Inactive)
REMARK    1  A    between atoms: CA   and  CB  
REMARK    2  A    between atoms: CB   and  CG  
REMARK    3  A    between atoms: CG   and  CD  
REMARK    4  A    between atoms: CD   and  CE  
ROOT
ATOM      1  CA  LYS A 131      29.867  25.555  16.977  1.00 20.52     0.186 C 
ENDROOT
BRANCH   1   2
ATOM      2  CB  LYS A 131      28.345  25.722  17.026  1.00 20.94     0.034 C 
BRANCH   2   3
ATOM      3  CG  LYS A 131      27.599  24.442  16.682  1.00 22.96     0.005 C 
BRANCH   3   4
ATOM      4  CD  LYS A 131      27.008  23.787  17.900  1.00 24.33     0.041 C 
BRANCH   4   5
ATOM      5  CE  LYS A 131      25.592  23.314  17.587  1.00 26.91     0.338 C 
ATOM      6  NZ  LYS A 131      24.822  24.390  16.919  1.00 27.40     0.618 N 
ENDBRANCH   4   5
ENDBRANCH   3   4
ENDBRANCH   2   3
ENDBRANCH   1   2
END_RES LYS A 131
BEGIN_RES LYS A 135
REMARK  4 active torsions:
REMARK  status: ('A' for Active; 'I' for Inactive)
REMARK    5  A    between atoms: CA   and  CB  
REMARK    6  A    between atoms: CB   and  CG  
REMARK    7  A    between atoms: CG   and  CD  
REMARK    8  A    between atoms: CD   and  CE  
ROOT
ATOM      7  CA  LYS A 135      33.193  34.663   9.290  1.00 25.02     0.186 C 
ENDROOT
BRANCH   7   8
ATOM      8  CB  LYS A 135      32.060  35.360  10.034  1.00 26.63     0.034 C 
BRANCH   8   9
ATOM      9  CG  LYS A 135      30.711  34.729   9.805  1.00 29.45     0.005 C 
BRANCH   9  10
ATOM     10  CD  LYS A 135      30.461  34.521   8.319  1.00 32.00     0.041 C 
BRANCH  10  11
ATOM     11  CE  LYS A 135      29.013  34.811   7.976  1.00 34.25     0.338 C 
ATOM     12  NZ  LYS A 135      28.902  35.518   6.670  1.00 35.99     0.618 N 
ENDBRANCH  10  11
ENDBRANCH   9  10
ENDBRANCH   8   9
ENDBRANCH   7   8
END_RES LYS A 135
