REMARK VINA RESULT:    -3.911      4.431      9.811
REMARK INTER + INTRA:         -22.244
REMARK INTER:                 -12.918
REMARK INTRA:                  -9.326
REMARK UNBOUND:               -11.702
REMARK SMILES CC(=O)N[C@@H]1[C@@H](O)C[C@](OC[C@H]2O[C@@H](O[C@H]3[C@H](O)[C@@H](O)[C@H](OCCN=[N+]=[N-])O[C@@H]3CO)[C@H](O)[C@@H](O)[C@H]2O)(C(=O)O)O[C@H]1C(O)[C@H](O)CNC(=O)OCc1cn([C@@H](CC(=O)O)C(=O)O)nn1
REMARK SMILES IDX 43 1 42 2 9 3 8 4 41 5 6 6 5 7 10 8 11 9 12 10 14 11 13 12
REMARK SMILES IDX 32 13 34 14 36 15 15 16 16 17 29 18 28 19 21 20 17 21 19 22
REMARK SMILES IDX 30 23 31 24 22 26 23 27 24 28 25 29 26 30 27 31 18 32 20 34
REMARK SMILES IDX 33 36 35 38 37 40 38 42 39 43 40 44 7 46 4 48 2 49 1 51 3 52
REMARK SMILES IDX 44 53 45 55 46 56 47 58 48 59 49 60 50 62 51 63 52 64 53 65
REMARK SMILES IDX 54 66 65 67 55 68 64 69 56 70 57 71 58 72 59 73 60 74 61 76
REMARK SMILES IDX 62 77 63 78
REMARK H PARENT 31 25 18 33 20 35 33 37 35 39 37 41 40 45 7 47 4 50 44 54
REMARK H PARENT 46 57 48 61 60 75 63 79
REMARK Flexibility Score: inf
ROOT
ATOM      1  C   UNL     1      26.173  36.507   9.534  1.00  0.00     0.176 C 
ENDROOT
BRANCH   1   2
ATOM      2  C   UNL     1      25.581  36.847  10.891  1.00  0.00     0.178 C 
ATOM      3  C   UNL     1      26.209  37.067  13.147  1.00  0.00     0.272 C 
ATOM      4  C   UNL     1      24.681  36.934  13.212  1.00  0.00     0.113 C 
ATOM      5  O   UNL     1      26.561  36.709  11.825  1.00  0.00    -0.332 OA
ATOM      6  C   UNL     1      24.363  35.600  12.553  1.00  0.00     0.145 C 
ATOM      7  C   UNL     1      24.377  35.938  11.053  1.00  0.00     0.142 C 
BRANCH   3   8
ATOM      8  O   UNL     1      26.772  36.342  13.998  1.00  0.00    -0.338 OA
BRANCH   8   9
ATOM      9  C   UNL     1      27.322  35.622  14.852  1.00  0.00     0.199 C 
BRANCH   9  10
ATOM     10  C   UNL     1      28.843  35.709  14.981  1.00  0.00     0.179 C 
ATOM     11  C   UNL     1      29.399  33.630  15.795  1.00  0.00     0.282 C 
ATOM     12  O   UNL     1      29.389  34.982  15.983  1.00  0.00    -0.341 OA
ATOM     13  C   UNL     1      30.062  33.227  14.536  1.00  0.00     0.202 C 
ATOM     14  C   UNL     1      30.710  34.501  13.969  1.00  0.00     0.179 C 
ATOM     15  C   UNL     1      29.547  35.428  13.674  1.00  0.00     0.177 C 
BRANCH  11  16
ATOM     16  O   UNL     1      28.228  32.963  16.120  1.00  0.00    -0.341 OA
BRANCH  16  17
ATOM     17  C   UNL     1      28.376  32.049  17.138  1.00  0.00     0.184 C 
ATOM     18  C   UNL     1      27.437  30.905  17.006  1.00  0.00     0.178 C 
ATOM     19  O   UNL     1      27.639  29.965  18.009  1.00  0.00    -0.341 OA
ATOM     20  C   UNL     1      27.952  30.520  19.254  1.00  0.00     0.281 C 
ATOM     21  C   UNL     1      28.078  32.807  18.429  1.00  0.00     0.180 C 
ATOM     22  C   UNL     1      27.336  31.912  19.368  1.00  0.00     0.202 C 
BRANCH  18  23
ATOM     23  C   UNL     1      27.769  30.187  15.699  1.00  0.00     0.191 C 
BRANCH  23  24
ATOM     24  O   UNL     1      29.167  30.015  15.625  1.00  0.00    -0.394 OA
ATOM     25  H   UNL     1      29.498  30.847  15.172  1.00  0.00     0.210 HD
ENDBRANCH  23  24
ENDBRANCH  18  23
BRANCH  20  26
ATOM     26  O   UNL     1      29.325  30.667  19.310  1.00  0.00    -0.350 OA
BRANCH  26  27
ATOM     27  C   UNL     1      30.005  29.796  20.103  1.00  0.00     0.169 C 
BRANCH  27  28
ATOM     28  C   UNL     1      31.279  30.407  20.603  1.00  0.00     0.119 C 
BRANCH  28  29
ATOM     29  N   UNL     1      32.269  29.339  20.746  1.00  0.00    -0.092 NA
ATOM     30  N   UNL     1      31.851  28.164  20.778  1.00  0.00     0.001 N 
ATOM     31  N   UNL     1      31.745  27.007  21.228  1.00  0.00    -0.003 NA
ENDBRANCH  28  29
ENDBRANCH  27  28
ENDBRANCH  26  27
ENDBRANCH  20  26
BRANCH  21  32
ATOM     32  O   UNL     1      29.267  33.223  19.015  1.00  0.00    -0.387 OA
ATOM     33  H   UNL     1      29.640  34.010  18.522  1.00  0.00     0.211 HD
ENDBRANCH  21  32
BRANCH  22  34
ATOM     34  O   UNL     1      25.960  31.862  19.138  1.00  0.00    -0.385 OA
ATOM     35  H   UNL     1      25.586  31.398  19.952  1.00  0.00     0.211 HD
ENDBRANCH  22  34
ENDBRANCH  16  17
ENDBRANCH  11  16
BRANCH  13  36
ATOM     36  O   UNL     1      31.114  32.326  14.716  1.00  0.00    -0.385 OA
ATOM     37  H   UNL     1      30.886  31.498  14.201  1.00  0.00     0.211 HD
ENDBRANCH  13  36
BRANCH  14  38
ATOM     38  O   UNL     1      31.471  34.262  12.852  1.00  0.00    -0.387 OA
ATOM     39  H   UNL     1      32.026  33.437  12.944  1.00  0.00     0.211 HD
ENDBRANCH  14  38
BRANCH  15  40
ATOM     40  O   UNL     1      28.718  34.838  12.746  1.00  0.00    -0.387 OA
ATOM     41  H   UNL     1      29.176  34.478  11.967  1.00  0.00     0.211 HD
ENDBRANCH  15  40
ENDBRANCH   9  10
ENDBRANCH   8   9
ENDBRANCH   3   8
BRANCH   3  42
ATOM     42  C   UNL     1      26.444  38.569  13.280  1.00  0.00     0.364 C 
ATOM     43  O   UNL     1      27.530  39.056  12.936  1.00  0.00    -0.246 OA
BRANCH  42  44
ATOM     44  O   UNL     1      25.463  39.403  13.781  1.00  0.00    -0.477 OA
ATOM     45  H   UNL     1      24.633  39.669  13.234  1.00  0.00     0.296 HD
ENDBRANCH  42  44
ENDBRANCH   3  42
BRANCH   6  46
ATOM     46  O   UNL     1      25.463  34.724  12.692  1.00  0.00    -0.391 OA
ATOM     47  H   UNL     1      25.276  33.977  13.285  1.00  0.00     0.211 HD
ENDBRANCH   6  46
BRANCH   7  48
ATOM     48  N   UNL     1      23.120  36.596  10.782  1.00  0.00    -0.348 N 
ATOM     49  C   UNL     1      22.342  36.215   9.646  1.00  0.00     0.217 C 
ATOM     50  H   UNL     1      22.735  37.358  11.385  1.00  0.00     0.163 HD
ATOM     51  C   UNL     1      21.046  36.939   9.418  1.00  0.00     0.114 C 
ATOM     52  O   UNL     1      22.716  35.308   8.856  1.00  0.00    -0.275 OA
ENDBRANCH   7  48
ENDBRANCH   1   2
BRANCH   1  53
ATOM     53  O   UNL     1      25.384  36.988   8.496  1.00  0.00    -0.388 OA
ATOM     54  H   UNL     1      25.666  37.901   8.206  1.00  0.00     0.211 HD
ENDBRANCH   1  53
BRANCH   1  55
ATOM     55  C   UNL     1      26.517  35.082   9.319  1.00  0.00     0.165 C 
BRANCH  55  56
ATOM     56  O   UNL     1      27.162  34.447  10.357  1.00  0.00    -0.388 OA
ATOM     57  H   UNL     1      26.833  33.529  10.545  1.00  0.00     0.211 HD
ENDBRANCH  55  56
BRANCH  55  58
ATOM     58  C   UNL     1      27.144  34.865   7.985  1.00  0.00     0.154 C 
BRANCH  58  59
ATOM     59  N   UNL     1      27.192  35.998   7.114  1.00  0.00    -0.319 N 
ATOM     60  C   UNL     1      28.284  36.150   6.227  1.00  0.00     0.407 C 
ATOM     61  H   UNL     1      26.447  36.708   7.115  1.00  0.00     0.167 HD
ATOM     62  O   UNL     1      29.189  35.245   6.232  1.00  0.00    -0.225 OA
BRANCH  60  63
ATOM     63  O   UNL     1      28.478  37.198   5.344  1.00  0.00    -0.443 OA
BRANCH  63  64
ATOM     64  C   UNL     1      28.970  38.456   5.835  1.00  0.00     0.294 C 
BRANCH  64  65
ATOM     65  C   UNL     1      27.884  39.128   6.586  1.00  0.00     0.120 A 
ATOM     66  C   UNL     1      26.808  39.855   6.129  1.00  0.00     0.139 A 
ATOM     67  N   UNL     1      27.768  39.162   7.956  1.00  0.00    -0.132 NA
ATOM     68  N   UNL     1      26.088  40.298   7.201  1.00  0.00    -0.237 N 
ATOM     69  N   UNL     1      26.705  39.856   8.258  1.00  0.00    -0.066 NA
BRANCH  68  70
ATOM     70  C   UNL     1      24.893  41.109   7.154  1.00  0.00     0.229 C 
BRANCH  70  71
ATOM     71  C   UNL     1      23.953  40.629   8.246  1.00  0.00     0.161 C 
BRANCH  71  72
ATOM     72  C   UNL     1      22.956  39.675   7.723  1.00  0.00     0.306 C 
ATOM     73  O   UNL     1      23.301  38.547   7.289  1.00  0.00    -0.252 OA
BRANCH  72  74
ATOM     74  O   UNL     1      21.619  40.007   7.701  1.00  0.00    -0.481 OA
ATOM     75  H   UNL     1      21.333  40.923   8.067  1.00  0.00     0.296 HD
ENDBRANCH  72  74
ENDBRANCH  71  72
ENDBRANCH  70  71
BRANCH  70  76
ATOM     76  C   UNL     1      25.255  42.516   7.401  1.00  0.00     0.329 C 
ATOM     77  O   UNL     1      24.931  43.383   6.558  1.00  0.00    -0.250 OA
BRANCH  76  78
ATOM     78  O   UNL     1      25.945  42.933   8.532  1.00  0.00    -0.480 OA
ATOM     79  H   UNL     1      26.926  43.180   8.433  1.00  0.00     0.296 HD
ENDBRANCH  76  78
ENDBRANCH  70  76
ENDBRANCH  68  70
ENDBRANCH  64  65
ENDBRANCH  63  64
ENDBRANCH  60  63
ENDBRANCH  58  59
ENDBRANCH  55  58
ENDBRANCH   1  55
TORSDOF 35
BEGIN_RES LYS A 131
REMARK  4 active torsions:
REMARK  status: ('A' for Active; 'I' for Inactive)
REMARK    1  A    between atoms: CA   and  CB  
REMARK    2  A    between atoms: CB   and  CG  
REMARK    3  A    between atoms: CG   and  CD  
REMARK    4  A    between atoms: CD   and  CE  
ROOT
ATOM      1  CA  LYS A 131      29.867  25.555  16.977  1.00 20.52     0.186 C 
ENDROOT
BRANCH   1   2
ATOM      2  CB  LYS A 131      28.345  25.722  17.026  1.00 20.94     0.034 C 
BRANCH   2   3
ATOM      3  CG  LYS A 131      27.601  24.406  16.859  1.00 22.96     0.005 C 
BRANCH   3   4
ATOM      4  CD  LYS A 131      26.142  24.533  17.203  1.00 24.33     0.041 C 
BRANCH   4   5
ATOM      5  CE  LYS A 131      25.974  24.520  18.719  1.00 26.91     0.338 C 
ATOM      6  NZ  LYS A 131      25.505  23.191  19.177  1.00 27.40     0.618 N 
ENDBRANCH   4   5
ENDBRANCH   3   4
ENDBRANCH   2   3
ENDBRANCH   1   2
END_RES LYS A 131
BEGIN_RES LYS A 135
REMARK  4 active torsions:
REMARK  status: ('A' for Active; 'I' for Inactive)
REMARK    5  A    between atoms: CA   and  CB  
REMARK    6  A    between atoms: CB   and  CG  
REMARK    7  A    between atoms: CG   and  CD  
REMARK    8  A    between atoms: CD   and  CE  
ROOT
ATOM      7  CA  LYS A 135      33.193  34.663   9.290  1.00 25.02     0.186 C 
ENDROOT
BRANCH   7   8
ATOM      8  CB  LYS A 135      32.060  35.360  10.034  1.00 26.63     0.034 C 
BRANCH   8   9
ATOM      9  CG  LYS A 135      30.746  35.327   9.298  1.00 29.45     0.005 C 
BRANCH   9  10
ATOM     10  CD  LYS A 135      30.017  36.655   9.440  1.00 32.00     0.041 C 
BRANCH  10  11
ATOM     11  CE  LYS A 135      30.994  37.764   9.781  1.00 34.25     0.338 C 
ATOM     12  NZ  LYS A 135      31.299  38.596   8.585  1.00 35.99     0.618 N 
ENDBRANCH  10  11
ENDBRANCH   9  10
ENDBRANCH   8   9
ENDBRANCH   7   8
END_RES LYS A 135
