REMARK VINA RESULT:    -4.643      4.766     10.337
REMARK INTER + INTRA:         -25.054
REMARK INTER:                 -11.699
REMARK INTRA:                 -13.355
REMARK UNBOUND:               -12.132
REMARK SMILES CCOCCc1c(-c2ccccc2)nc(N)nc1-n1cc(COC(=O)NC[C@@H](O)C(O)[C@@H]2O[C@@](OC[C@H]3O[C@@H](O[C@H]4[C@H](O)[C@@H](O)[C@H](OCCN=[N+]=[N-])O[C@@H]4CO)[C@H](O)[C@@H](O)[C@H]3O)(C(=O)O)C[C@H](O)[C@H]2NC(C)=O)nn1
REMARK SMILES IDX 30 1 32 2 34 3 66 4 33 5 67 6 69 7 35 8 36 9 37 10 39 11
REMARK SMILES IDX 38 12 57 13 59 14 61 15 40 16 41 17 54 18 53 19 46 20 42 21
REMARK SMILES IDX 44 22 55 23 56 24 47 26 48 27 49 28 50 29 51 30 52 31 43 32
REMARK SMILES IDX 45 34 58 36 60 38 62 40 63 42 64 43 65 44 68 46 70 48 71 49
REMARK SMILES IDX 72 51 73 52 31 53 28 55 29 56 27 58 26 59 24 60 25 62 23 63
REMARK SMILES IDX 22 64 21 65 20 66 74 67 19 68 75 69 18 70 17 71 6 72 15 73
REMARK SMILES IDX 7 74 14 75 5 76 4 77 3 78 2 79 1 80 16 81 8 84 9 85 13 86
REMARK SMILES IDX 10 87 12 88 11 89
REMARK H PARENT 56 25 43 33 45 35 58 37 60 39 62 41 65 45 68 47 70 50 31 54
REMARK H PARENT 29 57 26 61 16 82 16 83
REMARK Flexibility Score: inf
ROOT
ATOM      1  C   UNL     1      19.981  34.616  12.440  1.00  0.00     0.176 C 
ENDROOT
BRANCH   1   2
ATOM      2  C   UNL     1      20.136  35.782  11.510  1.00  0.00     0.178 C 
ATOM      3  C   UNL     1      21.238  36.187   9.485  1.00  0.00     0.272 C 
ATOM      4  C   UNL     1      20.578  37.555   9.668  1.00  0.00     0.113 C 
ATOM      5  O   UNL     1      20.771  35.258  10.344  1.00  0.00    -0.332 OA
ATOM      6  C   UNL     1      20.748  38.092  11.057  1.00  0.00     0.145 C 
ATOM      7  C   UNL     1      20.988  36.910  11.979  1.00  0.00     0.142 C 
BRANCH   3   8
ATOM      8  O   UNL     1      22.599  36.388   9.521  1.00  0.00    -0.338 OA
BRANCH   8   9
ATOM      9  C   UNL     1      23.374  35.335   9.114  1.00  0.00     0.199 C 
BRANCH   9  10
ATOM     10  C   UNL     1      24.745  35.337   9.773  1.00  0.00     0.179 C 
ATOM     11  C   UNL     1      26.226  37.020  10.419  1.00  0.00     0.282 C 
ATOM     12  O   UNL     1      25.347  36.530   9.496  1.00  0.00    -0.341 OA
ATOM     13  C   UNL     1      25.438  37.166  11.727  1.00  0.00     0.202 C 
ATOM     14  C   UNL     1      25.274  35.729  12.221  1.00  0.00     0.179 C 
ATOM     15  C   UNL     1      24.785  34.817  11.152  1.00  0.00     0.177 C 
BRANCH  11  16
ATOM     16  O   UNL     1      26.752  38.215   9.987  1.00  0.00    -0.341 OA
BRANCH  16  17
ATOM     17  C   UNL     1      26.244  38.602   8.757  1.00  0.00     0.184 C 
ATOM     18  C   UNL     1      27.335  38.897   7.785  1.00  0.00     0.178 C 
ATOM     19  O   UNL     1      27.500  40.196   7.423  1.00  0.00    -0.341 OA
ATOM     20  C   UNL     1      26.401  40.945   7.138  1.00  0.00     0.281 C 
ATOM     21  C   UNL     1      25.241  39.708   8.897  1.00  0.00     0.180 C 
ATOM     22  C   UNL     1      25.079  40.407   7.573  1.00  0.00     0.202 C 
BRANCH  18  23
ATOM     23  C   UNL     1      27.288  37.957   6.580  1.00  0.00     0.191 C 
BRANCH  23  24
ATOM     24  O   UNL     1      26.157  37.161   6.604  1.00  0.00    -0.394 OA
ATOM     25  H   UNL     1      25.828  37.143   7.539  1.00  0.00     0.210 HD
ENDBRANCH  23  24
ENDBRANCH  18  23
BRANCH  20  26
ATOM     26  O   UNL     1      26.376  41.155   5.764  1.00  0.00    -0.350 OA
BRANCH  26  27
ATOM     27  C   UNL     1      26.937  42.343   5.363  1.00  0.00     0.169 C 
BRANCH  27  28
ATOM     28  C   UNL     1      27.603  42.286   4.010  1.00  0.00     0.119 C 
BRANCH  28  29
ATOM     29  N   UNL     1      28.525  41.152   3.987  1.00  0.00    -0.092 NA
ATOM     30  N   UNL     1      29.489  41.088   4.759  1.00  0.00     0.001 N 
ATOM     31  N   UNL     1      30.465  41.228   5.494  1.00  0.00    -0.003 NA
ENDBRANCH  28  29
ENDBRANCH  27  28
ENDBRANCH  26  27
ENDBRANCH  20  26
BRANCH  21  32
ATOM     32  O   UNL     1      23.985  39.241   9.296  1.00  0.00    -0.387 OA
ATOM     33  H   UNL     1      23.249  39.721   8.828  1.00  0.00     0.211 HD
ENDBRANCH  21  32
BRANCH  22  34
ATOM     34  O   UNL     1      24.208  41.478   7.767  1.00  0.00    -0.385 OA
ATOM     35  H   UNL     1      24.007  41.630   8.724  1.00  0.00     0.211 HD
ENDBRANCH  22  34
ENDBRANCH  16  17
ENDBRANCH  11  16
BRANCH  13  36
ATOM     36  O   UNL     1      26.105  37.911  12.669  1.00  0.00    -0.385 OA
ATOM     37  H   UNL     1      25.856  37.645  13.596  1.00  0.00     0.211 HD
ENDBRANCH  13  36
BRANCH  14  38
ATOM     38  O   UNL     1      24.602  35.642  13.419  1.00  0.00    -0.387 OA
ATOM     39  H   UNL     1      25.222  35.744  14.203  1.00  0.00     0.211 HD
ENDBRANCH  14  38
BRANCH  15  40
ATOM     40  O   UNL     1      23.488  34.397  11.516  1.00  0.00    -0.387 OA
ATOM     41  H   UNL     1      23.538  33.483  11.895  1.00  0.00     0.211 HD
ENDBRANCH  15  40
ENDBRANCH   9  10
ENDBRANCH   8   9
ENDBRANCH   3   8
BRANCH   3  42
ATOM     42  C   UNL     1      20.836  35.796   8.096  1.00  0.00     0.364 C 
ATOM     43  O   UNL     1      20.865  36.752   7.243  1.00  0.00    -0.246 OA
BRANCH  42  44
ATOM     44  O   UNL     1      20.462  34.545   7.698  1.00  0.00    -0.477 OA
ATOM     45  H   UNL     1      20.944  34.103   6.920  1.00  0.00     0.296 HD
ENDBRANCH  42  44
ENDBRANCH   3  42
BRANCH   6  46
ATOM     46  O   UNL     1      21.851  38.959  11.028  1.00  0.00    -0.391 OA
ATOM     47  H   UNL     1      22.564  38.661  11.627  1.00  0.00     0.211 HD
ENDBRANCH   6  46
BRANCH   7  48
ATOM     48  N   UNL     1      20.871  37.285  13.354  1.00  0.00    -0.348 N 
ATOM     49  C   UNL     1      21.927  37.858  14.110  1.00  0.00     0.217 C 
ATOM     50  H   UNL     1      19.942  37.135  13.804  1.00  0.00     0.163 HD
ATOM     51  C   UNL     1      21.693  38.208  15.525  1.00  0.00     0.114 C 
ATOM     52  O   UNL     1      23.038  38.062  13.576  1.00  0.00    -0.275 OA
ENDBRANCH   7  48
ENDBRANCH   1   2
BRANCH   1  53
ATOM     53  O   UNL     1      21.264  34.468  13.071  1.00  0.00    -0.388 OA
ATOM     54  H   UNL     1      21.899  34.319  12.339  1.00  0.00     0.211 HD
ENDBRANCH   1  53
BRANCH   1  55
ATOM     55  C   UNL     1      19.633  33.298  11.878  1.00  0.00     0.165 C 
BRANCH  55  56
ATOM     56  O   UNL     1      18.376  33.491  11.234  1.00  0.00    -0.388 OA
ATOM     57  H   UNL     1      17.683  33.094  11.798  1.00  0.00     0.211 HD
ENDBRANCH  55  56
BRANCH  55  58
ATOM     58  C   UNL     1      19.509  32.161  12.803  1.00  0.00     0.154 C 
BRANCH  58  59
ATOM     59  N   UNL     1      20.716  31.566  13.230  1.00  0.00    -0.319 N 
ATOM     60  C   UNL     1      21.210  30.311  12.826  1.00  0.00     0.407 C 
ATOM     61  H   UNL     1      21.371  32.068  13.937  1.00  0.00     0.167 HD
ATOM     62  O   UNL     1      20.597  29.577  12.020  1.00  0.00    -0.225 OA
BRANCH  60  63
ATOM     63  O   UNL     1      22.424  29.799  13.296  1.00  0.00    -0.443 OA
BRANCH  63  64
ATOM     64  C   UNL     1      23.668  30.249  12.804  1.00  0.00     0.294 C 
BRANCH  64  65
ATOM     65  C   UNL     1      24.270  31.272  13.691  1.00  0.00     0.121 A 
ATOM     66  C   UNL     1      25.373  31.128  14.491  1.00  0.00     0.146 A 
ATOM     67  N   UNL     1      23.841  32.537  13.906  1.00  0.00    -0.131 NA
ATOM     68  N   UNL     1      25.595  32.309  15.182  1.00  0.00    -0.202 N 
ATOM     69  N   UNL     1      24.647  33.103  14.785  1.00  0.00    -0.060 NA
BRANCH  68  70
ATOM     70  C   UNL     1      26.671  32.378  16.083  1.00  0.00     0.164 A 
ATOM     71  N   UNL     1      26.593  31.676  17.241  1.00  0.00    -0.193 NA
ATOM     72  C   UNL     1      27.868  33.066  15.836  1.00  0.00     0.026 A 
ATOM     73  C   UNL     1      27.583  31.610  18.132  1.00  0.00     0.222 A 
ATOM     74  C   UNL     1      28.895  33.009  16.730  1.00  0.00     0.081 A 
ATOM     75  N   UNL     1      28.715  32.268  17.874  1.00  0.00    -0.213 NA
BRANCH  72  76
ATOM     76  C   UNL     1      27.879  33.915  14.639  1.00  0.00     0.070 C 
BRANCH  76  77
ATOM     77  C   UNL     1      27.705  35.392  14.921  1.00  0.00     0.165 C 
BRANCH  77  78
ATOM     78  O   UNL     1      28.242  36.263  14.023  1.00  0.00    -0.381 OA
BRANCH  78  79
ATOM     79  C   UNL     1      29.554  36.602  14.161  1.00  0.00     0.156 C 
ATOM     80  C   UNL     1      30.406  36.005  13.027  1.00  0.00     0.035 C 
ENDBRANCH  78  79
ENDBRANCH  77  78
ENDBRANCH  76  77
ENDBRANCH  72  76
BRANCH  73  81
ATOM     81  N   UNL     1      27.450  30.857  19.342  1.00  0.00    -0.368 N 
ATOM     82  H   UNL     1      28.290  30.624  19.909  1.00  0.00     0.159 HD
ATOM     83  H   UNL     1      26.539  30.522  19.696  1.00  0.00     0.159 HD
ENDBRANCH  73  81
BRANCH  74  84
ATOM     84  C   UNL     1      30.168  33.667  16.538  1.00  0.00     0.001 A 
ATOM     85  C   UNL     1      31.030  33.151  15.573  1.00  0.00     0.010 A 
ATOM     86  C   UNL     1      30.540  34.791  17.252  1.00  0.00     0.010 A 
ATOM     87  C   UNL     1      32.258  33.744  15.311  1.00  0.00     0.001 A 
ATOM     88  C   UNL     1      31.760  35.362  16.978  1.00  0.00     0.001 A 
ATOM     89  C   UNL     1      32.615  34.861  16.028  1.00  0.00     0.000 A 
ENDBRANCH  74  84
ENDBRANCH  68  70
ENDBRANCH  64  65
ENDBRANCH  63  64
ENDBRANCH  60  63
ENDBRANCH  58  59
ENDBRANCH  55  58
ENDBRANCH   1  55
TORSDOF 36
BEGIN_RES LYS A 131
REMARK  4 active torsions:
REMARK  status: ('A' for Active; 'I' for Inactive)
REMARK    1  A    between atoms: CA   and  CB  
REMARK    2  A    between atoms: CB   and  CG  
REMARK    3  A    between atoms: CG   and  CD  
REMARK    4  A    between atoms: CD   and  CE  
ROOT
ATOM      1  CA  LYS A 131      29.867  25.555  16.977  1.00 20.52     0.186 C 
ENDROOT
BRANCH   1   2
ATOM      2  CB  LYS A 131      28.345  25.722  17.026  1.00 20.94     0.034 C 
BRANCH   2   3
ATOM      3  CG  LYS A 131      27.604  24.394  16.996  1.00 22.96     0.005 C 
BRANCH   3   4
ATOM      4  CD  LYS A 131      26.132  24.561  17.257  1.00 24.33     0.041 C 
BRANCH   4   5
ATOM      5  CE  LYS A 131      25.913  24.922  18.723  1.00 26.91     0.338 C 
ATOM      6  NZ  LYS A 131      25.253  26.244  18.839  1.00 27.40     0.618 N 
ENDBRANCH   4   5
ENDBRANCH   3   4
ENDBRANCH   2   3
ENDBRANCH   1   2
END_RES LYS A 131
BEGIN_RES LYS A 135
REMARK  4 active torsions:
REMARK  status: ('A' for Active; 'I' for Inactive)
REMARK    5  A    between atoms: CA   and  CB  
REMARK    6  A    between atoms: CB   and  CG  
REMARK    7  A    between atoms: CG   and  CD  
REMARK    8  A    between atoms: CD   and  CE  
ROOT
ATOM      7  CA  LYS A 135      33.193  34.663   9.290  1.00 25.02     0.186 C 
ENDROOT
BRANCH   7   8
ATOM      8  CB  LYS A 135      32.060  35.360  10.034  1.00 26.63     0.034 C 
BRANCH   8   9
ATOM      9  CG  LYS A 135      30.772  35.415   9.254  1.00 29.45     0.005 C 
BRANCH   9  10
ATOM     10  CD  LYS A 135      30.186  34.022   9.087  1.00 32.00     0.041 C 
BRANCH  10  11
ATOM     11  CE  LYS A 135      28.687  34.043   9.317  1.00 34.25     0.338 C 
ATOM     12  NZ  LYS A 135      27.975  34.662   8.164  1.00 35.99     0.618 N 
ENDBRANCH  10  11
ENDBRANCH   9  10
ENDBRANCH   8   9
ENDBRANCH   7   8
END_RES LYS A 135
