REMARK VINA RESULT:    -3.730      3.663      8.291
REMARK INTER + INTRA:         -22.582
REMARK INTER:                 -11.547
REMARK INTRA:                 -11.035
REMARK UNBOUND:               -13.184
REMARK SMILES CC(=O)N[C@@H]1[C@@H](O)C[C@](OC[C@H]2O[C@@H](O[C@H]3[C@H](O)[C@@H](O)[C@H](OCCN=[N+]=[N-])O[C@@H]3CO)[C@H](O)[C@@H](O)[C@H]2O)(C(=O)O)O[C@H]1C(O)[C@H](O)CNC(=O)OCc1cn(-c2cc(Cl)ccc2C(=O)N(C)C)nn1
REMARK SMILES IDX 9 1 8 2 6 3 5 4 42 5 41 6 10 7 11 8 12 9 14 10 13 11 32 12
REMARK SMILES IDX 34 13 36 14 15 15 16 16 29 17 28 18 21 19 17 20 19 21 30 22
REMARK SMILES IDX 31 23 22 25 23 26 24 27 25 28 26 29 27 30 18 31 20 33 33 35
REMARK SMILES IDX 35 37 37 39 38 41 39 42 40 43 7 45 43 47 44 48 45 50 46 51
REMARK SMILES IDX 47 53 48 54 49 55 50 57 51 58 52 59 53 60 54 61 69 62 55 63
REMARK SMILES IDX 68 64 56 65 57 66 62 67 58 68 61 69 59 70 60 71 63 72 64 73
REMARK SMILES IDX 65 74 66 75 67 76 4 77 2 78 1 80 3 81
REMARK H PARENT 31 24 18 32 20 34 33 36 35 38 37 40 40 44 7 46 44 49 46 52
REMARK H PARENT 48 56 4 79
REMARK Flexibility Score: inf
ROOT
ATOM      1  C   UNL     1      25.700  36.680  13.514  1.00  0.00     0.272 C 
ATOM      2  C   UNL     1      24.984  35.397  13.709  1.00  0.00     0.113 C 
ATOM      3  C   UNL     1      24.891  34.649  12.404  1.00  0.00     0.145 C 
ATOM      4  C   UNL     1      24.141  35.542  11.445  1.00  0.00     0.142 C 
ATOM      5  C   UNL     1      24.780  36.861  11.320  1.00  0.00     0.178 C 
ATOM      6  O   UNL     1      25.555  37.333  12.330  1.00  0.00    -0.332 OA
ENDROOT
BRANCH   1   7
ATOM      7  O   UNL     1      27.061  36.547  13.735  1.00  0.00    -0.338 OA
BRANCH   7   8
ATOM      8  C   UNL     1      27.901  37.447  13.181  1.00  0.00     0.199 C 
BRANCH   8   9
ATOM      9  C   UNL     1      29.354  37.042  13.475  1.00  0.00     0.179 C 
ATOM     10  C   UNL     1      30.462  35.892  15.139  1.00  0.00     0.282 C 
ATOM     11  O   UNL     1      29.505  36.927  14.826  1.00  0.00    -0.341 OA
ATOM     12  C   UNL     1      31.628  36.081  14.197  1.00  0.00     0.202 C 
ATOM     13  C   UNL     1      31.251  35.723  12.775  1.00  0.00     0.179 C 
ATOM     14  C   UNL     1      29.754  35.923  12.610  1.00  0.00     0.177 C 
BRANCH  10  15
ATOM     15  O   UNL     1      29.800  34.744  15.033  1.00  0.00    -0.341 OA
BRANCH  15  16
ATOM     16  C   UNL     1      29.238  34.109  16.126  1.00  0.00     0.184 C 
ATOM     17  C   UNL     1      29.614  32.667  16.012  1.00  0.00     0.178 C 
ATOM     18  O   UNL     1      29.063  31.939  17.081  1.00  0.00    -0.341 OA
ATOM     19  C   UNL     1      27.688  31.840  16.674  1.00  0.00     0.281 C 
ATOM     20  C   UNL     1      27.739  34.266  16.114  1.00  0.00     0.180 C 
ATOM     21  C   UNL     1      27.056  33.168  16.871  1.00  0.00     0.202 C 
BRANCH  17  22
ATOM     22  C   UNL     1      31.118  32.489  15.997  1.00  0.00     0.191 C 
BRANCH  22  23
ATOM     23  O   UNL     1      31.537  32.403  14.687  1.00  0.00    -0.394 OA
ATOM     24  H   UNL     1      30.917  32.903  14.099  1.00  0.00     0.210 HD
ENDBRANCH  22  23
ENDBRANCH  17  22
BRANCH  19  25
ATOM     25  O   UNL     1      27.122  30.844  17.370  1.00  0.00    -0.350 OA
BRANCH  25  26
ATOM     26  C   UNL     1      26.693  29.759  16.625  1.00  0.00     0.169 C 
BRANCH  26  27
ATOM     27  C   UNL     1      25.202  29.508  16.719  1.00  0.00     0.119 C 
BRANCH  27  28
ATOM     28  N   UNL     1      24.600  29.479  15.404  1.00  0.00    -0.092 NA
ATOM     29  N   UNL     1      24.640  30.466  14.677  1.00  0.00     0.001 N 
ATOM     30  N   UNL     1      24.859  31.525  14.053  1.00  0.00    -0.003 NA
ENDBRANCH  27  28
ENDBRANCH  26  27
ENDBRANCH  25  26
ENDBRANCH  19  25
BRANCH  20  31
ATOM     31  O   UNL     1      27.344  35.472  16.703  1.00  0.00    -0.387 OA
ATOM     32  H   UNL     1      27.492  35.443  17.694  1.00  0.00     0.211 HD
ENDBRANCH  20  31
BRANCH  21  33
ATOM     33  O   UNL     1      25.720  33.118  16.481  1.00  0.00    -0.385 OA
ATOM     34  H   UNL     1      25.091  33.095  17.234  1.00  0.00     0.211 HD
ENDBRANCH  21  33
ENDBRANCH  15  16
ENDBRANCH  10  15
BRANCH  12  35
ATOM     35  O   UNL     1      31.923  37.459  14.203  1.00  0.00    -0.385 OA
ATOM     36  H   UNL     1      31.677  37.880  15.088  1.00  0.00     0.211 HD
ENDBRANCH  12  35
BRANCH  13  37
ATOM     37  O   UNL     1      31.566  34.443  12.404  1.00  0.00    -0.387 OA
ATOM     38  H   UNL     1      30.968  33.759  12.790  1.00  0.00     0.211 HD
ENDBRANCH  13  37
BRANCH  14  39
ATOM     39  O   UNL     1      29.018  34.774  12.651  1.00  0.00    -0.387 OA
ATOM     40  H   UNL     1      28.126  34.833  12.243  1.00  0.00     0.211 HD
ENDBRANCH  14  39
ENDBRANCH   8   9
ENDBRANCH   7   8
ENDBRANCH   1   7
BRANCH   1  41
ATOM     41  C   UNL     1      25.250  37.643  14.629  1.00  0.00     0.364 C 
ATOM     42  O   UNL     1      25.551  37.304  15.796  1.00  0.00    -0.246 OA
BRANCH  41  43
ATOM     43  O   UNL     1      24.567  38.795  14.397  1.00  0.00    -0.477 OA
ATOM     44  H   UNL     1      24.614  39.622  14.949  1.00  0.00     0.296 HD
ENDBRANCH  41  43
ENDBRANCH   1  41
BRANCH   3  45
ATOM     45  O   UNL     1      26.137  34.273  11.991  1.00  0.00    -0.391 OA
ATOM     46  H   UNL     1      26.271  34.100  11.054  1.00  0.00     0.211 HD
ENDBRANCH   3  45
BRANCH   5  47
ATOM     47  C   UNL     1      25.574  37.083  10.039  1.00  0.00     0.176 C 
BRANCH  47  48
ATOM     48  O   UNL     1      26.920  36.881  10.157  1.00  0.00    -0.388 OA
ATOM     49  H   UNL     1      27.481  37.682   9.982  1.00  0.00     0.211 HD
ENDBRANCH  47  48
BRANCH  47  50
ATOM     50  C   UNL     1      25.046  36.411   8.826  1.00  0.00     0.165 C 
BRANCH  50  51
ATOM     51  O   UNL     1      26.009  36.326   7.793  1.00  0.00    -0.388 OA
ATOM     52  H   UNL     1      25.721  36.829   6.995  1.00  0.00     0.211 HD
ENDBRANCH  50  51
BRANCH  50  53
ATOM     53  C   UNL     1      23.998  37.377   8.226  1.00  0.00     0.154 C 
BRANCH  53  54
ATOM     54  N   UNL     1      24.596  38.184   7.200  1.00  0.00    -0.319 N 
ATOM     55  C   UNL     1      24.696  39.583   7.329  1.00  0.00     0.407 C 
ATOM     56  H   UNL     1      24.984  37.753   6.309  1.00  0.00     0.167 HD
ATOM     57  O   UNL     1      24.284  40.167   8.358  1.00  0.00    -0.225 OA
BRANCH  55  58
ATOM     58  O   UNL     1      25.256  40.366   6.312  1.00  0.00    -0.443 OA
BRANCH  58  59
ATOM     59  C   UNL     1      26.568  40.167   5.864  1.00  0.00     0.294 C 
BRANCH  59  60
ATOM     60  C   UNL     1      27.447  39.681   6.971  1.00  0.00     0.121 A 
ATOM     61  C   UNL     1      28.118  40.528   7.876  1.00  0.00     0.144 A 
ATOM     62  N   UNL     1      27.771  38.450   7.335  1.00  0.00    -0.131 NA
ATOM     63  N   UNL     1      28.804  39.781   8.730  1.00  0.00    -0.219 N 
ATOM     64  N   UNL     1      28.570  38.512   8.369  1.00  0.00    -0.062 NA
BRANCH  63  65
ATOM     65  C   UNL     1      29.637  40.104   9.827  1.00  0.00     0.081 A 
ATOM     66  C   UNL     1      29.065  40.261  11.096  1.00  0.00     0.049 A 
ATOM     67  C   UNL     1      30.984  40.313   9.752  1.00  0.00     0.065 A 
ATOM     68  C   UNL     1      29.813  40.603  12.175  1.00  0.00     0.043 A 
ATOM     69  C   UNL     1      31.761  40.668  10.870  1.00  0.00     0.017 A 
ATOM     70  Cl  UNL     1      29.032  40.785  13.740  1.00  0.00    -0.084 Cl
ATOM     71  C   UNL     1      31.163  40.814  12.098  1.00  0.00     0.021 A 
BRANCH  67  72
ATOM     72  C   UNL     1      31.721  40.132   8.498  1.00  0.00     0.255 C 
ATOM     73  O   UNL     1      32.189  39.005   8.237  1.00  0.00    -0.269 OA
ATOM     74  N   UNL     1      31.892  41.204   7.618  1.00  0.00    -0.345 N 
ATOM     75  C   UNL     1      31.340  42.518   7.937  1.00  0.00     0.146 C 
ATOM     76  C   UNL     1      32.613  41.049   6.357  1.00  0.00     0.146 C 
ENDBRANCH  67  72
ENDBRANCH  63  65
ENDBRANCH  59  60
ENDBRANCH  58  59
ENDBRANCH  55  58
ENDBRANCH  53  54
ENDBRANCH  50  53
ENDBRANCH  47  50
ENDBRANCH   5  47
BRANCH   4  77
ATOM     77  N   UNL     1      22.763  35.613  11.942  1.00  0.00    -0.348 N 
ATOM     78  C   UNL     1      21.643  35.483  11.095  1.00  0.00     0.217 C 
ATOM     79  H   UNL     1      22.590  35.767  12.955  1.00  0.00     0.163 HD
ATOM     80  C   UNL     1      20.248  35.555  11.590  1.00  0.00     0.114 C 
ATOM     81  O   UNL     1      21.835  35.297   9.864  1.00  0.00    -0.275 OA
ENDBRANCH   4  77
TORSDOF 31
BEGIN_RES LYS A 131
REMARK  4 active torsions:
REMARK  status: ('A' for Active; 'I' for Inactive)
REMARK    1  A    between atoms: CA   and  CB  
REMARK    2  A    between atoms: CB   and  CG  
REMARK    3  A    between atoms: CG   and  CD  
REMARK    4  A    between atoms: CD   and  CE  
ROOT
ATOM      1  CA  LYS A 131      29.867  25.555  16.977  1.00 20.52     0.186 C 
ENDROOT
BRANCH   1   2
ATOM      2  CB  LYS A 131      28.345  25.722  17.026  1.00 20.94     0.034 C 
BRANCH   2   3
ATOM      3  CG  LYS A 131      27.848  26.221  18.374  1.00 22.96     0.005 C 
BRANCH   3   4
ATOM      4  CD  LYS A 131      26.348  26.282  18.438  1.00 24.33     0.041 C 
BRANCH   4   5
ATOM      5  CE  LYS A 131      25.841  25.278  19.468  1.00 26.91     0.338 C 
ATOM      6  NZ  LYS A 131      25.858  23.906  18.908  1.00 27.40     0.618 N 
ENDBRANCH   4   5
ENDBRANCH   3   4
ENDBRANCH   2   3
ENDBRANCH   1   2
END_RES LYS A 131
BEGIN_RES LYS A 135
REMARK  4 active torsions:
REMARK  status: ('A' for Active; 'I' for Inactive)
REMARK    5  A    between atoms: CA   and  CB  
REMARK    6  A    between atoms: CB   and  CG  
REMARK    7  A    between atoms: CG   and  CD  
REMARK    8  A    between atoms: CD   and  CE  
ROOT
ATOM      7  CA  LYS A 135      33.193  34.663   9.290  1.00 25.02     0.186 C 
ENDROOT
BRANCH   7   8
ATOM      8  CB  LYS A 135      32.060  35.360  10.034  1.00 26.63     0.034 C 
BRANCH   8   9
ATOM      9  CG  LYS A 135      30.806  35.515   9.213  1.00 29.45     0.005 C 
BRANCH   9  10
ATOM     10  CD  LYS A 135      30.071  34.188   9.100  1.00 32.00     0.041 C 
BRANCH  10  11
ATOM     11  CE  LYS A 135      28.696  34.390   8.493  1.00 34.25     0.338 C 
ATOM     12  NZ  LYS A 135      27.654  33.668   9.274  1.00 35.99     0.618 N 
ENDBRANCH  10  11
ENDBRANCH   9  10
ENDBRANCH   8   9
ENDBRANCH   7   8
END_RES LYS A 135
