REMARK VINA RESULT:    -4.258      5.479     10.777
REMARK INTER + INTRA:         -22.346
REMARK INTER:                 -12.070
REMARK INTRA:                 -10.276
REMARK UNBOUND:               -11.119
REMARK SMILES CC(=O)N[C@@H]1[C@@H](O)C[C@](OC[C@H]2O[C@@H](O[C@H]3[C@H](O)[C@@H](O)[C@H](OCCN=[N+]=[N-])O[C@@H]3CO)[C@H](O)[C@@H](O)[C@H]2O)(C(=O)O)O[C@H]1C(O)[C@H](O)CNC(=O)OCc1cn(CC(O)CO)nn1
REMARK SMILES IDX 43 1 42 2 9 3 8 4 41 5 6 6 5 7 10 8 11 9 12 10 14 11 13 12
REMARK SMILES IDX 32 13 34 14 36 15 15 16 16 17 29 18 28 19 21 20 17 21 19 22
REMARK SMILES IDX 30 23 31 24 22 26 23 27 24 28 25 29 26 30 27 31 18 32 20 34
REMARK SMILES IDX 33 36 35 38 37 40 38 42 39 43 40 44 7 46 4 48 2 49 1 51 3 52
REMARK SMILES IDX 44 53 45 55 46 56 47 58 48 59 49 60 50 62 51 63 52 64 53 65
REMARK SMILES IDX 54 66 62 67 55 68 61 69 56 70 57 71 58 72 59 74 60 75
REMARK H PARENT 31 25 18 33 20 35 33 37 35 39 37 41 40 45 7 47 4 50 44 54
REMARK H PARENT 46 57 48 61 58 73 60 76
REMARK Flexibility Score: inf
ROOT
ATOM      1  C   UNL     1      31.520  29.612  20.492  1.00  0.00     0.176 C 
ENDROOT
BRANCH   1   2
ATOM      2  C   UNL     1      29.994  29.480  20.652  1.00  0.00     0.178 C 
ATOM      3  C   UNL     1      27.965  29.588  19.447  1.00  0.00     0.272 C 
ATOM      4  C   UNL     1      27.385  30.525  20.470  1.00  0.00     0.113 C 
ATOM      5  O   UNL     1      29.364  29.669  19.496  1.00  0.00    -0.332 OA
ATOM      6  C   UNL     1      28.326  31.144  21.433  1.00  0.00     0.145 C 
ATOM      7  C   UNL     1      29.555  30.376  21.749  1.00  0.00     0.142 C 
BRANCH   3   8
ATOM      8  O   UNL     1      27.586  29.924  18.232  1.00  0.00    -0.338 OA
BRANCH   8   9
ATOM      9  C   UNL     1      27.264  30.883  17.472  1.00  0.00     0.199 C 
BRANCH   9  10
ATOM     10  C   UNL     1      28.223  31.783  16.764  1.00  0.00     0.179 C 
ATOM     11  C   UNL     1      29.553  33.608  17.131  1.00  0.00     0.282 C 
ATOM     12  O   UNL     1      29.010  32.488  17.753  1.00  0.00    -0.341 OA
ATOM     13  C   UNL     1      29.729  33.493  15.656  1.00  0.00     0.202 C 
ATOM     14  C   UNL     1      29.991  32.111  15.141  1.00  0.00     0.179 C 
ATOM     15  C   UNL     1      29.329  31.048  16.004  1.00  0.00     0.177 C 
BRANCH  11  16
ATOM     16  O   UNL     1      30.725  34.065  17.697  1.00  0.00    -0.341 OA
BRANCH  16  17
ATOM     17  C   UNL     1      31.229  35.220  17.102  1.00  0.00     0.184 C 
ATOM     18  C   UNL     1      32.572  34.928  16.504  1.00  0.00     0.178 C 
ATOM     19  O   UNL     1      33.604  35.640  17.095  1.00  0.00    -0.341 OA
ATOM     20  C   UNL     1      33.470  35.652  18.494  1.00  0.00     0.281 C 
ATOM     21  C   UNL     1      31.174  36.347  18.047  1.00  0.00     0.180 C 
ATOM     22  C   UNL     1      32.420  36.697  18.784  1.00  0.00     0.202 C 
BRANCH  18  23
ATOM     23  C   UNL     1      32.610  35.219  15.017  1.00  0.00     0.191 C 
BRANCH  23  24
ATOM     24  O   UNL     1      33.024  34.114  14.286  1.00  0.00    -0.394 OA
ATOM     25  H   UNL     1      32.759  33.299  14.821  1.00  0.00     0.210 HD
ENDBRANCH  23  24
ENDBRANCH  18  23
BRANCH  20  26
ATOM     26  O   UNL     1      34.705  36.028  18.997  1.00  0.00    -0.350 OA
BRANCH  26  27
ATOM     27  C   UNL     1      35.339  37.023  18.269  1.00  0.00     0.169 C 
BRANCH  27  28
ATOM     28  C   UNL     1      36.712  37.363  18.804  1.00  0.00     0.119 C 
BRANCH  28  29
ATOM     29  N   UNL     1      37.744  36.535  18.240  1.00  0.00    -0.092 NA
ATOM     30  N   UNL     1      37.674  35.941  17.170  1.00  0.00     0.001 N 
ATOM     31  N   UNL     1      37.434  35.326  16.132  1.00  0.00    -0.003 NA
ENDBRANCH  28  29
ENDBRANCH  27  28
ENDBRANCH  26  27
ENDBRANCH  20  26
BRANCH  21  32
ATOM     32  O   UNL     1      30.694  37.529  17.430  1.00  0.00    -0.387 OA
ATOM     33  H   UNL     1      30.215  38.012  18.178  1.00  0.00     0.211 HD
ENDBRANCH  21  32
BRANCH  22  34
ATOM     34  O   UNL     1      32.232  36.880  20.151  1.00  0.00    -0.385 OA
ATOM     35  H   UNL     1      32.774  37.595  20.523  1.00  0.00     0.211 HD
ENDBRANCH  22  34
ENDBRANCH  16  17
ENDBRANCH  11  16
BRANCH  13  36
ATOM     36  O   UNL     1      28.701  34.157  14.945  1.00  0.00    -0.385 OA
ATOM     37  H   UNL     1      27.824  33.754  15.081  1.00  0.00     0.211 HD
ENDBRANCH  13  36
BRANCH  14  38
ATOM     38  O   UNL     1      31.343  31.832  14.959  1.00  0.00    -0.387 OA
ATOM     39  H   UNL     1      31.694  32.398  14.230  1.00  0.00     0.211 HD
ENDBRANCH  14  38
BRANCH  15  40
ATOM     40  O   UNL     1      30.290  30.676  16.983  1.00  0.00    -0.387 OA
ATOM     41  H   UNL     1      29.922  29.983  17.583  1.00  0.00     0.211 HD
ENDBRANCH  15  40
ENDBRANCH   9  10
ENDBRANCH   8   9
ENDBRANCH   3   8
BRANCH   3  42
ATOM     42  C   UNL     1      27.597  28.165  19.751  1.00  0.00     0.364 C 
ATOM     43  O   UNL     1      26.661  27.994  20.592  1.00  0.00    -0.246 OA
BRANCH  42  44
ATOM     44  O   UNL     1      28.210  27.081  19.179  1.00  0.00    -0.477 OA
ATOM     45  H   UNL     1      27.847  26.129  19.294  1.00  0.00     0.296 HD
ENDBRANCH  42  44
ENDBRANCH   3  42
BRANCH   6  46
ATOM     46  O   UNL     1      28.715  32.392  20.888  1.00  0.00    -0.391 OA
ATOM     47  H   UNL     1      28.269  33.112  21.376  1.00  0.00     0.211 HD
ENDBRANCH   6  46
BRANCH   7  48
ATOM     48  N   UNL     1      29.376  29.690  23.026  1.00  0.00    -0.348 N 
ATOM     49  C   UNL     1      30.114  30.048  24.182  1.00  0.00     0.217 C 
ATOM     50  H   UNL     1      28.698  28.909  23.133  1.00  0.00     0.163 HD
ATOM     51  C   UNL     1      29.937  29.353  25.483  1.00  0.00     0.114 C 
ATOM     52  O   UNL     1      30.940  30.989  24.076  1.00  0.00    -0.275 OA
ENDBRANCH   7  48
ENDBRANCH   1   2
BRANCH   1  53
ATOM     53  O   UNL     1      31.999  30.507  21.429  1.00  0.00    -0.388 OA
ATOM     54  H   UNL     1      32.139  31.398  21.021  1.00  0.00     0.211 HD
ENDBRANCH   1  53
BRANCH   1  55
ATOM     55  C   UNL     1      32.181  28.258  20.692  1.00  0.00     0.165 C 
BRANCH  55  56
ATOM     56  O   UNL     1      31.288  27.333  20.096  1.00  0.00    -0.388 OA
ATOM     57  H   UNL     1      31.273  27.474  19.118  1.00  0.00     0.211 HD
ENDBRANCH  55  56
BRANCH  55  58
ATOM     58  C   UNL     1      32.366  27.879  22.121  1.00  0.00     0.154 C 
BRANCH  58  59
ATOM     59  N   UNL     1      33.510  28.534  22.718  1.00  0.00    -0.319 N 
ATOM     60  C   UNL     1      34.346  27.845  23.626  1.00  0.00     0.407 C 
ATOM     61  H   UNL     1      33.760  29.538  22.497  1.00  0.00     0.167 HD
ATOM     62  O   UNL     1      34.128  26.657  23.960  1.00  0.00    -0.225 OA
BRANCH  60  63
ATOM     63  O   UNL     1      35.451  28.456  24.184  1.00  0.00    -0.443 OA
BRANCH  63  64
ATOM     64  C   UNL     1      36.673  28.711  23.585  1.00  0.00     0.294 C 
BRANCH  64  65
ATOM     65  C   UNL     1      36.767  29.983  22.834  1.00  0.00     0.120 A 
ATOM     66  C   UNL     1      37.931  30.552  22.401  1.00  0.00     0.138 A 
ATOM     67  N   UNL     1      35.723  30.786  22.469  1.00  0.00    -0.132 NA
ATOM     68  N   UNL     1      37.575  31.691  21.781  1.00  0.00    -0.249 N 
ATOM     69  N   UNL     1      36.271  31.812  21.831  1.00  0.00    -0.067 NA
BRANCH  68  70
ATOM     70  C   UNL     1      38.463  32.651  21.160  1.00  0.00     0.180 C 
BRANCH  70  71
ATOM     71  C   UNL     1      37.923  32.907  19.746  1.00  0.00     0.161 C 
BRANCH  71  72
ATOM     72  O   UNL     1      37.124  34.022  19.812  1.00  0.00    -0.389 OA
ATOM     73  H   UNL     1      36.903  34.274  20.742  1.00  0.00     0.211 HD
ENDBRANCH  71  72
BRANCH  71  74
ATOM     74  C   UNL     1      39.077  33.098  18.791  1.00  0.00     0.189 C 
BRANCH  74  75
ATOM     75  O   UNL     1      38.728  32.662  17.532  1.00  0.00    -0.394 OA
ATOM     76  H   UNL     1      38.797  31.673  17.494  1.00  0.00     0.210 HD
ENDBRANCH  74  75
ENDBRANCH  71  74
ENDBRANCH  70  71
ENDBRANCH  68  70
ENDBRANCH  64  65
ENDBRANCH  63  64
ENDBRANCH  60  63
ENDBRANCH  58  59
ENDBRANCH  55  58
ENDBRANCH   1  55
TORSDOF 34
BEGIN_RES LYS A 131
REMARK  4 active torsions:
REMARK  status: ('A' for Active; 'I' for Inactive)
REMARK    1  A    between atoms: CA   and  CB  
REMARK    2  A    between atoms: CB   and  CG  
REMARK    3  A    between atoms: CG   and  CD  
REMARK    4  A    between atoms: CD   and  CE  
ROOT
ATOM      1  CA  LYS A 131      29.867  25.555  16.977  1.00 20.52     0.186 C 
ENDROOT
BRANCH   1   2
ATOM      2  CB  LYS A 131      28.345  25.722  17.026  1.00 20.94     0.034 C 
BRANCH   2   3
ATOM      3  CG  LYS A 131      27.602  24.400  16.914  1.00 22.96     0.005 C 
BRANCH   3   4
ATOM      4  CD  LYS A 131      26.163  24.522  17.333  1.00 24.33     0.041 C 
BRANCH   4   5
ATOM      5  CE  LYS A 131      25.808  23.374  18.273  1.00 26.91     0.338 C 
ATOM      6  NZ  LYS A 131      24.841  22.455  17.628  1.00 27.40     0.618 N 
ENDBRANCH   4   5
ENDBRANCH   3   4
ENDBRANCH   2   3
ENDBRANCH   1   2
END_RES LYS A 131
BEGIN_RES LYS A 135
REMARK  4 active torsions:
REMARK  status: ('A' for Active; 'I' for Inactive)
REMARK    5  A    between atoms: CA   and  CB  
REMARK    6  A    between atoms: CB   and  CG  
REMARK    7  A    between atoms: CG   and  CD  
REMARK    8  A    between atoms: CD   and  CE  
ROOT
ATOM      7  CA  LYS A 135      33.193  34.663   9.290  1.00 25.02     0.186 C 
ENDROOT
BRANCH   7   8
ATOM      8  CB  LYS A 135      32.060  35.360  10.034  1.00 26.63     0.034 C 
BRANCH   8   9
ATOM      9  CG  LYS A 135      30.708  34.740   9.790  1.00 29.45     0.005 C 
BRANCH   9  10
ATOM     10  CD  LYS A 135      30.481  34.514   8.304  1.00 32.00     0.041 C 
BRANCH  10  11
ATOM     11  CE  LYS A 135      29.062  34.885   7.919  1.00 34.25     0.338 C 
ATOM     12  NZ  LYS A 135      28.076  34.277   8.855  1.00 35.99     0.618 N 
ENDBRANCH  10  11
ENDBRANCH   9  10
ENDBRANCH   8   9
ENDBRANCH   7   8
END_RES LYS A 135
