REMARK VINA RESULT:    -4.859      4.378      9.292
REMARK INTER + INTRA:         -23.779
REMARK INTER:                 -13.706
REMARK INTRA:                 -10.073
REMARK UNBOUND:               -10.398
REMARK SMILES CC(=O)N[C@@H]1[C@@H](O)C[C@](OC[C@H]2O[C@@H](O[C@H]3[C@H](O)[C@@H](O)[C@H](OCCN=[N+]=[N-])O[C@@H]3CO)[C@H](O)[C@@H](O)[C@H]2O)(C(=O)O)O[C@H]1C(O)[C@H](O)CNC(=O)OCc1cn([C@@H](CCC(=O)O)C(=O)O)nn1
REMARK SMILES IDX 43 1 42 2 9 3 8 4 41 5 6 6 5 7 10 8 11 9 12 10 14 11 13 12
REMARK SMILES IDX 32 13 34 14 36 15 15 16 16 17 29 18 28 19 21 20 17 21 19 22
REMARK SMILES IDX 30 23 31 24 22 26 23 27 24 28 25 29 26 30 27 31 18 32 20 34
REMARK SMILES IDX 33 36 35 38 37 40 38 42 39 43 40 44 7 46 4 48 2 49 1 51 3 52
REMARK SMILES IDX 44 53 45 55 46 56 47 58 48 59 49 60 50 62 51 63 52 64 53 65
REMARK SMILES IDX 54 66 66 67 55 68 65 69 56 70 57 71 58 72 59 73 60 74 61 75
REMARK SMILES IDX 62 77 63 78 64 79
REMARK H PARENT 31 25 18 33 20 35 33 37 35 39 37 41 40 45 7 47 4 50 44 54
REMARK H PARENT 46 57 48 61 61 76 64 80
REMARK Flexibility Score: inf
ROOT
ATOM      1  C   UNL     1      27.988  34.770  15.124  1.00  0.00     0.176 C 
ENDROOT
BRANCH   1   2
ATOM      2  C   UNL     1      29.431  34.285  15.272  1.00  0.00     0.178 C 
ATOM      3  C   UNL     1      30.660  33.269  17.004  1.00  0.00     0.272 C 
ATOM      4  C   UNL     1      31.664  34.347  17.093  1.00  0.00     0.113 C 
ATOM      5  O   UNL     1      29.467  33.915  16.616  1.00  0.00    -0.332 OA
ATOM      6  C   UNL     1      31.241  35.585  16.351  1.00  0.00     0.145 C 
ATOM      7  C   UNL     1      30.436  35.391  15.116  1.00  0.00     0.142 C 
BRANCH   3   8
ATOM      8  O   UNL     1      30.400  32.708  18.238  1.00  0.00    -0.338 OA
BRANCH   8   9
ATOM      9  C   UNL     1      29.571  33.182  19.130  1.00  0.00     0.199 C 
BRANCH   9  10
ATOM     10  C   UNL     1      28.667  32.329  19.977  1.00  0.00     0.179 C 
ATOM     11  C   UNL     1      27.232  30.569  19.443  1.00  0.00     0.282 C 
ATOM     12  O   UNL     1      27.566  31.891  19.300  1.00  0.00    -0.341 OA
ATOM     13  C   UNL     1      28.396  29.726  18.971  1.00  0.00     0.202 C 
ATOM     14  C   UNL     1      29.558  29.961  19.882  1.00  0.00     0.179 C 
ATOM     15  C   UNL     1      29.459  31.222  20.663  1.00  0.00     0.177 C 
BRANCH  11  16
ATOM     16  O   UNL     1      26.131  30.300  18.626  1.00  0.00    -0.341 OA
BRANCH  16  17
ATOM     17  C   UNL     1      25.831  31.276  17.710  1.00  0.00     0.184 C 
ATOM     18  C   UNL     1      24.348  31.632  17.733  1.00  0.00     0.178 C 
ATOM     19  O   UNL     1      23.795  31.356  16.484  1.00  0.00    -0.341 OA
ATOM     20  C   UNL     1      23.749  29.948  16.281  1.00  0.00     0.281 C 
ATOM     21  C   UNL     1      26.131  30.711  16.336  1.00  0.00     0.180 C 
ATOM     22  C   UNL     1      25.176  29.515  16.136  1.00  0.00     0.202 C 
BRANCH  18  23
ATOM     23  C   UNL     1      24.191  33.123  17.975  1.00  0.00     0.191 C 
BRANCH  23  24
ATOM     24  O   UNL     1      24.457  33.864  16.839  1.00  0.00    -0.394 OA
ATOM     25  H   UNL     1      25.120  34.583  17.010  1.00  0.00     0.210 HD
ENDBRANCH  23  24
ENDBRANCH  18  23
BRANCH  20  26
ATOM     26  O   UNL     1      22.939  29.727  15.205  1.00  0.00    -0.350 OA
BRANCH  26  27
ATOM     27  C   UNL     1      23.561  29.274  14.075  1.00  0.00     0.169 C 
BRANCH  27  28
ATOM     28  C   UNL     1      23.474  30.222  12.896  1.00  0.00     0.119 C 
BRANCH  28  29
ATOM     29  N   UNL     1      22.132  30.299  12.352  1.00  0.00    -0.092 NA
ATOM     30  N   UNL     1      21.378  31.250  12.524  1.00  0.00     0.001 N 
ATOM     31  N   UNL     1      20.782  32.303  12.596  1.00  0.00    -0.003 NA
ENDBRANCH  28  29
ENDBRANCH  27  28
ENDBRANCH  26  27
ENDBRANCH  20  26
BRANCH  21  32
ATOM     32  O   UNL     1      25.959  31.645  15.322  1.00  0.00    -0.387 OA
ATOM     33  H   UNL     1      26.586  32.429  15.409  1.00  0.00     0.211 HD
ENDBRANCH  21  32
BRANCH  22  34
ATOM     34  O   UNL     1      25.461  28.671  17.238  1.00  0.00    -0.385 OA
ATOM     35  H   UNL     1      25.076  27.781  17.034  1.00  0.00     0.211 HD
ENDBRANCH  22  34
ENDBRANCH  16  17
ENDBRANCH  11  16
BRANCH  13  36
ATOM     36  O   UNL     1      28.048  28.374  18.954  1.00  0.00    -0.385 OA
ATOM     37  H   UNL     1      28.535  27.958  19.734  1.00  0.00     0.211 HD
ENDBRANCH  13  36
BRANCH  14  38
ATOM     38  O   UNL     1      30.781  29.902  19.207  1.00  0.00    -0.387 OA
ATOM     39  H   UNL     1      31.509  29.718  19.871  1.00  0.00     0.211 HD
ENDBRANCH  14  38
BRANCH  15  40
ATOM     40  O   UNL     1      30.765  31.676  20.861  1.00  0.00    -0.387 OA
ATOM     41  H   UNL     1      30.778  32.643  21.044  1.00  0.00     0.211 HD
ENDBRANCH  15  40
ENDBRANCH   9  10
ENDBRANCH   8   9
ENDBRANCH   3   8
BRANCH   3  42
ATOM     42  C   UNL     1      30.901  32.174  16.073  1.00  0.00     0.364 C 
ATOM     43  O   UNL     1      30.364  31.035  16.334  1.00  0.00    -0.246 OA
BRANCH  42  44
ATOM     44  O   UNL     1      31.650  32.177  14.912  1.00  0.00    -0.477 OA
ATOM     45  H   UNL     1      31.265  31.931  14.030  1.00  0.00     0.296 HD
ENDBRANCH  42  44
ENDBRANCH   3  42
BRANCH   6  46
ATOM     46  O   UNL     1      30.415  36.327  17.241  1.00  0.00    -0.391 OA
ATOM     47  H   UNL     1      29.854  36.976  16.745  1.00  0.00     0.211 HD
ENDBRANCH   6  46
BRANCH   7  48
ATOM     48  N   UNL     1      31.339  35.321  14.021  1.00  0.00    -0.348 N 
ATOM     49  C   UNL     1      31.733  36.437  13.242  1.00  0.00     0.217 C 
ATOM     50  H   UNL     1      31.784  34.425  13.743  1.00  0.00     0.163 HD
ATOM     51  C   UNL     1      32.691  36.289  12.090  1.00  0.00     0.114 C 
ATOM     52  O   UNL     1      31.297  37.558  13.492  1.00  0.00    -0.275 OA
ENDBRANCH   7  48
ENDBRANCH   1   2
BRANCH   1  53
ATOM     53  O   UNL     1      27.220  34.249  16.158  1.00  0.00    -0.388 OA
ATOM     54  H   UNL     1      27.709  33.505  16.602  1.00  0.00     0.211 HD
ENDBRANCH   1  53
BRANCH   1  55
ATOM     55  C   UNL     1      27.348  34.568  13.831  1.00  0.00     0.165 C 
BRANCH  55  56
ATOM     56  O   UNL     1      27.908  35.500  12.907  1.00  0.00    -0.388 OA
ATOM     57  H   UNL     1      28.747  35.839  13.300  1.00  0.00     0.211 HD
ENDBRANCH  55  56
BRANCH  55  58
ATOM     58  C   UNL     1      25.866  34.775  13.732  1.00  0.00     0.154 C 
BRANCH  58  59
ATOM     59  N   UNL     1      25.462  35.448  12.521  1.00  0.00    -0.319 N 
ATOM     60  C   UNL     1      24.315  35.082  11.757  1.00  0.00     0.407 C 
ATOM     61  H   UNL     1      26.032  36.233  12.168  1.00  0.00     0.167 HD
ATOM     62  O   UNL     1      23.595  34.148  12.109  1.00  0.00    -0.225 OA
BRANCH  60  63
ATOM     63  O   UNL     1      24.039  35.799  10.620  1.00  0.00    -0.443 OA
BRANCH  63  64
ATOM     64  C   UNL     1      24.568  35.498   9.362  1.00  0.00     0.294 C 
BRANCH  64  65
ATOM     65  C   UNL     1      25.651  36.458   9.034  1.00  0.00     0.120 A 
ATOM     66  C   UNL     1      25.965  37.038   7.823  1.00  0.00     0.139 A 
ATOM     67  N   UNL     1      26.574  36.934   9.911  1.00  0.00    -0.132 NA
ATOM     68  N   UNL     1      27.055  37.842   7.990  1.00  0.00    -0.238 N 
ATOM     69  N   UNL     1      27.392  37.748   9.277  1.00  0.00    -0.066 NA
BRANCH  68  70
ATOM     70  C   UNL     1      27.681  38.634   6.996  1.00  0.00     0.219 C 
BRANCH  70  71
ATOM     71  C   UNL     1      28.827  39.501   7.364  1.00  0.00     0.051 C 
BRANCH  71  72
ATOM     72  C   UNL     1      29.277  40.558   6.444  1.00  0.00     0.125 C 
BRANCH  72  73
ATOM     73  C   UNL     1      30.621  40.521   5.907  1.00  0.00     0.303 C 
ATOM     74  O   UNL     1      31.352  41.470   5.575  1.00  0.00    -0.252 OA
BRANCH  73  75
ATOM     75  O   UNL     1      31.243  39.248   5.710  1.00  0.00    -0.481 OA
ATOM     76  H   UNL     1      31.397  38.652   6.509  1.00  0.00     0.296 HD
ENDBRANCH  73  75
ENDBRANCH  72  73
ENDBRANCH  71  72
ENDBRANCH  70  71
BRANCH  70  77
ATOM     77  C   UNL     1      28.114  37.738   5.878  1.00  0.00     0.328 C 
ATOM     78  O   UNL     1      29.095  36.983   6.018  1.00  0.00    -0.250 OA
BRANCH  77  79
ATOM     79  O   UNL     1      27.453  37.714   4.663  1.00  0.00    -0.480 OA
ATOM     80  H   UNL     1      26.777  36.983   4.434  1.00  0.00     0.296 HD
ENDBRANCH  77  79
ENDBRANCH  70  77
ENDBRANCH  68  70
ENDBRANCH  64  65
ENDBRANCH  63  64
ENDBRANCH  60  63
ENDBRANCH  58  59
ENDBRANCH  55  58
ENDBRANCH   1  55
TORSDOF 36
BEGIN_RES LYS A 131
REMARK  4 active torsions:
REMARK  status: ('A' for Active; 'I' for Inactive)
REMARK    1  A    between atoms: CA   and  CB  
REMARK    2  A    between atoms: CB   and  CG  
REMARK    3  A    between atoms: CG   and  CD  
REMARK    4  A    between atoms: CD   and  CE  
ROOT
ATOM      1  CA  LYS A 131      29.867  25.555  16.977  1.00 20.52     0.186 C 
ENDROOT
BRANCH   1   2
ATOM      2  CB  LYS A 131      28.345  25.722  17.026  1.00 20.94     0.034 C 
BRANCH   2   3
ATOM      3  CG  LYS A 131      27.602  24.397  16.941  1.00 22.96     0.005 C 
BRANCH   3   4
ATOM      4  CD  LYS A 131      26.124  24.562  17.162  1.00 24.33     0.041 C 
BRANCH   4   5
ATOM      5  CE  LYS A 131      25.547  23.268  17.726  1.00 26.91     0.338 C 
ATOM      6  NZ  LYS A 131      25.608  23.274  19.207  1.00 27.40     0.618 N 
ENDBRANCH   4   5
ENDBRANCH   3   4
ENDBRANCH   2   3
ENDBRANCH   1   2
END_RES LYS A 131
BEGIN_RES LYS A 135
REMARK  4 active torsions:
REMARK  status: ('A' for Active; 'I' for Inactive)
REMARK    5  A    between atoms: CA   and  CB  
REMARK    6  A    between atoms: CB   and  CG  
REMARK    7  A    between atoms: CG   and  CD  
REMARK    8  A    between atoms: CD   and  CE  
ROOT
ATOM      7  CA  LYS A 135      33.193  34.663   9.290  1.00 25.02     0.186 C 
ENDROOT
BRANCH   7   8
ATOM      8  CB  LYS A 135      32.060  35.360  10.034  1.00 26.63     0.034 C 
BRANCH   8   9
ATOM      9  CG  LYS A 135      30.857  35.643   9.171  1.00 29.45     0.005 C 
BRANCH   9  10
ATOM     10  CD  LYS A 135      30.315  34.357   8.568  1.00 32.00     0.041 C 
BRANCH  10  11
ATOM     11  CE  LYS A 135      28.802  34.412   8.468  1.00 34.25     0.338 C 
ATOM     12  NZ  LYS A 135      28.163  33.809   9.670  1.00 35.99     0.618 N 
ENDBRANCH  10  11
ENDBRANCH   9  10
ENDBRANCH   8   9
ENDBRANCH   7   8
END_RES LYS A 135
