REMARK VINA RESULT:    -5.542      2.415      7.522
REMARK INTER + INTRA:         -23.068
REMARK INTER:                 -13.192
REMARK INTRA:                  -9.877
REMARK UNBOUND:                -9.428
REMARK SMILES CC(=O)N[C@@H]1[C@@H](O)C[C@](OC[C@H]2O[C@@H](O[C@H]3[C@H](O)[C@@H](O)[C@H](OCCN=[N+]=[N-])O[C@@H]3CO)[C@H](O)[C@@H](O)[C@H]2O)(C(=O)O)O[C@H]1C(O)[C@H](O)CNC(=O)OCc1cn(-c2ccc(C)cc2)nn1
REMARK SMILES IDX 9 1 8 2 6 3 5 4 42 5 41 6 10 7 11 8 12 9 14 10 13 11 32 12
REMARK SMILES IDX 34 13 36 14 15 15 16 16 29 17 28 18 21 19 17 20 19 21 30 22
REMARK SMILES IDX 31 23 22 25 23 26 24 27 25 28 26 29 27 30 18 31 20 33 33 35
REMARK SMILES IDX 35 37 37 39 38 41 39 42 40 43 7 45 43 47 44 48 45 50 46 51
REMARK SMILES IDX 47 53 48 54 49 55 50 57 51 58 52 59 53 60 54 61 64 62 55 63
REMARK SMILES IDX 63 64 56 65 57 66 62 67 58 68 61 69 59 70 60 71 4 72 2 73
REMARK SMILES IDX 1 75 3 76
REMARK H PARENT 31 24 18 32 20 34 33 36 35 38 37 40 40 44 7 46 44 49 46 52
REMARK H PARENT 48 56 4 74
REMARK Flexibility Score: inf
ROOT
ATOM      1  C   UNL     1      22.997  33.308  12.641  1.00  0.00     0.272 C 
ATOM      2  C   UNL     1      22.525  34.046  13.889  1.00  0.00     0.113 C 
ATOM      3  C   UNL     1      23.424  33.814  15.043  1.00  0.00     0.145 C 
ATOM      4  C   UNL     1      24.860  33.619  14.709  1.00  0.00     0.142 C 
ATOM      5  C   UNL     1      25.245  33.840  13.250  1.00  0.00     0.178 C 
ATOM      6  O   UNL     1      24.285  33.393  12.407  1.00  0.00    -0.332 OA
ENDROOT
BRANCH   1   7
ATOM      7  O   UNL     1      22.321  33.983  11.578  1.00  0.00    -0.338 OA
BRANCH   7   8
ATOM      8  C   UNL     1      21.795  35.174  12.083  1.00  0.00     0.199 C 
BRANCH   8   9
ATOM      9  C   UNL     1      21.549  36.181  11.025  1.00  0.00     0.179 C 
ATOM     10  C   UNL     1      22.492  37.315   9.272  1.00  0.00     0.282 C 
ATOM     11  O   UNL     1      22.612  36.221  10.121  1.00  0.00    -0.341 OA
ATOM     12  C   UNL     1      21.362  37.119   8.335  1.00  0.00     0.202 C 
ATOM     13  C   UNL     1      20.478  35.996   8.801  1.00  0.00     0.179 C 
ATOM     14  C   UNL     1      20.245  35.997  10.298  1.00  0.00     0.177 C 
BRANCH  10  15
ATOM     15  O   UNL     1      23.674  37.467   8.549  1.00  0.00    -0.341 OA
BRANCH  15  16
ATOM     16  C   UNL     1      24.113  38.791   8.559  1.00  0.00     0.184 C 
ATOM     17  C   UNL     1      24.259  39.407   7.196  1.00  0.00     0.178 C 
ATOM     18  O   UNL     1      25.595  39.748   6.958  1.00  0.00    -0.341 OA
ATOM     19  C   UNL     1      26.358  38.594   6.922  1.00  0.00     0.281 C 
ATOM     20  C   UNL     1      25.482  38.763   9.204  1.00  0.00     0.180 C 
ATOM     21  C   UNL     1      26.356  37.908   8.274  1.00  0.00     0.202 C 
BRANCH  17  22
ATOM     22  C   UNL     1      23.510  40.749   7.139  1.00  0.00     0.191 C 
BRANCH  22  23
ATOM     23  O   UNL     1      22.140  40.550   7.283  1.00  0.00    -0.394 OA
ATOM     24  H   UNL     1      21.771  41.385   7.699  1.00  0.00     0.210 HD
ENDBRANCH  22  23
ENDBRANCH  17  22
BRANCH  19  25
ATOM     25  O   UNL     1      27.660  38.827   6.510  1.00  0.00    -0.350 OA
BRANCH  25  26
ATOM     26  C   UNL     1      27.831  38.756   5.150  1.00  0.00     0.169 C 
BRANCH  26  27
ATOM     27  C   UNL     1      28.047  40.074   4.462  1.00  0.00     0.119 C 
BRANCH  27  28
ATOM     28  N   UNL     1      26.987  40.378   3.532  1.00  0.00    -0.092 NA
ATOM     29  N   UNL     1      26.072  41.112   3.863  1.00  0.00     0.001 N 
ATOM     30  N   UNL     1      25.192  41.924   4.152  1.00  0.00    -0.003 NA
ENDBRANCH  27  28
ENDBRANCH  26  27
ENDBRANCH  25  26
ENDBRANCH  19  25
BRANCH  20  31
ATOM     31  O   UNL     1      26.039  40.025   9.346  1.00  0.00    -0.387 OA
ATOM     32  H   UNL     1      26.268  40.135  10.301  1.00  0.00     0.211 HD
ENDBRANCH  20  31
BRANCH  21  33
ATOM     33  O   UNL     1      25.642  36.703   8.120  1.00  0.00    -0.385 OA
ATOM     34  H   UNL     1      26.225  35.948   7.879  1.00  0.00     0.211 HD
ENDBRANCH  21  33
ENDBRANCH  15  16
ENDBRANCH  10  15
BRANCH  12  35
ATOM     35  O   UNL     1      20.612  38.296   8.153  1.00  0.00    -0.385 OA
ATOM     36  H   UNL     1      20.446  38.333   7.156  1.00  0.00     0.211 HD
ENDBRANCH  12  35
BRANCH  13  37
ATOM     37  O   UNL     1      20.952  34.807   8.306  1.00  0.00    -0.387 OA
ATOM     38  H   UNL     1      21.281  34.166   9.015  1.00  0.00     0.211 HD
ENDBRANCH  13  37
BRANCH  14  39
ATOM     39  O   UNL     1      19.713  34.777  10.670  1.00  0.00    -0.387 OA
ATOM     40  H   UNL     1      19.618  34.129   9.942  1.00  0.00     0.211 HD
ENDBRANCH  14  39
ENDBRANCH   8   9
ENDBRANCH   7   8
ENDBRANCH   1   7
BRANCH   1  41
ATOM     41  C   UNL     1      22.468  31.937  12.782  1.00  0.00     0.364 C 
ATOM     42  O   UNL     1      23.114  30.994  13.293  1.00  0.00    -0.246 OA
BRANCH  41  43
ATOM     43  O   UNL     1      21.163  31.692  12.315  1.00  0.00    -0.477 OA
ATOM     44  H   UNL     1      20.937  31.939  11.351  1.00  0.00     0.296 HD
ENDBRANCH  41  43
ENDBRANCH   1  41
BRANCH   3  45
ATOM     45  O   UNL     1      23.225  34.799  16.037  1.00  0.00    -0.391 OA
ATOM     46  H   UNL     1      23.423  35.675  15.573  1.00  0.00     0.211 HD
ENDBRANCH   3  45
BRANCH   5  47
ATOM     47  C   UNL     1      25.593  35.302  13.056  1.00  0.00     0.176 C 
BRANCH  47  48
ATOM     48  O   UNL     1      26.367  35.840  14.073  1.00  0.00    -0.388 OA
ATOM     49  H   UNL     1      26.275  35.216  14.840  1.00  0.00     0.211 HD
ENDBRANCH  47  48
BRANCH  47  50
ATOM     50  C   UNL     1      25.954  35.799  11.737  1.00  0.00     0.165 C 
BRANCH  50  51
ATOM     51  O   UNL     1      25.109  35.415  10.675  1.00  0.00    -0.388 OA
ATOM     52  H   UNL     1      25.594  35.490   9.811  1.00  0.00     0.211 HD
ENDBRANCH  50  51
BRANCH  50  53
ATOM     53  C   UNL     1      27.352  35.742  11.229  1.00  0.00     0.154 C 
BRANCH  53  54
ATOM     54  N   UNL     1      28.339  36.283  12.125  1.00  0.00    -0.319 N 
ATOM     55  C   UNL     1      29.183  37.361  11.728  1.00  0.00     0.407 C 
ATOM     56  H   UNL     1      28.451  35.887  13.087  1.00  0.00     0.167 HD
ATOM     57  O   UNL     1      29.043  37.851  10.581  1.00  0.00    -0.225 OA
BRANCH  55  58
ATOM     58  O   UNL     1      30.136  37.843  12.600  1.00  0.00    -0.443 OA
BRANCH  58  59
ATOM     59  C   UNL     1      31.494  37.595  12.473  1.00  0.00     0.294 C 
BRANCH  59  60
ATOM     60  C   UNL     1      31.891  36.382  13.190  1.00  0.00     0.121 A 
ATOM     61  C   UNL     1      31.160  35.740  14.207  1.00  0.00     0.144 A 
ATOM     62  N   UNL     1      32.986  35.648  13.050  1.00  0.00    -0.131 NA
ATOM     63  N   UNL     1      31.852  34.674  14.609  1.00  0.00    -0.220 N 
ATOM     64  N   UNL     1      32.957  34.637  13.895  1.00  0.00    -0.062 NA
BRANCH  63  65
ATOM     65  C   UNL     1      31.415  33.775  15.644  1.00  0.00     0.066 A 
ATOM     66  C   UNL     1      31.088  32.474  15.334  1.00  0.00     0.029 A 
ATOM     67  C   UNL     1      31.322  34.168  16.963  1.00  0.00     0.029 A 
ATOM     68  C   UNL     1      30.677  31.588  16.335  1.00  0.00     0.005 A 
ATOM     69  C   UNL     1      30.911  33.282  17.966  1.00  0.00     0.005 A 
ATOM     70  C   UNL     1      30.586  31.983  17.650  1.00  0.00    -0.051 A 
ATOM     71  C   UNL     1      30.157  31.032  18.725  1.00  0.00     0.044 C 
ENDBRANCH  63  65
ENDBRANCH  59  60
ENDBRANCH  58  59
ENDBRANCH  55  58
ENDBRANCH  53  54
ENDBRANCH  50  53
ENDBRANCH  47  50
ENDBRANCH   5  47
BRANCH   4  72
ATOM     72  N   UNL     1      25.399  32.381  15.241  1.00  0.00    -0.348 N 
ATOM     73  C   UNL     1      26.715  32.256  15.781  1.00  0.00     0.217 C 
ATOM     74  H   UNL     1      24.831  31.511  15.243  1.00  0.00     0.163 HD
ATOM     75  C   UNL     1      27.224  30.953  16.308  1.00  0.00     0.114 C 
ATOM     76  O   UNL     1      27.399  33.310  15.779  1.00  0.00    -0.275 OA
ENDBRANCH   4  72
TORSDOF 30
BEGIN_RES LYS A 131
REMARK  4 active torsions:
REMARK  status: ('A' for Active; 'I' for Inactive)
REMARK    1  A    between atoms: CA   and  CB  
REMARK    2  A    between atoms: CB   and  CG  
REMARK    3  A    between atoms: CG   and  CD  
REMARK    4  A    between atoms: CD   and  CE  
ROOT
ATOM      1  CA  LYS A 131      29.867  25.555  16.977  1.00 20.52     0.186 C 
ENDROOT
BRANCH   1   2
ATOM      2  CB  LYS A 131      28.345  25.722  17.026  1.00 20.94     0.034 C 
BRANCH   2   3
ATOM      3  CG  LYS A 131      27.602  24.400  16.915  1.00 22.96     0.005 C 
BRANCH   3   4
ATOM      4  CD  LYS A 131      26.442  24.320  17.869  1.00 24.33     0.041 C 
BRANCH   4   5
ATOM      5  CE  LYS A 131      26.223  25.682  18.519  1.00 26.91     0.338 C 
ATOM      6  NZ  LYS A 131      25.002  26.325  17.979  1.00 27.40     0.618 N 
ENDBRANCH   4   5
ENDBRANCH   3   4
ENDBRANCH   2   3
ENDBRANCH   1   2
END_RES LYS A 131
BEGIN_RES LYS A 135
REMARK  4 active torsions:
REMARK  status: ('A' for Active; 'I' for Inactive)
REMARK    5  A    between atoms: CA   and  CB  
REMARK    6  A    between atoms: CB   and  CG  
REMARK    7  A    between atoms: CG   and  CD  
REMARK    8  A    between atoms: CD   and  CE  
ROOT
ATOM      7  CA  LYS A 135      33.193  34.663   9.290  1.00 25.02     0.186 C 
ENDROOT
BRANCH   7   8
ATOM      8  CB  LYS A 135      32.060  35.360  10.034  1.00 26.63     0.034 C 
BRANCH   8   9
ATOM      9  CG  LYS A 135      30.706  34.750   9.778  1.00 29.45     0.005 C 
BRANCH   9  10
ATOM     10  CD  LYS A 135      30.433  34.656   8.285  1.00 32.00     0.041 C 
BRANCH  10  11
ATOM     11  CE  LYS A 135      28.953  34.821   8.002  1.00 34.25     0.338 C 
ATOM     12  NZ  LYS A 135      28.729  35.531   6.712  1.00 35.99     0.618 N 
ENDBRANCH  10  11
ENDBRANCH   9  10
ENDBRANCH   8   9
ENDBRANCH   7   8
END_RES LYS A 135
