REMARK VINA RESULT:    -4.097      4.696     10.453
REMARK INTER + INTRA:         -22.174
REMARK INTER:                 -12.367
REMARK INTRA:                  -9.807
REMARK UNBOUND:               -11.851
REMARK SMILES CC(=O)N[C@@H]1[C@@H](O)C[C@](OC[C@H]2O[C@@H](O[C@H]3[C@H](O)[C@@H](O)[C@H](OCCN=[N+]=[N-])O[C@@H]3CO)[C@H](O)[C@@H](O)[C@H]2O)(C(=O)O)O[C@H]1C(O)[C@H](O)CNC(=O)OCc1cn(Cc2ccccc2)nn1
REMARK SMILES IDX 9 1 8 2 6 3 5 4 42 5 41 6 10 7 11 8 12 9 14 10 13 11 32 12
REMARK SMILES IDX 34 13 36 14 15 15 16 16 29 17 28 18 21 19 17 20 19 21 30 22
REMARK SMILES IDX 31 23 22 25 23 26 24 27 25 28 26 29 27 30 18 31 20 33 33 35
REMARK SMILES IDX 35 37 37 39 38 41 39 42 40 43 7 45 43 47 44 48 45 50 46 51
REMARK SMILES IDX 47 53 48 54 49 55 50 57 51 58 52 59 53 60 54 61 64 62 55 63
REMARK SMILES IDX 63 64 56 65 57 66 58 67 62 68 59 69 61 70 60 71 4 72 2 73
REMARK SMILES IDX 1 75 3 76
REMARK H PARENT 31 24 18 32 20 34 33 36 35 38 37 40 40 44 7 46 44 49 46 52
REMARK H PARENT 48 56 4 74
REMARK Flexibility Score: inf
ROOT
ATOM      1  C   UNL     1      23.795  37.604   9.356  1.00  0.00     0.272 C 
ATOM      2  C   UNL     1      23.241  37.827   7.997  1.00  0.00     0.113 C 
ATOM      3  C   UNL     1      23.522  39.216   7.570  1.00  0.00     0.145 C 
ATOM      4  C   UNL     1      24.186  40.083   8.651  1.00  0.00     0.142 C 
ATOM      5  C   UNL     1      23.579  39.851   9.968  1.00  0.00     0.178 C 
ATOM      6  O   UNL     1      23.164  38.528  10.209  1.00  0.00    -0.332 OA
ENDROOT
BRANCH   1   7
ATOM      7  O   UNL     1      25.169  37.665   9.472  1.00  0.00    -0.338 OA
BRANCH   7   8
ATOM      8  C   UNL     1      25.746  36.543   8.903  1.00  0.00     0.199 C 
BRANCH   8   9
ATOM      9  C   UNL     1      26.539  36.872   7.658  1.00  0.00     0.179 C 
ATOM     10  C   UNL     1      28.187  38.363   6.948  1.00  0.00     0.282 C 
ATOM     11  O   UNL     1      26.993  38.171   7.647  1.00  0.00    -0.341 OA
ATOM     12  C   UNL     1      28.273  37.556   5.707  1.00  0.00     0.202 C 
ATOM     13  C   UNL     1      28.237  36.095   6.028  1.00  0.00     0.179 C 
ATOM     14  C   UNL     1      27.628  35.867   7.392  1.00  0.00     0.177 C 
BRANCH  10  15
ATOM     15  O   UNL     1      29.285  38.137   7.761  1.00  0.00    -0.341 OA
BRANCH  15  16
ATOM     16  C   UNL     1      29.601  39.210   8.586  1.00  0.00     0.184 C 
ATOM     17  C   UNL     1      30.902  39.805   8.193  1.00  0.00     0.178 C 
ATOM     18  O   UNL     1      31.177  40.850   9.100  1.00  0.00    -0.341 OA
ATOM     19  C   UNL     1      31.630  40.208  10.270  1.00  0.00     0.281 C 
ATOM     20  C   UNL     1      29.766  38.592   9.984  1.00  0.00     0.180 C 
ATOM     21  C   UNL     1      30.459  39.505  10.941  1.00  0.00     0.202 C 
BRANCH  17  22
ATOM     22  C   UNL     1      30.881  40.364   6.773  1.00  0.00     0.191 C 
BRANCH  22  23
ATOM     23  O   UNL     1      31.419  39.362   5.936  1.00  0.00    -0.394 OA
ATOM     24  H   UNL     1      31.113  38.483   6.264  1.00  0.00     0.210 HD
ENDBRANCH  22  23
ENDBRANCH  17  22
BRANCH  19  25
ATOM     25  O   UNL     1      32.168  41.143  11.118  1.00  0.00    -0.350 OA
BRANCH  25  26
ATOM     26  C   UNL     1      31.588  42.376  10.890  1.00  0.00     0.169 C 
BRANCH  26  27
ATOM     27  C   UNL     1      30.935  43.000  12.086  1.00  0.00     0.119 C 
BRANCH  27  28
ATOM     28  N   UNL     1      29.485  42.843  11.896  1.00  0.00    -0.092 NA
ATOM     29  N   UNL     1      29.070  42.900  10.739  1.00  0.00     0.001 N 
ATOM     30  N   UNL     1      28.373  42.745   9.727  1.00  0.00    -0.003 NA
ENDBRANCH  27  28
ENDBRANCH  26  27
ENDBRANCH  25  26
ENDBRANCH  19  25
BRANCH  20  31
ATOM     31  O   UNL     1      28.447  38.385  10.437  1.00  0.00    -0.387 OA
ATOM     32  H   UNL     1      27.786  38.439   9.697  1.00  0.00     0.211 HD
ENDBRANCH  20  31
BRANCH  21  33
ATOM     33  O   UNL     1      30.971  38.760  12.002  1.00  0.00    -0.385 OA
ATOM     34  H   UNL     1      31.702  39.233  12.484  1.00  0.00     0.211 HD
ENDBRANCH  21  33
ENDBRANCH  15  16
ENDBRANCH  10  15
BRANCH  12  35
ATOM     35  O   UNL     1      27.282  37.905   4.773  1.00  0.00    -0.385 OA
ATOM     36  H   UNL     1      26.458  37.440   5.064  1.00  0.00     0.211 HD
ENDBRANCH  12  35
BRANCH  13  37
ATOM     37  O   UNL     1      29.533  35.594   5.985  1.00  0.00    -0.387 OA
ATOM     38  H   UNL     1      29.774  35.094   6.811  1.00  0.00     0.211 HD
ENDBRANCH  13  37
BRANCH  14  39
ATOM     39  O   UNL     1      28.545  35.720   8.396  1.00  0.00    -0.387 OA
ATOM     40  H   UNL     1      28.609  36.441   9.054  1.00  0.00     0.211 HD
ENDBRANCH  14  39
ENDBRANCH   8   9
ENDBRANCH   7   8
ENDBRANCH   1   7
BRANCH   1  41
ATOM     41  C   UNL     1      23.361  36.287   9.937  1.00  0.00     0.364 C 
ATOM     42  O   UNL     1      23.488  36.085  11.145  1.00  0.00    -0.246 OA
BRANCH  41  43
ATOM     43  O   UNL     1      22.825  35.318   9.118  1.00  0.00    -0.477 OA
ATOM     44  H   UNL     1      22.466  35.526   8.185  1.00  0.00     0.296 HD
ENDBRANCH  41  43
ENDBRANCH   1  41
BRANCH   3  45
ATOM     45  O   UNL     1      24.362  39.313   6.444  1.00  0.00    -0.391 OA
ATOM     46  H   UNL     1      24.996  38.584   6.373  1.00  0.00     0.211 HD
ENDBRANCH   3  45
BRANCH   5  47
ATOM     47  C   UNL     1      24.286  40.269  11.189  1.00  0.00     0.176 C 
BRANCH  47  48
ATOM     48  O   UNL     1      24.336  39.334  12.199  1.00  0.00    -0.388 OA
ATOM     49  H   UNL     1      25.225  38.953  12.371  1.00  0.00     0.211 HD
ENDBRANCH  47  48
BRANCH  47  50
ATOM     50  C   UNL     1      25.632  40.918  11.045  1.00  0.00     0.165 C 
BRANCH  50  51
ATOM     51  O   UNL     1      26.399  40.399  10.048  1.00  0.00    -0.388 OA
ATOM     52  H   UNL     1      27.066  41.012   9.682  1.00  0.00     0.211 HD
ENDBRANCH  50  51
BRANCH  50  53
ATOM     53  C   UNL     1      26.293  41.181  12.366  1.00  0.00     0.154 C 
BRANCH  53  54
ATOM     54  N   UNL     1      27.477  40.399  12.610  1.00  0.00    -0.319 N 
ATOM     55  C   UNL     1      27.558  39.302  13.528  1.00  0.00     0.407 C 
ATOM     56  H   UNL     1      28.394  40.592  12.105  1.00  0.00     0.167 HD
ATOM     57  O   UNL     1      26.544  38.977  14.188  1.00  0.00    -0.225 OA
BRANCH  55  58
ATOM     58  O   UNL     1      28.731  38.593  13.707  1.00  0.00    -0.443 OA
BRANCH  58  59
ATOM     59  C   UNL     1      28.873  37.766  14.836  1.00  0.00     0.294 C 
BRANCH  59  60
ATOM     60  C   UNL     1      30.234  37.193  14.915  1.00  0.00     0.120 A 
ATOM     61  C   UNL     1      30.500  35.819  14.977  1.00  0.00     0.138 A 
ATOM     62  N   UNL     1      31.436  37.779  14.939  1.00  0.00    -0.132 NA
ATOM     63  N   UNL     1      31.830  35.646  15.035  1.00  0.00    -0.248 N 
ATOM     64  N   UNL     1      32.377  36.826  15.012  1.00  0.00    -0.067 NA
BRANCH  63  65
ATOM     65  C   UNL     1      32.504  34.369  15.104  1.00  0.00     0.181 C 
BRANCH  65  66
ATOM     66  C   UNL     1      31.741  33.457  15.992  1.00  0.00    -0.026 A 
ATOM     67  C   UNL     1      31.520  33.750  17.327  1.00  0.00     0.005 A 
ATOM     68  C   UNL     1      31.237  32.279  15.463  1.00  0.00     0.005 A 
ATOM     69  C   UNL     1      30.802  32.867  18.115  1.00  0.00     0.000 A 
ATOM     70  C   UNL     1      30.521  31.406  16.260  1.00  0.00     0.000 A 
ATOM     71  C   UNL     1      30.308  31.703  17.580  1.00  0.00     0.000 A 
ENDBRANCH  65  66
ENDBRANCH  63  65
ENDBRANCH  59  60
ENDBRANCH  58  59
ENDBRANCH  55  58
ENDBRANCH  53  54
ENDBRANCH  50  53
ENDBRANCH  47  50
ENDBRANCH   5  47
BRANCH   4  72
ATOM     72  N   UNL     1      23.849  41.436   8.166  1.00  0.00    -0.348 N 
ATOM     73  C   UNL     1      24.791  42.298   7.561  1.00  0.00     0.217 C 
ATOM     74  H   UNL     1      22.870  41.782   8.274  1.00  0.00     0.163 HD
ATOM     75  C   UNL     1      24.421  43.665   7.085  1.00  0.00     0.114 C 
ATOM     76  O   UNL     1      25.970  41.893   7.423  1.00  0.00    -0.275 OA
ENDBRANCH   4  72
TORSDOF 31
BEGIN_RES LYS A 131
REMARK  4 active torsions:
REMARK  status: ('A' for Active; 'I' for Inactive)
REMARK    1  A    between atoms: CA   and  CB  
REMARK    2  A    between atoms: CB   and  CG  
REMARK    3  A    between atoms: CG   and  CD  
REMARK    4  A    between atoms: CD   and  CE  
ROOT
ATOM      1  CA  LYS A 131      29.867  25.555  16.977  1.00 20.52     0.186 C 
ENDROOT
BRANCH   1   2
ATOM      2  CB  LYS A 131      28.345  25.722  17.026  1.00 20.94     0.034 C 
BRANCH   2   3
ATOM      3  CG  LYS A 131      27.601  24.401  16.905  1.00 22.96     0.005 C 
BRANCH   3   4
ATOM      4  CD  LYS A 131      26.167  24.516  17.342  1.00 24.33     0.041 C 
BRANCH   4   5
ATOM      5  CE  LYS A 131      25.905  23.543  18.487  1.00 26.91     0.338 C 
ATOM      6  NZ  LYS A 131      24.723  22.700  18.191  1.00 27.40     0.618 N 
ENDBRANCH   4   5
ENDBRANCH   3   4
ENDBRANCH   2   3
ENDBRANCH   1   2
END_RES LYS A 131
BEGIN_RES LYS A 135
REMARK  4 active torsions:
REMARK  status: ('A' for Active; 'I' for Inactive)
REMARK    5  A    between atoms: CA   and  CB  
REMARK    6  A    between atoms: CB   and  CG  
REMARK    7  A    between atoms: CG   and  CD  
REMARK    8  A    between atoms: CD   and  CE  
ROOT
ATOM      7  CA  LYS A 135      33.193  34.663   9.290  1.00 25.02     0.186 C 
ENDROOT
BRANCH   7   8
ATOM      8  CB  LYS A 135      32.060  35.360  10.034  1.00 26.63     0.034 C 
BRANCH   8   9
ATOM      9  CG  LYS A 135      30.838  34.497  10.217  1.00 29.45     0.005 C 
BRANCH   9  10
ATOM     10  CD  LYS A 135      30.347  34.559  11.655  1.00 32.00     0.041 C 
BRANCH  10  11
ATOM     11  CE  LYS A 135      29.075  35.380  11.748  1.00 34.25     0.338 C 
ATOM     12  NZ  LYS A 135      27.881  34.558  11.408  1.00 35.99     0.618 N 
ENDBRANCH  10  11
ENDBRANCH   9  10
ENDBRANCH   8   9
ENDBRANCH   7   8
END_RES LYS A 135
