REMARK VINA RESULT:    -5.620      3.293      7.151
REMARK INTER + INTRA:         -23.906
REMARK INTER:                 -12.240
REMARK INTRA:                 -11.666
REMARK UNBOUND:                -9.416
REMARK SMILES CC(=O)N[C@@H]1[C@@H](O)C[C@](OC[C@H]2O[C@@H](O[C@H]3[C@H](O)[C@@H](O)[C@H](OCCN=[N+]=[N-])O[C@@H]3CO)[C@H](O)[C@@H](O)[C@H]2O)(C(=O)O)O[C@H]1C(O)[C@H](O)CNC(=O)OCc1cn(C(C)(C)C(=O)c2c[nH]c3ccccc23)nn1
REMARK SMILES IDX 9 1 8 2 6 3 5 4 42 5 41 6 10 7 11 8 12 9 14 10 13 11 32 12
REMARK SMILES IDX 34 13 36 14 15 15 16 16 29 17 28 18 21 19 17 20 19 21 30 22
REMARK SMILES IDX 31 23 22 25 23 26 24 27 25 28 26 29 27 30 18 31 20 33 33 35
REMARK SMILES IDX 35 37 37 39 38 41 39 42 40 43 7 45 43 47 44 48 45 50 46 51
REMARK SMILES IDX 47 53 48 54 49 55 50 57 51 58 52 59 53 60 54 61 71 62 55 63
REMARK SMILES IDX 70 64 56 65 57 66 58 67 59 68 60 69 61 70 62 71 69 72 63 73
REMARK SMILES IDX 64 74 68 75 65 77 67 78 66 79 4 80 2 81 1 83 3 84
REMARK H PARENT 31 24 18 32 20 34 33 36 35 38 37 40 40 44 7 46 44 49 46 52
REMARK H PARENT 48 56 63 76 4 82
REMARK Flexibility Score: inf
ROOT
ATOM      1  C   UNL     1      28.008  34.928  14.146  1.00  0.00     0.272 C 
ATOM      2  C   UNL     1      28.561  36.279  14.566  1.00  0.00     0.113 C 
ATOM      3  C   UNL     1      29.936  36.523  13.997  1.00  0.00     0.145 C 
ATOM      4  C   UNL     1      30.935  35.525  14.679  1.00  0.00     0.142 C 
ATOM      5  C   UNL     1      30.155  34.264  14.862  1.00  0.00     0.178 C 
ATOM      6  O   UNL     1      29.154  34.161  13.919  1.00  0.00    -0.332 OA
ENDROOT
BRANCH   1   7
ATOM      7  O   UNL     1      27.166  34.904  13.111  1.00  0.00    -0.338 OA
BRANCH   7   8
ATOM      8  C   UNL     1      26.970  35.632  12.063  1.00  0.00     0.199 C 
BRANCH   8   9
ATOM      9  C   UNL     1      25.699  36.483  12.094  1.00  0.00     0.179 C 
ATOM     10  C   UNL     1      25.758  37.430   9.920  1.00  0.00     0.282 C 
ATOM     11  O   UNL     1      25.799  37.548  11.264  1.00  0.00    -0.341 OA
ATOM     12  C   UNL     1      24.689  36.500   9.415  1.00  0.00     0.202 C 
ATOM     13  C   UNL     1      23.772  36.095  10.564  1.00  0.00     0.179 C 
ATOM     14  C   UNL     1      24.526  35.610  11.743  1.00  0.00     0.177 C 
BRANCH  10  15
ATOM     15  O   UNL     1      26.982  37.010   9.429  1.00  0.00    -0.341 OA
BRANCH  15  16
ATOM     16  C   UNL     1      27.613  37.941   8.655  1.00  0.00     0.184 C 
ATOM     17  C   UNL     1      28.094  37.515   7.316  1.00  0.00     0.178 C 
ATOM     18  O   UNL     1      28.280  38.693   6.564  1.00  0.00    -0.341 OA
ATOM     19  C   UNL     1      29.231  39.528   7.074  1.00  0.00     0.281 C 
ATOM     20  C   UNL     1      28.776  38.611   9.358  1.00  0.00     0.180 C 
ATOM     21  C   UNL     1      29.079  39.851   8.545  1.00  0.00     0.202 C 
BRANCH  17  22
ATOM     22  C   UNL     1      27.101  36.687   6.525  1.00  0.00     0.191 C 
BRANCH  22  23
ATOM     23  O   UNL     1      27.126  37.159   5.207  1.00  0.00    -0.394 OA
ATOM     24  H   UNL     1      27.454  36.486   4.567  1.00  0.00     0.210 HD
ENDBRANCH  22  23
ENDBRANCH  17  22
BRANCH  19  25
ATOM     25  O   UNL     1      29.127  40.750   6.403  1.00  0.00    -0.350 OA
BRANCH  25  26
ATOM     26  C   UNL     1      27.923  41.337   6.747  1.00  0.00     0.169 C 
BRANCH  26  27
ATOM     27  C   UNL     1      27.108  41.731   5.545  1.00  0.00     0.119 C 
BRANCH  27  28
ATOM     28  N   UNL     1      25.976  40.862   5.308  1.00  0.00    -0.092 NA
ATOM     29  N   UNL     1      25.515  40.146   6.220  1.00  0.00     0.001 N 
ATOM     30  N   UNL     1      24.835  39.866   7.211  1.00  0.00    -0.003 NA
ENDBRANCH  27  28
ENDBRANCH  26  27
ENDBRANCH  25  26
ENDBRANCH  19  25
BRANCH  20  31
ATOM     31  O   UNL     1      28.492  38.964  10.656  1.00  0.00    -0.387 OA
ATOM     32  H   UNL     1      28.469  38.147  11.199  1.00  0.00     0.211 HD
ENDBRANCH  20  31
BRANCH  21  33
ATOM     33  O   UNL     1      30.302  40.358   8.982  1.00  0.00    -0.385 OA
ATOM     34  H   UNL     1      30.458  40.174   9.948  1.00  0.00     0.211 HD
ENDBRANCH  21  33
ENDBRANCH  15  16
ENDBRANCH  10  15
BRANCH  12  35
ATOM     35  O   UNL     1      23.943  37.020   8.358  1.00  0.00    -0.385 OA
ATOM     36  H   UNL     1      24.225  36.594   7.521  1.00  0.00     0.211 HD
ENDBRANCH  12  35
BRANCH  13  37
ATOM     37  O   UNL     1      22.948  35.078  10.027  1.00  0.00    -0.387 OA
ATOM     38  H   UNL     1      22.018  35.172  10.350  1.00  0.00     0.211 HD
ENDBRANCH  13  37
BRANCH  14  39
ATOM     39  O   UNL     1      25.039  34.310  11.503  1.00  0.00    -0.387 OA
ATOM     40  H   UNL     1      25.832  34.161  12.082  1.00  0.00     0.211 HD
ENDBRANCH  14  39
ENDBRANCH   8   9
ENDBRANCH   7   8
ENDBRANCH   1   7
BRANCH   1  41
ATOM     41  C   UNL     1      27.274  34.369  15.303  1.00  0.00     0.364 C 
ATOM     42  O   UNL     1      26.826  35.158  16.174  1.00  0.00    -0.246 OA
BRANCH  41  43
ATOM     43  O   UNL     1      27.052  33.042  15.490  1.00  0.00    -0.477 OA
ATOM     44  H   UNL     1      27.738  32.336  15.752  1.00  0.00     0.296 HD
ENDBRANCH  41  43
ENDBRANCH   1  41
BRANCH   3  45
ATOM     45  O   UNL     1      30.082  36.253  12.657  1.00  0.00    -0.391 OA
ATOM     46  H   UNL     1      29.484  35.521  12.331  1.00  0.00     0.211 HD
ENDBRANCH   3  45
BRANCH   5  47
ATOM     47  C   UNL     1      30.904  32.984  14.831  1.00  0.00     0.176 C 
BRANCH  47  48
ATOM     48  O   UNL     1      32.271  33.142  14.861  1.00  0.00    -0.388 OA
ATOM     49  H   UNL     1      32.792  32.310  14.679  1.00  0.00     0.211 HD
ENDBRANCH  47  48
BRANCH  47  50
ATOM     50  C   UNL     1      30.389  31.870  15.716  1.00  0.00     0.165 C 
BRANCH  50  51
ATOM     51  O   UNL     1      29.331  31.203  15.190  1.00  0.00    -0.388 OA
ATOM     52  H   UNL     1      29.080  31.519  14.310  1.00  0.00     0.211 HD
ENDBRANCH  50  51
BRANCH  50  53
ATOM     53  C   UNL     1      30.242  32.401  17.104  1.00  0.00     0.154 C 
BRANCH  53  54
ATOM     54  N   UNL     1      28.970  32.298  17.714  1.00  0.00    -0.319 N 
ATOM     55  C   UNL     1      28.670  31.394  18.792  1.00  0.00     0.407 C 
ATOM     56  H   UNL     1      28.164  32.909  17.383  1.00  0.00     0.167 HD
ATOM     57  O   UNL     1      29.530  30.614  19.249  1.00  0.00    -0.225 OA
BRANCH  55  58
ATOM     58  O   UNL     1      27.409  31.362  19.358  1.00  0.00    -0.443 OA
BRANCH  58  59
ATOM     59  C   UNL     1      26.504  30.326  19.104  1.00  0.00     0.294 C 
BRANCH  59  60
ATOM     60  C   UNL     1      26.233  30.296  17.633  1.00  0.00     0.120 A 
ATOM     61  C   UNL     1      25.000  30.611  17.031  1.00  0.00     0.139 A 
ATOM     62  N   UNL     1      27.022  29.963  16.604  1.00  0.00    -0.132 NA
ATOM     63  N   UNL     1      25.097  30.456  15.704  1.00  0.00    -0.239 N 
ATOM     64  N   UNL     1      26.324  30.065  15.459  1.00  0.00    -0.066 NA
BRANCH  63  65
ATOM     65  C   UNL     1      24.024  30.692  14.760  1.00  0.00     0.122 C 
ATOM     66  C   UNL     1      22.696  30.654  15.593  1.00  0.00     0.046 C 
ATOM     67  C   UNL     1      23.840  29.573  13.762  1.00  0.00     0.046 C 
BRANCH  65  68
ATOM     68  C   UNL     1      24.095  32.010  14.159  1.00  0.00     0.192 C 
ATOM     69  O   UNL     1      25.071  32.155  13.302  1.00  0.00    -0.291 OA
BRANCH  68  70
ATOM     70  C   UNL     1      23.283  33.172  14.346  1.00  0.00     0.045 A 
ATOM     71  C   UNL     1      23.491  34.106  15.370  1.00  0.00     0.095 A 
ATOM     72  C   UNL     1      22.178  33.606  13.642  1.00  0.00     0.010 A 
ATOM     73  N   UNL     1      22.558  35.032  15.269  1.00  0.00    -0.360 N 
ATOM     74  C   UNL     1      21.737  34.787  14.248  1.00  0.00     0.046 A 
ATOM     75  C   UNL     1      21.482  33.149  12.557  1.00  0.00     0.011 A 
ATOM     76  H   UNL     1      22.494  35.857  15.931  1.00  0.00     0.166 HD
ATOM     77  C   UNL     1      20.634  35.471  13.768  1.00  0.00     0.027 A 
ATOM     78  C   UNL     1      20.371  33.841  12.078  1.00  0.00     0.001 A 
ATOM     79  C   UNL     1      19.959  34.991  12.685  1.00  0.00     0.002 A 
ENDBRANCH  68  70
ENDBRANCH  65  68
ENDBRANCH  63  65
ENDBRANCH  59  60
ENDBRANCH  58  59
ENDBRANCH  55  58
ENDBRANCH  53  54
ENDBRANCH  50  53
ENDBRANCH  47  50
ENDBRANCH   5  47
BRANCH   4  80
ATOM     80  N   UNL     1      31.192  36.168  15.965  1.00  0.00    -0.348 N 
ATOM     81  C   UNL     1      32.464  36.213  16.589  1.00  0.00     0.217 C 
ATOM     82  H   UNL     1      30.387  36.627  16.472  1.00  0.00     0.163 HD
ATOM     83  C   UNL     1      32.720  36.865  17.900  1.00  0.00     0.114 C 
ATOM     84  O   UNL     1      33.423  35.650  15.957  1.00  0.00    -0.275 OA
ENDBRANCH   4  80
TORSDOF 32
BEGIN_RES LYS A 131
REMARK  4 active torsions:
REMARK  status: ('A' for Active; 'I' for Inactive)
REMARK    1  A    between atoms: CA   and  CB  
REMARK    2  A    between atoms: CB   and  CG  
REMARK    3  A    between atoms: CG   and  CD  
REMARK    4  A    between atoms: CD   and  CE  
ROOT
ATOM      1  CA  LYS A 131      29.867  25.555  16.977  1.00 20.52     0.186 C 
ENDROOT
BRANCH   1   2
ATOM      2  CB  LYS A 131      28.345  25.722  17.026  1.00 20.94     0.034 C 
BRANCH   2   3
ATOM      3  CG  LYS A 131      27.602  24.400  16.913  1.00 22.96     0.005 C 
BRANCH   3   4
ATOM      4  CD  LYS A 131      26.165  24.520  17.339  1.00 24.33     0.041 C 
BRANCH   4   5
ATOM      5  CE  LYS A 131      25.990  25.771  18.194  1.00 26.91     0.338 C 
ATOM      6  NZ  LYS A 131      24.853  26.583  17.700  1.00 27.40     0.618 N 
ENDBRANCH   4   5
ENDBRANCH   3   4
ENDBRANCH   2   3
ENDBRANCH   1   2
END_RES LYS A 131
BEGIN_RES LYS A 135
REMARK  4 active torsions:
REMARK  status: ('A' for Active; 'I' for Inactive)
REMARK    5  A    between atoms: CA   and  CB  
REMARK    6  A    between atoms: CB   and  CG  
REMARK    7  A    between atoms: CG   and  CD  
REMARK    8  A    between atoms: CD   and  CE  
ROOT
ATOM      7  CA  LYS A 135      33.193  34.663   9.290  1.00 25.02     0.186 C 
ENDROOT
BRANCH   7   8
ATOM      8  CB  LYS A 135      32.060  35.360  10.034  1.00 26.63     0.034 C 
BRANCH   8   9
ATOM      9  CG  LYS A 135      30.787  35.464   9.233  1.00 29.45     0.005 C 
BRANCH   9  10
ATOM     10  CD  LYS A 135      29.758  34.460   9.730  1.00 32.00     0.041 C 
BRANCH  10  11
ATOM     11  CE  LYS A 135      28.747  34.152   8.642  1.00 34.25     0.338 C 
ATOM     12  NZ  LYS A 135      27.437  33.750   9.225  1.00 35.99     0.618 N 
ENDBRANCH  10  11
ENDBRANCH   9  10
ENDBRANCH   8   9
ENDBRANCH   7   8
END_RES LYS A 135
