REMARK VINA RESULT:    -3.831      0.000      0.000
REMARK INTER + INTRA:         -23.202
REMARK INTER:                 -11.938
REMARK INTRA:                 -11.264
REMARK UNBOUND:               -13.100
REMARK SMILES CC(=O)N[C@@H]1[C@@H](O)C[C@](OC[C@H]2O[C@@H](O[C@H]3[C@H](O)[C@@H](O)[C@H](OCCN=[N+]=[N-])O[C@@H]3CO)[C@H](O)[C@@H](O)[C@H]2O)(C(=O)O)O[C@H]1C(O)[C@H](O)CNC(=O)OCc1cn(CCNS(C)(=O)=O)nn1
REMARK SMILES IDX 43 1 42 2 9 3 8 4 41 5 6 6 5 7 10 8 11 9 12 10 14 11 13 12
REMARK SMILES IDX 32 13 34 14 36 15 15 16 16 17 29 18 28 19 21 20 17 21 19 22
REMARK SMILES IDX 30 23 31 24 22 26 23 27 24 28 25 29 26 30 27 31 18 32 20 34
REMARK SMILES IDX 33 36 35 38 37 40 38 42 39 43 40 44 7 46 4 48 2 49 1 51 3 52
REMARK SMILES IDX 44 53 45 55 46 56 47 58 48 59 49 60 50 62 51 63 52 64 53 65
REMARK SMILES IDX 54 66 64 67 55 68 63 69 56 70 57 71 58 72 59 74 61 75 62 76
REMARK SMILES IDX 60 77
REMARK H PARENT 31 25 18 33 20 35 33 37 35 39 37 41 40 45 7 47 4 50 44 54
REMARK H PARENT 46 57 48 61 58 73
REMARK Flexibility Score: inf
ROOT
ATOM      1  C   UNL     1      32.356  28.819  21.488  1.00  0.00     0.176 C 
ENDROOT
BRANCH   1   2
ATOM      2  C   UNL     1      31.343  29.576  22.366  1.00  0.00     0.178 C 
ATOM      3  C   UNL     1      30.050  31.521  22.202  1.00  0.00     0.272 C 
ATOM      4  C   UNL     1      30.706  32.209  23.332  1.00  0.00     0.113 C 
ATOM      5  O   UNL     1      30.885  30.591  21.596  1.00  0.00    -0.332 OA
ATOM      6  C   UNL     1      31.846  31.465  23.969  1.00  0.00     0.145 C 
ATOM      7  C   UNL     1      31.989  30.024  23.618  1.00  0.00     0.142 C 
BRANCH   3   8
ATOM      8  O   UNL     1      29.630  32.337  21.146  1.00  0.00    -0.338 OA
BRANCH   8   9
ATOM      9  C   UNL     1      30.675  32.731  20.328  1.00  0.00     0.199 C 
BRANCH   9  10
ATOM     10  C   UNL     1      30.318  32.523  18.897  1.00  0.00     0.179 C 
ATOM     11  C   UNL     1      30.952  32.847  16.703  1.00  0.00     0.282 C 
ATOM     12  O   UNL     1      31.366  32.828  18.045  1.00  0.00    -0.341 OA
ATOM     13  C   UNL     1      30.481  31.507  16.253  1.00  0.00     0.202 C 
ATOM     14  C   UNL     1      29.277  31.149  17.097  1.00  0.00     0.179 C 
ATOM     15  C   UNL     1      29.615  31.255  18.546  1.00  0.00     0.177 C 
BRANCH  11  16
ATOM     16  O   UNL     1      32.009  33.295  15.969  1.00  0.00    -0.341 OA
BRANCH  16  17
ATOM     17  C   UNL     1      31.834  34.460  15.304  1.00  0.00     0.184 C 
ATOM     18  C   UNL     1      32.996  35.271  14.888  1.00  0.00     0.178 C 
ATOM     19  O   UNL     1      32.586  36.600  14.772  1.00  0.00    -0.341 OA
ATOM     20  C   UNL     1      32.421  37.202  15.986  1.00  0.00     0.281 C 
ATOM     21  C   UNL     1      30.837  35.388  16.050  1.00  0.00     0.180 C 
ATOM     22  C   UNL     1      31.727  36.241  16.928  1.00  0.00     0.202 C 
BRANCH  18  23
ATOM     23  C   UNL     1      33.441  34.888  13.481  1.00  0.00     0.191 C 
BRANCH  23  24
ATOM     24  O   UNL     1      32.305  34.686  12.663  1.00  0.00    -0.394 OA
ATOM     25  H   UNL     1      31.470  34.772  13.173  1.00  0.00     0.210 HD
ENDBRANCH  23  24
ENDBRANCH  18  23
BRANCH  20  26
ATOM     26  O   UNL     1      31.707  38.405  15.873  1.00  0.00    -0.350 OA
BRANCH  26  27
ATOM     27  C   UNL     1      31.358  38.972  17.072  1.00  0.00     0.169 C 
BRANCH  27  28
ATOM     28  C   UNL     1      30.015  39.614  16.920  1.00  0.00     0.119 C 
BRANCH  28  29
ATOM     29  N   UNL     1      29.055  38.733  16.268  1.00  0.00    -0.092 NA
ATOM     30  N   UNL     1      28.385  39.266  15.367  1.00  0.00     0.001 N 
ATOM     31  N   UNL     1      27.552  39.517  14.503  1.00  0.00    -0.003 NA
ENDBRANCH  28  29
ENDBRANCH  27  28
ENDBRANCH  26  27
ENDBRANCH  20  26
BRANCH  21  32
ATOM     32  O   UNL     1      30.207  36.235  15.134  1.00  0.00    -0.387 OA
ATOM     33  H   UNL     1      30.787  36.328  14.332  1.00  0.00     0.211 HD
ENDBRANCH  21  32
BRANCH  22  34
ATOM     34  O   UNL     1      32.610  35.521  17.701  1.00  0.00    -0.385 OA
ATOM     35  H   UNL     1      33.370  36.053  18.052  1.00  0.00     0.211 HD
ENDBRANCH  22  34
ENDBRANCH  16  17
ENDBRANCH  11  16
BRANCH  13  36
ATOM     36  O   UNL     1      30.002  31.558  14.936  1.00  0.00    -0.385 OA
ATOM     37  H   UNL     1      29.018  31.671  14.902  1.00  0.00     0.211 HD
ENDBRANCH  13  36
BRANCH  14  38
ATOM     38  O   UNL     1      28.711  29.956  16.721  1.00  0.00    -0.387 OA
ATOM     39  H   UNL     1      29.397  29.297  16.388  1.00  0.00     0.211 HD
ENDBRANCH  14  38
BRANCH  15  40
ATOM     40  O   UNL     1      30.435  30.185  18.890  1.00  0.00    -0.387 OA
ATOM     41  H   UNL     1      30.086  29.658  19.654  1.00  0.00     0.211 HD
ENDBRANCH  15  40
ENDBRANCH   9  10
ENDBRANCH   8   9
ENDBRANCH   3   8
BRANCH   3  42
ATOM     42  C   UNL     1      28.813  30.831  22.640  1.00  0.00     0.364 C 
ATOM     43  O   UNL     1      28.564  30.613  23.872  1.00  0.00    -0.246 OA
BRANCH  42  44
ATOM     44  O   UNL     1      27.837  30.367  21.782  1.00  0.00    -0.477 OA
ATOM     45  H   UNL     1      26.854  30.612  21.867  1.00  0.00     0.296 HD
ENDBRANCH  42  44
ENDBRANCH   3  42
BRANCH   6  46
ATOM     46  O   UNL     1      33.052  32.119  23.757  1.00  0.00    -0.391 OA
ATOM     47  H   UNL     1      33.554  31.836  22.967  1.00  0.00     0.211 HD
ENDBRANCH   6  46
BRANCH   7  48
ATOM     48  N   UNL     1      31.475  29.234  24.749  1.00  0.00    -0.348 N 
ATOM     49  C   UNL     1      32.018  28.043  25.238  1.00  0.00     0.217 C 
ATOM     50  H   UNL     1      30.616  29.610  25.286  1.00  0.00     0.163 HD
ATOM     51  C   UNL     1      31.391  27.316  26.398  1.00  0.00     0.114 C 
ATOM     52  O   UNL     1      33.050  27.523  24.733  1.00  0.00    -0.275 OA
ENDBRANCH   7  48
ENDBRANCH   1   2
BRANCH   1  53
ATOM     53  O   UNL     1      33.575  28.738  22.185  1.00  0.00    -0.388 OA
ATOM     54  H   UNL     1      33.512  29.347  22.943  1.00  0.00     0.211 HD
ENDBRANCH   1  53
BRANCH   1  55
ATOM     55  C   UNL     1      31.876  27.441  21.221  1.00  0.00     0.165 C 
BRANCH  55  56
ATOM     56  O   UNL     1      31.893  27.038  19.908  1.00  0.00    -0.388 OA
ATOM     57  H   UNL     1      32.413  27.642  19.315  1.00  0.00     0.211 HD
ENDBRANCH  55  56
BRANCH  55  58
ATOM     58  C   UNL     1      30.594  27.059  21.894  1.00  0.00     0.154 C 
BRANCH  58  59
ATOM     59  N   UNL     1      29.501  26.953  20.963  1.00  0.00    -0.319 N 
ATOM     60  C   UNL     1      28.164  27.162  21.474  1.00  0.00     0.407 C 
ATOM     61  H   UNL     1      29.608  26.737  19.959  1.00  0.00     0.167 HD
ATOM     62  O   UNL     1      28.065  27.445  22.695  1.00  0.00    -0.225 OA
BRANCH  60  63
ATOM     63  O   UNL     1      27.072  27.050  20.654  1.00  0.00    -0.443 OA
BRANCH  63  64
ATOM     64  C   UNL     1      27.227  27.073  19.254  1.00  0.00     0.294 C 
BRANCH  64  65
ATOM     65  C   UNL     1      26.566  28.253  18.667  1.00  0.00     0.120 A 
ATOM     66  C   UNL     1      25.678  28.278  17.604  1.00  0.00     0.138 A 
ATOM     67  N   UNL     1      26.669  29.512  19.069  1.00  0.00    -0.132 NA
ATOM     68  N   UNL     1      25.271  29.530  17.392  1.00  0.00    -0.251 N 
ATOM     69  N   UNL     1      25.890  30.285  18.301  1.00  0.00    -0.067 NA
BRANCH  68  70
ATOM     70  C   UNL     1      24.345  29.979  16.366  1.00  0.00     0.162 C 
BRANCH  70  71
ATOM     71  C   UNL     1      25.118  30.346  15.100  1.00  0.00     0.122 C 
BRANCH  71  72
ATOM     72  N   UNL     1      26.320  31.058  15.426  1.00  0.00    -0.214 NA
ATOM     73  H   UNL     1      27.068  30.803  14.727  1.00  0.00     0.141 HD
BRANCH  72  74
ATOM     74  S   UNL     1      26.128  32.766  15.349  1.00  0.00     0.208 S 
ATOM     75  O   UNL     1      25.667  33.298  16.696  1.00  0.00    -0.213 OA
ATOM     76  O   UNL     1      27.504  33.334  15.057  1.00  0.00    -0.213 OA
ATOM     77  C   UNL     1      24.997  33.224  14.073  1.00  0.00     0.176 C 
ENDBRANCH  72  74
ENDBRANCH  71  72
ENDBRANCH  70  71
ENDBRANCH  68  70
ENDBRANCH  64  65
ENDBRANCH  63  64
ENDBRANCH  60  63
ENDBRANCH  58  59
ENDBRANCH  55  58
ENDBRANCH   1  55
TORSDOF 33
BEGIN_RES LYS A 131
REMARK  4 active torsions:
REMARK  status: ('A' for Active; 'I' for Inactive)
REMARK    1  A    between atoms: CA   and  CB  
REMARK    2  A    between atoms: CB   and  CG  
REMARK    3  A    between atoms: CG   and  CD  
REMARK    4  A    between atoms: CD   and  CE  
ROOT
ATOM      1  CA  LYS A 131      29.867  25.555  16.977  1.00 20.52     0.186 C 
ENDROOT
BRANCH   1   2
ATOM      2  CB  LYS A 131      28.345  25.722  17.026  1.00 20.94     0.034 C 
BRANCH   2   3
ATOM      3  CG  LYS A 131      27.599  24.477  16.572  1.00 22.96     0.005 C 
BRANCH   3   4
ATOM      4  CD  LYS A 131      27.023  23.708  17.730  1.00 24.33     0.041 C 
BRANCH   4   5
ATOM      5  CE  LYS A 131      25.549  24.062  17.892  1.00 26.91     0.338 C 
ATOM      6  NZ  LYS A 131      25.039  23.574  19.196  1.00 27.40     0.618 N 
ENDBRANCH   4   5
ENDBRANCH   3   4
ENDBRANCH   2   3
ENDBRANCH   1   2
END_RES LYS A 131
BEGIN_RES LYS A 135
REMARK  4 active torsions:
REMARK  status: ('A' for Active; 'I' for Inactive)
REMARK    5  A    between atoms: CA   and  CB  
REMARK    6  A    between atoms: CB   and  CG  
REMARK    7  A    between atoms: CG   and  CD  
REMARK    8  A    between atoms: CD   and  CE  
ROOT
ATOM      7  CA  LYS A 135      33.193  34.663   9.290  1.00 25.02     0.186 C 
ENDROOT
BRANCH   7   8
ATOM      8  CB  LYS A 135      32.060  35.360  10.034  1.00 26.63     0.034 C 
BRANCH   8   9
ATOM      9  CG  LYS A 135      30.814  35.536   9.206  1.00 29.45     0.005 C 
BRANCH   9  10
ATOM     10  CD  LYS A 135      30.044  34.227   9.110  1.00 32.00     0.041 C 
BRANCH  10  11
ATOM     11  CE  LYS A 135      28.629  34.476   8.623  1.00 34.25     0.338 C 
ATOM     12  NZ  LYS A 135      27.640  33.719   9.440  1.00 35.99     0.618 N 
ENDBRANCH  10  11
ENDBRANCH   9  10
ENDBRANCH   8   9
ENDBRANCH   7   8
END_RES LYS A 135
