REMARK VINA RESULT:    -4.903      4.629     10.020
REMARK INTER + INTRA:         -21.477
REMARK INTER:                 -10.208
REMARK INTRA:                 -11.269
REMARK UNBOUND:                -9.408
REMARK SMILES CC(=O)N[C@@H]1[C@@H](O)C[C@](OC[C@H]2O[C@@H](O[C@H]3[C@H](O)[C@@H](O)[C@H](OCCN=[N+]=[N-])O[C@@H]3CO)[C@H](O)[C@@H](O)[C@H]2O)(C(=O)O)O[C@H]1C(O)[C@H](O)CNC(=O)OCc1cn(-c2cccc(Cl)c2)nn1
REMARK SMILES IDX 9 1 8 2 6 3 5 4 42 5 41 6 10 7 11 8 12 9 14 10 13 11 32 12
REMARK SMILES IDX 34 13 36 14 15 15 16 16 29 17 28 18 21 19 17 20 19 21 30 22
REMARK SMILES IDX 31 23 22 25 23 26 24 27 25 28 26 29 27 30 18 31 20 33 33 35
REMARK SMILES IDX 35 37 37 39 38 41 39 42 40 43 7 45 43 47 44 48 45 50 46 51
REMARK SMILES IDX 47 53 48 54 49 55 50 57 51 58 52 59 53 60 54 61 64 62 55 63
REMARK SMILES IDX 63 64 56 65 57 66 62 67 58 68 60 69 59 70 61 71 4 72 2 73
REMARK SMILES IDX 1 75 3 76
REMARK H PARENT 31 24 18 32 20 34 33 36 35 38 37 40 40 44 7 46 44 49 46 52
REMARK H PARENT 48 56 4 74
REMARK Flexibility Score: inf
ROOT
ATOM      1  C   UNL     1      24.804  39.809   9.080  1.00  0.00     0.272 C 
ATOM      2  C   UNL     1      23.841  40.610   9.836  1.00  0.00     0.113 C 
ATOM      3  C   UNL     1      23.475  40.181  11.218  1.00  0.00     0.145 C 
ATOM      4  C   UNL     1      24.135  38.893  11.641  1.00  0.00     0.142 C 
ATOM      5  C   UNL     1      24.196  38.043  10.361  1.00  0.00     0.178 C 
ATOM      6  O   UNL     1      25.209  38.592   9.634  1.00  0.00    -0.332 OA
ENDROOT
BRANCH   1   7
ATOM      7  O   UNL     1      25.935  40.383   8.586  1.00  0.00    -0.338 OA
BRANCH   7   8
ATOM      8  C   UNL     1      26.974  40.763   9.329  1.00  0.00     0.199 C 
BRANCH   8   9
ATOM      9  C   UNL     1      28.351  40.291   9.000  1.00  0.00     0.179 C 
ATOM     10  C   UNL     1      30.104  39.044   9.839  1.00  0.00     0.282 C 
ATOM     11  O   UNL     1      28.754  39.396  10.014  1.00  0.00    -0.341 OA
ATOM     12  C   UNL     1      30.264  38.348   8.522  1.00  0.00     0.202 C 
ATOM     13  C   UNL     1      29.652  39.010   7.328  1.00  0.00     0.179 C 
ATOM     14  C   UNL     1      28.256  39.462   7.698  1.00  0.00     0.177 C 
BRANCH  10  15
ATOM     15  O   UNL     1      30.351  38.119  10.819  1.00  0.00    -0.341 OA
BRANCH  15  16
ATOM     16  C   UNL     1      29.360  37.908  11.776  1.00  0.00     0.184 C 
ATOM     17  C   UNL     1      29.782  38.106  13.157  1.00  0.00     0.178 C 
ATOM     18  O   UNL     1      29.393  37.110  14.020  1.00  0.00    -0.341 OA
ATOM     19  C   UNL     1      29.374  35.830  13.474  1.00  0.00     0.281 C 
ATOM     20  C   UNL     1      28.653  36.665  11.358  1.00  0.00     0.180 C 
ATOM     21  C   UNL     1      28.178  35.860  12.528  1.00  0.00     0.202 C 
BRANCH  17  22
ATOM     22  C   UNL     1      29.161  39.388  13.738  1.00  0.00     0.191 C 
BRANCH  22  23
ATOM     23  O   UNL     1      27.952  39.005  14.372  1.00  0.00    -0.394 OA
ATOM     24  H   UNL     1      27.228  39.041  13.720  1.00  0.00     0.210 HD
ENDBRANCH  22  23
ENDBRANCH  17  22
BRANCH  19  25
ATOM     25  O   UNL     1      29.155  34.932  14.479  1.00  0.00    -0.350 OA
BRANCH  25  26
ATOM     26  C   UNL     1      28.386  35.363  15.529  1.00  0.00     0.169 C 
BRANCH  26  27
ATOM     27  C   UNL     1      27.285  34.423  15.946  1.00  0.00     0.119 C 
BRANCH  27  28
ATOM     28  N   UNL     1      27.902  33.386  16.786  1.00  0.00    -0.092 NA
ATOM     29  N   UNL     1      27.892  32.226  16.323  1.00  0.00     0.001 N 
ATOM     30  N   UNL     1      28.287  31.175  15.786  1.00  0.00    -0.003 NA
ENDBRANCH  27  28
ENDBRANCH  26  27
ENDBRANCH  25  26
ENDBRANCH  19  25
BRANCH  20  31
ATOM     31  O   UNL     1      27.589  36.976  10.489  1.00  0.00    -0.387 OA
ATOM     32  H   UNL     1      26.809  37.148  11.073  1.00  0.00     0.211 HD
ENDBRANCH  20  31
BRANCH  21  33
ATOM     33  O   UNL     1      27.907  34.563  12.079  1.00  0.00    -0.385 OA
ATOM     34  H   UNL     1      28.643  34.189  11.569  1.00  0.00     0.211 HD
ENDBRANCH  21  33
ENDBRANCH  15  16
ENDBRANCH  10  15
BRANCH  12  35
ATOM     35  O   UNL     1      31.618  38.171   8.198  1.00  0.00    -0.385 OA
ATOM     36  H   UNL     1      32.165  37.992   8.995  1.00  0.00     0.211 HD
ENDBRANCH  12  35
BRANCH  13  37
ATOM     37  O   UNL     1      29.523  38.057   6.316  1.00  0.00    -0.387 OA
ATOM     38  H   UNL     1      28.633  37.674   6.236  1.00  0.00     0.211 HD
ENDBRANCH  13  37
BRANCH  14  39
ATOM     39  O   UNL     1      27.574  38.292   8.107  1.00  0.00    -0.387 OA
ATOM     40  H   UNL     1      26.969  38.447   8.849  1.00  0.00     0.211 HD
ENDBRANCH  14  39
ENDBRANCH   8   9
ENDBRANCH   7   8
ENDBRANCH   1   7
BRANCH   1  41
ATOM     41  C   UNL     1      24.066  39.354   7.811  1.00  0.00     0.364 C 
ATOM     42  O   UNL     1      22.876  39.636   7.586  1.00  0.00    -0.246 OA
BRANCH  41  43
ATOM     43  O   UNL     1      24.758  38.589   6.865  1.00  0.00    -0.477 OA
ATOM     44  H   UNL     1      25.440  37.903   7.210  1.00  0.00     0.296 HD
ENDBRANCH  41  43
ENDBRANCH   1  41
BRANCH   3  45
ATOM     45  O   UNL     1      23.719  41.140  12.185  1.00  0.00    -0.391 OA
ATOM     46  H   UNL     1      23.784  42.047  11.806  1.00  0.00     0.211 HD
ENDBRANCH   3  45
BRANCH   5  47
ATOM     47  C   UNL     1      24.355  36.567  10.684  1.00  0.00     0.176 C 
BRANCH  47  48
ATOM     48  O   UNL     1      23.161  36.250  11.382  1.00  0.00    -0.388 OA
ATOM     49  H   UNL     1      23.431  35.739  12.202  1.00  0.00     0.211 HD
ENDBRANCH  47  48
BRANCH  47  50
ATOM     50  C   UNL     1      24.296  35.777   9.393  1.00  0.00     0.165 C 
BRANCH  50  51
ATOM     51  O   UNL     1      25.354  36.135   8.576  1.00  0.00    -0.388 OA
ATOM     52  H   UNL     1      25.121  36.166   7.622  1.00  0.00     0.211 HD
ENDBRANCH  50  51
BRANCH  50  53
ATOM     53  C   UNL     1      23.006  36.142   8.650  1.00  0.00     0.154 C 
BRANCH  53  54
ATOM     54  N   UNL     1      21.904  35.309   9.044  1.00  0.00    -0.319 N 
ATOM     55  C   UNL     1      20.571  35.720   9.191  1.00  0.00     0.407 C 
ATOM     56  H   UNL     1      22.114  34.279   9.244  1.00  0.00     0.167 HD
ATOM     57  O   UNL     1      20.250  36.907   8.949  1.00  0.00    -0.225 OA
BRANCH  55  58
ATOM     58  O   UNL     1      19.552  34.819   9.613  1.00  0.00    -0.443 OA
BRANCH  58  59
ATOM     59  C   UNL     1      19.137  34.817  10.953  1.00  0.00     0.294 C 
BRANCH  59  60
ATOM     60  C   UNL     1      20.234  34.578  11.926  1.00  0.00     0.121 A 
ATOM     61  C   UNL     1      21.022  33.429  12.051  1.00  0.00     0.144 A 
ATOM     62  N   UNL     1      20.698  35.384  12.895  1.00  0.00    -0.131 NA
ATOM     63  N   UNL     1      21.899  33.587  13.058  1.00  0.00    -0.220 N 
ATOM     64  N   UNL     1      21.694  34.775  13.562  1.00  0.00    -0.062 NA
BRANCH  63  65
ATOM     65  C   UNL     1      22.832  32.584  13.438  1.00  0.00     0.068 A 
ATOM     66  C   UNL     1      23.846  32.789  14.345  1.00  0.00     0.028 A 
ATOM     67  C   UNL     1      22.752  31.296  12.882  1.00  0.00     0.049 A 
ATOM     68  C   UNL     1      24.735  31.773  14.686  1.00  0.00     0.004 A 
ATOM     69  C   UNL     1      23.631  30.296  13.219  1.00  0.00     0.043 A 
ATOM     70  C   UNL     1      24.640  30.516  14.129  1.00  0.00     0.020 A 
ATOM     71  Cl  UNL     1      23.516  28.689  12.514  1.00  0.00    -0.084 Cl
ENDBRANCH  63  65
ENDBRANCH  59  60
ENDBRANCH  58  59
ENDBRANCH  55  58
ENDBRANCH  53  54
ENDBRANCH  50  53
ENDBRANCH  47  50
ENDBRANCH   5  47
BRANCH   4  72
ATOM     72  N   UNL     1      23.467  38.246  12.721  1.00  0.00    -0.348 N 
ATOM     73  C   UNL     1      23.932  38.375  14.077  1.00  0.00     0.217 C 
ATOM     74  H   UNL     1      22.612  37.647  12.626  1.00  0.00     0.163 HD
ATOM     75  C   UNL     1      23.261  37.719  15.208  1.00  0.00     0.114 C 
ATOM     76  O   UNL     1      24.946  39.075  14.287  1.00  0.00    -0.275 OA
ENDBRANCH   4  72
TORSDOF 30
BEGIN_RES LYS A 131
REMARK  4 active torsions:
REMARK  status: ('A' for Active; 'I' for Inactive)
REMARK    1  A    between atoms: CA   and  CB  
REMARK    2  A    between atoms: CB   and  CG  
REMARK    3  A    between atoms: CG   and  CD  
REMARK    4  A    between atoms: CD   and  CE  
ROOT
ATOM      1  CA  LYS A 131      29.867  25.555  16.977  1.00 20.52     0.186 C 
ENDROOT
BRANCH   1   2
ATOM      2  CB  LYS A 131      28.345  25.722  17.026  1.00 20.94     0.034 C 
BRANCH   2   3
ATOM      3  CG  LYS A 131      27.601  24.403  16.886  1.00 22.96     0.005 C 
BRANCH   3   4
ATOM      4  CD  LYS A 131      26.516  24.252  17.916  1.00 24.33     0.041 C 
BRANCH   4   5
ATOM      5  CE  LYS A 131      25.154  24.365  17.241  1.00 26.91     0.338 C 
ATOM      6  NZ  LYS A 131      24.070  24.061  18.205  1.00 27.40     0.618 N 
ENDBRANCH   4   5
ENDBRANCH   3   4
ENDBRANCH   2   3
ENDBRANCH   1   2
END_RES LYS A 131
BEGIN_RES LYS A 135
REMARK  4 active torsions:
REMARK  status: ('A' for Active; 'I' for Inactive)
REMARK    5  A    between atoms: CA   and  CB  
REMARK    6  A    between atoms: CB   and  CG  
REMARK    7  A    between atoms: CG   and  CD  
REMARK    8  A    between atoms: CD   and  CE  
ROOT
ATOM      7  CA  LYS A 135      33.193  34.663   9.290  1.00 25.02     0.186 C 
ENDROOT
BRANCH   7   8
ATOM      8  CB  LYS A 135      32.060  35.360  10.034  1.00 26.63     0.034 C 
BRANCH   8   9
ATOM      9  CG  LYS A 135      30.708  34.741   9.789  1.00 29.45     0.005 C 
BRANCH   9  10
ATOM     10  CD  LYS A 135      30.485  34.509   8.303  1.00 32.00     0.041 C 
BRANCH  10  11
ATOM     11  CE  LYS A 135      29.068  34.882   7.912  1.00 34.25     0.338 C 
ATOM     12  NZ  LYS A 135      28.072  34.136   8.730  1.00 35.99     0.618 N 
ENDBRANCH  10  11
ENDBRANCH   9  10
ENDBRANCH   8   9
ENDBRANCH   7   8
END_RES LYS A 135
