REMARK VINA RESULT:    -3.456      5.715     10.546
REMARK INTER + INTRA:         -20.501
REMARK INTER:                  -8.151
REMARK INTRA:                 -12.351
REMARK UNBOUND:               -11.690
REMARK SMILES CC(=O)N[C@@H]1[C@@H](O)C[C@](OC[C@H]2O[C@@H](O[C@H]3[C@H](O)[C@@H](O)[C@H](OCCN=[N+]=[N-])O[C@@H]3CO)[C@H](O)[C@@H](O)[C@H]2O)(C(=O)O)O[C@H]1C(O)[C@H](O)CNC(=O)OCc1cn(CCO)nn1
REMARK SMILES IDX 9 1 8 2 6 3 5 4 42 5 41 6 10 7 11 8 12 9 14 10 13 11 32 12
REMARK SMILES IDX 34 13 36 14 15 15 16 16 29 17 28 18 21 19 17 20 19 21 30 22
REMARK SMILES IDX 31 23 22 25 23 26 24 27 25 28 26 29 27 30 18 31 20 33 33 35
REMARK SMILES IDX 35 37 37 39 38 41 39 42 40 43 7 45 43 47 44 48 45 50 46 51
REMARK SMILES IDX 47 53 48 54 49 55 50 57 51 58 52 59 53 60 54 61 60 62 55 63
REMARK SMILES IDX 59 64 56 65 57 66 58 67 4 69 2 70 1 72 3 73
REMARK H PARENT 31 24 18 32 20 34 33 36 35 38 37 40 40 44 7 46 44 49 46 52
REMARK H PARENT 48 56 58 68 4 71
REMARK Flexibility Score: inf
ROOT
ATOM      1  C   UNL     1      26.770  37.863  10.383  1.00  0.00     0.272 C 
ATOM      2  C   UNL     1      25.882  37.262   9.343  1.00  0.00     0.113 C 
ATOM      3  C   UNL     1      25.615  38.261   8.251  1.00  0.00     0.145 C 
ATOM      4  C   UNL     1      26.987  38.682   7.723  1.00  0.00     0.142 C 
ATOM      5  C   UNL     1      27.665  39.425   8.868  1.00  0.00     0.178 C 
ATOM      6  O   UNL     1      27.889  38.409   9.828  1.00  0.00    -0.332 OA
ENDROOT
BRANCH   1   7
ATOM      7  O   UNL     1      27.190  36.888  11.317  1.00  0.00    -0.338 OA
BRANCH   7   8
ATOM      8  C   UNL     1      26.876  35.605  11.014  1.00  0.00     0.199 C 
BRANCH   8   9
ATOM      9  C   UNL     1      27.225  34.660  12.175  1.00  0.00     0.179 C 
ATOM     10  C   UNL     1      28.950  34.041  13.597  1.00  0.00     0.282 C 
ATOM     11  O   UNL     1      28.575  34.728  12.443  1.00  0.00    -0.341 OA
ATOM     12  C   UNL     1      28.314  34.614  14.835  1.00  0.00     0.202 C 
ATOM     13  C   UNL     1      27.070  35.420  14.560  1.00  0.00     0.179 C 
ATOM     14  C   UNL     1      26.352  34.854  13.367  1.00  0.00     0.177 C 
BRANCH  10  15
ATOM     15  O   UNL     1      30.284  34.156  13.690  1.00  0.00    -0.341 OA
BRANCH  15  16
ATOM     16  C   UNL     1      30.858  35.225  14.266  1.00  0.00     0.184 C 
ATOM     17  C   UNL     1      31.465  36.304  13.487  1.00  0.00     0.178 C 
ATOM     18  O   UNL     1      32.578  36.809  14.135  1.00  0.00    -0.341 OA
ATOM     19  C   UNL     1      32.509  36.986  15.480  1.00  0.00     0.281 C 
ATOM     20  C   UNL     1      31.986  34.637  15.154  1.00  0.00     0.180 C 
ATOM     21  C   UNL     1      32.200  35.680  16.230  1.00  0.00     0.202 C 
BRANCH  17  22
ATOM     22  C   UNL     1      30.521  37.475  13.229  1.00  0.00     0.191 C 
BRANCH  22  23
ATOM     23  O   UNL     1      29.926  37.393  11.969  1.00  0.00    -0.394 OA
ATOM     24  H   UNL     1      30.452  36.779  11.422  1.00  0.00     0.210 HD
ENDBRANCH  22  23
ENDBRANCH  17  22
BRANCH  19  25
ATOM     25  O   UNL     1      31.740  38.019  15.935  1.00  0.00    -0.350 OA
BRANCH  25  26
ATOM     26  C   UNL     1      30.839  37.741  16.918  1.00  0.00     0.169 C 
BRANCH  26  27
ATOM     27  C   UNL     1      30.010  38.935  17.250  1.00  0.00     0.119 C 
BRANCH  27  28
ATOM     28  N   UNL     1      29.813  39.738  16.031  1.00  0.00    -0.092 NA
ATOM     29  N   UNL     1      28.739  39.528  15.438  1.00  0.00     0.001 N 
ATOM     30  N   UNL     1      27.578  39.828  15.109  1.00  0.00    -0.003 NA
ENDBRANCH  27  28
ENDBRANCH  26  27
ENDBRANCH  25  26
ENDBRANCH  19  25
BRANCH  20  31
ATOM     31  O   UNL     1      31.630  33.410  15.649  1.00  0.00    -0.387 OA
ATOM     32  H   UNL     1      32.298  33.041  16.281  1.00  0.00     0.211 HD
ENDBRANCH  20  31
BRANCH  21  33
ATOM     33  O   UNL     1      33.190  35.303  17.097  1.00  0.00    -0.385 OA
ATOM     34  H   UNL     1      33.723  36.067  17.429  1.00  0.00     0.211 HD
ENDBRANCH  21  33
ENDBRANCH  15  16
ENDBRANCH  10  15
BRANCH  12  35
ATOM     35  O   UNL     1      27.898  33.539  15.637  1.00  0.00    -0.385 OA
ATOM     36  H   UNL     1      27.154  33.035  15.252  1.00  0.00     0.211 HD
ENDBRANCH  12  35
BRANCH  13  37
ATOM     37  O   UNL     1      27.399  36.744  14.430  1.00  0.00    -0.387 OA
ATOM     38  H   UNL     1      26.718  37.251  13.887  1.00  0.00     0.211 HD
ENDBRANCH  13  37
BRANCH  14  39
ATOM     39  O   UNL     1      25.351  35.784  13.009  1.00  0.00    -0.387 OA
ATOM     40  H   UNL     1      25.751  36.655  12.764  1.00  0.00     0.211 HD
ENDBRANCH  14  39
ENDBRANCH   8   9
ENDBRANCH   7   8
ENDBRANCH   1   7
BRANCH   1  41
ATOM     41  C   UNL     1      25.979  38.817  11.190  1.00  0.00     0.364 C 
ATOM     42  O   UNL     1      24.747  38.952  11.065  1.00  0.00    -0.246 OA
BRANCH  41  43
ATOM     43  O   UNL     1      26.591  39.614  12.141  1.00  0.00    -0.477 OA
ATOM     44  H   UNL     1      26.082  40.010  12.951  1.00  0.00     0.296 HD
ENDBRANCH  41  43
ENDBRANCH   1  41
BRANCH   3  45
ATOM     45  O   UNL     1      24.952  37.645   7.166  1.00  0.00    -0.391 OA
ATOM     46  H   UNL     1      24.838  38.316   6.440  1.00  0.00     0.211 HD
ENDBRANCH   3  45
BRANCH   5  47
ATOM     47  C   UNL     1      29.036  39.836   8.436  1.00  0.00     0.176 C 
BRANCH  47  48
ATOM     48  O   UNL     1      29.536  40.877   9.220  1.00  0.00    -0.388 OA
ATOM     49  H   UNL     1      30.193  41.433   8.724  1.00  0.00     0.211 HD
ENDBRANCH  47  48
BRANCH  47  50
ATOM     50  C   UNL     1      30.068  38.793   8.246  1.00  0.00     0.165 C 
BRANCH  50  51
ATOM     51  O   UNL     1      30.598  38.635   9.600  1.00  0.00    -0.388 OA
ATOM     52  H   UNL     1      30.798  39.532   9.955  1.00  0.00     0.211 HD
ENDBRANCH  50  51
BRANCH  50  53
ATOM     53  C   UNL     1      31.308  39.266   7.508  1.00  0.00     0.154 C 
BRANCH  53  54
ATOM     54  N   UNL     1      32.365  39.691   8.368  1.00  0.00    -0.319 N 
ATOM     55  C   UNL     1      32.742  41.056   8.438  1.00  0.00     0.407 C 
ATOM     56  H   UNL     1      32.905  39.004   8.968  1.00  0.00     0.167 HD
ATOM     57  O   UNL     1      32.089  41.858   7.688  1.00  0.00    -0.225 OA
BRANCH  55  58
ATOM     58  O   UNL     1      33.727  41.584   9.228  1.00  0.00    -0.443 OA
BRANCH  58  59
ATOM     59  C   UNL     1      33.369  42.433  10.301  1.00  0.00     0.294 C 
BRANCH  59  60
ATOM     60  C   UNL     1      32.227  41.933  11.071  1.00  0.00     0.120 A 
ATOM     61  C   UNL     1      31.337  42.710  11.771  1.00  0.00     0.138 A 
ATOM     62  N   UNL     1      31.820  40.667  11.253  1.00  0.00    -0.132 NA
ATOM     63  N   UNL     1      30.420  41.914  12.356  1.00  0.00    -0.250 N 
ATOM     64  N   UNL     1      30.729  40.680  12.030  1.00  0.00    -0.067 NA
BRANCH  63  65
ATOM     65  C   UNL     1      29.300  42.370  13.191  1.00  0.00     0.174 C 
BRANCH  65  66
ATOM     66  C   UNL     1      28.239  42.942  12.284  1.00  0.00     0.179 C 
BRANCH  66  67
ATOM     67  O   UNL     1      27.925  41.957  11.333  1.00  0.00    -0.394 OA
ATOM     68  H   UNL     1      26.992  41.683  11.354  1.00  0.00     0.210 HD
ENDBRANCH  66  67
ENDBRANCH  65  66
ENDBRANCH  63  65
ENDBRANCH  59  60
ENDBRANCH  58  59
ENDBRANCH  55  58
ENDBRANCH  53  54
ENDBRANCH  50  53
ENDBRANCH  47  50
ENDBRANCH   5  47
BRANCH   4  69
ATOM     69  N   UNL     1      26.935  39.343   6.480  1.00  0.00    -0.348 N 
ATOM     70  C   UNL     1      27.585  38.924   5.296  1.00  0.00     0.217 C 
ATOM     71  H   UNL     1      26.357  40.218   6.386  1.00  0.00     0.163 HD
ATOM     72  C   UNL     1      27.444  39.722   4.061  1.00  0.00     0.114 C 
ATOM     73  O   UNL     1      28.276  37.895   5.279  1.00  0.00    -0.275 OA
ENDBRANCH   4  69
TORSDOF 32
BEGIN_RES LYS A 131
REMARK  4 active torsions:
REMARK  status: ('A' for Active; 'I' for Inactive)
REMARK    1  A    between atoms: CA   and  CB  
REMARK    2  A    between atoms: CB   and  CG  
REMARK    3  A    between atoms: CG   and  CD  
REMARK    4  A    between atoms: CD   and  CE  
ROOT
ATOM      1  CA  LYS A 131      29.867  25.555  16.977  1.00 20.52     0.186 C 
ENDROOT
BRANCH   1   2
ATOM      2  CB  LYS A 131      28.345  25.722  17.026  1.00 20.94     0.034 C 
BRANCH   2   3
ATOM      3  CG  LYS A 131      27.601  24.401  16.902  1.00 22.96     0.005 C 
BRANCH   3   4
ATOM      4  CD  LYS A 131      26.526  24.257  17.943  1.00 24.33     0.041 C 
BRANCH   4   5
ATOM      5  CE  LYS A 131      25.210  23.884  17.267  1.00 26.91     0.338 C 
ATOM      6  NZ  LYS A 131      24.837  22.487  17.592  1.00 27.40     0.618 N 
ENDBRANCH   4   5
ENDBRANCH   3   4
ENDBRANCH   2   3
ENDBRANCH   1   2
END_RES LYS A 131
BEGIN_RES LYS A 135
REMARK  4 active torsions:
REMARK  status: ('A' for Active; 'I' for Inactive)
REMARK    5  A    between atoms: CA   and  CB  
REMARK    6  A    between atoms: CB   and  CG  
REMARK    7  A    between atoms: CG   and  CD  
REMARK    8  A    between atoms: CD   and  CE  
ROOT
ATOM      7  CA  LYS A 135      33.193  34.663   9.290  1.00 25.02     0.186 C 
ENDROOT
BRANCH   7   8
ATOM      8  CB  LYS A 135      32.060  35.360  10.034  1.00 26.63     0.034 C 
BRANCH   8   9
ATOM      9  CG  LYS A 135      30.715  34.714   9.824  1.00 29.45     0.005 C 
BRANCH   9  10
ATOM     10  CD  LYS A 135      30.455  34.484   8.344  1.00 32.00     0.041 C 
BRANCH  10  11
ATOM     11  CE  LYS A 135      29.421  35.465   7.825  1.00 34.25     0.338 C 
ATOM     12  NZ  LYS A 135      28.074  34.837   7.752  1.00 35.99     0.618 N 
ENDBRANCH  10  11
ENDBRANCH   9  10
ENDBRANCH   8   9
ENDBRANCH   7   8
END_RES LYS A 135
