REMARK VINA RESULT:    -4.448      5.655     11.845
REMARK INTER + INTRA:         -24.730
REMARK INTER:                 -14.905
REMARK INTRA:                  -9.825
REMARK UNBOUND:               -13.000
REMARK SMILES CC(=O)N[C@@H]1[C@@H](O)C[C@](OC[C@H]2O[C@@H](O[C@H]3[C@H](O)[C@@H](O)[C@H](OCCN=[N+]=[N-])O[C@@H]3CO)[C@H](O)[C@@H](O)[C@H]2O)(C(=O)O)O[C@H]1C(O)[C@H](O)CNC(=O)OCc1cn(C(C)CC(=O)c2ccccc2)nn1
REMARK SMILES IDX 43 1 42 2 9 3 8 4 41 5 6 6 5 7 10 8 11 9 12 10 14 11 13 12
REMARK SMILES IDX 32 13 34 14 36 15 15 16 16 17 29 18 28 19 21 20 17 21 19 22
REMARK SMILES IDX 30 23 31 24 22 26 23 27 24 28 25 29 26 30 27 31 18 32 20 34
REMARK SMILES IDX 33 36 35 38 37 40 38 42 39 43 40 44 7 46 4 48 2 49 1 51 3 52
REMARK SMILES IDX 44 53 45 55 46 56 47 58 48 59 49 60 50 62 51 63 52 64 53 65
REMARK SMILES IDX 54 66 68 67 55 68 67 69 56 70 57 71 58 72 59 73 60 74 61 75
REMARK SMILES IDX 62 76 66 77 63 78 65 79 64 80
REMARK H PARENT 31 25 18 33 20 35 33 37 35 39 37 41 40 45 7 47 4 50 44 54
REMARK H PARENT 46 57 48 61
REMARK Flexibility Score: inf
ROOT
ATOM      1  C   UNL     1      31.736  29.073  20.824  1.00  0.00     0.176 C 
ENDROOT
BRANCH   1   2
ATOM      2  C   UNL     1      31.247  29.837  21.974  1.00  0.00     0.178 C 
ATOM      3  C   UNL     1      29.833  31.682  21.568  1.00  0.00     0.272 C 
ATOM      4  C   UNL     1      30.331  32.447  22.747  1.00  0.00     0.113 C 
ATOM      5  O   UNL     1      29.990  30.299  21.950  1.00  0.00    -0.332 OA
ATOM      6  C   UNL     1      31.534  31.774  23.379  1.00  0.00     0.145 C 
ATOM      7  C   UNL     1      32.258  30.925  22.404  1.00  0.00     0.142 C 
BRANCH   3   8
ATOM      8  O   UNL     1      30.346  31.810  20.380  1.00  0.00    -0.338 OA
BRANCH   8   9
ATOM      9  C   UNL     1      30.586  32.726  19.510  1.00  0.00     0.199 C 
BRANCH   9  10
ATOM     10  C   UNL     1      29.773  33.097  18.312  1.00  0.00     0.179 C 
ATOM     11  C   UNL     1      30.223  34.072  16.202  1.00  0.00     0.282 C 
ATOM     12  O   UNL     1      30.522  33.844  17.493  1.00  0.00    -0.341 OA
ATOM     13  C   UNL     1      29.957  32.800  15.469  1.00  0.00     0.202 C 
ATOM     14  C   UNL     1      29.143  31.850  16.224  1.00  0.00     0.179 C 
ATOM     15  C   UNL     1      28.947  32.044  17.689  1.00  0.00     0.177 C 
BRANCH  11  16
ATOM     16  O   UNL     1      31.368  34.725  15.670  1.00  0.00    -0.341 OA
BRANCH  16  17
ATOM     17  C   UNL     1      31.134  36.078  15.615  1.00  0.00     0.184 C 
ATOM     18  C   UNL     1      29.834  36.384  14.931  1.00  0.00     0.178 C 
ATOM     19  O   UNL     1      29.856  36.016  13.595  1.00  0.00    -0.341 OA
ATOM     20  C   UNL     1      30.864  36.512  12.829  1.00  0.00     0.281 C 
ATOM     21  C   UNL     1      32.285  36.739  14.828  1.00  0.00     0.180 C 
ATOM     22  C   UNL     1      32.237  36.371  13.391  1.00  0.00     0.202 C 
BRANCH  18  23
ATOM     23  C   UNL     1      29.438  37.836  15.108  1.00  0.00     0.191 C 
BRANCH  23  24
ATOM     24  O   UNL     1      29.598  38.277  16.415  1.00  0.00    -0.394 OA
ATOM     25  H   UNL     1      29.166  39.167  16.512  1.00  0.00     0.210 HD
ENDBRANCH  23  24
ENDBRANCH  18  23
BRANCH  20  26
ATOM     26  O   UNL     1      30.658  37.780  12.347  1.00  0.00    -0.350 OA
BRANCH  26  27
ATOM     27  C   UNL     1      31.594  38.229  11.456  1.00  0.00     0.169 C 
BRANCH  27  28
ATOM     28  C   UNL     1      31.023  38.491  10.088  1.00  0.00     0.119 C 
BRANCH  28  29
ATOM     29  N   UNL     1      31.476  39.796   9.643  1.00  0.00    -0.092 NA
ATOM     30  N   UNL     1      32.557  39.897   9.067  1.00  0.00     0.001 N 
ATOM     31  N   UNL     1      33.535  39.953   8.320  1.00  0.00    -0.003 NA
ENDBRANCH  28  29
ENDBRANCH  27  28
ENDBRANCH  26  27
ENDBRANCH  20  26
BRANCH  21  32
ATOM     32  O   UNL     1      32.308  38.110  15.051  1.00  0.00    -0.387 OA
ATOM     33  H   UNL     1      33.057  38.558  14.590  1.00  0.00     0.211 HD
ENDBRANCH  21  32
BRANCH  22  34
ATOM     34  O   UNL     1      32.807  35.121  13.145  1.00  0.00    -0.385 OA
ATOM     35  H   UNL     1      33.611  35.299  12.593  1.00  0.00     0.211 HD
ENDBRANCH  22  34
ENDBRANCH  16  17
ENDBRANCH  11  16
BRANCH  13  36
ATOM     36  O   UNL     1      29.290  33.085  14.241  1.00  0.00    -0.385 OA
ATOM     37  H   UNL     1      28.358  33.302  14.507  1.00  0.00     0.211 HD
ENDBRANCH  13  36
BRANCH  14  38
ATOM     38  O   UNL     1      29.666  30.546  15.984  1.00  0.00    -0.387 OA
ATOM     39  H   UNL     1      30.584  30.456  16.330  1.00  0.00     0.211 HD
ENDBRANCH  14  38
BRANCH  15  40
ATOM     40  O   UNL     1      28.989  30.805  18.295  1.00  0.00    -0.387 OA
ATOM     41  H   UNL     1      29.499  30.107  17.877  1.00  0.00     0.211 HD
ENDBRANCH  15  40
ENDBRANCH   9  10
ENDBRANCH   8   9
ENDBRANCH   3   8
BRANCH   3  42
ATOM     42  C   UNL     1      28.311  31.823  21.556  1.00  0.00     0.364 C 
ATOM     43  O   UNL     1      27.778  32.745  22.185  1.00  0.00    -0.246 OA
BRANCH  42  44
ATOM     44  O   UNL     1      27.527  30.939  20.850  1.00  0.00    -0.477 OA
ATOM     45  H   UNL     1      26.679  30.610  21.296  1.00  0.00     0.296 HD
ENDBRANCH  42  44
ENDBRANCH   3  42
BRANCH   6  46
ATOM     46  O   UNL     1      32.353  32.697  24.019  1.00  0.00    -0.391 OA
ATOM     47  H   UNL     1      32.333  32.489  25.012  1.00  0.00     0.211 HD
ENDBRANCH   6  46
BRANCH   7  48
ATOM     48  N   UNL     1      33.358  30.222  23.057  1.00  0.00    -0.348 N 
ATOM     49  C   UNL     1      34.720  30.405  22.694  1.00  0.00     0.217 C 
ATOM     50  H   UNL     1      33.140  29.559  23.822  1.00  0.00     0.163 HD
ATOM     51  C   UNL     1      35.820  29.696  23.351  1.00  0.00     0.114 C 
ATOM     52  O   UNL     1      34.997  31.222  21.751  1.00  0.00    -0.275 OA
ENDBRANCH   7  48
ENDBRANCH   1   2
BRANCH   1  53
ATOM     53  O   UNL     1      31.025  29.308  19.623  1.00  0.00    -0.388 OA
ATOM     54  H   UNL     1      31.700  29.222  18.882  1.00  0.00     0.211 HD
ENDBRANCH   1  53
BRANCH   1  55
ATOM     55  C   UNL     1      31.822  27.569  20.967  1.00  0.00     0.165 C 
BRANCH  55  56
ATOM     56  O   UNL     1      32.181  26.907  19.837  1.00  0.00    -0.388 OA
ATOM     57  H   UNL     1      32.801  26.174  20.061  1.00  0.00     0.211 HD
ENDBRANCH  55  56
BRANCH  55  58
ATOM     58  C   UNL     1      30.433  27.102  21.428  1.00  0.00     0.154 C 
BRANCH  58  59
ATOM     59  N   UNL     1      29.530  27.013  20.303  1.00  0.00    -0.319 N 
ATOM     60  C   UNL     1      28.192  27.465  20.276  1.00  0.00     0.407 C 
ATOM     61  H   UNL     1      29.865  26.582  19.386  1.00  0.00     0.167 HD
ATOM     62  O   UNL     1      27.690  28.042  21.260  1.00  0.00    -0.225 OA
BRANCH  60  63
ATOM     63  O   UNL     1      27.378  27.278  19.140  1.00  0.00    -0.443 OA
BRANCH  63  64
ATOM     64  C   UNL     1      26.080  27.909  19.119  1.00  0.00     0.294 C 
BRANCH  64  65
ATOM     65  C   UNL     1      26.134  28.783  17.890  1.00  0.00     0.120 A 
ATOM     66  C   UNL     1      25.086  29.648  17.523  1.00  0.00     0.138 A 
ATOM     67  N   UNL     1      27.040  28.905  16.939  1.00  0.00    -0.132 NA
ATOM     68  N   UNL     1      25.405  30.248  16.367  1.00  0.00    -0.249 N 
ATOM     69  N   UNL     1      26.586  29.791  16.028  1.00  0.00    -0.067 NA
BRANCH  68  70
ATOM     70  C   UNL     1      24.530  31.197  15.675  1.00  0.00     0.114 C 
ATOM     71  C   UNL     1      23.590  31.801  16.670  1.00  0.00     0.034 C 
BRANCH  70  72
ATOM     72  C   UNL     1      25.332  32.165  14.870  1.00  0.00     0.108 C 
BRANCH  72  73
ATOM     73  C   UNL     1      24.705  32.271  13.526  1.00  0.00     0.164 C 
ATOM     74  O   UNL     1      24.930  33.229  12.784  1.00  0.00    -0.294 OA
BRANCH  73  75
ATOM     75  C   UNL     1      23.803  31.184  13.115  1.00  0.00     0.018 A 
ATOM     76  C   UNL     1      24.220  29.916  12.941  1.00  0.00     0.012 A 
ATOM     77  C   UNL     1      22.456  31.525  12.910  1.00  0.00     0.012 A 
ATOM     78  C   UNL     1      23.310  28.916  12.556  1.00  0.00     0.001 A 
ATOM     79  C   UNL     1      21.588  30.540  12.535  1.00  0.00     0.001 A 
ATOM     80  C   UNL     1      21.989  29.243  12.355  1.00  0.00     0.000 A 
ENDBRANCH  73  75
ENDBRANCH  72  73
ENDBRANCH  70  72
ENDBRANCH  68  70
ENDBRANCH  64  65
ENDBRANCH  63  64
ENDBRANCH  60  63
ENDBRANCH  58  59
ENDBRANCH  55  58
ENDBRANCH   1  55
TORSDOF 33
BEGIN_RES LYS A 131
REMARK  4 active torsions:
REMARK  status: ('A' for Active; 'I' for Inactive)
REMARK    1  A    between atoms: CA   and  CB  
REMARK    2  A    between atoms: CB   and  CG  
REMARK    3  A    between atoms: CG   and  CD  
REMARK    4  A    between atoms: CD   and  CE  
ROOT
ATOM      1  CA  LYS A 131      29.867  25.555  16.977  1.00 20.52     0.186 C 
ENDROOT
BRANCH   1   2
ATOM      2  CB  LYS A 131      28.345  25.722  17.026  1.00 20.94     0.034 C 
BRANCH   2   3
ATOM      3  CG  LYS A 131      27.602  24.399  16.920  1.00 22.96     0.005 C 
BRANCH   3   4
ATOM      4  CD  LYS A 131      26.157  24.528  17.316  1.00 24.33     0.041 C 
BRANCH   4   5
ATOM      5  CE  LYS A 131      25.856  23.569  18.463  1.00 26.91     0.338 C 
ATOM      6  NZ  LYS A 131      25.503  24.322  19.690  1.00 27.40     0.618 N 
ENDBRANCH   4   5
ENDBRANCH   3   4
ENDBRANCH   2   3
ENDBRANCH   1   2
END_RES LYS A 131
BEGIN_RES LYS A 135
REMARK  4 active torsions:
REMARK  status: ('A' for Active; 'I' for Inactive)
REMARK    5  A    between atoms: CA   and  CB  
REMARK    6  A    between atoms: CB   and  CG  
REMARK    7  A    between atoms: CG   and  CD  
REMARK    8  A    between atoms: CD   and  CE  
ROOT
ATOM      7  CA  LYS A 135      33.193  34.663   9.290  1.00 25.02     0.186 C 
ENDROOT
BRANCH   7   8
ATOM      8  CB  LYS A 135      32.060  35.360  10.034  1.00 26.63     0.034 C 
BRANCH   8   9
ATOM      9  CG  LYS A 135      30.694  34.827   9.687  1.00 29.45     0.005 C 
BRANCH   9  10
ATOM     10  CD  LYS A 135      30.599  34.520   8.200  1.00 32.00     0.041 C 
BRANCH  10  11
ATOM     11  CE  LYS A 135      29.236  34.909   7.662  1.00 34.25     0.338 C 
ATOM     12  NZ  LYS A 135      29.031  36.382   7.732  1.00 35.99     0.618 N 
ENDBRANCH  10  11
ENDBRANCH   9  10
ENDBRANCH   8   9
ENDBRANCH   7   8
END_RES LYS A 135
