REMARK VINA RESULT:    -5.748      0.000      0.000
REMARK INTER + INTRA:         -23.557
REMARK INTER:                  -9.605
REMARK INTRA:                 -13.952
REMARK UNBOUND:                -9.408
REMARK SMILES CC(=O)N[C@@H]1[C@@H](O)C[C@](OC[C@H]2O[C@@H](O[C@H]3[C@H](O)[C@@H](O)[C@H](OCCN=[N+]=[N-])O[C@@H]3CO)[C@H](O)[C@@H](O)[C@H]2O)(C(=O)O)O[C@H]1C(O)[C@H](O)CNC(=O)OCc1cn(-c2cccc(Cl)c2)nn1
REMARK SMILES IDX 9 1 8 2 6 3 5 4 42 5 41 6 10 7 11 8 12 9 14 10 13 11 32 12
REMARK SMILES IDX 34 13 36 14 15 15 16 16 29 17 28 18 21 19 17 20 19 21 30 22
REMARK SMILES IDX 31 23 22 25 23 26 24 27 25 28 26 29 27 30 18 31 20 33 33 35
REMARK SMILES IDX 35 37 37 39 38 41 39 42 40 43 7 45 43 47 44 48 45 50 46 51
REMARK SMILES IDX 47 53 48 54 49 55 50 57 51 58 52 59 53 60 54 61 64 62 55 63
REMARK SMILES IDX 63 64 56 65 57 66 62 67 58 68 60 69 59 70 61 71 4 72 2 73
REMARK SMILES IDX 1 75 3 76
REMARK H PARENT 31 24 18 32 20 34 33 36 35 38 37 40 40 44 7 46 44 49 46 52
REMARK H PARENT 48 56 4 74
REMARK Flexibility Score: inf
ROOT
ATOM      1  C   UNL     1      29.834  32.059  17.307  1.00  0.00     0.272 C 
ATOM      2  C   UNL     1      31.137  32.711  17.441  1.00  0.00     0.113 C 
ATOM      3  C   UNL     1      31.187  34.146  17.847  1.00  0.00     0.145 C 
ATOM      4  C   UNL     1      29.824  34.769  18.016  1.00  0.00     0.142 C 
ATOM      5  C   UNL     1      28.954  34.112  16.932  1.00  0.00     0.178 C 
ATOM      6  O   UNL     1      28.697  32.863  17.411  1.00  0.00    -0.332 OA
ENDROOT
BRANCH   1   7
ATOM      7  O   UNL     1      29.555  30.933  18.018  1.00  0.00    -0.338 OA
BRANCH   7   8
ATOM      8  C   UNL     1      29.745  30.802  19.330  1.00  0.00     0.199 C 
BRANCH   8   9
ATOM      9  C   UNL     1      28.670  30.232  20.196  1.00  0.00     0.179 C 
ATOM     10  C   UNL     1      26.378  30.170  20.462  1.00  0.00     0.282 C 
ATOM     11  O   UNL     1      27.428  30.545  19.605  1.00  0.00    -0.341 OA
ATOM     12  C   UNL     1      26.424  28.689  20.677  1.00  0.00     0.202 C 
ATOM     13  C   UNL     1      27.748  28.099  21.049  1.00  0.00     0.179 C 
ATOM     14  C   UNL     1      28.804  28.692  20.143  1.00  0.00     0.177 C 
BRANCH  10  15
ATOM     15  O   UNL     1      25.238  30.442  19.752  1.00  0.00    -0.341 OA
BRANCH  15  16
ATOM     16  C   UNL     1      25.323  31.374  18.718  1.00  0.00     0.184 C 
ATOM     17  C   UNL     1      24.454  32.534  18.860  1.00  0.00     0.178 C 
ATOM     18  O   UNL     1      23.755  32.865  17.723  1.00  0.00    -0.341 OA
ATOM     19  C   UNL     1      23.355  31.784  16.942  1.00  0.00     0.281 C 
ATOM     20  C   UNL     1      25.349  30.579  17.459  1.00  0.00     0.180 C 
ATOM     21  C   UNL     1      24.659  31.280  16.331  1.00  0.00     0.202 C 
BRANCH  17  22
ATOM     22  C   UNL     1      25.273  33.793  19.191  1.00  0.00     0.191 C 
BRANCH  22  23
ATOM     23  O   UNL     1      26.590  33.358  19.484  1.00  0.00    -0.394 OA
ATOM     24  H   UNL     1      27.225  33.971  19.071  1.00  0.00     0.210 HD
ENDBRANCH  22  23
ENDBRANCH  17  22
BRANCH  19  25
ATOM     25  O   UNL     1      22.523  32.242  15.961  1.00  0.00    -0.350 OA
BRANCH  25  26
ATOM     26  C   UNL     1      22.362  33.601  15.879  1.00  0.00     0.169 C 
BRANCH  26  27
ATOM     27  C   UNL     1      22.220  34.147  14.482  1.00  0.00     0.119 C 
BRANCH  27  28
ATOM     28  N   UNL     1      22.451  33.026  13.558  1.00  0.00    -0.092 NA
ATOM     29  N   UNL     1      23.618  32.897  13.132  1.00  0.00     0.001 N 
ATOM     30  N   UNL     1      24.774  32.457  12.998  1.00  0.00    -0.003 NA
ENDBRANCH  27  28
ENDBRANCH  26  27
ENDBRANCH  25  26
ENDBRANCH  19  25
BRANCH  20  31
ATOM     31  O   UNL     1      26.674  30.246  17.117  1.00  0.00    -0.387 OA
ATOM     32  H   UNL     1      26.601  29.534  16.433  1.00  0.00     0.211 HD
ENDBRANCH  20  31
BRANCH  21  33
ATOM     33  O   UNL     1      24.373  30.333  15.342  1.00  0.00    -0.385 OA
ATOM     34  H   UNL     1      23.485  30.448  14.968  1.00  0.00     0.211 HD
ENDBRANCH  21  33
ENDBRANCH  15  16
ENDBRANCH  10  15
BRANCH  12  35
ATOM     35  O   UNL     1      25.539  28.291  21.691  1.00  0.00    -0.385 OA
ATOM     36  H   UNL     1      24.600  28.434  21.435  1.00  0.00     0.211 HD
ENDBRANCH  12  35
BRANCH  13  37
ATOM     37  O   UNL     1      27.706  26.728  20.793  1.00  0.00    -0.387 OA
ATOM     38  H   UNL     1      27.412  26.188  21.547  1.00  0.00     0.211 HD
ENDBRANCH  13  37
BRANCH  14  39
ATOM     39  O   UNL     1      28.396  28.376  18.826  1.00  0.00    -0.387 OA
ATOM     40  H   UNL     1      29.031  28.664  18.153  1.00  0.00     0.211 HD
ENDBRANCH  14  39
ENDBRANCH   8   9
ENDBRANCH   7   8
ENDBRANCH   1   7
BRANCH   1  41
ATOM     41  C   UNL     1      29.755  31.578  15.850  1.00  0.00     0.364 C 
ATOM     42  O   UNL     1      28.791  30.930  15.405  1.00  0.00    -0.246 OA
BRANCH  41  43
ATOM     43  O   UNL     1      30.811  31.879  14.982  1.00  0.00    -0.477 OA
ATOM     44  H   UNL     1      30.902  32.849  14.656  1.00  0.00     0.296 HD
ENDBRANCH  41  43
ENDBRANCH   1  41
BRANCH   3  45
ATOM     45  O   UNL     1      31.923  34.378  18.996  1.00  0.00    -0.391 OA
ATOM     46  H   UNL     1      32.637  33.711  19.125  1.00  0.00     0.211 HD
ENDBRANCH   3  45
BRANCH   5  47
ATOM     47  C   UNL     1      27.728  34.953  16.621  1.00  0.00     0.176 C 
BRANCH  47  48
ATOM     48  O   UNL     1      28.208  35.906  15.685  1.00  0.00    -0.388 OA
ATOM     49  H   UNL     1      28.281  35.433  14.802  1.00  0.00     0.211 HD
ENDBRANCH  47  48
BRANCH  47  50
ATOM     50  C   UNL     1      26.732  34.102  15.863  1.00  0.00     0.165 C 
BRANCH  50  51
ATOM     51  O   UNL     1      27.382  33.408  14.855  1.00  0.00    -0.388 OA
ATOM     52  H   UNL     1      27.745  32.542  15.145  1.00  0.00     0.211 HD
ENDBRANCH  50  51
BRANCH  50  53
ATOM     53  C   UNL     1      25.706  35.020  15.191  1.00  0.00     0.154 C 
BRANCH  53  54
ATOM     54  N   UNL     1      26.022  35.262  13.811  1.00  0.00    -0.319 N 
ATOM     55  C   UNL     1      26.317  36.508  13.238  1.00  0.00     0.407 C 
ATOM     56  H   UNL     1      26.035  34.417  13.155  1.00  0.00     0.167 HD
ATOM     57  O   UNL     1      26.343  37.537  13.953  1.00  0.00    -0.225 OA
BRANCH  55  58
ATOM     58  O   UNL     1      26.593  36.647  11.848  1.00  0.00    -0.443 OA
BRANCH  58  59
ATOM     59  C   UNL     1      27.923  36.649  11.401  1.00  0.00     0.294 C 
BRANCH  59  60
ATOM     60  C   UNL     1      28.862  35.915  12.289  1.00  0.00     0.121 A 
ATOM     61  C   UNL     1      29.963  36.437  12.976  1.00  0.00     0.144 A 
ATOM     62  N   UNL     1      28.876  34.612  12.614  1.00  0.00    -0.131 NA
ATOM     63  N   UNL     1      30.574  35.456  13.664  1.00  0.00    -0.220 N 
ATOM     64  N   UNL     1      29.907  34.355  13.437  1.00  0.00    -0.062 NA
BRANCH  63  65
ATOM     65  C   UNL     1      31.735  35.672  14.456  1.00  0.00     0.068 A 
ATOM     66  C   UNL     1      32.803  34.806  14.498  1.00  0.00     0.028 A 
ATOM     67  C   UNL     1      31.842  36.822  15.257  1.00  0.00     0.049 A 
ATOM     68  C   UNL     1      33.919  35.063  15.290  1.00  0.00     0.004 A 
ATOM     69  C   UNL     1      32.943  37.073  16.038  1.00  0.00     0.043 A 
ATOM     70  C   UNL     1      34.004  36.197  16.069  1.00  0.00     0.020 A 
ATOM     71  Cl  UNL     1      33.060  38.517  17.032  1.00  0.00    -0.084 Cl
ENDBRANCH  63  65
ENDBRANCH  59  60
ENDBRANCH  58  59
ENDBRANCH  55  58
ENDBRANCH  53  54
ENDBRANCH  50  53
ENDBRANCH  47  50
ENDBRANCH   5  47
BRANCH   4  72
ATOM     72  N   UNL     1      29.843  36.192  17.944  1.00  0.00    -0.348 N 
ATOM     73  C   UNL     1      29.586  37.006  19.103  1.00  0.00     0.217 C 
ATOM     74  H   UNL     1      30.041  36.747  17.077  1.00  0.00     0.163 HD
ATOM     75  C   UNL     1      29.600  38.475  19.056  1.00  0.00     0.114 C 
ATOM     76  O   UNL     1      29.343  36.430  20.185  1.00  0.00    -0.275 OA
ENDBRANCH   4  72
TORSDOF 30
BEGIN_RES LYS A 131
REMARK  4 active torsions:
REMARK  status: ('A' for Active; 'I' for Inactive)
REMARK    1  A    between atoms: CA   and  CB  
REMARK    2  A    between atoms: CB   and  CG  
REMARK    3  A    between atoms: CG   and  CD  
REMARK    4  A    between atoms: CD   and  CE  
ROOT
ATOM      1  CA  LYS A 131      29.867  25.555  16.977  1.00 20.52     0.186 C 
ENDROOT
BRANCH   1   2
ATOM      2  CB  LYS A 131      28.345  25.722  17.026  1.00 20.94     0.034 C 
BRANCH   2   3
ATOM      3  CG  LYS A 131      27.601  24.402  16.890  1.00 22.96     0.005 C 
BRANCH   3   4
ATOM      4  CD  LYS A 131      26.541  24.238  17.943  1.00 24.33     0.041 C 
BRANCH   4   5
ATOM      5  CE  LYS A 131      25.209  23.907  17.278  1.00 26.91     0.338 C 
ATOM      6  NZ  LYS A 131      24.830  22.500  17.547  1.00 27.40     0.618 N 
ENDBRANCH   4   5
ENDBRANCH   3   4
ENDBRANCH   2   3
ENDBRANCH   1   2
END_RES LYS A 131
BEGIN_RES LYS A 135
REMARK  4 active torsions:
REMARK  status: ('A' for Active; 'I' for Inactive)
REMARK    5  A    between atoms: CA   and  CB  
REMARK    6  A    between atoms: CB   and  CG  
REMARK    7  A    between atoms: CG   and  CD  
REMARK    8  A    between atoms: CD   and  CE  
ROOT
ATOM      7  CA  LYS A 135      33.193  34.663   9.290  1.00 25.02     0.186 C 
ENDROOT
BRANCH   7   8
ATOM      8  CB  LYS A 135      32.060  35.360  10.034  1.00 26.63     0.034 C 
BRANCH   8   9
ATOM      9  CG  LYS A 135      30.804  35.510   9.215  1.00 29.45     0.005 C 
BRANCH   9  10
ATOM     10  CD  LYS A 135      30.081  34.178   9.092  1.00 32.00     0.041 C 
BRANCH  10  11
ATOM     11  CE  LYS A 135      28.665  34.385   8.589  1.00 34.25     0.338 C 
ATOM     12  NZ  LYS A 135      27.681  33.666   9.445  1.00 35.99     0.618 N 
ENDBRANCH  10  11
ENDBRANCH   9  10
ENDBRANCH   8   9
ENDBRANCH   7   8
END_RES LYS A 135
