REMARK VINA RESULT:    -4.242      2.902      7.288
REMARK INTER + INTRA:         -24.505
REMARK INTER:                 -12.942
REMARK INTRA:                 -11.563
REMARK UNBOUND:               -13.073
REMARK SMILES CC(=O)N[C@@H]1[C@@H](O)C[C@](OC[C@H]2O[C@@H](O[C@H]3[C@H](O)[C@@H](O)[C@H](OCCN=[N+]=[N-])O[C@@H]3CO)[C@H](O)[C@@H](O)[C@H]2O)(C(=O)O)O[C@H]1C(O)[C@H](O)CNC(=O)OCc1cn(C[C@@H](C)CN2CCN(c3ccc(Cl)cc3)CC2)nn1
REMARK SMILES IDX 43 1 42 2 9 3 8 4 41 5 6 6 5 7 10 8 11 9 12 10 14 11 13 12
REMARK SMILES IDX 32 13 34 14 36 15 15 16 16 17 29 18 28 19 21 20 17 21 19 22
REMARK SMILES IDX 30 23 31 24 22 26 23 27 24 28 25 29 26 30 27 31 18 32 20 34
REMARK SMILES IDX 33 36 35 38 37 40 38 42 39 43 40 44 7 46 4 48 2 49 1 51 3 52
REMARK SMILES IDX 44 53 45 55 46 56 47 58 48 59 49 60 50 62 51 63 52 64 53 65
REMARK SMILES IDX 54 66 74 67 55 68 73 69 56 70 57 71 58 72 59 73 60 74 61 75
REMARK SMILES IDX 72 76 62 77 71 78 63 79 64 80 65 81 70 82 66 83 69 84 67 85
REMARK SMILES IDX 68 86
REMARK H PARENT 31 25 18 33 20 35 33 37 35 39 37 41 40 45 7 47 4 50 44 54
REMARK H PARENT 46 57 48 61
REMARK Flexibility Score: inf
ROOT
ATOM      1  C   UNL     1      18.961  33.455  11.728  1.00  0.00     0.176 C 
ENDROOT
BRANCH   1   2
ATOM      2  C   UNL     1      19.121  34.378  10.528  1.00  0.00     0.178 C 
ATOM      3  C   UNL     1      20.244  36.299   9.736  1.00  0.00     0.272 C 
ATOM      4  C   UNL     1      19.141  36.411   8.804  1.00  0.00     0.113 C 
ATOM      5  O   UNL     1      19.872  35.464  10.834  1.00  0.00    -0.332 OA
ATOM      6  C   UNL     1      17.794  36.106   9.431  1.00  0.00     0.145 C 
ATOM      7  C   UNL     1      17.823  34.626   9.837  1.00  0.00     0.142 C 
BRANCH   3   8
ATOM      8  O   UNL     1      20.780  37.368  10.318  1.00  0.00    -0.338 OA
BRANCH   8   9
ATOM      9  C   UNL     1      21.383  38.395   9.778  1.00  0.00     0.199 C 
BRANCH   9  10
ATOM     10  C   UNL     1      22.838  38.699   9.986  1.00  0.00     0.179 C 
ATOM     11  C   UNL     1      24.778  37.404   9.903  1.00  0.00     0.282 C 
ATOM     12  O   UNL     1      23.564  37.656  10.484  1.00  0.00    -0.341 OA
ATOM     13  C   UNL     1      24.559  36.987   8.461  1.00  0.00     0.202 C 
ATOM     14  C   UNL     1      23.845  38.094   7.755  1.00  0.00     0.179 C 
ATOM     15  C   UNL     1      23.417  39.202   8.656  1.00  0.00     0.177 C 
BRANCH  11  16
ATOM     16  O   UNL     1      25.314  36.287  10.587  1.00  0.00    -0.341 OA
BRANCH  16  17
ATOM     17  C   UNL     1      25.231  36.494  11.940  1.00  0.00     0.184 C 
ATOM     18  C   UNL     1      26.572  36.822  12.565  1.00  0.00     0.178 C 
ATOM     19  O   UNL     1      27.074  35.855  13.381  1.00  0.00    -0.341 OA
ATOM     20  C   UNL     1      26.259  35.439  14.418  1.00  0.00     0.281 C 
ATOM     21  C   UNL     1      24.575  35.318  12.656  1.00  0.00     0.180 C 
ATOM     22  C   UNL     1      24.785  35.539  14.136  1.00  0.00     0.202 C 
BRANCH  18  23
ATOM     23  C   UNL     1      26.585  38.208  13.190  1.00  0.00     0.191 C 
BRANCH  23  24
ATOM     24  O   UNL     1      25.416  38.892  12.968  1.00  0.00    -0.394 OA
ATOM     25  H   UNL     1      24.699  38.202  12.821  1.00  0.00     0.210 HD
ENDBRANCH  23  24
ENDBRANCH  18  23
BRANCH  20  26
ATOM     26  O   UNL     1      26.552  36.081  15.615  1.00  0.00    -0.350 OA
BRANCH  26  27
ATOM     27  C   UNL     1      27.370  35.400  16.470  1.00  0.00     0.169 C 
BRANCH  27  28
ATOM     28  C   UNL     1      26.646  34.291  17.179  1.00  0.00     0.119 C 
BRANCH  28  29
ATOM     29  N   UNL     1      25.811  34.858  18.225  1.00  0.00    -0.092 NA
ATOM     30  N   UNL     1      24.572  34.825  18.103  1.00  0.00     0.001 N 
ATOM     31  N   UNL     1      23.376  34.728  17.861  1.00  0.00    -0.003 NA
ENDBRANCH  28  29
ENDBRANCH  27  28
ENDBRANCH  26  27
ENDBRANCH  20  26
BRANCH  21  32
ATOM     32  O   UNL     1      23.201  35.305  12.424  1.00  0.00    -0.387 OA
ATOM     33  H   UNL     1      22.827  36.037  12.998  1.00  0.00     0.211 HD
ENDBRANCH  21  32
BRANCH  22  34
ATOM     34  O   UNL     1      24.140  34.486  14.831  1.00  0.00    -0.385 OA
ATOM     35  H   UNL     1      23.172  34.540  14.795  1.00  0.00     0.211 HD
ENDBRANCH  22  34
ENDBRANCH  16  17
ENDBRANCH  11  16
BRANCH  13  36
ATOM     36  O   UNL     1      25.792  36.684   7.909  1.00  0.00    -0.385 OA
ATOM     37  H   UNL     1      25.828  35.688   7.815  1.00  0.00     0.211 HD
ENDBRANCH  13  36
BRANCH  14  38
ATOM     38  O   UNL     1      22.771  37.643   6.976  1.00  0.00    -0.387 OA
ATOM     39  H   UNL     1      21.909  37.895   7.378  1.00  0.00     0.211 HD
ENDBRANCH  14  38
BRANCH  15  40
ATOM     40  O   UNL     1      22.486  40.006   8.046  1.00  0.00    -0.387 OA
ATOM     41  H   UNL     1      22.851  40.886   7.795  1.00  0.00     0.211 HD
ENDBRANCH  15  40
ENDBRANCH   9  10
ENDBRANCH   8   9
ENDBRANCH   3   8
BRANCH   3  42
ATOM     42  C   UNL     1      21.354  35.462   9.130  1.00  0.00     0.364 C 
ATOM     43  O   UNL     1      21.315  35.136   7.892  1.00  0.00    -0.246 OA
BRANCH  42  44
ATOM     44  O   UNL     1      22.440  34.998   9.827  1.00  0.00    -0.477 OA
ATOM     45  H   UNL     1      23.202  35.610  10.093  1.00  0.00     0.296 HD
ENDBRANCH  42  44
ENDBRANCH   3  42
BRANCH   6  46
ATOM     46  O   UNL     1      17.678  36.913  10.562  1.00  0.00    -0.391 OA
ATOM     47  H   UNL     1      17.221  37.764  10.357  1.00  0.00     0.211 HD
ENDBRANCH   6  46
BRANCH   7  48
ATOM     48  N   UNL     1      17.678  33.849   8.623  1.00  0.00    -0.348 N 
ATOM     49  C   UNL     1      16.428  33.266   8.296  1.00  0.00     0.217 C 
ATOM     50  H   UNL     1      18.479  33.688   7.951  1.00  0.00     0.163 HD
ATOM     51  C   UNL     1      16.319  32.465   7.025  1.00  0.00     0.114 C 
ATOM     52  O   UNL     1      15.399  33.385   9.020  1.00  0.00    -0.275 OA
ENDBRANCH   7  48
ENDBRANCH   1   2
BRANCH   1  53
ATOM     53  O   UNL     1      18.205  32.361  11.309  1.00  0.00    -0.388 OA
ATOM     54  H   UNL     1      17.991  32.419  10.349  1.00  0.00     0.211 HD
ENDBRANCH   1  53
BRANCH   1  55
ATOM     55  C   UNL     1      20.257  32.904  12.252  1.00  0.00     0.165 C 
BRANCH  55  56
ATOM     56  O   UNL     1      21.388  33.376  11.638  1.00  0.00    -0.388 OA
ATOM     57  H   UNL     1      22.206  33.125  12.101  1.00  0.00     0.211 HD
ENDBRANCH  55  56
BRANCH  55  58
ATOM     58  C   UNL     1      20.294  31.420  12.383  1.00  0.00     0.154 C 
BRANCH  58  59
ATOM     59  N   UNL     1      21.670  31.015  12.679  1.00  0.00    -0.319 N 
ATOM     60  C   UNL     1      22.118  29.694  12.442  1.00  0.00     0.407 C 
ATOM     61  H   UNL     1      22.327  31.719  13.071  1.00  0.00     0.167 HD
ATOM     62  O   UNL     1      21.297  28.869  11.972  1.00  0.00    -0.225 OA
BRANCH  60  63
ATOM     63  O   UNL     1      23.428  29.335  12.724  1.00  0.00    -0.443 OA
BRANCH  63  64
ATOM     64  C   UNL     1      24.351  30.375  13.047  1.00  0.00     0.294 C 
BRANCH  64  65
ATOM     65  C   UNL     1      24.393  30.659  14.499  1.00  0.00     0.120 A 
ATOM     66  C   UNL     1      24.991  29.899  15.479  1.00  0.00     0.138 A 
ATOM     67  N   UNL     1      23.850  31.716  15.149  1.00  0.00    -0.132 NA
ATOM     68  N   UNL     1      24.788  30.514  16.640  1.00  0.00    -0.252 N 
ATOM     69  N   UNL     1      24.097  31.613  16.436  1.00  0.00    -0.067 NA
BRANCH  68  70
ATOM     70  C   UNL     1      25.260  30.015  17.933  1.00  0.00     0.150 C 
BRANCH  70  71
ATOM     71  C   UNL     1      26.352  30.930  18.497  1.00  0.00     0.022 C 
ATOM     72  C   UNL     1      25.927  31.253  19.913  1.00  0.00     0.011 C 
BRANCH  71  73
ATOM     73  C   UNL     1      27.661  30.207  18.464  1.00  0.00     0.089 C 
BRANCH  73  74
ATOM     74  N   UNL     1      28.677  30.694  17.627  1.00  0.00    -0.299 NA
ATOM     75  C   UNL     1      29.696  31.520  18.121  1.00  0.00     0.106 C 
ATOM     76  C   UNL     1      28.304  30.875  16.261  1.00  0.00     0.106 C 
ATOM     77  C   UNL     1      29.859  32.804  17.308  1.00  0.00     0.132 C 
ATOM     78  C   UNL     1      29.541  31.186  15.437  1.00  0.00     0.132 C 
ATOM     79  N   UNL     1      30.037  32.455  15.899  1.00  0.00    -0.369 N 
BRANCH  79  80
ATOM     80  C   UNL     1      30.677  33.362  15.045  1.00  0.00     0.037 A 
ATOM     81  C   UNL     1      30.040  33.910  13.935  1.00  0.00     0.027 A 
ATOM     82  C   UNL     1      31.983  33.789  15.247  1.00  0.00     0.027 A 
ATOM     83  C   UNL     1      30.643  34.807  13.086  1.00  0.00     0.022 A 
ATOM     84  C   UNL     1      32.591  34.690  14.397  1.00  0.00     0.022 A 
ATOM     85  C   UNL     1      31.934  35.212  13.305  1.00  0.00     0.041 A 
ATOM     86  Cl  UNL     1      32.694  36.344  12.236  1.00  0.00    -0.084 Cl
ENDBRANCH  79  80
ENDBRANCH  73  74
ENDBRANCH  71  73
ENDBRANCH  70  71
ENDBRANCH  68  70
ENDBRANCH  64  65
ENDBRANCH  63  64
ENDBRANCH  60  63
ENDBRANCH  58  59
ENDBRANCH  55  58
ENDBRANCH   1  55
TORSDOF 34
BEGIN_RES LYS A 131
REMARK  4 active torsions:
REMARK  status: ('A' for Active; 'I' for Inactive)
REMARK    1  A    between atoms: CA   and  CB  
REMARK    2  A    between atoms: CB   and  CG  
REMARK    3  A    between atoms: CG   and  CD  
REMARK    4  A    between atoms: CD   and  CE  
ROOT
ATOM      1  CA  LYS A 131      29.867  25.555  16.977  1.00 20.52     0.186 C 
ENDROOT
BRANCH   1   2
ATOM      2  CB  LYS A 131      28.345  25.722  17.026  1.00 20.94     0.034 C 
BRANCH   2   3
ATOM      3  CG  LYS A 131      27.599  24.431  16.728  1.00 22.96     0.005 C 
BRANCH   3   4
ATOM      4  CD  LYS A 131      26.382  24.266  17.595  1.00 24.33     0.041 C 
BRANCH   4   5
ATOM      5  CE  LYS A 131      26.255  25.467  18.527  1.00 26.91     0.338 C 
ATOM      6  NZ  LYS A 131      25.591  25.074  19.792  1.00 27.40     0.618 N 
ENDBRANCH   4   5
ENDBRANCH   3   4
ENDBRANCH   2   3
ENDBRANCH   1   2
END_RES LYS A 131
BEGIN_RES LYS A 135
REMARK  4 active torsions:
REMARK  status: ('A' for Active; 'I' for Inactive)
REMARK    5  A    between atoms: CA   and  CB  
REMARK    6  A    between atoms: CB   and  CG  
REMARK    7  A    between atoms: CG   and  CD  
REMARK    8  A    between atoms: CD   and  CE  
ROOT
ATOM      7  CA  LYS A 135      33.193  34.663   9.290  1.00 25.02     0.186 C 
ENDROOT
BRANCH   7   8
ATOM      8  CB  LYS A 135      32.060  35.360  10.034  1.00 26.63     0.034 C 
BRANCH   8   9
ATOM      9  CG  LYS A 135      30.796  35.489   9.223  1.00 29.45     0.005 C 
BRANCH   9  10
ATOM     10  CD  LYS A 135      30.244  34.117   8.868  1.00 32.00     0.041 C 
BRANCH  10  11
ATOM     11  CE  LYS A 135      28.826  33.964   9.383  1.00 34.25     0.338 C 
ATOM     12  NZ  LYS A 135      28.337  35.231   9.993  1.00 35.99     0.618 N 
ENDBRANCH  10  11
ENDBRANCH   9  10
ENDBRANCH   8   9
ENDBRANCH   7   8
END_RES LYS A 135
