REMARK VINA RESULT:    -4.282      4.163      8.094
REMARK INTER + INTRA:         -22.623
REMARK INTER:                 -11.497
REMARK INTRA:                 -11.126
REMARK UNBOUND:               -11.833
REMARK SMILES CC(=O)N[C@@H]1[C@@H](O)C[C@](OC[C@H]2O[C@@H](O[C@H]3[C@H](O)[C@@H](O)[C@H](OCCN=[N+]=[N-])O[C@@H]3CO)[C@H](O)[C@@H](O)[C@H]2O)(C(=O)O)O[C@H]1C(O)[C@H](O)CNC(=O)OCc1cn(-c2ccccc2C(N)=O)nn1
REMARK SMILES IDX 9 1 8 2 6 3 5 4 42 5 41 6 10 7 11 8 12 9 14 10 13 11 32 12
REMARK SMILES IDX 34 13 36 14 15 15 16 16 29 17 28 18 21 19 17 20 19 21 30 22
REMARK SMILES IDX 31 23 22 25 23 26 24 27 25 28 26 29 27 30 18 31 20 33 33 35
REMARK SMILES IDX 35 37 37 39 38 41 39 42 40 43 7 45 43 47 44 48 45 50 46 51
REMARK SMILES IDX 47 53 48 54 49 55 50 57 51 58 52 59 53 60 54 61 66 62 55 63
REMARK SMILES IDX 65 64 56 65 61 66 57 67 60 68 58 69 59 70 62 71 64 72 63 73
REMARK SMILES IDX 4 76 2 77 1 79 3 80
REMARK H PARENT 31 24 18 32 20 34 33 36 35 38 37 40 40 44 7 46 44 49 46 52
REMARK H PARENT 48 56 63 74 63 75 4 78
REMARK Flexibility Score: inf
ROOT
ATOM      1  C   UNL     1      28.713  35.437   8.326  1.00  0.00     0.272 C 
ATOM      2  C   UNL     1      28.087  34.146   8.926  1.00  0.00     0.113 C 
ATOM      3  C   UNL     1      26.700  34.540   9.350  1.00  0.00     0.145 C 
ATOM      4  C   UNL     1      26.773  35.413  10.539  1.00  0.00     0.142 C 
ATOM      5  C   UNL     1      28.063  36.240  10.395  1.00  0.00     0.178 C 
ATOM      6  O   UNL     1      28.302  36.533   9.066  1.00  0.00    -0.332 OA
ENDROOT
BRANCH   1   7
ATOM      7  O   UNL     1      28.185  35.492   7.050  1.00  0.00    -0.338 OA
BRANCH   7   8
ATOM      8  C   UNL     1      28.992  36.076   6.119  1.00  0.00     0.199 C 
BRANCH   8   9
ATOM      9  C   UNL     1      28.551  37.484   5.759  1.00  0.00     0.179 C 
ATOM     10  C   UNL     1      26.689  38.856   6.043  1.00  0.00     0.282 C 
ATOM     11  O   UNL     1      27.302  37.651   6.353  1.00  0.00    -0.341 OA
ATOM     12  C   UNL     1      27.515  39.819   5.275  1.00  0.00     0.202 C 
ATOM     13  C   UNL     1      28.971  39.861   5.633  1.00  0.00     0.179 C 
ATOM     14  C   UNL     1      29.452  38.555   6.281  1.00  0.00     0.177 C 
BRANCH  10  15
ATOM     15  O   UNL     1      26.281  39.421   7.238  1.00  0.00    -0.341 OA
BRANCH  15  16
ATOM     16  C   UNL     1      24.907  39.555   7.342  1.00  0.00     0.184 C 
ATOM     17  C   UNL     1      24.617  40.763   8.206  1.00  0.00     0.178 C 
ATOM     18  O   UNL     1      24.381  40.443   9.499  1.00  0.00    -0.341 OA
ATOM     19  C   UNL     1      23.267  39.712   9.700  1.00  0.00     0.281 C 
ATOM     20  C   UNL     1      24.404  38.298   8.044  1.00  0.00     0.180 C 
ATOM     21  C   UNL     1      23.146  38.553   8.793  1.00  0.00     0.202 C 
BRANCH  17  22
ATOM     22  C   UNL     1      23.469  41.544   7.629  1.00  0.00     0.191 C 
BRANCH  22  23
ATOM     23  O   UNL     1      23.841  42.857   7.322  1.00  0.00    -0.394 OA
ATOM     24  H   UNL     1      23.531  43.415   8.097  1.00  0.00     0.210 HD
ENDBRANCH  22  23
ENDBRANCH  17  22
BRANCH  19  25
ATOM     25  O   UNL     1      22.091  40.474   9.776  1.00  0.00    -0.350 OA
BRANCH  25  26
ATOM     26  C   UNL     1      21.382  40.289  10.936  1.00  0.00     0.169 C 
BRANCH  26  27
ATOM     27  C   UNL     1      19.935  40.090  10.633  1.00  0.00     0.119 C 
BRANCH  27  28
ATOM     28  N   UNL     1      19.613  38.688  10.715  1.00  0.00    -0.092 NA
ATOM     29  N   UNL     1      19.586  37.950   9.722  1.00  0.00     0.001 N 
ATOM     30  N   UNL     1      19.816  37.383   8.651  1.00  0.00    -0.003 NA
ENDBRANCH  27  28
ENDBRANCH  26  27
ENDBRANCH  25  26
ENDBRANCH  19  25
BRANCH  20  31
ATOM     31  O   UNL     1      24.185  37.289   7.112  1.00  0.00    -0.387 OA
ATOM     32  H   UNL     1      23.266  36.892   7.235  1.00  0.00     0.211 HD
ENDBRANCH  20  31
BRANCH  21  33
ATOM     33  O   UNL     1      22.872  37.397   9.566  1.00  0.00    -0.385 OA
ATOM     34  H   UNL     1      23.256  36.608   9.085  1.00  0.00     0.211 HD
ENDBRANCH  21  33
ENDBRANCH  15  16
ENDBRANCH  10  15
BRANCH  12  35
ATOM     35  O   UNL     1      27.334  39.689   3.881  1.00  0.00    -0.385 OA
ATOM     36  H   UNL     1      27.241  38.729   3.700  1.00  0.00     0.211 HD
ENDBRANCH  12  35
BRANCH  13  37
ATOM     37  O   UNL     1      29.225  40.881   6.551  1.00  0.00    -0.387 OA
ATOM     38  H   UNL     1      29.198  41.786   6.114  1.00  0.00     0.211 HD
ENDBRANCH  13  37
BRANCH  14  39
ATOM     39  O   UNL     1      29.258  38.650   7.671  1.00  0.00    -0.387 OA
ATOM     40  H   UNL     1      29.291  39.557   8.014  1.00  0.00     0.211 HD
ENDBRANCH  14  39
ENDBRANCH   8   9
ENDBRANCH   7   8
ENDBRANCH   1   7
BRANCH   1  41
ATOM     41  C   UNL     1      30.174  35.327   8.362  1.00  0.00     0.364 C 
ATOM     42  O   UNL     1      30.740  34.181   8.305  1.00  0.00    -0.246 OA
BRANCH  41  43
ATOM     43  O   UNL     1      30.964  36.475   8.457  1.00  0.00    -0.477 OA
ATOM     44  H   UNL     1      30.937  37.107   7.660  1.00  0.00     0.296 HD
ENDBRANCH  41  43
ENDBRANCH   1  41
BRANCH   3  45
ATOM     45  O   UNL     1      26.184  35.339   8.297  1.00  0.00    -0.391 OA
ATOM     46  H   UNL     1      25.341  34.929   7.972  1.00  0.00     0.211 HD
ENDBRANCH   3  45
BRANCH   5  47
ATOM     47  C   UNL     1      28.026  37.430  11.311  1.00  0.00     0.176 C 
BRANCH  47  48
ATOM     48  O   UNL     1      29.161  38.206  11.003  1.00  0.00    -0.388 OA
ATOM     49  H   UNL     1      29.709  38.341  11.823  1.00  0.00     0.211 HD
ENDBRANCH  47  48
BRANCH  47  50
ATOM     50  C   UNL     1      26.836  38.338  10.989  1.00  0.00     0.165 C 
BRANCH  50  51
ATOM     51  O   UNL     1      27.108  39.022   9.793  1.00  0.00    -0.388 OA
ATOM     52  H   UNL     1      26.768  38.436   9.067  1.00  0.00     0.211 HD
ENDBRANCH  50  51
BRANCH  50  53
ATOM     53  C   UNL     1      26.575  39.333  12.068  1.00  0.00     0.154 C 
BRANCH  53  54
ATOM     54  N   UNL     1      26.972  40.657  11.672  1.00  0.00    -0.319 N 
ATOM     55  C   UNL     1      28.123  41.321  12.163  1.00  0.00     0.407 C 
ATOM     56  H   UNL     1      26.356  41.158  10.968  1.00  0.00     0.167 HD
ATOM     57  O   UNL     1      28.935  40.861  12.966  1.00  0.00    -0.225 OA
BRANCH  55  58
ATOM     58  O   UNL     1      28.400  42.635  11.713  1.00  0.00    -0.443 OA
BRANCH  58  59
ATOM     59  C   UNL     1      28.639  42.866  10.323  1.00  0.00     0.294 C 
BRANCH  59  60
ATOM     60  C   UNL     1      29.844  42.147   9.870  1.00  0.00     0.121 A 
ATOM     61  C   UNL     1      31.116  42.635   9.690  1.00  0.00     0.144 A 
ATOM     62  N   UNL     1      29.916  40.846   9.540  1.00  0.00    -0.131 NA
ATOM     63  N   UNL     1      31.925  41.641   9.260  1.00  0.00    -0.220 N 
ATOM     64  N   UNL     1      31.150  40.556   9.180  1.00  0.00    -0.062 NA
BRANCH  63  65
ATOM     65  C   UNL     1      33.304  41.686   8.942  1.00  0.00     0.079 A 
ATOM     66  C   UNL     1      33.744  41.023   7.826  1.00  0.00     0.065 A 
ATOM     67  C   UNL     1      34.201  42.379   9.731  1.00  0.00     0.029 A 
ATOM     68  C   UNL     1      35.088  41.032   7.466  1.00  0.00     0.016 A 
ATOM     69  C   UNL     1      35.554  42.399   9.387  1.00  0.00     0.002 A 
ATOM     70  C   UNL     1      35.976  41.726   8.262  1.00  0.00     0.001 A 
BRANCH  66  71
ATOM     71  C   UNL     1      32.798  40.298   7.003  1.00  0.00     0.250 C 
ATOM     72  O   UNL     1      32.211  40.908   6.075  1.00  0.00    -0.269 OA
ATOM     73  N   UNL     1      32.486  38.934   7.178  1.00  0.00    -0.366 N 
ATOM     74  H   UNL     1      32.645  38.267   6.407  1.00  0.00     0.159 HD
ATOM     75  H   UNL     1      32.100  38.607   8.076  1.00  0.00     0.159 HD
ENDBRANCH  66  71
ENDBRANCH  63  65
ENDBRANCH  59  60
ENDBRANCH  58  59
ENDBRANCH  55  58
ENDBRANCH  53  54
ENDBRANCH  50  53
ENDBRANCH  47  50
ENDBRANCH   5  47
BRANCH   4  76
ATOM     76  N   UNL     1      26.806  34.791  11.804  1.00  0.00    -0.348 N 
ATOM     77  C   UNL     1      25.722  34.831  12.718  1.00  0.00     0.217 C 
ATOM     78  H   UNL     1      27.669  34.272  12.091  1.00  0.00     0.163 HD
ATOM     79  C   UNL     1      25.720  34.192  14.052  1.00  0.00     0.114 C 
ATOM     80  O   UNL     1      24.707  35.478  12.303  1.00  0.00    -0.275 OA
ENDBRANCH   4  76
TORSDOF 31
BEGIN_RES LYS A 131
REMARK  4 active torsions:
REMARK  status: ('A' for Active; 'I' for Inactive)
REMARK    1  A    between atoms: CA   and  CB  
REMARK    2  A    between atoms: CB   and  CG  
REMARK    3  A    between atoms: CG   and  CD  
REMARK    4  A    between atoms: CD   and  CE  
ROOT
ATOM      1  CA  LYS A 131      29.867  25.555  16.977  1.00 20.52     0.186 C 
ENDROOT
BRANCH   1   2
ATOM      2  CB  LYS A 131      28.345  25.722  17.026  1.00 20.94     0.034 C 
BRANCH   2   3
ATOM      3  CG  LYS A 131      27.601  24.401  16.901  1.00 22.96     0.005 C 
BRANCH   3   4
ATOM      4  CD  LYS A 131      26.156  24.525  17.297  1.00 24.33     0.041 C 
BRANCH   4   5
ATOM      5  CE  LYS A 131      25.959  23.941  18.692  1.00 26.91     0.338 C 
ATOM      6  NZ  LYS A 131      24.667  23.220  18.775  1.00 27.40     0.618 N 
ENDBRANCH   4   5
ENDBRANCH   3   4
ENDBRANCH   2   3
ENDBRANCH   1   2
END_RES LYS A 131
BEGIN_RES LYS A 135
REMARK  4 active torsions:
REMARK  status: ('A' for Active; 'I' for Inactive)
REMARK    5  A    between atoms: CA   and  CB  
REMARK    6  A    between atoms: CB   and  CG  
REMARK    7  A    between atoms: CG   and  CD  
REMARK    8  A    between atoms: CD   and  CE  
ROOT
ATOM      7  CA  LYS A 135      33.193  34.663   9.290  1.00 25.02     0.186 C 
ENDROOT
BRANCH   7   8
ATOM      8  CB  LYS A 135      32.060  35.360  10.034  1.00 26.63     0.034 C 
BRANCH   8   9
ATOM      9  CG  LYS A 135      32.242  35.376  11.530  1.00 29.45     0.005 C 
BRANCH   9  10
ATOM     10  CD  LYS A 135      32.266  36.804  12.052  1.00 32.00     0.041 C 
BRANCH  10  11
ATOM     11  CE  LYS A 135      31.913  36.838  13.527  1.00 34.25     0.338 C 
ATOM     12  NZ  LYS A 135      31.121  38.055  13.861  1.00 35.99     0.618 N 
ENDBRANCH  10  11
ENDBRANCH   9  10
ENDBRANCH   8   9
ENDBRANCH   7   8
END_RES LYS A 135
