REMARK VINA RESULT:    -5.295      5.969     11.215
REMARK INTER + INTRA:         -22.613
REMARK INTER:                 -11.251
REMARK INTRA:                 -11.363
REMARK UNBOUND:                -8.960
REMARK SMILES CC(=O)N[C@@H]1[C@@H](O)C[C@](OC[C@H]2O[C@@H](O[C@H]3[C@H](O)[C@@H](O)[C@H](OCCN=[N+]=[N-])O[C@@H]3CO)[C@H](O)[C@@H](O)[C@H]2O)(C(=O)O)O[C@H]1C(O)[C@H](O)CNC(=O)OCc1cn(Cc2cccc(C#N)c2)nn1
REMARK SMILES IDX 9 1 8 2 6 3 5 4 42 5 41 6 10 7 11 8 12 9 14 10 13 11 32 12
REMARK SMILES IDX 34 13 36 14 15 15 16 16 29 17 28 18 21 19 17 20 19 21 30 22
REMARK SMILES IDX 31 23 22 25 23 26 24 27 25 28 26 29 27 30 18 31 20 33 33 35
REMARK SMILES IDX 35 37 37 39 38 41 39 42 40 43 7 45 43 47 44 48 45 50 46 51
REMARK SMILES IDX 47 53 48 54 49 55 50 57 51 58 52 59 53 60 54 61 66 62 55 63
REMARK SMILES IDX 65 64 56 65 57 66 58 67 64 68 59 69 61 70 60 71 62 72 63 73
REMARK SMILES IDX 4 74 2 75 1 77 3 78
REMARK H PARENT 31 24 18 32 20 34 33 36 35 38 37 40 40 44 7 46 44 49 46 52
REMARK H PARENT 48 56 4 76
REMARK Flexibility Score: inf
ROOT
ATOM      1  C   UNL     1      22.517  36.177  11.578  1.00  0.00     0.272 C 
ATOM      2  C   UNL     1      23.205  35.246  10.609  1.00  0.00     0.113 C 
ATOM      3  C   UNL     1      22.975  35.470   9.175  1.00  0.00     0.145 C 
ATOM      4  C   UNL     1      21.579  36.040   8.899  1.00  0.00     0.142 C 
ATOM      5  C   UNL     1      21.220  37.139   9.794  1.00  0.00     0.178 C 
ATOM      6  O   UNL     1      21.746  37.158  11.045  1.00  0.00    -0.332 OA
ENDROOT
BRANCH   1   7
ATOM      7  O   UNL     1      23.432  36.737  12.348  1.00  0.00    -0.338 OA
BRANCH   7   8
ATOM      8  C   UNL     1      24.594  36.753  12.796  1.00  0.00     0.199 C 
BRANCH   8   9
ATOM      9  C   UNL     1      25.669  37.775  12.554  1.00  0.00     0.179 C 
ATOM     10  C   UNL     1      27.833  37.962  11.954  1.00  0.00     0.282 C 
ATOM     11  O   UNL     1      26.716  37.133  11.789  1.00  0.00    -0.341 OA
ATOM     12  C   UNL     1      27.670  39.259  11.237  1.00  0.00     0.202 C 
ATOM     13  C   UNL     1      26.279  39.842  11.402  1.00  0.00     0.179 C 
ATOM     14  C   UNL     1      25.203  38.819  11.521  1.00  0.00     0.177 C 
BRANCH  10  15
ATOM     15  O   UNL     1      28.963  37.298  11.482  1.00  0.00    -0.341 OA
BRANCH  15  16
ATOM     16  C   UNL     1      29.818  36.924  12.485  1.00  0.00     0.184 C 
ATOM     17  C   UNL     1      31.236  37.251  12.190  1.00  0.00     0.178 C 
ATOM     18  O   UNL     1      32.121  36.811  13.147  1.00  0.00    -0.341 OA
ATOM     19  C   UNL     1      32.009  35.486  13.508  1.00  0.00     0.281 C 
ATOM     20  C   UNL     1      29.778  35.361  12.486  1.00  0.00     0.180 C 
ATOM     21  C   UNL     1      30.613  34.984  13.692  1.00  0.00     0.202 C 
BRANCH  17  22
ATOM     22  C   UNL     1      31.425  38.747  12.078  1.00  0.00     0.191 C 
BRANCH  22  23
ATOM     23  O   UNL     1      30.926  39.374  13.224  1.00  0.00    -0.394 OA
ATOM     24  H   UNL     1      30.113  39.880  13.062  1.00  0.00     0.210 HD
ENDBRANCH  22  23
ENDBRANCH  17  22
BRANCH  19  25
ATOM     25  O   UNL     1      32.639  35.361  14.764  1.00  0.00    -0.350 OA
BRANCH  25  26
ATOM     26  C   UNL     1      31.897  35.998  15.724  1.00  0.00     0.169 C 
BRANCH  26  27
ATOM     27  C   UNL     1      31.939  35.298  17.053  1.00  0.00     0.119 C 
BRANCH  27  28
ATOM     28  N   UNL     1      31.668  33.883  16.959  1.00  0.00    -0.092 NA
ATOM     29  N   UNL     1      30.498  33.494  17.084  1.00  0.00     0.001 N 
ATOM     30  N   UNL     1      29.380  32.967  17.281  1.00  0.00    -0.003 NA
ENDBRANCH  27  28
ENDBRANCH  26  27
ENDBRANCH  25  26
ENDBRANCH  19  25
BRANCH  20  31
ATOM     31  O   UNL     1      28.465  34.982  12.575  1.00  0.00    -0.387 OA
ATOM     32  H   UNL     1      28.362  34.083  13.001  1.00  0.00     0.211 HD
ENDBRANCH  20  31
BRANCH  21  33
ATOM     33  O   UNL     1      30.643  33.593  13.759  1.00  0.00    -0.385 OA
ATOM     34  H   UNL     1      29.975  33.261  13.091  1.00  0.00     0.211 HD
ENDBRANCH  21  33
ENDBRANCH  15  16
ENDBRANCH  10  15
BRANCH  12  35
ATOM     35  O   UNL     1      28.529  40.201  11.848  1.00  0.00    -0.385 OA
ATOM     36  H   UNL     1      28.594  39.931  12.796  1.00  0.00     0.211 HD
ENDBRANCH  12  35
BRANCH  13  37
ATOM     37  O   UNL     1      26.031  40.574  10.230  1.00  0.00    -0.387 OA
ATOM     38  H   UNL     1      25.100  40.533   9.939  1.00  0.00     0.211 HD
ENDBRANCH  13  37
BRANCH  14  39
ATOM     39  O   UNL     1      25.118  38.167  10.280  1.00  0.00    -0.387 OA
ATOM     40  H   UNL     1      24.312  38.414   9.786  1.00  0.00     0.211 HD
ENDBRANCH  14  39
ENDBRANCH   8   9
ENDBRANCH   7   8
ENDBRANCH   1   7
BRANCH   1  41
ATOM     41  C   UNL     1      21.563  35.316  12.364  1.00  0.00     0.364 C 
ATOM     42  O   UNL     1      21.115  34.225  11.874  1.00  0.00    -0.246 OA
BRANCH  41  43
ATOM     43  O   UNL     1      21.144  35.662  13.620  1.00  0.00    -0.477 OA
ATOM     44  H   UNL     1      20.137  35.858  13.741  1.00  0.00     0.296 HD
ENDBRANCH  41  43
ENDBRANCH   1  41
BRANCH   3  45
ATOM     45  O   UNL     1      23.923  36.347   8.668  1.00  0.00    -0.391 OA
ATOM     46  H   UNL     1      23.540  37.198   8.350  1.00  0.00     0.211 HD
ENDBRANCH   3  45
BRANCH   5  47
ATOM     47  C   UNL     1      21.537  38.526   9.273  1.00  0.00     0.176 C 
BRANCH  47  48
ATOM     48  O   UNL     1      21.935  38.299   7.913  1.00  0.00    -0.388 OA
ATOM     49  H   UNL     1      21.984  37.323   7.792  1.00  0.00     0.211 HD
ENDBRANCH  47  48
BRANCH  47  50
ATOM     50  C   UNL     1      20.455  39.520   9.193  1.00  0.00     0.165 C 
BRANCH  50  51
ATOM     51  O   UNL     1      19.719  39.078   8.009  1.00  0.00    -0.388 OA
ATOM     52  H   UNL     1      20.044  38.152   7.797  1.00  0.00     0.211 HD
ENDBRANCH  50  51
BRANCH  50  53
ATOM     53  C   UNL     1      20.801  40.926   8.866  1.00  0.00     0.154 C 
BRANCH  53  54
ATOM     54  N   UNL     1      21.976  41.143   8.086  1.00  0.00    -0.319 N 
ATOM     55  C   UNL     1      23.166  41.644   8.713  1.00  0.00     0.407 C 
ATOM     56  H   UNL     1      22.030  40.956   7.078  1.00  0.00     0.167 HD
ATOM     57  O   UNL     1      23.110  41.867   9.944  1.00  0.00    -0.225 OA
BRANCH  55  58
ATOM     58  O   UNL     1      24.329  41.876   8.038  1.00  0.00    -0.443 OA
BRANCH  58  59
ATOM     59  C   UNL     1      24.567  41.329   6.724  1.00  0.00     0.294 C 
BRANCH  59  60
ATOM     60  C   UNL     1      25.321  40.051   6.863  1.00  0.00     0.120 A 
ATOM     61  C   UNL     1      26.510  39.721   6.254  1.00  0.00     0.138 A 
ATOM     62  N   UNL     1      24.980  38.988   7.599  1.00  0.00    -0.132 NA
ATOM     63  N   UNL     1      26.873  38.462   6.631  1.00  0.00    -0.248 N 
ATOM     64  N   UNL     1      25.920  38.044   7.450  1.00  0.00    -0.067 NA
BRANCH  63  65
ATOM     65  C   UNL     1      28.045  37.753   6.204  1.00  0.00     0.181 C 
BRANCH  65  66
ATOM     66  C   UNL     1      29.251  38.471   6.676  1.00  0.00    -0.025 A 
ATOM     67  C   UNL     1      29.576  38.605   8.000  1.00  0.00     0.006 A 
ATOM     68  C   UNL     1      30.106  39.046   5.742  1.00  0.00     0.025 A 
ATOM     69  C   UNL     1      30.692  39.275   8.428  1.00  0.00     0.002 A 
ATOM     70  C   UNL     1      31.224  39.717   6.171  1.00  0.00     0.052 A 
ATOM     71  C   UNL     1      31.561  39.859   7.517  1.00  0.00     0.019 A 
BRANCH  70  72
ATOM     72  C   UNL     1      32.106  40.306   5.197  1.00  0.00     0.099 C 
ATOM     73  N   UNL     1      32.818  40.798   4.410  1.00  0.00    -0.192 NA
ENDBRANCH  70  72
ENDBRANCH  65  66
ENDBRANCH  63  65
ENDBRANCH  59  60
ENDBRANCH  58  59
ENDBRANCH  55  58
ENDBRANCH  53  54
ENDBRANCH  50  53
ENDBRANCH  47  50
ENDBRANCH   5  47
BRANCH   4  74
ATOM     74  N   UNL     1      20.633  34.929   8.828  1.00  0.00    -0.348 N 
ATOM     75  C   UNL     1      19.490  35.046   8.010  1.00  0.00     0.217 C 
ATOM     76  H   UNL     1      20.739  34.033   9.344  1.00  0.00     0.163 HD
ATOM     77  C   UNL     1      18.472  33.965   7.877  1.00  0.00     0.114 C 
ATOM     78  O   UNL     1      19.320  36.097   7.370  1.00  0.00    -0.275 OA
ENDBRANCH   4  74
TORSDOF 32
BEGIN_RES LYS A 131
REMARK  4 active torsions:
REMARK  status: ('A' for Active; 'I' for Inactive)
REMARK    1  A    between atoms: CA   and  CB  
REMARK    2  A    between atoms: CB   and  CG  
REMARK    3  A    between atoms: CG   and  CD  
REMARK    4  A    between atoms: CD   and  CE  
ROOT
ATOM      1  CA  LYS A 131      29.867  25.555  16.977  1.00 20.52     0.186 C 
ENDROOT
BRANCH   1   2
ATOM      2  CB  LYS A 131      28.345  25.722  17.026  1.00 20.94     0.034 C 
BRANCH   2   3
ATOM      3  CG  LYS A 131      27.601  24.402  16.889  1.00 22.96     0.005 C 
BRANCH   3   4
ATOM      4  CD  LYS A 131      26.158  24.521  17.296  1.00 24.33     0.041 C 
BRANCH   4   5
ATOM      5  CE  LYS A 131      26.061  25.292  18.608  1.00 26.91     0.338 C 
ATOM      6  NZ  LYS A 131      25.517  24.426  19.680  1.00 27.40     0.618 N 
ENDBRANCH   4   5
ENDBRANCH   3   4
ENDBRANCH   2   3
ENDBRANCH   1   2
END_RES LYS A 131
BEGIN_RES LYS A 135
REMARK  4 active torsions:
REMARK  status: ('A' for Active; 'I' for Inactive)
REMARK    5  A    between atoms: CA   and  CB  
REMARK    6  A    between atoms: CB   and  CG  
REMARK    7  A    between atoms: CG   and  CD  
REMARK    8  A    between atoms: CD   and  CE  
ROOT
ATOM      7  CA  LYS A 135      33.193  34.663   9.290  1.00 25.02     0.186 C 
ENDROOT
BRANCH   7   8
ATOM      8  CB  LYS A 135      32.060  35.360  10.034  1.00 26.63     0.034 C 
BRANCH   8   9
ATOM      9  CG  LYS A 135      30.847  35.620   9.178  1.00 29.45     0.005 C 
BRANCH   9  10
ATOM     10  CD  LYS A 135      30.045  34.343   8.982  1.00 32.00     0.041 C 
BRANCH  10  11
ATOM     11  CE  LYS A 135      28.775  34.627   8.203  1.00 34.25     0.338 C 
ATOM     12  NZ  LYS A 135      27.696  35.128   9.099  1.00 35.99     0.618 N 
ENDBRANCH  10  11
ENDBRANCH   9  10
ENDBRANCH   8   9
ENDBRANCH   7   8
END_RES LYS A 135
