REMARK VINA RESULT:    -4.883      2.550      7.665
REMARK INTER + INTRA:         -22.683
REMARK INTER:                 -12.354
REMARK INTRA:                 -10.329
REMARK UNBOUND:               -10.664
REMARK SMILES CC(=O)N[C@@H]1[C@@H](O)C[C@](OC[C@H]2O[C@@H](O[C@H]3[C@H](O)[C@@H](O)[C@H](OCCN=[N+]=[N-])O[C@@H]3CO)[C@H](O)[C@@H](O)[C@H]2O)(C(=O)O)O[C@H]1C(O)[C@H](O)CNC(=O)OCc1cn(-c2ccc(Br)cc2)nn1
REMARK SMILES IDX 9 1 8 2 6 3 5 4 42 5 41 6 10 7 11 8 12 9 14 10 13 11 32 12
REMARK SMILES IDX 34 13 36 14 15 15 16 16 29 17 28 18 21 19 17 20 19 21 30 22
REMARK SMILES IDX 31 23 22 25 23 26 24 27 25 28 26 29 27 30 18 31 20 33 33 35
REMARK SMILES IDX 35 37 37 39 38 41 39 42 40 43 7 45 43 47 44 48 45 50 46 51
REMARK SMILES IDX 47 53 48 54 49 55 50 57 51 58 52 59 53 60 54 61 64 62 55 63
REMARK SMILES IDX 63 64 56 65 57 66 62 67 58 68 61 69 59 70 60 71 4 72 2 73
REMARK SMILES IDX 1 75 3 76
REMARK H PARENT 31 24 18 32 20 34 33 36 35 38 37 40 40 44 7 46 44 49 46 52
REMARK H PARENT 48 56 4 74
REMARK Flexibility Score: inf
ROOT
ATOM      1  C   UNL     1      28.851  32.369  16.785  1.00  0.00     0.272 C 
ATOM      2  C   UNL     1      29.912  31.579  17.598  1.00  0.00     0.113 C 
ATOM      3  C   UNL     1      29.215  30.898  18.717  1.00  0.00     0.145 C 
ATOM      4  C   UNL     1      28.135  29.996  18.087  1.00  0.00     0.142 C 
ATOM      5  C   UNL     1      27.130  30.960  17.500  1.00  0.00     0.178 C 
ATOM      6  O   UNL     1      27.779  31.589  16.461  1.00  0.00    -0.332 OA
ENDROOT
BRANCH   1   7
ATOM      7  O   UNL     1      29.546  32.679  15.611  1.00  0.00    -0.338 OA
BRANCH   7   8
ATOM      8  C   UNL     1      30.838  32.253  15.556  1.00  0.00     0.199 C 
BRANCH   8   9
ATOM      9  C   UNL     1      31.603  33.277  14.693  1.00  0.00     0.179 C 
ATOM     10  C   UNL     1      31.151  35.305  13.649  1.00  0.00     0.282 C 
ATOM     11  O   UNL     1      30.749  34.023  13.933  1.00  0.00    -0.341 OA
ATOM     12  C   UNL     1      32.609  35.519  13.710  1.00  0.00     0.202 C 
ATOM     13  C   UNL     1      33.299  35.012  14.936  1.00  0.00     0.179 C 
ATOM     14  C   UNL     1      32.375  34.118  15.698  1.00  0.00     0.177 C 
BRANCH  10  15
ATOM     15  O   UNL     1      30.361  36.149  14.428  1.00  0.00    -0.341 OA
BRANCH  15  16
ATOM     16  C   UNL     1      29.306  36.683  13.711  1.00  0.00     0.184 C 
ATOM     17  C   UNL     1      29.258  38.174  13.812  1.00  0.00     0.178 C 
ATOM     18  O   UNL     1      28.306  38.669  12.967  1.00  0.00    -0.341 OA
ATOM     19  C   UNL     1      27.346  37.828  12.496  1.00  0.00     0.281 C 
ATOM     20  C   UNL     1      27.966  36.206  14.295  1.00  0.00     0.180 C 
ATOM     21  C   UNL     1      26.837  36.796  13.476  1.00  0.00     0.202 C 
BRANCH  17  22
ATOM     22  C   UNL     1      30.599  38.751  13.398  1.00  0.00     0.191 C 
BRANCH  22  23
ATOM     23  O   UNL     1      31.462  38.798  14.467  1.00  0.00    -0.394 OA
ATOM     24  H   UNL     1      31.168  38.212  15.187  1.00  0.00     0.210 HD
ENDBRANCH  22  23
ENDBRANCH  17  22
BRANCH  19  25
ATOM     25  O   UNL     1      27.665  37.264  11.265  1.00  0.00    -0.350 OA
BRANCH  25  26
ATOM     26  C   UNL     1      26.679  36.452  10.741  1.00  0.00     0.169 C 
BRANCH  26  27
ATOM     27  C   UNL     1      26.044  36.973   9.495  1.00  0.00     0.119 C 
BRANCH  27  28
ATOM     28  N   UNL     1      25.222  35.939   8.891  1.00  0.00    -0.092 NA
ATOM     29  N   UNL     1      24.230  35.568   9.524  1.00  0.00     0.001 N 
ATOM     30  N   UNL     1      23.144  35.219  10.032  1.00  0.00    -0.003 NA
ENDBRANCH  27  28
ENDBRANCH  26  27
ENDBRANCH  25  26
ENDBRANCH  19  25
BRANCH  20  31
ATOM     31  O   UNL     1      27.938  34.825  14.368  1.00  0.00    -0.387 OA
ATOM     32  H   UNL     1      27.530  34.512  15.220  1.00  0.00     0.211 HD
ENDBRANCH  20  31
BRANCH  21  33
ATOM     33  O   UNL     1      25.812  37.315  14.234  1.00  0.00    -0.385 OA
ATOM     34  H   UNL     1      25.484  38.135  13.795  1.00  0.00     0.211 HD
ENDBRANCH  21  33
ENDBRANCH  15  16
ENDBRANCH  10  15
BRANCH  12  35
ATOM     35  O   UNL     1      33.158  34.925  12.541  1.00  0.00    -0.385 OA
ATOM     36  H   UNL     1      33.866  35.527  12.169  1.00  0.00     0.211 HD
ENDBRANCH  12  35
BRANCH  13  37
ATOM     37  O   UNL     1      33.678  36.087  15.774  1.00  0.00    -0.387 OA
ATOM     38  H   UNL     1      34.242  36.672  15.208  1.00  0.00     0.211 HD
ENDBRANCH  13  37
BRANCH  14  39
ATOM     39  O   UNL     1      31.524  34.826  16.541  1.00  0.00    -0.387 OA
ATOM     40  H   UNL     1      31.600  34.502  17.473  1.00  0.00     0.211 HD
ENDBRANCH  14  39
ENDBRANCH   8   9
ENDBRANCH   7   8
ENDBRANCH   1   7
BRANCH   1  41
ATOM     41  C   UNL     1      28.593  33.601  17.528  1.00  0.00     0.364 C 
ATOM     42  O   UNL     1      27.591  34.330  17.339  1.00  0.00    -0.246 OA
BRANCH  41  43
ATOM     43  O   UNL     1      29.474  34.025  18.505  1.00  0.00    -0.477 OA
ATOM     44  H   UNL     1      29.846  34.971  18.564  1.00  0.00     0.296 HD
ENDBRANCH  41  43
ENDBRANCH   1  41
BRANCH   3  45
ATOM     45  O   UNL     1      30.054  30.032  19.405  1.00  0.00    -0.391 OA
ATOM     46  H   UNL     1      30.968  30.384  19.392  1.00  0.00     0.211 HD
ENDBRANCH   3  45
BRANCH   5  47
ATOM     47  C   UNL     1      25.900  30.329  16.943  1.00  0.00     0.176 C 
BRANCH  47  48
ATOM     48  O   UNL     1      26.025  30.455  15.529  1.00  0.00    -0.388 OA
ATOM     49  H   UNL     1      25.711  29.611  15.116  1.00  0.00     0.211 HD
ENDBRANCH  47  48
BRANCH  47  50
ATOM     50  C   UNL     1      24.610  31.076  17.250  1.00  0.00     0.165 C 
BRANCH  50  51
ATOM     51  O   UNL     1      23.821  30.851  16.087  1.00  0.00    -0.388 OA
ATOM     52  H   UNL     1      24.088  29.969  15.678  1.00  0.00     0.211 HD
ENDBRANCH  50  51
BRANCH  50  53
ATOM     53  C   UNL     1      24.825  32.547  17.335  1.00  0.00     0.154 C 
BRANCH  53  54
ATOM     54  N   UNL     1      24.892  33.154  16.045  1.00  0.00    -0.319 N 
ATOM     55  C   UNL     1      23.972  34.131  15.549  1.00  0.00     0.407 C 
ATOM     56  H   UNL     1      25.673  32.890  15.363  1.00  0.00     0.167 HD
ATOM     57  O   UNL     1      23.023  34.490  16.285  1.00  0.00    -0.225 OA
BRANCH  55  58
ATOM     58  O   UNL     1      24.099  34.686  14.298  1.00  0.00    -0.443 OA
BRANCH  58  59
ATOM     59  C   UNL     1      24.774  33.989  13.281  1.00  0.00     0.294 C 
BRANCH  59  60
ATOM     60  C   UNL     1      24.153  32.655  13.124  1.00  0.00     0.121 A 
ATOM     61  C   UNL     1      22.814  32.445  12.771  1.00  0.00     0.144 A 
ATOM     62  N   UNL     1      24.667  31.425  13.274  1.00  0.00    -0.131 NA
ATOM     63  N   UNL     1      22.585  31.122  12.725  1.00  0.00    -0.220 N 
ATOM     64  N   UNL     1      23.724  30.533  13.033  1.00  0.00    -0.062 NA
BRANCH  63  65
ATOM     65  C   UNL     1      21.323  30.554  12.400  1.00  0.00     0.066 A 
ATOM     66  C   UNL     1      20.167  31.252  12.256  1.00  0.00     0.029 A 
ATOM     67  C   UNL     1      21.302  29.175  12.213  1.00  0.00     0.029 A 
ATOM     68  C   UNL     1      19.009  30.580  11.928  1.00  0.00     0.018 A 
ATOM     69  C   UNL     1      20.138  28.518  11.887  1.00  0.00     0.018 A 
ATOM     70  C   UNL     1      18.960  29.221  11.738  1.00  0.00     0.018 A 
ATOM     71  Br  UNL     1      17.336  28.329  11.282  1.00  0.00    -0.051 Br
ENDBRANCH  63  65
ENDBRANCH  59  60
ENDBRANCH  58  59
ENDBRANCH  55  58
ENDBRANCH  53  54
ENDBRANCH  50  53
ENDBRANCH  47  50
ENDBRANCH   5  47
BRANCH   4  72
ATOM     72  N   UNL     1      27.638  29.165  19.141  1.00  0.00    -0.348 N 
ATOM     73  C   UNL     1      27.231  27.821  18.922  1.00  0.00     0.217 C 
ATOM     74  H   UNL     1      27.568  29.548  20.100  1.00  0.00     0.163 HD
ATOM     75  C   UNL     1      26.711  26.938  19.993  1.00  0.00     0.114 C 
ATOM     76  O   UNL     1      27.307  27.326  17.750  1.00  0.00    -0.275 OA
ENDBRANCH   4  72
TORSDOF 30
BEGIN_RES LYS A 131
REMARK  4 active torsions:
REMARK  status: ('A' for Active; 'I' for Inactive)
REMARK    1  A    between atoms: CA   and  CB  
REMARK    2  A    between atoms: CB   and  CG  
REMARK    3  A    between atoms: CG   and  CD  
REMARK    4  A    between atoms: CD   and  CE  
ROOT
ATOM      1  CA  LYS A 131      29.867  25.555  16.977  1.00 20.52     0.186 C 
ENDROOT
BRANCH   1   2
ATOM      2  CB  LYS A 131      28.345  25.722  17.026  1.00 20.94     0.034 C 
BRANCH   2   3
ATOM      3  CG  LYS A 131      27.599  24.477  16.570  1.00 22.96     0.005 C 
BRANCH   3   4
ATOM      4  CD  LYS A 131      27.003  23.720  17.724  1.00 24.33     0.041 C 
BRANCH   4   5
ATOM      5  CE  LYS A 131      25.483  23.835  17.678  1.00 26.91     0.338 C 
ATOM      6  NZ  LYS A 131      24.859  22.491  17.695  1.00 27.40     0.618 N 
ENDBRANCH   4   5
ENDBRANCH   3   4
ENDBRANCH   2   3
ENDBRANCH   1   2
END_RES LYS A 131
BEGIN_RES LYS A 135
REMARK  4 active torsions:
REMARK  status: ('A' for Active; 'I' for Inactive)
REMARK    5  A    between atoms: CA   and  CB  
REMARK    6  A    between atoms: CB   and  CG  
REMARK    7  A    between atoms: CG   and  CD  
REMARK    8  A    between atoms: CD   and  CE  
ROOT
ATOM      7  CA  LYS A 135      33.193  34.663   9.290  1.00 25.02     0.186 C 
ENDROOT
BRANCH   7   8
ATOM      8  CB  LYS A 135      32.060  35.360  10.034  1.00 26.63     0.034 C 
BRANCH   8   9
ATOM      9  CG  LYS A 135      30.725  34.680   9.872  1.00 29.45     0.005 C 
BRANCH   9  10
ATOM     10  CD  LYS A 135      30.261  34.746   8.426  1.00 32.00     0.041 C 
BRANCH  10  11
ATOM     11  CE  LYS A 135      28.752  34.612   8.344  1.00 34.25     0.338 C 
ATOM     12  NZ  LYS A 135      28.223  35.254   7.108  1.00 35.99     0.618 N 
ENDBRANCH  10  11
ENDBRANCH   9  10
ENDBRANCH   8   9
ENDBRANCH   7   8
END_RES LYS A 135
