REMARK VINA RESULT:    -4.938      9.361     15.653
REMARK INTER + INTRA:         -22.306
REMARK INTER:                 -12.541
REMARK INTRA:                  -9.765
REMARK UNBOUND:                -9.861
REMARK SMILES CC(=O)N[C@@H]1[C@@H](O)C[C@](OC[C@H]2O[C@@H](O[C@H]3[C@H](O)[C@@H](O)[C@H](OCCN=[N+]=[N-])O[C@@H]3CO)[C@H](O)[C@@H](O)[C@H]2O)(C(=O)O)O[C@H]1C(O)[C@H](O)CNC(=O)OCc1cn(-c2ccc([N+](=O)[O-])cc2)nn1
REMARK SMILES IDX 9 1 8 2 6 3 5 4 42 5 41 6 10 7 11 8 12 9 14 10 13 11 32 12
REMARK SMILES IDX 34 13 36 14 15 15 16 16 29 17 28 18 21 19 17 20 19 21 30 22
REMARK SMILES IDX 31 23 22 25 23 26 24 27 25 28 26 29 27 30 18 31 20 33 33 35
REMARK SMILES IDX 35 37 37 39 38 41 39 42 40 43 7 45 43 47 44 48 45 50 46 51
REMARK SMILES IDX 47 53 48 54 49 55 50 57 51 58 52 59 53 60 54 61 66 62 55 63
REMARK SMILES IDX 65 64 56 65 57 66 64 67 58 68 63 69 59 70 60 71 61 72 62 73
REMARK SMILES IDX 4 74 2 75 1 77 3 78
REMARK H PARENT 31 24 18 32 20 34 33 36 35 38 37 40 40 44 7 46 44 49 46 52
REMARK H PARENT 48 56 4 76
REMARK Flexibility Score: inf
ROOT
ATOM      1  C   UNL     1      30.338  31.405  19.988  1.00  0.00     0.272 C 
ATOM      2  C   UNL     1      28.952  31.418  20.546  1.00  0.00     0.113 C 
ATOM      3  C   UNL     1      28.047  30.651  19.681  1.00  0.00     0.145 C 
ATOM      4  C   UNL     1      28.596  30.294  18.287  1.00  0.00     0.142 C 
ATOM      5  C   UNL     1      29.430  31.389  17.811  1.00  0.00     0.178 C 
ATOM      6  O   UNL     1      30.300  31.973  18.726  1.00  0.00    -0.332 OA
ENDROOT
BRANCH   1   7
ATOM      7  O   UNL     1      30.986  30.210  20.040  1.00  0.00    -0.338 OA
BRANCH   7   8
ATOM      8  C   UNL     1      31.069  29.606  21.253  1.00  0.00     0.199 C 
BRANCH   8   9
ATOM      9  C   UNL     1      31.699  28.222  21.154  1.00  0.00     0.179 C 
ATOM     10  C   UNL     1      32.433  27.583  23.281  1.00  0.00     0.282 C 
ATOM     11  O   UNL     1      32.732  28.033  22.034  1.00  0.00    -0.341 OA
ATOM     12  C   UNL     1      31.029  27.269  23.604  1.00  0.00     0.202 C 
ATOM     13  C   UNL     1      30.331  26.605  22.446  1.00  0.00     0.179 C 
ATOM     14  C   UNL     1      30.729  27.097  21.101  1.00  0.00     0.177 C 
BRANCH  10  15
ATOM     15  O   UNL     1      33.051  28.435  24.191  1.00  0.00    -0.341 OA
BRANCH  15  16
ATOM     16  C   UNL     1      34.162  29.088  23.775  1.00  0.00     0.184 C 
ATOM     17  C   UNL     1      35.426  28.693  24.506  1.00  0.00     0.178 C 
ATOM     18  O   UNL     1      36.483  29.488  24.018  1.00  0.00    -0.341 OA
ATOM     19  C   UNL     1      36.338  30.786  24.508  1.00  0.00     0.281 C 
ATOM     20  C   UNL     1      33.958  30.568  24.154  1.00  0.00     0.180 C 
ATOM     21  C   UNL     1      35.165  31.369  23.708  1.00  0.00     0.202 C 
BRANCH  17  22
ATOM     22  C   UNL     1      35.848  27.264  24.286  1.00  0.00     0.191 C 
BRANCH  22  23
ATOM     23  O   UNL     1      35.573  27.003  22.921  1.00  0.00    -0.394 OA
ATOM     24  H   UNL     1      36.334  26.524  22.499  1.00  0.00     0.210 HD
ENDBRANCH  22  23
ENDBRANCH  17  22
BRANCH  19  25
ATOM     25  O   UNL     1      37.457  31.529  24.238  1.00  0.00    -0.350 OA
BRANCH  25  26
ATOM     26  C   UNL     1      38.236  31.090  23.198  1.00  0.00     0.169 C 
BRANCH  26  27
ATOM     27  C   UNL     1      38.698  32.162  22.252  1.00  0.00     0.119 C 
BRANCH  27  28
ATOM     28  N   UNL     1      37.835  32.133  21.068  1.00  0.00    -0.092 NA
ATOM     29  N   UNL     1      36.809  32.797  21.055  1.00  0.00     0.001 N 
ATOM     30  N   UNL     1      35.931  33.641  20.978  1.00  0.00    -0.003 NA
ENDBRANCH  27  28
ENDBRANCH  26  27
ENDBRANCH  25  26
ENDBRANCH  19  25
BRANCH  20  31
ATOM     31  O   UNL     1      32.775  31.063  23.680  1.00  0.00    -0.387 OA
ATOM     32  H   UNL     1      32.526  31.950  24.006  1.00  0.00     0.211 HD
ENDBRANCH  20  31
BRANCH  21  33
ATOM     33  O   UNL     1      34.968  32.698  23.968  1.00  0.00    -0.385 OA
ATOM     34  H   UNL     1      33.998  32.873  24.030  1.00  0.00     0.211 HD
ENDBRANCH  21  33
ENDBRANCH  15  16
ENDBRANCH  10  15
BRANCH  12  35
ATOM     35  O   UNL     1      31.004  26.304  24.629  1.00  0.00    -0.385 OA
ATOM     36  H   UNL     1      30.508  25.506  24.367  1.00  0.00     0.211 HD
ENDBRANCH  12  35
BRANCH  13  37
ATOM     37  O   UNL     1      28.932  26.703  22.643  1.00  0.00    -0.387 OA
ATOM     38  H   UNL     1      28.539  26.973  21.797  1.00  0.00     0.211 HD
ENDBRANCH  13  37
BRANCH  14  39
ATOM     39  O   UNL     1      29.673  27.422  20.261  1.00  0.00    -0.387 OA
ATOM     40  H   UNL     1      30.035  28.029  19.559  1.00  0.00     0.211 HD
ENDBRANCH  14  39
ENDBRANCH   8   9
ENDBRANCH   7   8
ENDBRANCH   1   7
BRANCH   1  41
ATOM     41  C   UNL     1      31.152  32.417  20.767  1.00  0.00     0.364 C 
ATOM     42  O   UNL     1      30.897  32.637  21.966  1.00  0.00    -0.246 OA
BRANCH  41  43
ATOM     43  O   UNL     1      32.166  33.090  20.144  1.00  0.00    -0.477 OA
ATOM     44  H   UNL     1      33.157  32.941  20.315  1.00  0.00     0.296 HD
ENDBRANCH  41  43
ENDBRANCH   1  41
BRANCH   3  45
ATOM     45  O   UNL     1      27.687  29.442  20.272  1.00  0.00    -0.391 OA
ATOM     46  H   UNL     1      28.452  29.026  20.716  1.00  0.00     0.211 HD
ENDBRANCH   3  45
BRANCH   5  47
ATOM     47  C   UNL     1      30.212  31.310  16.575  1.00  0.00     0.176 C 
BRANCH  47  48
ATOM     48  O   UNL     1      29.504  30.998  15.410  1.00  0.00    -0.388 OA
ATOM     49  H   UNL     1      29.225  31.765  14.881  1.00  0.00     0.211 HD
ENDBRANCH  47  48
BRANCH  47  50
ATOM     50  C   UNL     1      31.154  32.405  16.193  1.00  0.00     0.165 C 
BRANCH  50  51
ATOM     51  O   UNL     1      31.444  33.327  17.151  1.00  0.00    -0.388 OA
ATOM     52  H   UNL     1      30.744  34.025  17.240  1.00  0.00     0.211 HD
ENDBRANCH  50  51
BRANCH  50  53
ATOM     53  C   UNL     1      30.940  32.912  14.792  1.00  0.00     0.154 C 
BRANCH  53  54
ATOM     54  N   UNL     1      29.731  33.667  14.596  1.00  0.00    -0.319 N 
ATOM     55  C   UNL     1      29.590  35.045  14.884  1.00  0.00     0.407 C 
ATOM     56  H   UNL     1      28.867  33.197  14.213  1.00  0.00     0.167 HD
ATOM     57  O   UNL     1      30.546  35.677  15.344  1.00  0.00    -0.225 OA
BRANCH  55  58
ATOM     58  O   UNL     1      28.389  35.724  14.664  1.00  0.00    -0.443 OA
BRANCH  58  59
ATOM     59  C   UNL     1      27.254  35.603  15.480  1.00  0.00     0.294 C 
BRANCH  59  60
ATOM     60  C   UNL     1      26.605  34.291  15.277  1.00  0.00     0.121 A 
ATOM     61  C   UNL     1      25.455  33.999  14.547  1.00  0.00     0.144 A 
ATOM     62  N   UNL     1      27.012  33.078  15.754  1.00  0.00    -0.131 NA
ATOM     63  N   UNL     1      25.212  32.676  14.601  1.00  0.00    -0.220 N 
ATOM     64  N   UNL     1      26.168  32.153  15.336  1.00  0.00    -0.062 NA
BRANCH  63  65
ATOM     65  C   UNL     1      24.137  31.966  13.975  1.00  0.00     0.067 A 
ATOM     66  C   UNL     1      22.840  32.418  13.943  1.00  0.00     0.035 A 
ATOM     67  C   UNL     1      24.395  30.744  13.369  1.00  0.00     0.035 A 
ATOM     68  C   UNL     1      21.829  31.681  13.328  1.00  0.00     0.088 A 
ATOM     69  C   UNL     1      23.397  30.013  12.760  1.00  0.00     0.088 A 
ATOM     70  C   UNL     1      22.095  30.464  12.727  1.00  0.00     0.269 A 
BRANCH  70  71
ATOM     71  N   UNL     1      21.054  29.719  12.105  1.00  0.00     0.062 N 
ATOM     72  O   UNL     1      21.176  28.550  11.708  1.00  0.00    -0.258 OA
ATOM     73  O   UNL     1      19.841  30.337  11.933  1.00  0.00    -0.258 OA
ENDBRANCH  70  71
ENDBRANCH  63  65
ENDBRANCH  59  60
ENDBRANCH  58  59
ENDBRANCH  55  58
ENDBRANCH  53  54
ENDBRANCH  50  53
ENDBRANCH  47  50
ENDBRANCH   5  47
BRANCH   4  74
ATOM     74  N   UNL     1      27.346  30.250  17.511  1.00  0.00    -0.348 N 
ATOM     75  C   UNL     1      26.658  29.053  17.249  1.00  0.00     0.217 C 
ATOM     76  H   UNL     1      26.972  31.150  17.162  1.00  0.00     0.163 HD
ATOM     77  C   UNL     1      25.399  29.119  16.447  1.00  0.00     0.114 C 
ATOM     78  O   UNL     1      27.054  27.951  17.657  1.00  0.00    -0.275 OA
ENDBRANCH   4  74
TORSDOF 31
BEGIN_RES LYS A 131
REMARK  4 active torsions:
REMARK  status: ('A' for Active; 'I' for Inactive)
REMARK    1  A    between atoms: CA   and  CB  
REMARK    2  A    between atoms: CB   and  CG  
REMARK    3  A    between atoms: CG   and  CD  
REMARK    4  A    between atoms: CD   and  CE  
ROOT
ATOM      1  CA  LYS A 131      29.867  25.555  16.977  1.00 20.52     0.186 C 
ENDROOT
BRANCH   1   2
ATOM      2  CB  LYS A 131      28.345  25.722  17.026  1.00 20.94     0.034 C 
BRANCH   2   3
ATOM      3  CG  LYS A 131      27.601  24.402  16.896  1.00 22.96     0.005 C 
BRANCH   3   4
ATOM      4  CD  LYS A 131      26.149  24.531  17.265  1.00 24.33     0.041 C 
BRANCH   4   5
ATOM      5  CE  LYS A 131      25.950  24.086  18.710  1.00 26.91     0.338 C 
ATOM      6  NZ  LYS A 131      25.701  25.258  19.584  1.00 27.40     0.618 N 
ENDBRANCH   4   5
ENDBRANCH   3   4
ENDBRANCH   2   3
ENDBRANCH   1   2
END_RES LYS A 131
BEGIN_RES LYS A 135
REMARK  4 active torsions:
REMARK  status: ('A' for Active; 'I' for Inactive)
REMARK    5  A    between atoms: CA   and  CB  
REMARK    6  A    between atoms: CB   and  CG  
REMARK    7  A    between atoms: CG   and  CD  
REMARK    8  A    between atoms: CD   and  CE  
ROOT
ATOM      7  CA  LYS A 135      33.193  34.663   9.290  1.00 25.02     0.186 C 
ENDROOT
BRANCH   7   8
ATOM      8  CB  LYS A 135      32.060  35.360  10.034  1.00 26.63     0.034 C 
BRANCH   8   9
ATOM      9  CG  LYS A 135      30.844  35.612   9.180  1.00 29.45     0.005 C 
BRANCH   9  10
ATOM     10  CD  LYS A 135      30.215  34.299   8.741  1.00 32.00     0.041 C 
BRANCH  10  11
ATOM     11  CE  LYS A 135      28.738  34.486   8.453  1.00 34.25     0.338 C 
ATOM     12  NZ  LYS A 135      27.901  33.744   9.437  1.00 35.99     0.618 N 
ENDBRANCH  10  11
ENDBRANCH   9  10
ENDBRANCH   8   9
ENDBRANCH   7   8
END_RES LYS A 135
