REMARK VINA RESULT:    -4.288      6.545     10.974
REMARK INTER + INTRA:         -22.562
REMARK INTER:                 -10.902
REMARK INTRA:                 -11.660
REMARK UNBOUND:               -11.507
REMARK SMILES COc1ccc(Cn2cc(COC(=O)NC[C@@H](O)C(O)[C@@H]3O[C@@](OC[C@H]4O[C@@H](O[C@H]5[C@H](O)[C@@H](O)[C@H](OCCN=[N+]=[N-])O[C@@H]5CO)[C@H](O)[C@@H](O)[C@H]4O)(C(=O)O)C[C@H](O)[C@H]3NC(C)=O)nn2)cc1
REMARK SMILES IDX 23 1 55 2 56 3 58 4 21 5 22 6 24 7 25 8 26 9 28 10 27 11
REMARK SMILES IDX 46 12 48 13 50 14 29 15 30 16 43 17 42 18 35 19 31 20 33 21
REMARK SMILES IDX 44 22 45 23 36 25 37 26 38 27 39 28 40 29 41 30 32 31 34 33
REMARK SMILES IDX 47 35 49 37 51 39 52 41 53 42 54 43 57 45 19 47 20 48 17 50
REMARK SMILES IDX 18 51 16 53 15 54 13 55 14 57 12 58 11 59 10 60 9 61 63 62
REMARK SMILES IDX 8 63 64 64 7 65 6 66 5 67 65 68 4 69 66 70 3 71 2 72 1 73
REMARK SMILES IDX 59 74 60 75 61 77 62 78
REMARK H PARENT 45 24 32 32 34 34 47 36 49 38 51 40 54 44 57 46 20 49 18 52
REMARK H PARENT 15 56 59 76
REMARK Flexibility Score: inf
ROOT
ATOM      1  C   UNL     1      30.504  32.897  20.678  1.00  0.00     0.272 C 
ATOM      2  C   UNL     1      29.126  33.401  20.298  1.00  0.00     0.113 C 
ATOM      3  C   UNL     1      29.252  34.569  19.341  1.00  0.00     0.145 C 
ATOM      4  C   UNL     1      30.233  34.334  18.230  1.00  0.00     0.142 C 
ATOM      5  C   UNL     1      30.972  33.011  18.347  1.00  0.00     0.178 C 
ATOM      6  O   UNL     1      31.342  32.740  19.650  1.00  0.00    -0.332 OA
ENDROOT
BRANCH   1   7
ATOM      7  O   UNL     1      30.450  31.927  21.620  1.00  0.00    -0.338 OA
BRANCH   7   8
ATOM      8  C   UNL     1      29.347  31.226  21.903  1.00  0.00     0.199 C 
BRANCH   8   9
ATOM      9  C   UNL     1      29.463  29.760  21.544  1.00  0.00     0.179 C 
ATOM     10  C   UNL     1      28.316  28.207  20.337  1.00  0.00     0.282 C 
ATOM     11  O   UNL     1      28.819  29.526  20.297  1.00  0.00    -0.341 OA
ATOM     12  C   UNL     1      29.282  27.265  20.955  1.00  0.00     0.202 C 
ATOM     13  C   UNL     1      30.687  27.740  21.105  1.00  0.00     0.179 C 
ATOM     14  C   UNL     1      30.835  29.218  21.404  1.00  0.00     0.177 C 
BRANCH  10  15
ATOM     15  O   UNL     1      27.741  27.841  19.154  1.00  0.00    -0.341 OA
BRANCH  15  16
ATOM     16  C   UNL     1      26.638  28.562  18.747  1.00  0.00     0.184 C 
ATOM     17  C   UNL     1      25.358  27.769  18.646  1.00  0.00     0.178 C 
ATOM     18  O   UNL     1      24.514  28.310  17.677  1.00  0.00    -0.341 OA
ATOM     19  C   UNL     1      24.640  29.705  17.561  1.00  0.00     0.281 C 
ATOM     20  C   UNL     1      26.927  28.940  17.281  1.00  0.00     0.180 C 
ATOM     21  C   UNL     1      26.004  30.080  16.950  1.00  0.00     0.202 C 
BRANCH  17  22
ATOM     22  C   UNL     1      24.569  27.679  19.914  1.00  0.00     0.191 C 
BRANCH  22  23
ATOM     23  O   UNL     1      23.452  26.873  19.708  1.00  0.00    -0.394 OA
ATOM     24  H   UNL     1      23.432  26.204  20.450  1.00  0.00     0.210 HD
ENDBRANCH  22  23
ENDBRANCH  17  22
BRANCH  19  25
ATOM     25  O   UNL     1      24.418  30.391  18.711  1.00  0.00    -0.350 OA
BRANCH  25  26
ATOM     26  C   UNL     1      24.529  31.747  18.715  1.00  0.00     0.169 C 
BRANCH  26  27
ATOM     27  C   UNL     1      25.345  32.375  19.782  1.00  0.00     0.119 C 
BRANCH  27  28
ATOM     28  N   UNL     1      25.199  33.785  19.891  1.00  0.00    -0.092 NA
ATOM     29  N   UNL     1      25.565  34.457  20.867  1.00  0.00     0.001 N 
ATOM     30  N   UNL     1      26.246  35.257  21.547  1.00  0.00    -0.003 NA
ENDBRANCH  27  28
ENDBRANCH  26  27
ENDBRANCH  25  26
ENDBRANCH  19  25
BRANCH  20  31
ATOM     31  O   UNL     1      28.252  29.191  17.059  1.00  0.00    -0.387 OA
ATOM     32  H   UNL     1      28.762  28.354  16.813  1.00  0.00     0.211 HD
ENDBRANCH  20  31
BRANCH  21  33
ATOM     33  O   UNL     1      25.908  30.278  15.573  1.00  0.00    -0.385 OA
ATOM     34  H   UNL     1      26.070  31.237  15.373  1.00  0.00     0.211 HD
ENDBRANCH  21  33
ENDBRANCH  15  16
ENDBRANCH  10  15
BRANCH  12  35
ATOM     35  O   UNL     1      28.808  26.752  22.189  1.00  0.00    -0.385 OA
ATOM     36  H   UNL     1      27.889  26.368  22.053  1.00  0.00     0.211 HD
ENDBRANCH  12  35
BRANCH  13  37
ATOM     37  O   UNL     1      31.488  27.366  19.999  1.00  0.00    -0.387 OA
ATOM     38  H   UNL     1      31.188  26.470  19.698  1.00  0.00     0.211 HD
ENDBRANCH  13  37
BRANCH  14  39
ATOM     39  O   UNL     1      31.587  29.867  20.430  1.00  0.00    -0.387 OA
ATOM     40  H   UNL     1      31.132  30.671  20.078  1.00  0.00     0.211 HD
ENDBRANCH  14  39
ENDBRANCH   8   9
ENDBRANCH   7   8
ENDBRANCH   1   7
BRANCH   1  41
ATOM     41  C   UNL     1      31.029  34.073  21.567  1.00  0.00     0.364 C 
ATOM     42  O   UNL     1      30.487  34.301  22.671  1.00  0.00    -0.246 OA
BRANCH  41  43
ATOM     43  O   UNL     1      32.057  34.870  21.200  1.00  0.00    -0.477 OA
ATOM     44  H   UNL     1      32.322  35.756  21.553  1.00  0.00     0.296 HD
ENDBRANCH  41  43
ENDBRANCH   1  41
BRANCH   3  45
ATOM     45  O   UNL     1      27.939  34.703  18.802  1.00  0.00    -0.391 OA
ATOM     46  H   UNL     1      27.277  34.786  19.535  1.00  0.00     0.211 HD
ENDBRANCH   3  45
BRANCH   5  47
ATOM     47  C   UNL     1      30.186  31.993  17.617  1.00  0.00     0.176 C 
BRANCH  47  48
ATOM     48  O   UNL     1      30.384  30.665  18.096  1.00  0.00    -0.388 OA
ATOM     49  H   UNL     1      29.571  30.156  17.892  1.00  0.00     0.211 HD
ENDBRANCH  47  48
BRANCH  47  50
ATOM     50  C   UNL     1      30.674  31.756  16.158  1.00  0.00     0.165 C 
BRANCH  50  51
ATOM     51  O   UNL     1      31.598  32.589  15.668  1.00  0.00    -0.388 OA
ATOM     52  H   UNL     1      32.494  32.170  15.660  1.00  0.00     0.211 HD
ENDBRANCH  50  51
BRANCH  50  53
ATOM     53  C   UNL     1      29.405  31.744  15.277  1.00  0.00     0.154 C 
BRANCH  53  54
ATOM     54  N   UNL     1      29.021  33.047  14.841  1.00  0.00    -0.319 N 
ATOM     55  C   UNL     1      27.864  33.670  15.413  1.00  0.00     0.407 C 
ATOM     56  H   UNL     1      29.551  33.551  14.124  1.00  0.00     0.167 HD
ATOM     57  O   UNL     1      27.207  33.053  16.297  1.00  0.00    -0.225 OA
BRANCH  55  58
ATOM     58  O   UNL     1      27.514  34.933  14.970  1.00  0.00    -0.443 OA
BRANCH  58  59
ATOM     59  C   UNL     1      26.913  35.084  13.669  1.00  0.00     0.294 C 
BRANCH  59  60
ATOM     60  C   UNL     1      25.521  34.594  13.749  1.00  0.00     0.120 A 
ATOM     61  C   UNL     1      24.880  33.731  12.853  1.00  0.00     0.138 A 
ATOM     62  N   UNL     1      24.604  34.888  14.678  1.00  0.00    -0.132 NA
ATOM     63  N   UNL     1      23.628  33.561  13.293  1.00  0.00    -0.248 N 
ATOM     64  N   UNL     1      23.474  34.268  14.403  1.00  0.00    -0.067 NA
BRANCH  63  65
ATOM     65  C   UNL     1      22.615  32.749  12.669  1.00  0.00     0.181 C 
BRANCH  65  66
ATOM     66  C   UNL     1      22.625  31.404  13.286  1.00  0.00    -0.026 A 
ATOM     67  C   UNL     1      23.395  30.392  12.719  1.00  0.00     0.009 A 
ATOM     68  C   UNL     1      21.916  31.099  14.418  1.00  0.00     0.009 A 
ATOM     69  C   UNL     1      23.454  29.126  13.261  1.00  0.00     0.047 A 
ATOM     70  C   UNL     1      21.978  29.814  14.967  1.00  0.00     0.047 A 
ATOM     71  C   UNL     1      22.735  28.822  14.407  1.00  0.00     0.118 A 
BRANCH  71  72
ATOM     72  O   UNL     1      22.828  27.539  14.913  1.00  0.00    -0.497 OA
ATOM     73  C   UNL     1      21.836  26.899  15.661  1.00  0.00     0.278 C 
ENDBRANCH  71  72
ENDBRANCH  65  66
ENDBRANCH  63  65
ENDBRANCH  59  60
ENDBRANCH  58  59
ENDBRANCH  55  58
ENDBRANCH  53  54
ENDBRANCH  50  53
ENDBRANCH  47  50
ENDBRANCH   5  47
BRANCH   4  74
ATOM     74  N   UNL     1      31.132  35.436  17.960  1.00  0.00    -0.348 N 
ATOM     75  C   UNL     1      31.438  35.930  16.662  1.00  0.00     0.217 C 
ATOM     76  H   UNL     1      31.603  35.898  18.751  1.00  0.00     0.163 HD
ATOM     77  C   UNL     1      32.398  37.087  16.500  1.00  0.00     0.114 C 
ATOM     78  O   UNL     1      30.909  35.404  15.654  1.00  0.00    -0.275 OA
ENDBRANCH   4  74
TORSDOF 32
BEGIN_RES LYS A 131
REMARK  4 active torsions:
REMARK  status: ('A' for Active; 'I' for Inactive)
REMARK    1  A    between atoms: CA   and  CB  
REMARK    2  A    between atoms: CB   and  CG  
REMARK    3  A    between atoms: CG   and  CD  
REMARK    4  A    between atoms: CD   and  CE  
ROOT
ATOM      1  CA  LYS A 131      29.867  25.555  16.977  1.00 20.52     0.186 C 
ENDROOT
BRANCH   1   2
ATOM      2  CB  LYS A 131      28.345  25.722  17.026  1.00 20.94     0.034 C 
BRANCH   2   3
ATOM      3  CG  LYS A 131      27.602  24.399  16.918  1.00 22.96     0.005 C 
BRANCH   3   4
ATOM      4  CD  LYS A 131      26.152  24.532  17.295  1.00 24.33     0.041 C 
BRANCH   4   5
ATOM      5  CE  LYS A 131      25.977  24.190  18.771  1.00 26.91     0.338 C 
ATOM      6  NZ  LYS A 131      25.294  22.883  18.923  1.00 27.40     0.618 N 
ENDBRANCH   4   5
ENDBRANCH   3   4
ENDBRANCH   2   3
ENDBRANCH   1   2
END_RES LYS A 131
BEGIN_RES LYS A 135
REMARK  4 active torsions:
REMARK  status: ('A' for Active; 'I' for Inactive)
REMARK    5  A    between atoms: CA   and  CB  
REMARK    6  A    between atoms: CB   and  CG  
REMARK    7  A    between atoms: CG   and  CD  
REMARK    8  A    between atoms: CD   and  CE  
ROOT
ATOM      7  CA  LYS A 135      33.193  34.663   9.290  1.00 25.02     0.186 C 
ENDROOT
BRANCH   7   8
ATOM      8  CB  LYS A 135      32.060  35.360  10.034  1.00 26.63     0.034 C 
BRANCH   8   9
ATOM      9  CG  LYS A 135      30.811  35.529   9.208  1.00 29.45     0.005 C 
BRANCH   9  10
ATOM     10  CD  LYS A 135      29.595  35.015   9.963  1.00 32.00     0.041 C 
BRANCH  10  11
ATOM     11  CE  LYS A 135      28.765  34.104   9.078  1.00 34.25     0.338 C 
ATOM     12  NZ  LYS A 135      27.499  33.708   9.754  1.00 35.99     0.618 N 
ENDBRANCH  10  11
ENDBRANCH   9  10
ENDBRANCH   8   9
ENDBRANCH   7   8
END_RES LYS A 135
