REMARK VINA RESULT:    -4.336      2.675      7.804
REMARK INTER + INTRA:         -22.243
REMARK INTER:                 -12.344
REMARK INTRA:                  -9.898
REMARK UNBOUND:               -10.809
REMARK SMILES COc1ccc(Cn2cc(COC(=O)NC[C@@H](O)C(O)[C@@H]3O[C@@](OC[C@H]4O[C@@H](O[C@H]5[C@H](O)[C@@H](O)[C@H](OCCN=[N+]=[N-])O[C@@H]5CO)[C@H](O)[C@@H](O)[C@H]4O)(C(=O)O)C[C@H](O)[C@H]3NC(C)=O)nn2)cc1OC
REMARK SMILES IDX 23 1 55 2 56 3 58 4 21 5 22 6 24 7 25 8 26 9 28 10 27 11
REMARK SMILES IDX 46 12 48 13 50 14 29 15 30 16 43 17 42 18 35 19 31 20 33 21
REMARK SMILES IDX 44 22 45 23 36 25 37 26 38 27 39 28 40 29 41 30 32 31 34 33
REMARK SMILES IDX 47 35 49 37 51 39 52 41 53 42 54 43 57 45 19 47 20 48 17 50
REMARK SMILES IDX 18 51 16 53 15 54 13 55 14 57 12 58 11 59 10 60 9 61 63 62
REMARK SMILES IDX 8 63 64 64 7 65 6 66 65 67 5 68 66 69 4 70 3 71 67 72 68 73
REMARK SMILES IDX 2 74 1 75 59 76 60 77 61 79 62 80
REMARK H PARENT 45 24 32 32 34 34 47 36 49 38 51 40 54 44 57 46 20 49 18 52
REMARK H PARENT 15 56 59 78
REMARK Flexibility Score: inf
ROOT
ATOM      1  C   UNL     1      26.824  35.630  12.431  1.00  0.00     0.272 C 
ATOM      2  C   UNL     1      26.276  34.596  11.464  1.00  0.00     0.113 C 
ATOM      3  C   UNL     1      26.825  34.551  10.085  1.00  0.00     0.145 C 
ATOM      4  C   UNL     1      27.465  35.894   9.743  1.00  0.00     0.142 C 
ATOM      5  C   UNL     1      26.687  36.899  10.494  1.00  0.00     0.178 C 
ATOM      6  O   UNL     1      27.068  36.877  11.822  1.00  0.00    -0.332 OA
ENDROOT
BRANCH   1   7
ATOM      7  O   UNL     1      28.045  35.108  12.838  1.00  0.00    -0.338 OA
BRANCH   7   8
ATOM      8  C   UNL     1      28.553  35.546  14.022  1.00  0.00     0.199 C 
BRANCH   8   9
ATOM      9  C   UNL     1      28.960  34.392  14.897  1.00  0.00     0.179 C 
ATOM     10  C   UNL     1      28.403  32.346  15.716  1.00  0.00     0.282 C 
ATOM     11  O   UNL     1      28.224  33.235  14.586  1.00  0.00    -0.341 OA
ATOM     12  C   UNL     1      29.755  31.801  15.700  1.00  0.00     0.202 C 
ATOM     13  C   UNL     1      30.811  32.859  15.428  1.00  0.00     0.179 C 
ATOM     14  C   UNL     1      30.399  33.978  14.554  1.00  0.00     0.177 C 
BRANCH  10  15
ATOM     15  O   UNL     1      27.387  31.416  15.633  1.00  0.00    -0.341 OA
BRANCH  15  16
ATOM     16  C   UNL     1      26.688  31.356  16.839  1.00  0.00     0.184 C 
ATOM     17  C   UNL     1      26.085  30.034  17.107  1.00  0.00     0.178 C 
ATOM     18  O   UNL     1      25.666  30.013  18.435  1.00  0.00    -0.341 OA
ATOM     19  C   UNL     1      25.149  31.186  18.854  1.00  0.00     0.281 C 
ATOM     20  C   UNL     1      25.589  32.423  16.769  1.00  0.00     0.180 C 
ATOM     21  C   UNL     1      24.506  32.045  17.789  1.00  0.00     0.202 C 
BRANCH  17  22
ATOM     22  C   UNL     1      27.014  28.883  16.800  1.00  0.00     0.191 C 
BRANCH  22  23
ATOM     23  O   UNL     1      28.207  29.150  17.469  1.00  0.00    -0.394 OA
ATOM     24  H   UNL     1      28.204  30.109  17.766  1.00  0.00     0.210 HD
ENDBRANCH  22  23
ENDBRANCH  17  22
BRANCH  19  25
ATOM     25  O   UNL     1      26.226  31.982  19.387  1.00  0.00    -0.350 OA
BRANCH  25  26
ATOM     26  C   UNL     1      26.792  31.238  20.442  1.00  0.00     0.169 C 
BRANCH  26  27
ATOM     27  C   UNL     1      28.253  31.574  20.680  1.00  0.00     0.119 C 
BRANCH  27  28
ATOM     28  N   UNL     1      29.060  30.813  19.767  1.00  0.00    -0.092 NA
ATOM     29  N   UNL     1      29.898  29.993  20.154  1.00  0.00     0.001 N 
ATOM     30  N   UNL     1      30.756  29.395  20.834  1.00  0.00    -0.003 NA
ENDBRANCH  27  28
ENDBRANCH  26  27
ENDBRANCH  25  26
ENDBRANCH  19  25
BRANCH  20  31
ATOM     31  O   UNL     1      26.147  33.618  17.192  1.00  0.00    -0.387 OA
ATOM     32  H   UNL     1      25.676  33.900  18.032  1.00  0.00     0.211 HD
ENDBRANCH  20  31
BRANCH  21  33
ATOM     33  O   UNL     1      23.534  31.325  17.135  1.00  0.00    -0.385 OA
ATOM     34  H   UNL     1      23.548  31.474  16.150  1.00  0.00     0.211 HD
ENDBRANCH  21  33
ENDBRANCH  15  16
ENDBRANCH  10  15
BRANCH  12  35
ATOM     35  O   UNL     1      30.094  31.228  16.914  1.00  0.00    -0.385 OA
ATOM     36  H   UNL     1      30.714  31.810  17.444  1.00  0.00     0.211 HD
ENDBRANCH  12  35
BRANCH  13  37
ATOM     37  O   UNL     1      31.951  32.193  14.904  1.00  0.00    -0.387 OA
ATOM     38  H   UNL     1      31.616  31.372  14.458  1.00  0.00     0.211 HD
ENDBRANCH  13  37
BRANCH  14  39
ATOM     39  O   UNL     1      30.356  33.586  13.197  1.00  0.00    -0.387 OA
ATOM     40  H   UNL     1      30.743  34.316  12.601  1.00  0.00     0.211 HD
ENDBRANCH  14  39
ENDBRANCH   8   9
ENDBRANCH   7   8
ENDBRANCH   1   7
BRANCH   1  41
ATOM     41  C   UNL     1      25.824  35.827  13.512  1.00  0.00     0.364 C 
ATOM     42  O   UNL     1      25.235  36.900  13.660  1.00  0.00    -0.246 OA
BRANCH  41  43
ATOM     43  O   UNL     1      25.474  34.817  14.447  1.00  0.00    -0.477 OA
ATOM     44  H   UNL     1      25.162  35.167  15.383  1.00  0.00     0.296 HD
ENDBRANCH  41  43
ENDBRANCH   1  41
BRANCH   3  45
ATOM     45  O   UNL     1      27.777  33.570   9.945  1.00  0.00    -0.391 OA
ATOM     46  H   UNL     1      28.629  33.848  10.390  1.00  0.00     0.211 HD
ENDBRANCH   3  45
BRANCH   5  47
ATOM     47  C   UNL     1      26.594  38.203   9.846  1.00  0.00     0.176 C 
BRANCH  47  48
ATOM     48  O   UNL     1      25.793  38.277   8.713  1.00  0.00    -0.388 OA
ATOM     49  H   UNL     1      24.884  37.977   8.823  1.00  0.00     0.211 HD
ENDBRANCH  47  48
BRANCH  47  50
ATOM     50  C   UNL     1      25.691  39.154  10.804  1.00  0.00     0.165 C 
BRANCH  50  51
ATOM     51  O   UNL     1      26.299  39.204  11.997  1.00  0.00    -0.388 OA
ATOM     52  H   UNL     1      26.736  38.341  12.257  1.00  0.00     0.211 HD
ENDBRANCH  50  51
BRANCH  50  53
ATOM     53  C   UNL     1      24.291  38.846  10.634  1.00  0.00     0.154 C 
BRANCH  53  54
ATOM     54  N   UNL     1      23.585  37.838  11.350  1.00  0.00    -0.319 N 
ATOM     55  C   UNL     1      23.144  36.722  10.596  1.00  0.00     0.407 C 
ATOM     56  H   UNL     1      23.352  37.842  12.340  1.00  0.00     0.167 HD
ATOM     57  O   UNL     1      23.371  36.657   9.343  1.00  0.00    -0.225 OA
BRANCH  55  58
ATOM     58  O   UNL     1      22.450  35.629  11.105  1.00  0.00    -0.443 OA
BRANCH  58  59
ATOM     59  C   UNL     1      21.920  35.779  12.467  1.00  0.00     0.294 C 
BRANCH  59  60
ATOM     60  C   UNL     1      22.350  34.509  13.121  1.00  0.00     0.120 A 
ATOM     61  C   UNL     1      22.857  33.379  12.435  1.00  0.00     0.138 A 
ATOM     62  N   UNL     1      22.409  34.240  14.419  1.00  0.00    -0.132 NA
ATOM     63  N   UNL     1      23.197  32.494  13.401  1.00  0.00    -0.248 N 
ATOM     64  N   UNL     1      22.932  33.002  14.554  1.00  0.00    -0.067 NA
BRANCH  63  65
ATOM     65  C   UNL     1      23.838  31.178  13.135  1.00  0.00     0.181 C 
BRANCH  65  66
ATOM     66  C   UNL     1      22.679  30.197  13.312  1.00  0.00    -0.023 A 
ATOM     67  C   UNL     1      21.692  30.049  12.362  1.00  0.00     0.056 A 
ATOM     68  C   UNL     1      22.722  29.375  14.392  1.00  0.00     0.010 A 
ATOM     69  C   UNL     1      20.764  28.996  12.606  1.00  0.00     0.161 A 
ATOM     70  C   UNL     1      21.781  28.324  14.618  1.00  0.00     0.051 A 
ATOM     71  C   UNL     1      20.808  28.182  13.665  1.00  0.00     0.160 A 
BRANCH  69  72
ATOM     72  O   UNL     1      19.734  28.798  11.685  1.00  0.00    -0.493 OA
ATOM     73  C   UNL     1      18.637  29.711  11.571  1.00  0.00     0.278 C 
ENDBRANCH  69  72
BRANCH  71  74
ATOM     74  O   UNL     1      19.841  27.145  13.786  1.00  0.00    -0.493 OA
ATOM     75  C   UNL     1      19.763  26.435  15.040  1.00  0.00     0.278 C 
ENDBRANCH  71  74
ENDBRANCH  65  66
ENDBRANCH  63  65
ENDBRANCH  59  60
ENDBRANCH  58  59
ENDBRANCH  55  58
ENDBRANCH  53  54
ENDBRANCH  50  53
ENDBRANCH  47  50
ENDBRANCH   5  47
BRANCH   4  76
ATOM     76  N   UNL     1      27.453  36.053   8.314  1.00  0.00    -0.348 N 
ATOM     77  C   UNL     1      28.572  35.665   7.568  1.00  0.00     0.217 C 
ATOM     78  H   UNL     1      26.627  36.434   7.775  1.00  0.00     0.163 HD
ATOM     79  C   UNL     1      28.729  35.787   6.087  1.00  0.00     0.114 C 
ATOM     80  O   UNL     1      29.626  35.142   8.116  1.00  0.00    -0.275 OA
ENDBRANCH   4  76
TORSDOF 33
BEGIN_RES LYS A 131
REMARK  4 active torsions:
REMARK  status: ('A' for Active; 'I' for Inactive)
REMARK    1  A    between atoms: CA   and  CB  
REMARK    2  A    between atoms: CB   and  CG  
REMARK    3  A    between atoms: CG   and  CD  
REMARK    4  A    between atoms: CD   and  CE  
ROOT
ATOM      1  CA  LYS A 131      29.867  25.555  16.977  1.00 20.52     0.186 C 
ENDROOT
BRANCH   1   2
ATOM      2  CB  LYS A 131      28.345  25.722  17.026  1.00 20.94     0.034 C 
BRANCH   2   3
ATOM      3  CG  LYS A 131      27.601  24.405  16.871  1.00 22.96     0.005 C 
BRANCH   3   4
ATOM      4  CD  LYS A 131      26.733  24.101  18.061  1.00 24.33     0.041 C 
BRANCH   4   5
ATOM      5  CE  LYS A 131      26.204  25.404  18.651  1.00 26.91     0.338 C 
ATOM      6  NZ  LYS A 131      25.500  25.146  19.929  1.00 27.40     0.618 N 
ENDBRANCH   4   5
ENDBRANCH   3   4
ENDBRANCH   2   3
ENDBRANCH   1   2
END_RES LYS A 131
BEGIN_RES LYS A 135
REMARK  4 active torsions:
REMARK  status: ('A' for Active; 'I' for Inactive)
REMARK    5  A    between atoms: CA   and  CB  
REMARK    6  A    between atoms: CB   and  CG  
REMARK    7  A    between atoms: CG   and  CD  
REMARK    8  A    between atoms: CD   and  CE  
ROOT
ATOM      7  CA  LYS A 135      33.193  34.663   9.290  1.00 25.02     0.186 C 
ENDROOT
BRANCH   7   8
ATOM      8  CB  LYS A 135      32.060  35.360  10.034  1.00 26.63     0.034 C 
BRANCH   8   9
ATOM      9  CG  LYS A 135      32.536  36.342  11.073  1.00 29.45     0.005 C 
BRANCH   9  10
ATOM     10  CD  LYS A 135      31.405  36.712  12.020  1.00 32.00     0.041 C 
BRANCH  10  11
ATOM     11  CE  LYS A 135      30.428  37.652  11.341  1.00 34.25     0.338 C 
ATOM     12  NZ  LYS A 135      29.928  38.684  12.292  1.00 35.99     0.618 N 
ENDBRANCH  10  11
ENDBRANCH   9  10
ENDBRANCH   8   9
ENDBRANCH   7   8
END_RES LYS A 135
