REMARK VINA RESULT:    -4.523      3.085      9.379
REMARK INTER + INTRA:         -23.798
REMARK INTER:                 -11.823
REMARK INTRA:                 -11.975
REMARK UNBOUND:               -12.269
REMARK SMILES CC(=O)N[C@@H]1[C@@H](O)C[C@](OC[C@H]2O[C@@H](O[C@H]3[C@H](O)[C@@H](O)[C@H](OCCN=[N+]=[N-])O[C@@H]3CO)[C@H](O)[C@@H](O)[C@H]2O)(C(=O)O)O[C@H]1C(O)[C@H](O)CNC(=O)OCc1cn(-c2cccc(S(N)(=O)=O)c2)nn1
REMARK SMILES IDX 9 1 8 2 6 3 5 4 42 5 41 6 10 7 11 8 12 9 14 10 13 11 32 12
REMARK SMILES IDX 34 13 36 14 15 15 16 16 29 17 28 18 21 19 17 20 19 21 30 22
REMARK SMILES IDX 31 23 22 25 23 26 24 27 25 28 26 29 27 30 18 31 20 33 33 35
REMARK SMILES IDX 35 37 37 39 38 41 39 42 40 43 7 45 43 47 44 48 45 50 46 51
REMARK SMILES IDX 47 53 48 54 49 55 50 57 51 58 52 59 53 60 54 61 67 62 55 63
REMARK SMILES IDX 66 64 56 65 65 66 57 67 60 68 58 69 59 70 61 71 63 72 64 73
REMARK SMILES IDX 62 74 4 77 2 78 1 80 3 81
REMARK H PARENT 31 24 18 32 20 34 33 36 35 38 37 40 40 44 7 46 44 49 46 52
REMARK H PARENT 48 56 62 75 62 76 4 79
REMARK Flexibility Score: inf
ROOT
ATOM      1  C   UNL     1      24.294  34.350  12.388  1.00  0.00     0.272 C 
ATOM      2  C   UNL     1      23.776  35.355  13.435  1.00  0.00     0.113 C 
ATOM      3  C   UNL     1      24.503  35.105  14.710  1.00  0.00     0.145 C 
ATOM      4  C   UNL     1      25.971  35.258  14.525  1.00  0.00     0.142 C 
ATOM      5  C   UNL     1      26.437  34.858  13.170  1.00  0.00     0.178 C 
ATOM      6  O   UNL     1      25.586  34.583  12.175  1.00  0.00    -0.332 OA
ENDROOT
BRANCH   1   7
ATOM      7  O   UNL     1      23.511  34.661  11.244  1.00  0.00    -0.338 OA
BRANCH   7   8
ATOM      8  C   UNL     1      22.929  35.877  11.431  1.00  0.00     0.199 C 
BRANCH   8   9
ATOM      9  C   UNL     1      22.732  36.643  10.141  1.00  0.00     0.179 C 
ATOM     10  C   UNL     1      23.925  37.688   8.563  1.00  0.00     0.282 C 
ATOM     11  O   UNL     1      23.801  36.462   9.266  1.00  0.00    -0.341 OA
ATOM     12  C   UNL     1      22.615  38.170   8.057  1.00  0.00     0.202 C 
ATOM     13  C   UNL     1      21.495  37.163   8.123  1.00  0.00     0.179 C 
ATOM     14  C   UNL     1      21.473  36.367   9.414  1.00  0.00     0.177 C 
BRANCH  10  15
ATOM     15  O   UNL     1      24.954  37.642   7.657  1.00  0.00    -0.341 OA
BRANCH  15  16
ATOM     16  C   UNL     1      26.005  38.489   7.916  1.00  0.00     0.184 C 
ATOM     17  C   UNL     1      25.849  39.741   7.087  1.00  0.00     0.178 C 
ATOM     18  O   UNL     1      27.078  40.135   6.543  1.00  0.00    -0.341 OA
ATOM     19  C   UNL     1      27.387  39.267   5.523  1.00  0.00     0.281 C 
ATOM     20  C   UNL     1      27.270  37.745   7.548  1.00  0.00     0.180 C 
ATOM     21  C   UNL     1      27.666  37.924   6.117  1.00  0.00     0.202 C 
BRANCH  17  22
ATOM     22  C   UNL     1      25.321  40.912   7.852  1.00  0.00     0.191 C 
BRANCH  22  23
ATOM     23  O   UNL     1      25.117  40.585   9.207  1.00  0.00    -0.394 OA
ATOM     24  H   UNL     1      25.134  39.609   9.344  1.00  0.00     0.210 HD
ENDBRANCH  22  23
ENDBRANCH  17  22
BRANCH  19  25
ATOM     25  O   UNL     1      28.505  39.673   4.794  1.00  0.00    -0.350 OA
BRANCH  25  26
ATOM     26  C   UNL     1      29.297  40.598   5.418  1.00  0.00     0.169 C 
BRANCH  26  27
ATOM     27  C   UNL     1      30.691  40.110   5.752  1.00  0.00     0.119 C 
BRANCH  27  28
ATOM     28  N   UNL     1      30.770  39.626   7.117  1.00  0.00    -0.092 NA
ATOM     29  N   UNL     1      31.790  39.719   7.793  1.00  0.00     0.001 N 
ATOM     30  N   UNL     1      32.751  39.751   8.542  1.00  0.00    -0.003 NA
ENDBRANCH  27  28
ENDBRANCH  26  27
ENDBRANCH  25  26
ENDBRANCH  19  25
BRANCH  20  31
ATOM     31  O   UNL     1      28.321  38.235   8.342  1.00  0.00    -0.387 OA
ATOM     32  H   UNL     1      28.471  37.681   9.148  1.00  0.00     0.211 HD
ENDBRANCH  20  31
BRANCH  21  33
ATOM     33  O   UNL     1      27.014  36.962   5.310  1.00  0.00    -0.385 OA
ATOM     34  H   UNL     1      26.084  37.264   5.195  1.00  0.00     0.211 HD
ENDBRANCH  21  33
ENDBRANCH  15  16
ENDBRANCH  10  15
BRANCH  12  35
ATOM     35  O   UNL     1      22.212  39.398   8.636  1.00  0.00    -0.385 OA
ATOM     36  H   UNL     1      22.458  39.288   9.609  1.00  0.00     0.211 HD
ENDBRANCH  12  35
BRANCH  13  37
ATOM     37  O   UNL     1      21.437  36.377   6.988  1.00  0.00    -0.387 OA
ATOM     38  H   UNL     1      21.685  36.980   6.216  1.00  0.00     0.211 HD
ENDBRANCH  13  37
BRANCH  14  39
ATOM     39  O   UNL     1      21.441  35.014   9.060  1.00  0.00    -0.387 OA
ATOM     40  H   UNL     1      22.330  34.684   8.774  1.00  0.00     0.211 HD
ENDBRANCH  14  39
ENDBRANCH   8   9
ENDBRANCH   7   8
ENDBRANCH   1   7
BRANCH   1  41
ATOM     41  C   UNL     1      23.913  33.010  12.898  1.00  0.00     0.364 C 
ATOM     42  O   UNL     1      22.663  32.710  12.929  1.00  0.00    -0.246 OA
BRANCH  41  43
ATOM     43  O   UNL     1      24.754  32.035  13.346  1.00  0.00    -0.477 OA
ATOM     44  H   UNL     1      25.221  32.076  14.261  1.00  0.00     0.296 HD
ENDBRANCH  41  43
ENDBRANCH   1  41
BRANCH   3  45
ATOM     45  O   UNL     1      24.005  36.072  15.628  1.00  0.00    -0.391 OA
ATOM     46  H   UNL     1      23.042  35.802  15.759  1.00  0.00     0.211 HD
ENDBRANCH   3  45
BRANCH   5  47
ATOM     47  C   UNL     1      27.457  35.923  12.701  1.00  0.00     0.176 C 
BRANCH  47  48
ATOM     48  O   UNL     1      27.677  36.807  13.740  1.00  0.00    -0.388 OA
ATOM     49  H   UNL     1      28.376  36.559  14.368  1.00  0.00     0.211 HD
ENDBRANCH  47  48
BRANCH  47  50
ATOM     50  C   UNL     1      27.034  36.516  11.413  1.00  0.00     0.165 C 
BRANCH  50  51
ATOM     51  O   UNL     1      28.162  36.935  10.712  1.00  0.00    -0.388 OA
ATOM     52  H   UNL     1      27.922  36.814   9.749  1.00  0.00     0.211 HD
ENDBRANCH  50  51
BRANCH  50  53
ATOM     53  C   UNL     1      26.138  37.730  11.597  1.00  0.00     0.154 C 
BRANCH  53  54
ATOM     54  N   UNL     1      26.919  38.909  11.308  1.00  0.00    -0.319 N 
ATOM     55  C   UNL     1      27.166  39.873  12.357  1.00  0.00     0.407 C 
ATOM     56  H   UNL     1      27.316  39.105  10.361  1.00  0.00     0.167 HD
ATOM     57  O   UNL     1      26.710  39.700  13.517  1.00  0.00    -0.225 OA
BRANCH  55  58
ATOM     58  O   UNL     1      27.923  40.973  12.013  1.00  0.00    -0.443 OA
BRANCH  58  59
ATOM     59  C   UNL     1      29.287  41.036  12.302  1.00  0.00     0.294 C 
BRANCH  59  60
ATOM     60  C   UNL     1      29.967  39.762  12.028  1.00  0.00     0.121 A 
ATOM     61  C   UNL     1      30.588  38.981  13.014  1.00  0.00     0.144 A 
ATOM     62  N   UNL     1      30.131  39.115  10.880  1.00  0.00    -0.131 NA
ATOM     63  N   UNL     1      31.090  37.911  12.407  1.00  0.00    -0.220 N 
ATOM     64  N   UNL     1      30.806  38.011  11.140  1.00  0.00    -0.062 NA
BRANCH  63  65
ATOM     65  C   UNL     1      31.795  36.866  13.090  1.00  0.00     0.068 A 
ATOM     66  C   UNL     1      31.542  36.659  14.449  1.00  0.00     0.050 A 
ATOM     67  C   UNL     1      32.697  36.083  12.435  1.00  0.00     0.028 A 
ATOM     68  C   UNL     1      32.189  35.671  15.148  1.00  0.00     0.084 A 
ATOM     69  C   UNL     1      33.344  35.102  13.115  1.00  0.00     0.004 A 
ATOM     70  C   UNL     1      33.107  34.877  14.473  1.00  0.00     0.022 A 
BRANCH  68  71
ATOM     71  S   UNL     1      31.921  35.356  16.838  1.00  0.00     0.238 S 
ATOM     72  O   UNL     1      30.792  36.226  17.316  1.00  0.00    -0.207 OA
ATOM     73  O   UNL     1      33.146  35.681  17.630  1.00  0.00    -0.207 OA
BRANCH  71  74
ATOM     74  N   UNL     1      31.504  33.678  17.031  1.00  0.00    -0.225 NA
ATOM     75  H   UNL     1      30.895  33.586  17.874  1.00  0.00     0.137 HD
ATOM     76  H   UNL     1      32.348  33.069  17.045  1.00  0.00     0.137 HD
ENDBRANCH  71  74
ENDBRANCH  68  71
ENDBRANCH  63  65
ENDBRANCH  59  60
ENDBRANCH  58  59
ENDBRANCH  55  58
ENDBRANCH  53  54
ENDBRANCH  50  53
ENDBRANCH  47  50
ENDBRANCH   5  47
BRANCH   4  77
ATOM     77  N   UNL     1      26.619  34.386  15.518  1.00  0.00    -0.348 N 
ATOM     78  C   UNL     1      27.373  34.893  16.610  1.00  0.00     0.217 C 
ATOM     79  H   UNL     1      26.526  33.354  15.422  1.00  0.00     0.163 HD
ATOM     80  C   UNL     1      28.001  33.962  17.581  1.00  0.00     0.114 C 
ATOM     81  O   UNL     1      27.485  36.149  16.721  1.00  0.00    -0.275 OA
ENDBRANCH   4  77
TORSDOF 32
BEGIN_RES LYS A 131
REMARK  4 active torsions:
REMARK  status: ('A' for Active; 'I' for Inactive)
REMARK    1  A    between atoms: CA   and  CB  
REMARK    2  A    between atoms: CB   and  CG  
REMARK    3  A    between atoms: CG   and  CD  
REMARK    4  A    between atoms: CD   and  CE  
ROOT
ATOM      1  CA  LYS A 131      29.867  25.555  16.977  1.00 20.52     0.186 C 
ENDROOT
BRANCH   1   2
ATOM      2  CB  LYS A 131      28.345  25.722  17.026  1.00 20.94     0.034 C 
BRANCH   2   3
ATOM      3  CG  LYS A 131      27.602  24.398  16.935  1.00 22.96     0.005 C 
BRANCH   3   4
ATOM      4  CD  LYS A 131      26.152  24.535  17.309  1.00 24.33     0.041 C 
BRANCH   4   5
ATOM      5  CE  LYS A 131      26.016  25.518  18.468  1.00 26.91     0.338 C 
ATOM      6  NZ  LYS A 131      24.951  26.509  18.185  1.00 27.40     0.618 N 
ENDBRANCH   4   5
ENDBRANCH   3   4
ENDBRANCH   2   3
ENDBRANCH   1   2
END_RES LYS A 131
BEGIN_RES LYS A 135
REMARK  4 active torsions:
REMARK  status: ('A' for Active; 'I' for Inactive)
REMARK    5  A    between atoms: CA   and  CB  
REMARK    6  A    between atoms: CB   and  CG  
REMARK    7  A    between atoms: CG   and  CD  
REMARK    8  A    between atoms: CD   and  CE  
ROOT
ATOM      7  CA  LYS A 135      33.193  34.663   9.290  1.00 25.02     0.186 C 
ENDROOT
BRANCH   7   8
ATOM      8  CB  LYS A 135      32.060  35.360  10.034  1.00 26.63     0.034 C 
BRANCH   8   9
ATOM      9  CG  LYS A 135      30.722  34.691   9.857  1.00 29.45     0.005 C 
BRANCH   9  10
ATOM     10  CD  LYS A 135      30.256  34.795   8.413  1.00 32.00     0.041 C 
BRANCH  10  11
ATOM     11  CE  LYS A 135      28.771  34.502   8.310  1.00 34.25     0.338 C 
ATOM     12  NZ  LYS A 135      28.288  33.752   9.502  1.00 35.99     0.618 N 
ENDBRANCH  10  11
ENDBRANCH   9  10
ENDBRANCH   8   9
ENDBRANCH   7   8
END_RES LYS A 135
