REMARK VINA RESULT:    -4.045      3.873      5.989
REMARK INTER + INTRA:         -22.580
REMARK INTER:                 -14.439
REMARK INTRA:                  -8.141
REMARK UNBOUND:               -12.270
REMARK SMILES CC(=O)N[C@@H]1[C@@H](O)C[C@](OC[C@H]2O[C@@H](O[C@H]3[C@H](O)[C@@H](O)[C@H](OCCN=[N+]=[N-])O[C@@H]3CO)[C@H](O)[C@@H](O)[C@H]2O)(C(=O)O)O[C@H]1C(O)[C@H](O)CNC(=O)OCc1cn(-c2ccc(S(N)(=O)=O)cc2)nn1
REMARK SMILES IDX 9 1 8 2 6 3 5 4 42 5 41 6 10 7 11 8 12 9 14 10 13 11 32 12
REMARK SMILES IDX 34 13 36 14 15 15 16 16 29 17 28 18 21 19 17 20 19 21 30 22
REMARK SMILES IDX 31 23 22 25 23 26 24 27 25 28 26 29 27 30 18 31 20 33 33 35
REMARK SMILES IDX 35 37 37 39 38 41 39 42 40 43 7 45 43 47 44 48 45 50 46 51
REMARK SMILES IDX 47 53 48 54 49 55 50 57 51 58 52 59 53 60 54 61 67 62 55 63
REMARK SMILES IDX 66 64 56 65 57 66 65 67 58 68 64 69 59 70 60 71 62 72 63 73
REMARK SMILES IDX 61 74 4 77 2 78 1 80 3 81
REMARK H PARENT 31 24 18 32 20 34 33 36 35 38 37 40 40 44 7 46 44 49 46 52
REMARK H PARENT 48 56 61 75 61 76 4 79
REMARK Flexibility Score: inf
ROOT
ATOM      1  C   UNL     1      28.871  36.162   8.022  1.00  0.00     0.272 C 
ATOM      2  C   UNL     1      28.332  36.123   6.583  1.00  0.00     0.113 C 
ATOM      3  C   UNL     1      27.555  37.345   6.242  1.00  0.00     0.145 C 
ATOM      4  C   UNL     1      26.722  37.750   7.430  1.00  0.00     0.142 C 
ATOM      5  C   UNL     1      26.589  36.480   8.279  1.00  0.00     0.178 C 
ATOM      6  O   UNL     1      27.825  36.317   8.900  1.00  0.00    -0.332 OA
ENDROOT
BRANCH   1   7
ATOM      7  O   UNL     1      29.798  37.196   8.043  1.00  0.00    -0.338 OA
BRANCH   7   8
ATOM      8  C   UNL     1      30.679  37.149   9.086  1.00  0.00     0.199 C 
BRANCH   8   9
ATOM      9  C   UNL     1      30.844  38.584   9.616  1.00  0.00     0.179 C 
ATOM     10  C   UNL     1      30.735  40.742   8.720  1.00  0.00     0.282 C 
ATOM     11  O   UNL     1      31.097  39.372   8.538  1.00  0.00    -0.341 OA
ATOM     12  C   UNL     1      29.238  40.696   8.823  1.00  0.00     0.202 C 
ATOM     13  C   UNL     1      28.833  40.041  10.138  1.00  0.00     0.179 C 
ATOM     14  C   UNL     1      29.783  38.981  10.560  1.00  0.00     0.177 C 
BRANCH  10  15
ATOM     15  O   UNL     1      31.143  41.411   7.619  1.00  0.00    -0.341 OA
BRANCH  15  16
ATOM     16  C   UNL     1      32.081  40.717   6.809  1.00  0.00     0.184 C 
ATOM     17  C   UNL     1      33.346  41.445   6.853  1.00  0.00     0.178 C 
ATOM     18  O   UNL     1      34.051  41.553   5.671  1.00  0.00    -0.341 OA
ATOM     19  C   UNL     1      33.822  40.592   4.728  1.00  0.00     0.281 C 
ATOM     20  C   UNL     1      31.488  40.504   5.436  1.00  0.00     0.180 C 
ATOM     21  C   UNL     1      32.389  40.724   4.284  1.00  0.00     0.202 C 
BRANCH  17  22
ATOM     22  C   UNL     1      34.326  40.927   7.886  1.00  0.00     0.191 C 
BRANCH  22  23
ATOM     23  O   UNL     1      34.159  39.563   8.078  1.00  0.00    -0.394 OA
ATOM     24  H   UNL     1      33.261  39.256   7.797  1.00  0.00     0.210 HD
ENDBRANCH  22  23
ENDBRANCH  17  22
BRANCH  19  25
ATOM     25  O   UNL     1      34.156  39.306   5.078  1.00  0.00    -0.350 OA
BRANCH  25  26
ATOM     26  C   UNL     1      35.273  38.889   4.365  1.00  0.00     0.169 C 
BRANCH  26  27
ATOM     27  C   UNL     1      36.048  37.910   5.243  1.00  0.00     0.119 C 
BRANCH  27  28
ATOM     28  N   UNL     1      37.250  37.539   4.548  1.00  0.00    -0.092 NA
ATOM     29  N   UNL     1      38.219  38.322   4.435  1.00  0.00     0.001 N 
ATOM     30  N   UNL     1      38.904  39.147   3.805  1.00  0.00    -0.003 NA
ENDBRANCH  27  28
ENDBRANCH  26  27
ENDBRANCH  25  26
ENDBRANCH  19  25
BRANCH  20  31
ATOM     31  O   UNL     1      30.946  39.221   5.316  1.00  0.00    -0.387 OA
ATOM     32  H   UNL     1      30.121  39.168   5.851  1.00  0.00     0.211 HD
ENDBRANCH  20  31
BRANCH  21  33
ATOM     33  O   UNL     1      32.207  41.942   3.639  1.00  0.00    -0.385 OA
ATOM     34  H   UNL     1      32.733  42.602   4.195  1.00  0.00     0.211 HD
ENDBRANCH  21  33
ENDBRANCH  15  16
ENDBRANCH  10  15
BRANCH  12  35
ATOM     35  O   UNL     1      28.595  41.876   8.592  1.00  0.00    -0.385 OA
ATOM     36  H   UNL     1      29.136  42.682   8.703  1.00  0.00     0.211 HD
ENDBRANCH  12  35
BRANCH  13  37
ATOM     37  O   UNL     1      27.499  39.669  10.130  1.00  0.00    -0.387 OA
ATOM     38  H   UNL     1      26.878  40.341   9.782  1.00  0.00     0.211 HD
ENDBRANCH  13  37
BRANCH  14  39
ATOM     39  O   UNL     1      29.016  37.825  10.844  1.00  0.00    -0.387 OA
ATOM     40  H   UNL     1      28.070  38.092  10.656  1.00  0.00     0.211 HD
ENDBRANCH  14  39
ENDBRANCH   8   9
ENDBRANCH   7   8
ENDBRANCH   1   7
BRANCH   1  41
ATOM     41  C   UNL     1      29.563  34.829   8.184  1.00  0.00     0.364 C 
ATOM     42  O   UNL     1      29.094  33.944   8.939  1.00  0.00    -0.246 OA
BRANCH  41  43
ATOM     43  O   UNL     1      30.731  34.541   7.505  1.00  0.00    -0.477 OA
ATOM     44  H   UNL     1      31.523  35.150   7.642  1.00  0.00     0.296 HD
ENDBRANCH  41  43
ENDBRANCH   1  41
BRANCH   3  45
ATOM     45  O   UNL     1      28.442  38.336   5.826  1.00  0.00    -0.391 OA
ATOM     46  H   UNL     1      27.951  39.184   5.718  1.00  0.00     0.211 HD
ENDBRANCH   3  45
BRANCH   5  47
ATOM     47  C   UNL     1      25.527  36.646   9.333  1.00  0.00     0.176 C 
BRANCH  47  48
ATOM     48  O   UNL     1      24.251  36.348   8.901  1.00  0.00    -0.388 OA
ATOM     49  H   UNL     1      23.546  36.732   9.482  1.00  0.00     0.211 HD
ENDBRANCH  47  48
BRANCH  47  50
ATOM     50  C   UNL     1      25.861  35.816  10.551  1.00  0.00     0.165 C 
BRANCH  50  51
ATOM     51  O   UNL     1      24.906  34.791  10.720  1.00  0.00    -0.388 OA
ATOM     52  H   UNL     1      24.629  34.430   9.829  1.00  0.00     0.211 HD
ENDBRANCH  50  51
BRANCH  50  53
ATOM     53  C   UNL     1      25.936  36.654  11.802  1.00  0.00     0.154 C 
BRANCH  53  54
ATOM     54  N   UNL     1      27.104  36.342  12.591  1.00  0.00    -0.319 N 
ATOM     55  C   UNL     1      27.072  35.246  13.492  1.00  0.00     0.407 C 
ATOM     56  H   UNL     1      27.982  36.893  12.529  1.00  0.00     0.167 HD
ATOM     57  O   UNL     1      26.009  34.565  13.582  1.00  0.00    -0.225 OA
BRANCH  55  58
ATOM     58  O   UNL     1      28.137  34.863  14.289  1.00  0.00    -0.443 OA
BRANCH  58  59
ATOM     59  C   UNL     1      29.276  34.215  13.774  1.00  0.00     0.294 C 
BRANCH  59  60
ATOM     60  C   UNL     1      29.794  33.264  14.793  1.00  0.00     0.121 A 
ATOM     61  C   UNL     1      29.046  32.665  15.813  1.00  0.00     0.144 A 
ATOM     62  N   UNL     1      31.037  32.783  14.969  1.00  0.00    -0.131 NA
ATOM     63  N   UNL     1      29.857  31.863  16.547  1.00  0.00    -0.220 N 
ATOM     64  N   UNL     1      31.043  31.951  16.022  1.00  0.00    -0.062 NA
BRANCH  63  65
ATOM     65  C   UNL     1      29.481  31.076  17.682  1.00  0.00     0.066 A 
ATOM     66  C   UNL     1      30.300  30.979  18.785  1.00  0.00     0.030 A 
ATOM     67  C   UNL     1      28.286  30.393  17.708  1.00  0.00     0.030 A 
ATOM     68  C   UNL     1      29.929  30.213  19.889  1.00  0.00     0.024 A 
ATOM     69  C   UNL     1      27.906  29.625  18.806  1.00  0.00     0.024 A 
ATOM     70  C   UNL     1      28.730  29.530  19.910  1.00  0.00     0.082 A 
BRANCH  70  71
ATOM     71  S   UNL     1      28.290  28.571  21.323  1.00  0.00     0.238 S 
ATOM     72  O   UNL     1      28.778  29.225  22.593  1.00  0.00    -0.207 OA
ATOM     73  O   UNL     1      26.801  28.452  21.431  1.00  0.00    -0.207 OA
BRANCH  71  74
ATOM     74  N   UNL     1      28.961  26.973  21.220  1.00  0.00    -0.225 NA
ATOM     75  H   UNL     1      30.012  27.077  21.142  1.00  0.00     0.137 HD
ATOM     76  H   UNL     1      28.586  26.438  20.401  1.00  0.00     0.137 HD
ENDBRANCH  71  74
ENDBRANCH  70  71
ENDBRANCH  63  65
ENDBRANCH  59  60
ENDBRANCH  58  59
ENDBRANCH  55  58
ENDBRANCH  53  54
ENDBRANCH  50  53
ENDBRANCH  47  50
ENDBRANCH   5  47
BRANCH   4  77
ATOM     77  N   UNL     1      25.427  38.281   7.097  1.00  0.00    -0.348 N 
ATOM     78  C   UNL     1      25.158  39.656   7.265  1.00  0.00     0.217 C 
ATOM     79  H   UNL     1      24.678  37.668   6.727  1.00  0.00     0.163 HD
ATOM     80  C   UNL     1      23.810  40.165   6.911  1.00  0.00     0.114 C 
ATOM     81  O   UNL     1      26.007  40.467   7.702  1.00  0.00    -0.275 OA
ENDBRANCH   4  77
TORSDOF 32
BEGIN_RES LYS A 131
REMARK  4 active torsions:
REMARK  status: ('A' for Active; 'I' for Inactive)
REMARK    1  A    between atoms: CA   and  CB  
REMARK    2  A    between atoms: CB   and  CG  
REMARK    3  A    between atoms: CG   and  CD  
REMARK    4  A    between atoms: CD   and  CE  
ROOT
ATOM      1  CA  LYS A 131      29.867  25.555  16.977  1.00 20.52     0.186 C 
ENDROOT
BRANCH   1   2
ATOM      2  CB  LYS A 131      28.345  25.722  17.026  1.00 20.94     0.034 C 
BRANCH   2   3
ATOM      3  CG  LYS A 131      27.601  24.403  16.883  1.00 22.96     0.005 C 
BRANCH   3   4
ATOM      4  CD  LYS A 131      26.520  24.248  17.917  1.00 24.33     0.041 C 
BRANCH   4   5
ATOM      5  CE  LYS A 131      25.155  24.311  17.240  1.00 26.91     0.338 C 
ATOM      6  NZ  LYS A 131      24.532  22.967  17.201  1.00 27.40     0.618 N 
ENDBRANCH   4   5
ENDBRANCH   3   4
ENDBRANCH   2   3
ENDBRANCH   1   2
END_RES LYS A 131
BEGIN_RES LYS A 135
REMARK  4 active torsions:
REMARK  status: ('A' for Active; 'I' for Inactive)
REMARK    5  A    between atoms: CA   and  CB  
REMARK    6  A    between atoms: CB   and  CG  
REMARK    7  A    between atoms: CG   and  CD  
REMARK    8  A    between atoms: CD   and  CE  
ROOT
ATOM      7  CA  LYS A 135      33.193  34.663   9.290  1.00 25.02     0.186 C 
ENDROOT
BRANCH   7   8
ATOM      8  CB  LYS A 135      32.060  35.360  10.034  1.00 26.63     0.034 C 
BRANCH   8   9
ATOM      9  CG  LYS A 135      32.021  35.042  11.506  1.00 29.45     0.005 C 
BRANCH   9  10
ATOM     10  CD  LYS A 135      32.286  36.291  12.333  1.00 32.00     0.041 C 
BRANCH  10  11
ATOM     11  CE  LYS A 135      32.617  35.921  13.766  1.00 34.25     0.338 C 
ATOM     12  NZ  LYS A 135      33.645  34.845  13.819  1.00 35.99     0.618 N 
ENDBRANCH  10  11
ENDBRANCH   9  10
ENDBRANCH   8   9
ENDBRANCH   7   8
END_RES LYS A 135
