REMARK VINA RESULT:    -4.744      3.775     11.137
REMARK INTER + INTRA:         -23.723
REMARK INTER:                 -11.933
REMARK INTRA:                 -11.790
REMARK UNBOUND:               -10.521
REMARK SMILES CC(=O)N[C@@H]1[C@@H](O)C[C@](OC[C@H]2O[C@@H](O[C@H]3[C@H](O)[C@@H](O)[C@H](OCCN=[N+]=[N-])O[C@@H]3CO)[C@H](O)[C@@H](O)[C@H]2O)(C(=O)O)O[C@H]1C(O)[C@H](O)CNC(=O)OCc1cn(CCCCCC(=O)O)nn1
REMARK SMILES IDX 47 1 45 2 43 3 42 4 9 5 8 6 41 7 6 8 5 9 10 10 11 11 12 12
REMARK SMILES IDX 14 13 13 14 32 15 34 16 36 17 15 18 16 19 29 20 28 21 21 22
REMARK SMILES IDX 17 23 19 24 30 25 31 26 22 28 23 29 24 30 25 31 26 32 27 33
REMARK SMILES IDX 18 34 20 36 33 38 35 40 37 42 38 44 39 45 40 46 7 48 4 50
REMARK SMILES IDX 2 51 1 53 3 54 44 55 46 57 48 59 49 60 50 62 51 63 52 64
REMARK SMILES IDX 53 65 54 66 65 67 55 68 64 69 56 70 57 71 58 72 59 73 60 74
REMARK SMILES IDX 61 75 62 76 63 77
REMARK H PARENT 31 27 18 35 20 37 33 39 35 41 37 43 40 47 7 49 4 52 44 56
REMARK H PARENT 46 58 48 61 63 78
REMARK Flexibility Score: inf
ROOT
ATOM      1  C   UNL     1      23.203  36.844  12.328  1.00  0.00     0.154 C 
ENDROOT
BRANCH   1   2
ATOM      2  C   UNL     1      22.806  35.579  11.606  1.00  0.00     0.165 C 
BRANCH   2   3
ATOM      3  C   UNL     1      23.992  34.670  11.642  1.00  0.00     0.176 C 
BRANCH   3   4
ATOM      4  C   UNL     1      24.602  34.441  12.981  1.00  0.00     0.178 C 
ATOM      5  C   UNL     1      26.194  35.094  14.435  1.00  0.00     0.272 C 
ATOM      6  C   UNL     1      25.322  34.386  15.420  1.00  0.00     0.113 C 
ATOM      7  O   UNL     1      25.926  34.831  13.099  1.00  0.00    -0.332 OA
ATOM      8  C   UNL     1      24.674  33.126  14.987  1.00  0.00     0.145 C 
ATOM      9  C   UNL     1      24.564  33.006  13.462  1.00  0.00     0.142 C 
BRANCH   5  10
ATOM     10  O   UNL     1      27.551  34.960  14.724  1.00  0.00    -0.338 OA
BRANCH  10  11
ATOM     11  C   UNL     1      27.928  35.084  16.023  1.00  0.00     0.199 C 
BRANCH  11  12
ATOM     12  C   UNL     1      29.237  34.332  16.170  1.00  0.00     0.179 C 
ATOM     13  C   UNL     1      30.885  33.623  17.506  1.00  0.00     0.282 C 
ATOM     14  O   UNL     1      29.481  33.871  17.455  1.00  0.00    -0.341 OA
ATOM     15  C   UNL     1      31.463  33.103  16.269  1.00  0.00     0.202 C 
ATOM     16  C   UNL     1      30.521  32.496  15.268  1.00  0.00     0.179 C 
ATOM     17  C   UNL     1      29.136  33.084  15.312  1.00  0.00     0.177 C 
BRANCH  13  18
ATOM     18  O   UNL     1      31.201  32.995  18.708  1.00  0.00    -0.341 OA
BRANCH  18  19
ATOM     19  C   UNL     1      30.206  32.299  19.285  1.00  0.00     0.184 C 
ATOM     20  C   UNL     1      30.186  32.421  20.779  1.00  0.00     0.178 C 
ATOM     21  O   UNL     1      28.901  31.992  21.169  1.00  0.00    -0.341 OA
ATOM     22  C   UNL     1      28.750  30.661  20.975  1.00  0.00     0.281 C 
ATOM     23  C   UNL     1      30.430  30.761  19.079  1.00  0.00     0.180 C 
ATOM     24  C   UNL     1      29.885  30.019  20.272  1.00  0.00     0.202 C 
BRANCH  20  25
ATOM     25  C   UNL     1      30.348  33.832  21.279  1.00  0.00     0.191 C 
BRANCH  25  26
ATOM     26  O   UNL     1      31.672  34.214  21.257  1.00  0.00    -0.394 OA
ATOM     27  H   UNL     1      32.010  34.075  20.333  1.00  0.00     0.210 HD
ENDBRANCH  25  26
ENDBRANCH  20  25
BRANCH  22  28
ATOM     28  O   UNL     1      27.535  30.319  20.367  1.00  0.00    -0.350 OA
BRANCH  28  29
ATOM     29  C   UNL     1      26.792  31.416  20.011  1.00  0.00     0.169 C 
BRANCH  29  30
ATOM     30  C   UNL     1      25.911  31.070  18.819  1.00  0.00     0.119 C 
BRANCH  30  31
ATOM     31  N   UNL     1      26.703  30.509  17.736  1.00  0.00    -0.092 NA
ATOM     32  N   UNL     1      26.530  29.321  17.402  1.00  0.00     0.001 N 
ATOM     33  N   UNL     1      26.748  28.111  17.324  1.00  0.00    -0.003 NA
ENDBRANCH  30  31
ENDBRANCH  29  30
ENDBRANCH  28  29
ENDBRANCH  22  28
BRANCH  23  34
ATOM     34  O   UNL     1      29.700  30.358  17.962  1.00  0.00    -0.387 OA
ATOM     35  H   UNL     1      28.832  29.966  18.271  1.00  0.00     0.211 HD
ENDBRANCH  23  34
BRANCH  24  36
ATOM     36  O   UNL     1      30.892  29.547  21.124  1.00  0.00    -0.385 OA
ATOM     37  H   UNL     1      31.739  29.370  20.644  1.00  0.00     0.211 HD
ENDBRANCH  24  36
ENDBRANCH  18  19
ENDBRANCH  13  18
BRANCH  15  38
ATOM     38  O   UNL     1      32.166  34.113  15.550  1.00  0.00    -0.385 OA
ATOM     39  H   UNL     1      31.786  34.989  15.737  1.00  0.00     0.211 HD
ENDBRANCH  15  38
BRANCH  16  40
ATOM     40  O   UNL     1      30.379  31.107  15.434  1.00  0.00    -0.387 OA
ATOM     41  H   UNL     1      30.706  30.791  16.296  1.00  0.00     0.211 HD
ENDBRANCH  16  40
BRANCH  17  42
ATOM     42  O   UNL     1      28.281  32.199  16.016  1.00  0.00    -0.387 OA
ATOM     43  H   UNL     1      27.362  32.375  15.638  1.00  0.00     0.211 HD
ENDBRANCH  17  42
ENDBRANCH  11  12
ENDBRANCH  10  11
ENDBRANCH   5  10
BRANCH   5  44
ATOM     44  C   UNL     1      25.917  36.549  14.598  1.00  0.00     0.364 C 
ATOM     45  O   UNL     1      25.135  36.955  15.486  1.00  0.00    -0.246 OA
BRANCH  44  46
ATOM     46  O   UNL     1      26.521  37.463  13.771  1.00  0.00    -0.477 OA
ATOM     47  H   UNL     1      27.316  38.055  14.067  1.00  0.00     0.296 HD
ENDBRANCH  44  46
ENDBRANCH   5  44
BRANCH   8  48
ATOM     48  O   UNL     1      25.179  31.965  15.567  1.00  0.00    -0.391 OA
ATOM     49  H   UNL     1      25.892  32.226  16.191  1.00  0.00     0.211 HD
ENDBRANCH   8  48
BRANCH   9  50
ATOM     50  N   UNL     1      23.411  32.272  13.073  1.00  0.00    -0.348 N 
ATOM     51  C   UNL     1      23.495  30.868  12.914  1.00  0.00     0.217 C 
ATOM     52  H   UNL     1      22.511  32.742  12.905  1.00  0.00     0.163 HD
ATOM     53  C   UNL     1      22.303  30.075  12.512  1.00  0.00     0.114 C 
ATOM     54  O   UNL     1      24.572  30.231  13.106  1.00  0.00    -0.275 OA
ENDBRANCH   9  50
ENDBRANCH   3   4
BRANCH   3  55
ATOM     55  O   UNL     1      25.000  35.114  10.755  1.00  0.00    -0.388 OA
ATOM     56  H   UNL     1      25.086  36.092  10.810  1.00  0.00     0.211 HD
ENDBRANCH   3  55
ENDBRANCH   2   3
BRANCH   2  57
ATOM     57  O   UNL     1      22.482  35.914  10.297  1.00  0.00    -0.388 OA
ATOM     58  H   UNL     1      23.329  36.149   9.841  1.00  0.00     0.211 HD
ENDBRANCH   2  57
ENDBRANCH   1   2
BRANCH   1  59
ATOM     59  N   UNL     1      24.120  37.669  11.607  1.00  0.00    -0.319 N 
ATOM     60  C   UNL     1      23.602  38.797  10.895  1.00  0.00     0.407 C 
ATOM     61  H   UNL     1      25.136  37.489  11.576  1.00  0.00     0.167 HD
ATOM     62  O   UNL     1      22.371  39.048  10.909  1.00  0.00    -0.225 OA
BRANCH  60  63
ATOM     63  O   UNL     1      24.415  39.639  10.173  1.00  0.00    -0.443 OA
BRANCH  63  64
ATOM     64  C   UNL     1      24.605  39.576   8.804  1.00  0.00     0.294 C 
BRANCH  64  65
ATOM     65  C   UNL     1      25.261  38.371   8.280  1.00  0.00     0.120 A 
ATOM     66  C   UNL     1      26.315  38.306   7.407  1.00  0.00     0.138 A 
ATOM     67  N   UNL     1      24.912  37.098   8.572  1.00  0.00    -0.132 NA
ATOM     68  N   UNL     1      26.580  37.017   7.189  1.00  0.00    -0.252 N 
ATOM     69  N   UNL     1      25.720  36.320   7.904  1.00  0.00    -0.067 NA
BRANCH  68  70
ATOM     70  C   UNL     1      27.633  36.496   6.328  1.00  0.00     0.146 C 
BRANCH  70  71
ATOM     71  C   UNL     1      28.133  35.184   6.933  1.00  0.00     0.024 C 
BRANCH  71  72
ATOM     72  C   UNL     1      29.430  35.377   7.662  1.00  0.00     0.002 C 
BRANCH  72  73
ATOM     73  C   UNL     1      29.200  35.292   9.143  1.00  0.00     0.012 C 
BRANCH  73  74
ATOM     74  C   UNL     1      29.092  36.627   9.804  1.00  0.00     0.122 C 
BRANCH  74  75
ATOM     75  C   UNL     1      28.160  36.534  10.962  1.00  0.00     0.303 C 
ATOM     76  O   UNL     1      27.145  37.263  11.006  1.00  0.00    -0.252 OA
BRANCH  75  77
ATOM     77  O   UNL     1      28.397  35.645  12.005  1.00  0.00    -0.481 OA
ATOM     78  H   UNL     1      27.611  35.293  12.556  1.00  0.00     0.296 HD
ENDBRANCH  75  77
ENDBRANCH  74  75
ENDBRANCH  73  74
ENDBRANCH  72  73
ENDBRANCH  71  72
ENDBRANCH  70  71
ENDBRANCH  68  70
ENDBRANCH  64  65
ENDBRANCH  63  64
ENDBRANCH  60  63
ENDBRANCH   1  59
TORSDOF 36
BEGIN_RES LYS A 131
REMARK  4 active torsions:
REMARK  status: ('A' for Active; 'I' for Inactive)
REMARK    1  A    between atoms: CA   and  CB  
REMARK    2  A    between atoms: CB   and  CG  
REMARK    3  A    between atoms: CG   and  CD  
REMARK    4  A    between atoms: CD   and  CE  
ROOT
ATOM      1  CA  LYS A 131      29.867  25.555  16.977  1.00 20.52     0.186 C 
ENDROOT
BRANCH   1   2
ATOM      2  CB  LYS A 131      28.345  25.722  17.026  1.00 20.94     0.034 C 
BRANCH   2   3
ATOM      3  CG  LYS A 131      27.601  24.403  16.888  1.00 22.96     0.005 C 
BRANCH   3   4
ATOM      4  CD  LYS A 131      26.551  24.231  17.950  1.00 24.33     0.041 C 
BRANCH   4   5
ATOM      5  CE  LYS A 131      25.632  23.073  17.574  1.00 26.91     0.338 C 
ATOM      6  NZ  LYS A 131      24.369  23.582  16.988  1.00 27.40     0.618 N 
ENDBRANCH   4   5
ENDBRANCH   3   4
ENDBRANCH   2   3
ENDBRANCH   1   2
END_RES LYS A 131
BEGIN_RES LYS A 135
REMARK  4 active torsions:
REMARK  status: ('A' for Active; 'I' for Inactive)
REMARK    5  A    between atoms: CA   and  CB  
REMARK    6  A    between atoms: CB   and  CG  
REMARK    7  A    between atoms: CG   and  CD  
REMARK    8  A    between atoms: CD   and  CE  
ROOT
ATOM      7  CA  LYS A 135      33.193  34.663   9.290  1.00 25.02     0.186 C 
ENDROOT
BRANCH   7   8
ATOM      8  CB  LYS A 135      32.060  35.360  10.034  1.00 26.63     0.034 C 
BRANCH   8   9
ATOM      9  CG  LYS A 135      32.527  36.189  11.203  1.00 29.45     0.005 C 
BRANCH   9  10
ATOM     10  CD  LYS A 135      31.774  35.805  12.467  1.00 32.00     0.041 C 
BRANCH  10  11
ATOM     11  CE  LYS A 135      31.802  36.943  13.470  1.00 34.25     0.338 C 
ATOM     12  NZ  LYS A 135      30.737  37.942  13.176  1.00 35.99     0.618 N 
ENDBRANCH  10  11
ENDBRANCH   9  10
ENDBRANCH   8   9
ENDBRANCH   7   8
END_RES LYS A 135
