REMARK VINA RESULT:    -3.910      2.144      4.080
REMARK INTER + INTRA:         -22.661
REMARK INTER:                 -10.595
REMARK INTRA:                 -12.066
REMARK UNBOUND:               -13.037
REMARK SMILES CC(=O)N[C@@H]1[C@@H](O)C[C@](OC[C@H]2O[C@@H](O[C@H]3[C@H](O)[C@@H](O)[C@H](OCCN=[N+]=[N-])O[C@@H]3CO)[C@H](O)[C@@H](O)[C@H]2O)(C(=O)O)O[C@H]1C(O)[C@H](O)CNC(=O)OCc1cn([C@H]2C[C@H]3CC[C@@H](C2)N3C)nn1
REMARK SMILES IDX 9 1 8 2 6 3 5 4 42 5 41 6 10 7 11 8 12 9 14 10 13 11 32 12
REMARK SMILES IDX 34 13 36 14 15 15 16 16 29 17 28 18 21 19 17 20 19 21 30 22
REMARK SMILES IDX 31 23 22 25 23 26 24 27 25 28 26 29 27 30 18 31 20 33 33 35
REMARK SMILES IDX 35 37 37 39 38 41 39 42 40 43 7 45 43 47 44 48 45 50 46 51
REMARK SMILES IDX 47 53 48 54 49 55 50 57 51 58 52 59 53 60 54 61 66 62 55 63
REMARK SMILES IDX 65 64 56 65 62 66 57 67 61 68 58 69 63 70 60 71 59 72 64 73
REMARK SMILES IDX 4 74 2 75 1 77 3 78
REMARK H PARENT 31 24 18 32 20 34 33 36 35 38 37 40 40 44 7 46 44 49 46 52
REMARK H PARENT 48 56 4 76
REMARK Flexibility Score: inf
ROOT
ATOM      1  C   UNL     1      24.237  37.044   8.870  1.00  0.00     0.272 C 
ATOM      2  C   UNL     1      23.076  36.067   8.808  1.00  0.00     0.113 C 
ATOM      3  C   UNL     1      21.751  36.685   8.480  1.00  0.00     0.145 C 
ATOM      4  C   UNL     1      21.726  38.063   9.027  1.00  0.00     0.142 C 
ATOM      5  C   UNL     1      22.658  38.091  10.242  1.00  0.00     0.178 C 
ATOM      6  O   UNL     1      23.959  38.170   9.594  1.00  0.00    -0.332 OA
ENDROOT
BRANCH   1   7
ATOM      7  O   UNL     1      24.659  37.279   7.597  1.00  0.00    -0.338 OA
BRANCH   7   8
ATOM      8  C   UNL     1      25.402  38.367   7.317  1.00  0.00     0.199 C 
BRANCH   8   9
ATOM      9  C   UNL     1      26.834  38.198   6.970  1.00  0.00     0.179 C 
ATOM     10  C   UNL     1      28.850  38.839   7.759  1.00  0.00     0.282 C 
ATOM     11  O   UNL     1      27.608  38.338   8.166  1.00  0.00    -0.341 OA
ATOM     12  C   UNL     1      29.510  38.034   6.722  1.00  0.00     0.202 C 
ATOM     13  C   UNL     1      28.714  37.014   6.003  1.00  0.00     0.179 C 
ATOM     14  C   UNL     1      27.272  36.873   6.438  1.00  0.00     0.177 C 
BRANCH  10  15
ATOM     15  O   UNL     1      29.596  38.989   8.904  1.00  0.00    -0.341 OA
BRANCH  15  16
ATOM     16  C   UNL     1      28.817  39.351  10.008  1.00  0.00     0.184 C 
ATOM     17  C   UNL     1      28.412  40.787  10.043  1.00  0.00     0.178 C 
ATOM     18  O   UNL     1      29.349  41.690  10.431  1.00  0.00    -0.341 OA
ATOM     19  C   UNL     1      30.093  41.332  11.501  1.00  0.00     0.281 C 
ATOM     20  C   UNL     1      29.652  38.985  11.214  1.00  0.00     0.180 C 
ATOM     21  C   UNL     1      30.793  40.000  11.234  1.00  0.00     0.202 C 
BRANCH  17  22
ATOM     22  C   UNL     1      27.048  40.962  10.721  1.00  0.00     0.191 C 
BRANCH  22  23
ATOM     23  O   UNL     1      26.143  39.973  10.409  1.00  0.00    -0.394 OA
ATOM     24  H   UNL     1      25.655  40.148   9.577  1.00  0.00     0.210 HD
ENDBRANCH  22  23
ENDBRANCH  17  22
BRANCH  19  25
ATOM     25  O   UNL     1      29.511  41.376  12.732  1.00  0.00    -0.350 OA
BRANCH  25  26
ATOM     26  C   UNL     1      30.024  42.229  13.660  1.00  0.00     0.169 C 
BRANCH  26  27
ATOM     27  C   UNL     1      30.985  41.561  14.583  1.00  0.00     0.119 C 
BRANCH  27  28
ATOM     28  N   UNL     1      30.545  40.203  14.933  1.00  0.00    -0.092 NA
ATOM     29  N   UNL     1      29.626  40.041  15.755  1.00  0.00     0.001 N 
ATOM     30  N   UNL     1      28.440  40.050  16.141  1.00  0.00    -0.003 NA
ENDBRANCH  27  28
ENDBRANCH  26  27
ENDBRANCH  25  26
ENDBRANCH  19  25
BRANCH  20  31
ATOM     31  O   UNL     1      28.968  39.051  12.404  1.00  0.00    -0.387 OA
ATOM     32  H   UNL     1      29.307  39.729  13.010  1.00  0.00     0.211 HD
ENDBRANCH  20  31
BRANCH  21  33
ATOM     33  O   UNL     1      31.442  40.047  10.002  1.00  0.00    -0.385 OA
ATOM     34  H   UNL     1      31.928  39.185   9.903  1.00  0.00     0.211 HD
ENDBRANCH  21  33
ENDBRANCH  15  16
ENDBRANCH  10  15
BRANCH  12  35
ATOM     35  O   UNL     1      30.023  38.936   5.755  1.00  0.00    -0.385 OA
ATOM     36  H   UNL     1      31.003  38.928   5.719  1.00  0.00     0.211 HD
ENDBRANCH  12  35
BRANCH  13  37
ATOM     37  O   UNL     1      29.291  35.726   6.133  1.00  0.00    -0.387 OA
ATOM     38  H   UNL     1      28.560  35.111   6.464  1.00  0.00     0.211 HD
ENDBRANCH  13  37
BRANCH  14  39
ATOM     39  O   UNL     1      27.282  35.926   7.490  1.00  0.00    -0.387 OA
ATOM     40  H   UNL     1      27.051  35.062   7.024  1.00  0.00     0.211 HD
ENDBRANCH  14  39
ENDBRANCH   8   9
ENDBRANCH   7   8
ENDBRANCH   1   7
BRANCH   1  41
ATOM     41  C   UNL     1      25.290  36.297   9.629  1.00  0.00     0.364 C 
ATOM     42  O   UNL     1      25.342  35.071   9.634  1.00  0.00    -0.246 OA
BRANCH  41  43
ATOM     43  O   UNL     1      26.261  36.992  10.363  1.00  0.00    -0.477 OA
ATOM     44  H   UNL     1      25.941  37.824  10.878  1.00  0.00     0.296 HD
ENDBRANCH  41  43
ENDBRANCH   1  41
BRANCH   3  45
ATOM     45  O   UNL     1      21.641  36.663   7.070  1.00  0.00    -0.391 OA
ATOM     46  H   UNL     1      22.431  36.218   6.672  1.00  0.00     0.211 HD
ENDBRANCH   3  45
BRANCH   5  47
ATOM     47  C   UNL     1      22.539  39.296  11.087  1.00  0.00     0.176 C 
BRANCH  47  48
ATOM     48  O   UNL     1      23.381  40.312  10.457  1.00  0.00    -0.388 OA
ATOM     49  H   UNL     1      23.445  41.071  11.091  1.00  0.00     0.211 HD
ENDBRANCH  47  48
BRANCH  47  50
ATOM     50  C   UNL     1      23.240  39.233  12.436  1.00  0.00     0.165 C 
BRANCH  50  51
ATOM     51  O   UNL     1      24.526  38.704  12.169  1.00  0.00    -0.388 OA
ATOM     52  H   UNL     1      24.812  38.081  12.882  1.00  0.00     0.211 HD
ENDBRANCH  50  51
BRANCH  50  53
ATOM     53  C   UNL     1      22.587  38.466  13.513  1.00  0.00     0.154 C 
BRANCH  53  54
ATOM     54  N   UNL     1      23.500  37.358  13.859  1.00  0.00    -0.319 N 
ATOM     55  C   UNL     1      23.136  36.006  13.643  1.00  0.00     0.407 C 
ATOM     56  H   UNL     1      24.423  37.591  14.268  1.00  0.00     0.167 HD
ATOM     57  O   UNL     1      22.001  35.754  13.127  1.00  0.00    -0.225 OA
BRANCH  55  58
ATOM     58  O   UNL     1      24.001  34.979  13.985  1.00  0.00    -0.443 OA
BRANCH  58  59
ATOM     59  C   UNL     1      25.033  34.645  13.084  1.00  0.00     0.294 C 
BRANCH  59  60
ATOM     60  C   UNL     1      26.320  35.300  13.391  1.00  0.00     0.120 A 
ATOM     61  C   UNL     1      27.371  34.696  14.049  1.00  0.00     0.138 A 
ATOM     62  N   UNL     1      26.727  36.548  13.139  1.00  0.00    -0.132 NA
ATOM     63  N   UNL     1      28.375  35.571  14.183  1.00  0.00    -0.249 N 
ATOM     64  N   UNL     1      27.965  36.707  13.618  1.00  0.00    -0.067 NA
BRANCH  63  65
ATOM     65  C   UNL     1      29.640  35.276  14.840  1.00  0.00     0.112 C 
ATOM     66  C   UNL     1      30.224  36.577  15.276  1.00  0.00     0.046 C 
ATOM     67  C   UNL     1      30.476  34.464  13.905  1.00  0.00     0.046 C 
ATOM     68  C   UNL     1      31.689  36.727  15.019  1.00  0.00     0.058 C 
ATOM     69  C   UNL     1      31.931  34.816  13.874  1.00  0.00     0.058 C 
ATOM     70  N   UNL     1      32.383  35.478  15.080  1.00  0.00    -0.300 NA
ATOM     71  C   UNL     1      31.887  37.150  13.565  1.00  0.00     0.021 C 
ATOM     72  C   UNL     1      32.146  35.870  12.808  1.00  0.00     0.021 C 
ATOM     73  C   UNL     1      32.139  34.703  16.271  1.00  0.00     0.105 C 
ENDBRANCH  63  65
ENDBRANCH  59  60
ENDBRANCH  58  59
ENDBRANCH  55  58
ENDBRANCH  53  54
ENDBRANCH  50  53
ENDBRANCH  47  50
ENDBRANCH   5  47
BRANCH   4  74
ATOM     74  N   UNL     1      20.481  38.700   9.113  1.00  0.00    -0.348 N 
ATOM     75  C   UNL     1      20.259  40.038   8.639  1.00  0.00     0.217 C 
ATOM     76  H   UNL     1      19.643  38.209   9.496  1.00  0.00     0.163 HD
ATOM     77  C   UNL     1      18.884  40.629   8.761  1.00  0.00     0.114 C 
ATOM     78  O   UNL     1      21.170  40.705   8.137  1.00  0.00    -0.275 OA
ENDBRANCH   4  74
TORSDOF 30
BEGIN_RES LYS A 131
REMARK  4 active torsions:
REMARK  status: ('A' for Active; 'I' for Inactive)
REMARK    1  A    between atoms: CA   and  CB  
REMARK    2  A    between atoms: CB   and  CG  
REMARK    3  A    between atoms: CG   and  CD  
REMARK    4  A    between atoms: CD   and  CE  
ROOT
ATOM      1  CA  LYS A 131      29.867  25.555  16.977  1.00 20.52     0.186 C 
ENDROOT
BRANCH   1   2
ATOM      2  CB  LYS A 131      28.345  25.722  17.026  1.00 20.94     0.034 C 
BRANCH   2   3
ATOM      3  CG  LYS A 131      27.601  24.402  16.896  1.00 22.96     0.005 C 
BRANCH   3   4
ATOM      4  CD  LYS A 131      26.526  24.253  17.937  1.00 24.33     0.041 C 
BRANCH   4   5
ATOM      5  CE  LYS A 131      25.186  24.002  17.252  1.00 26.91     0.338 C 
ATOM      6  NZ  LYS A 131      24.230  23.377  18.195  1.00 27.40     0.618 N 
ENDBRANCH   4   5
ENDBRANCH   3   4
ENDBRANCH   2   3
ENDBRANCH   1   2
END_RES LYS A 131
BEGIN_RES LYS A 135
REMARK  4 active torsions:
REMARK  status: ('A' for Active; 'I' for Inactive)
REMARK    5  A    between atoms: CA   and  CB  
REMARK    6  A    between atoms: CB   and  CG  
REMARK    7  A    between atoms: CG   and  CD  
REMARK    8  A    between atoms: CD   and  CE  
ROOT
ATOM      7  CA  LYS A 135      33.193  34.663   9.290  1.00 25.02     0.186 C 
ENDROOT
BRANCH   7   8
ATOM      8  CB  LYS A 135      32.060  35.360  10.034  1.00 26.63     0.034 C 
BRANCH   8   9
ATOM      9  CG  LYS A 135      30.723  35.236   9.349  1.00 29.45     0.005 C 
BRANCH   9  10
ATOM     10  CD  LYS A 135      29.602  35.679  10.276  1.00 32.00     0.041 C 
BRANCH  10  11
ATOM     11  CE  LYS A 135      28.704  34.507  10.623  1.00 34.25     0.338 C 
ATOM     12  NZ  LYS A 135      28.461  33.646   9.433  1.00 35.99     0.618 N 
ENDBRANCH  10  11
ENDBRANCH   9  10
ENDBRANCH   8   9
ENDBRANCH   7   8
END_RES LYS A 135
