REMARK VINA RESULT:    -3.647      4.291      7.686
REMARK INTER + INTRA:         -22.374
REMARK INTER:                  -9.492
REMARK INTRA:                 -12.882
REMARK UNBOUND:               -13.184
REMARK SMILES CC(=O)N[C@@H]1[C@@H](O)C[C@](OC[C@H]2O[C@@H](O[C@H]3[C@H](O)[C@@H](O)[C@H](OCCN=[N+]=[N-])O[C@@H]3CO)[C@H](O)[C@@H](O)[C@H]2O)(C(=O)O)O[C@H]1C(O)[C@H](O)CNC(=O)OCc1cn(-c2cc(Cl)ccc2C(=O)N(C)C)nn1
REMARK SMILES IDX 9 1 8 2 6 3 5 4 42 5 41 6 10 7 11 8 12 9 14 10 13 11 32 12
REMARK SMILES IDX 34 13 36 14 15 15 16 16 29 17 28 18 21 19 17 20 19 21 30 22
REMARK SMILES IDX 31 23 22 25 23 26 24 27 25 28 26 29 27 30 18 31 20 33 33 35
REMARK SMILES IDX 35 37 37 39 38 41 39 42 40 43 7 45 43 47 44 48 45 50 46 51
REMARK SMILES IDX 47 53 48 54 49 55 50 57 51 58 52 59 53 60 54 61 69 62 55 63
REMARK SMILES IDX 68 64 56 65 57 66 62 67 58 68 61 69 59 70 60 71 63 72 64 73
REMARK SMILES IDX 65 74 66 75 67 76 4 77 2 78 1 80 3 81
REMARK H PARENT 31 24 18 32 20 34 33 36 35 38 37 40 40 44 7 46 44 49 46 52
REMARK H PARENT 48 56 4 79
REMARK Flexibility Score: inf
ROOT
ATOM      1  C   UNL     1      34.118  36.859  18.139  1.00  0.00     0.272 C 
ATOM      2  C   UNL     1      33.697  35.628  18.849  1.00  0.00     0.113 C 
ATOM      3  C   UNL     1      32.350  35.834  19.494  1.00  0.00     0.145 C 
ATOM      4  C   UNL     1      32.504  36.985  20.460  1.00  0.00     0.142 C 
ATOM      5  C   UNL     1      33.023  38.188  19.791  1.00  0.00     0.178 C 
ATOM      6  O   UNL     1      33.754  38.064  18.653  1.00  0.00    -0.332 OA
ENDROOT
BRANCH   1   7
ATOM      7  O   UNL     1      33.716  36.851  16.813  1.00  0.00    -0.338 OA
BRANCH   7   8
ATOM      8  C   UNL     1      33.784  35.694  16.121  1.00  0.00     0.199 C 
BRANCH   8   9
ATOM      9  C   UNL     1      33.091  35.868  14.760  1.00  0.00     0.179 C 
ATOM     10  C   UNL     1      31.578  34.674  13.493  1.00  0.00     0.282 C 
ATOM     11  O   UNL     1      32.798  34.631  14.264  1.00  0.00    -0.341 OA
ATOM     12  C   UNL     1      31.657  35.910  12.626  1.00  0.00     0.202 C 
ATOM     13  C   UNL     1      31.537  37.172  13.453  1.00  0.00     0.179 C 
ATOM     14  C   UNL     1      32.023  36.874  14.860  1.00  0.00     0.177 C 
BRANCH  10  15
ATOM     15  O   UNL     1      30.589  34.642  14.381  1.00  0.00    -0.341 OA
BRANCH  15  16
ATOM     16  C   UNL     1      29.861  33.494  14.637  1.00  0.00     0.184 C 
ATOM     17  C   UNL     1      28.535  33.946  15.158  1.00  0.00     0.178 C 
ATOM     18  O   UNL     1      27.732  32.833  15.465  1.00  0.00    -0.341 OA
ATOM     19  C   UNL     1      28.318  32.397  16.703  1.00  0.00     0.281 C 
ATOM     20  C   UNL     1      30.566  32.638  15.658  1.00  0.00     0.180 C 
ATOM     21  C   UNL     1      29.613  31.743  16.390  1.00  0.00     0.202 C 
BRANCH  17  22
ATOM     22  C   UNL     1      27.821  34.828  14.156  1.00  0.00     0.191 C 
BRANCH  22  23
ATOM     23  O   UNL     1      28.182  36.138  14.388  1.00  0.00    -0.394 OA
ATOM     24  H   UNL     1      27.378  36.715  14.396  1.00  0.00     0.210 HD
ENDBRANCH  22  23
ENDBRANCH  17  22
BRANCH  19  25
ATOM     25  O   UNL     1      27.430  31.608  17.324  1.00  0.00    -0.350 OA
BRANCH  25  26
ATOM     26  C   UNL     1      26.215  31.449  16.680  1.00  0.00     0.169 C 
BRANCH  26  27
ATOM     27  C   UNL     1      25.309  30.426  17.335  1.00  0.00     0.119 C 
BRANCH  27  28
ATOM     28  N   UNL     1      25.615  29.092  16.865  1.00  0.00    -0.092 NA
ATOM     29  N   UNL     1      26.505  28.434  17.392  1.00  0.00     0.001 N 
ATOM     30  N   UNL     1      27.374  27.889  18.105  1.00  0.00    -0.003 NA
ENDBRANCH  27  28
ENDBRANCH  26  27
ENDBRANCH  25  26
ENDBRANCH  19  25
BRANCH  20  31
ATOM     31  O   UNL     1      31.524  31.811  15.062  1.00  0.00    -0.387 OA
ATOM     32  H   UNL     1      31.201  30.862  15.038  1.00  0.00     0.211 HD
ENDBRANCH  20  31
BRANCH  21  33
ATOM     33  O   UNL     1      30.220  31.310  17.567  1.00  0.00    -0.385 OA
ATOM     34  H   UNL     1      30.315  32.015  18.243  1.00  0.00     0.211 HD
ENDBRANCH  21  33
ENDBRANCH  15  16
ENDBRANCH  10  15
BRANCH  12  35
ATOM     35  O   UNL     1      32.949  35.916  12.062  1.00  0.00    -0.385 OA
ATOM     36  H   UNL     1      32.906  35.950  11.054  1.00  0.00     0.211 HD
ENDBRANCH  12  35
BRANCH  13  37
ATOM     37  O   UNL     1      30.271  37.689  13.526  1.00  0.00    -0.387 OA
ATOM     38  H   UNL     1      29.828  37.784  12.649  1.00  0.00     0.211 HD
ENDBRANCH  13  37
BRANCH  14  39
ATOM     39  O   UNL     1      31.029  36.678  15.777  1.00  0.00    -0.387 OA
ATOM     40  H   UNL     1      31.226  37.003  16.683  1.00  0.00     0.211 HD
ENDBRANCH  14  39
ENDBRANCH   8   9
ENDBRANCH   7   8
ENDBRANCH   1   7
BRANCH   1  41
ATOM     41  C   UNL     1      35.656  36.845  18.046  1.00  0.00     0.364 C 
ATOM     42  O   UNL     1      36.182  37.872  17.559  1.00  0.00    -0.246 OA
BRANCH  41  43
ATOM     43  O   UNL     1      36.424  35.801  18.454  1.00  0.00    -0.477 OA
ATOM     44  H   UNL     1      36.469  34.906  18.021  1.00  0.00     0.296 HD
ENDBRANCH  41  43
ENDBRANCH   1  41
BRANCH   3  45
ATOM     45  O   UNL     1      31.394  36.007  18.535  1.00  0.00    -0.391 OA
ATOM     46  H   UNL     1      31.640  36.467  17.726  1.00  0.00     0.211 HD
ENDBRANCH   3  45
BRANCH   5  47
ATOM     47  C   UNL     1      31.995  39.278  19.517  1.00  0.00     0.176 C 
BRANCH  47  48
ATOM     48  O   UNL     1      30.988  38.915  18.668  1.00  0.00    -0.388 OA
ATOM     49  H   UNL     1      30.437  38.146  18.974  1.00  0.00     0.211 HD
ENDBRANCH  47  48
BRANCH  47  50
ATOM     50  C   UNL     1      31.451  39.970  20.711  1.00  0.00     0.165 C 
BRANCH  50  51
ATOM     51  O   UNL     1      31.857  39.359  21.921  1.00  0.00    -0.388 OA
ATOM     52  H   UNL     1      31.350  39.718  22.688  1.00  0.00     0.211 HD
ENDBRANCH  50  51
BRANCH  50  53
ATOM     53  C   UNL     1      29.927  39.707  20.699  1.00  0.00     0.154 C 
BRANCH  53  54
ATOM     54  N   UNL     1      29.611  38.581  21.531  1.00  0.00    -0.319 N 
ATOM     55  C   UNL     1      29.030  37.413  20.998  1.00  0.00     0.407 C 
ATOM     56  H   UNL     1      29.805  38.589  22.576  1.00  0.00     0.167 HD
ATOM     57  O   UNL     1      28.790  37.313  19.773  1.00  0.00    -0.225 OA
BRANCH  55  58
ATOM     58  O   UNL     1      28.699  36.329  21.820  1.00  0.00    -0.443 OA
BRANCH  58  59
ATOM     59  C   UNL     1      28.198  35.130  21.297  1.00  0.00     0.294 C 
BRANCH  59  60
ATOM     60  C   UNL     1      29.308  34.228  20.863  1.00  0.00     0.121 A 
ATOM     61  C   UNL     1      30.271  33.683  21.737  1.00  0.00     0.144 A 
ATOM     62  N   UNL     1      29.620  33.764  19.663  1.00  0.00    -0.131 NA
ATOM     63  N   UNL     1      31.104  32.928  21.035  1.00  0.00    -0.219 N 
ATOM     64  N   UNL     1      30.678  33.000  19.767  1.00  0.00    -0.062 NA
BRANCH  63  65
ATOM     65  C   UNL     1      32.233  32.156  21.400  1.00  0.00     0.081 A 
ATOM     66  C   UNL     1      33.428  32.807  21.733  1.00  0.00     0.049 A 
ATOM     67  C   UNL     1      32.270  30.792  21.429  1.00  0.00     0.065 A 
ATOM     68  C   UNL     1      34.547  32.113  22.058  1.00  0.00     0.043 A 
ATOM     69  C   UNL     1      33.431  30.071  21.765  1.00  0.00     0.017 A 
ATOM     70  Cl  UNL     1      36.015  32.992  22.465  1.00  0.00    -0.084 Cl
ATOM     71  C   UNL     1      34.584  30.746  22.084  1.00  0.00     0.021 A 
BRANCH  67  72
ATOM     72  C   UNL     1      31.078  29.984  21.154  1.00  0.00     0.255 C 
ATOM     73  O   UNL     1      30.876  29.597  19.985  1.00  0.00    -0.269 OA
ATOM     74  N   UNL     1      30.193  29.656  22.185  1.00  0.00    -0.345 N 
ATOM     75  C   UNL     1      30.443  30.117  23.548  1.00  0.00     0.146 C 
ATOM     76  C   UNL     1      29.004  28.844  21.939  1.00  0.00     0.146 C 
ENDBRANCH  67  72
ENDBRANCH  63  65
ENDBRANCH  59  60
ENDBRANCH  58  59
ENDBRANCH  55  58
ENDBRANCH  53  54
ENDBRANCH  50  53
ENDBRANCH  47  50
ENDBRANCH   5  47
BRANCH   4  77
ATOM     77  N   UNL     1      33.372  36.503  21.538  1.00  0.00    -0.348 N 
ATOM     78  C   UNL     1      32.923  36.361  22.867  1.00  0.00     0.217 C 
ATOM     79  H   UNL     1      34.360  36.256  21.331  1.00  0.00     0.163 HD
ATOM     80  C   UNL     1      33.796  35.875  23.963  1.00  0.00     0.114 C 
ATOM     81  O   UNL     1      31.729  36.657  23.137  1.00  0.00    -0.275 OA
ENDBRANCH   4  77
TORSDOF 31
BEGIN_RES LYS A 131
REMARK  4 active torsions:
REMARK  status: ('A' for Active; 'I' for Inactive)
REMARK    1  A    between atoms: CA   and  CB  
REMARK    2  A    between atoms: CB   and  CG  
REMARK    3  A    between atoms: CG   and  CD  
REMARK    4  A    between atoms: CD   and  CE  
ROOT
ATOM      1  CA  LYS A 131      29.867  25.555  16.977  1.00 20.52     0.186 C 
ENDROOT
BRANCH   1   2
ATOM      2  CB  LYS A 131      28.345  25.722  17.026  1.00 20.94     0.034 C 
BRANCH   2   3
ATOM      3  CG  LYS A 131      27.603  24.396  16.955  1.00 22.96     0.005 C 
BRANCH   3   4
ATOM      4  CD  LYS A 131      26.182  24.517  17.432  1.00 24.33     0.041 C 
BRANCH   4   5
ATOM      5  CE  LYS A 131      25.539  23.134  17.471  1.00 26.91     0.338 C 
ATOM      6  NZ  LYS A 131      24.132  23.203  17.010  1.00 27.40     0.618 N 
ENDBRANCH   4   5
ENDBRANCH   3   4
ENDBRANCH   2   3
ENDBRANCH   1   2
END_RES LYS A 131
BEGIN_RES LYS A 135
REMARK  4 active torsions:
REMARK  status: ('A' for Active; 'I' for Inactive)
REMARK    5  A    between atoms: CA   and  CB  
REMARK    6  A    between atoms: CB   and  CG  
REMARK    7  A    between atoms: CG   and  CD  
REMARK    8  A    between atoms: CD   and  CE  
ROOT
ATOM      7  CA  LYS A 135      33.193  34.663   9.290  1.00 25.02     0.186 C 
ENDROOT
BRANCH   7   8
ATOM      8  CB  LYS A 135      32.060  35.360  10.034  1.00 26.63     0.034 C 
BRANCH   8   9
ATOM      9  CG  LYS A 135      30.818  35.547   9.201  1.00 29.45     0.005 C 
BRANCH   9  10
ATOM     10  CD  LYS A 135      30.041  34.244   9.096  1.00 32.00     0.041 C 
BRANCH  10  11
ATOM     11  CE  LYS A 135      28.744  34.457   8.339  1.00 34.25     0.338 C 
ATOM     12  NZ  LYS A 135      28.939  35.387   7.191  1.00 35.99     0.618 N 
ENDBRANCH  10  11
ENDBRANCH   9  10
ENDBRANCH   8   9
ENDBRANCH   7   8
END_RES LYS A 135
