REMARK VINA RESULT:    -5.558      0.913      2.024
REMARK INTER + INTRA:         -24.859
REMARK INTER:                 -13.746
REMARK INTRA:                 -11.113
REMARK UNBOUND:               -10.853
REMARK SMILES CC(=O)N[C@@H]1[C@@H](O)C[C@](OC[C@H]2O[C@@H](O[C@H]3[C@H](O)[C@@H](O)[C@H](OCCN=[N+]=[N-])O[C@@H]3CO)[C@H](O)[C@@H](O)[C@H]2O)(C(=O)O)O[C@H]1C(O)[C@H](O)CNC(=O)OCc1cn(-c2ncn3c2c(=O)n(C(C)C)c2ccccc23)nn1
REMARK SMILES IDX 9 1 8 2 6 3 5 4 42 5 41 6 10 7 11 8 12 9 14 10 13 11 32 12
REMARK SMILES IDX 34 13 36 14 15 15 16 16 29 17 28 18 21 19 17 20 19 21 30 22
REMARK SMILES IDX 31 23 22 25 23 26 24 27 25 28 26 29 27 30 18 31 20 33 33 35
REMARK SMILES IDX 35 37 37 39 38 41 39 42 40 43 7 45 43 47 44 48 45 50 46 51
REMARK SMILES IDX 47 53 48 54 49 55 50 57 51 58 52 59 53 60 54 61 74 62 55 63
REMARK SMILES IDX 73 64 56 65 57 66 60 67 58 68 59 69 61 70 72 71 63 72 62 73
REMARK SMILES IDX 71 74 67 75 70 76 68 77 69 78 64 79 65 80 66 81 4 82 2 83
REMARK SMILES IDX 1 85 3 86
REMARK H PARENT 31 24 18 32 20 34 33 36 35 38 37 40 40 44 7 46 44 49 46 52
REMARK H PARENT 48 56 4 84
REMARK Flexibility Score: inf
ROOT
ATOM      1  C   UNL     1      24.377  36.239   9.842  1.00  0.00     0.272 C 
ATOM      2  C   UNL     1      23.432  35.262   9.198  1.00  0.00     0.113 C 
ATOM      3  C   UNL     1      22.035  35.723   9.205  1.00  0.00     0.145 C 
ATOM      4  C   UNL     1      21.844  37.162   8.820  1.00  0.00     0.142 C 
ATOM      5  C   UNL     1      23.011  38.027   9.133  1.00  0.00     0.178 C 
ATOM      6  O   UNL     1      24.224  37.478   9.142  1.00  0.00    -0.332 OA
ENDROOT
BRANCH   1   7
ATOM      7  O   UNL     1      25.634  35.865   9.454  1.00  0.00    -0.338 OA
BRANCH   7   8
ATOM      8  C   UNL     1      26.098  34.653   9.335  1.00  0.00     0.199 C 
BRANCH   8   9
ATOM      9  C   UNL     1      27.391  34.258   8.709  1.00  0.00     0.179 C 
ATOM     10  C   UNL     1      28.988  35.257   7.340  1.00  0.00     0.282 C 
ATOM     11  O   UNL     1      27.795  35.431   7.990  1.00  0.00    -0.341 OA
ATOM     12  C   UNL     1      30.140  35.021   8.300  1.00  0.00     0.202 C 
ATOM     13  C   UNL     1      29.814  33.894   9.263  1.00  0.00     0.179 C 
ATOM     14  C   UNL     1      28.436  34.128   9.819  1.00  0.00     0.177 C 
BRANCH  10  15
ATOM     15  O   UNL     1      29.249  36.433   6.647  1.00  0.00    -0.341 OA
BRANCH  15  16
ATOM     16  C   UNL     1      28.519  37.478   7.151  1.00  0.00     0.184 C 
ATOM     17  C   UNL     1      28.092  38.392   6.060  1.00  0.00     0.178 C 
ATOM     18  O   UNL     1      28.857  39.515   5.874  1.00  0.00    -0.341 OA
ATOM     19  C   UNL     1      30.164  39.431   6.277  1.00  0.00     0.281 C 
ATOM     20  C   UNL     1      29.229  38.204   8.274  1.00  0.00     0.180 C 
ATOM     21  C   UNL     1      30.315  39.059   7.732  1.00  0.00     0.202 C 
BRANCH  17  22
ATOM     22  C   UNL     1      26.642  38.789   6.236  1.00  0.00     0.191 C 
BRANCH  22  23
ATOM     23  O   UNL     1      26.071  37.778   7.045  1.00  0.00    -0.394 OA
ATOM     24  H   UNL     1      25.096  37.897   6.983  1.00  0.00     0.210 HD
ENDBRANCH  22  23
ENDBRANCH  17  22
BRANCH  19  25
ATOM     25  O   UNL     1      30.720  40.717   6.154  1.00  0.00    -0.350 OA
BRANCH  25  26
ATOM     26  C   UNL     1      29.796  41.712   5.986  1.00  0.00     0.169 C 
BRANCH  26  27
ATOM     27  C   UNL     1      29.789  42.782   7.031  1.00  0.00     0.119 C 
BRANCH  27  28
ATOM     28  N   UNL     1      28.738  42.402   7.990  1.00  0.00    -0.092 NA
ATOM     29  N   UNL     1      28.954  42.120   9.149  1.00  0.00     0.001 N 
ATOM     30  N   UNL     1      29.091  41.555  10.238  1.00  0.00    -0.003 NA
ENDBRANCH  27  28
ENDBRANCH  26  27
ENDBRANCH  25  26
ENDBRANCH  19  25
BRANCH  20  31
ATOM     31  O   UNL     1      28.280  38.909   9.024  1.00  0.00    -0.387 OA
ATOM     32  H   UNL     1      27.778  39.456   8.352  1.00  0.00     0.211 HD
ENDBRANCH  20  31
BRANCH  21  33
ATOM     33  O   UNL     1      31.520  38.347   7.871  1.00  0.00    -0.385 OA
ATOM     34  H   UNL     1      31.819  38.315   8.817  1.00  0.00     0.211 HD
ENDBRANCH  21  33
ENDBRANCH  15  16
ENDBRANCH  10  15
BRANCH  12  35
ATOM     35  O   UNL     1      31.226  34.583   7.546  1.00  0.00    -0.385 OA
ATOM     36  H   UNL     1      32.068  34.589   8.061  1.00  0.00     0.211 HD
ENDBRANCH  12  35
BRANCH  13  37
ATOM     37  O   UNL     1      30.705  34.026  10.345  1.00  0.00    -0.387 OA
ATOM     38  H   UNL     1      31.637  33.837  10.044  1.00  0.00     0.211 HD
ENDBRANCH  13  37
BRANCH  14  39
ATOM     39  O   UNL     1      28.497  35.376  10.492  1.00  0.00    -0.387 OA
ATOM     40  H   UNL     1      29.437  35.626  10.659  1.00  0.00     0.211 HD
ENDBRANCH  14  39
ENDBRANCH   8   9
ENDBRANCH   7   8
ENDBRANCH   1   7
BRANCH   1  41
ATOM     41  C   UNL     1      24.120  36.505  11.250  1.00  0.00     0.364 C 
ATOM     42  O   UNL     1      23.340  35.864  11.954  1.00  0.00    -0.246 OA
BRANCH  41  43
ATOM     43  O   UNL     1      24.783  37.559  11.906  1.00  0.00    -0.477 OA
ATOM     44  H   UNL     1      24.254  38.366  12.213  1.00  0.00     0.296 HD
ENDBRANCH  41  43
ENDBRANCH   1  41
BRANCH   3  45
ATOM     45  O   UNL     1      21.330  34.901   8.287  1.00  0.00    -0.391 OA
ATOM     46  H   UNL     1      21.639  33.969   8.346  1.00  0.00     0.211 HD
ENDBRANCH   3  45
BRANCH   5  47
ATOM     47  C   UNL     1      23.043  39.281   8.279  1.00  0.00     0.176 C 
BRANCH  47  48
ATOM     48  O   UNL     1      23.318  38.948   6.971  1.00  0.00    -0.388 OA
ATOM     49  H   UNL     1      22.713  38.257   6.602  1.00  0.00     0.211 HD
ENDBRANCH  47  48
BRANCH  47  50
ATOM     50  C   UNL     1      23.971  40.339   8.764  1.00  0.00     0.165 C 
BRANCH  50  51
ATOM     51  O   UNL     1      25.272  39.964   8.969  1.00  0.00    -0.388 OA
ATOM     52  H   UNL     1      25.839  40.002   8.165  1.00  0.00     0.211 HD
ENDBRANCH  50  51
BRANCH  50  53
ATOM     53  C   UNL     1      23.456  41.100   9.947  1.00  0.00     0.154 C 
BRANCH  53  54
ATOM     54  N   UNL     1      24.094  40.629  11.182  1.00  0.00    -0.319 N 
ATOM     55  C   UNL     1      24.776  41.488  12.059  1.00  0.00     0.407 C 
ATOM     56  H   UNL     1      24.042  39.596  11.434  1.00  0.00     0.167 HD
ATOM     57  O   UNL     1      24.883  42.717  11.813  1.00  0.00    -0.225 OA
BRANCH  55  58
ATOM     58  O   UNL     1      25.336  40.939  13.221  1.00  0.00    -0.443 OA
BRANCH  58  59
ATOM     59  C   UNL     1      26.725  40.897  13.392  1.00  0.00     0.294 C 
BRANCH  59  60
ATOM     60  C   UNL     1      27.305  39.539  13.069  1.00  0.00     0.121 A 
ATOM     61  C   UNL     1      27.893  38.672  13.961  1.00  0.00     0.146 A 
ATOM     62  N   UNL     1      27.354  38.921  11.878  1.00  0.00    -0.131 NA
ATOM     63  N   UNL     1      28.289  37.544  13.299  1.00  0.00    -0.200 N 
ATOM     64  N   UNL     1      27.942  37.739  12.042  1.00  0.00    -0.060 NA
BRANCH  63  65
ATOM     65  C   UNL     1      28.933  36.416  13.890  1.00  0.00     0.186 A 
ATOM     66  N   UNL     1      30.252  36.323  14.129  1.00  0.00    -0.216 NA
ATOM     67  C   UNL     1      28.412  35.221  14.321  1.00  0.00     0.158 A 
ATOM     68  C   UNL     1      30.533  35.127  14.681  1.00  0.00     0.207 A 
ATOM     69  N   UNL     1      29.391  34.418  14.809  1.00  0.00    -0.291 N 
ATOM     70  C   UNL     1      27.115  34.777  14.312  1.00  0.00     0.279 A 
ATOM     71  C   UNL     1      29.120  33.191  15.288  1.00  0.00     0.071 A 
ATOM     72  N   UNL     1      26.810  33.543  14.789  1.00  0.00    -0.302 N 
ATOM     73  O   UNL     1      26.179  35.508  13.862  1.00  0.00    -0.267 OA
ATOM     74  C   UNL     1      30.106  32.378  15.776  1.00  0.00     0.029 A 
ATOM     75  C   UNL     1      27.809  32.768  15.268  1.00  0.00     0.068 A 
ATOM     76  C   UNL     1      29.823  31.095  16.270  1.00  0.00     0.002 A 
ATOM     77  C   UNL     1      27.535  31.505  15.756  1.00  0.00     0.028 A 
ATOM     78  C   UNL     1      28.519  30.660  16.256  1.00  0.00     0.002 A 
BRANCH  72  79
ATOM     79  C   UNL     1      25.425  33.072  14.789  1.00  0.00     0.085 C 
ATOM     80  C   UNL     1      24.553  33.778  15.775  1.00  0.00     0.031 C 
ATOM     81  C   UNL     1      24.852  32.984  13.397  1.00  0.00     0.031 C 
ENDBRANCH  72  79
ENDBRANCH  63  65
ENDBRANCH  59  60
ENDBRANCH  58  59
ENDBRANCH  55  58
ENDBRANCH  53  54
ENDBRANCH  50  53
ENDBRANCH  47  50
ENDBRANCH   5  47
BRANCH   4  82
ATOM     82  N   UNL     1      20.615  37.636   9.421  1.00  0.00    -0.348 N 
ATOM     83  C   UNL     1      19.362  37.592   8.769  1.00  0.00     0.217 C 
ATOM     84  H   UNL     1      20.633  38.038  10.390  1.00  0.00     0.163 HD
ATOM     85  C   UNL     1      18.103  38.086   9.400  1.00  0.00     0.114 C 
ATOM     86  O   UNL     1      19.325  37.111   7.598  1.00  0.00    -0.275 OA
ENDBRANCH   4  82
TORSDOF 31
BEGIN_RES LYS A 131
REMARK  4 active torsions:
REMARK  status: ('A' for Active; 'I' for Inactive)
REMARK    1  A    between atoms: CA   and  CB  
REMARK    2  A    between atoms: CB   and  CG  
REMARK    3  A    between atoms: CG   and  CD  
REMARK    4  A    between atoms: CD   and  CE  
ROOT
ATOM      1  CA  LYS A 131      29.867  25.555  16.977  1.00 20.52     0.186 C 
ENDROOT
BRANCH   1   2
ATOM      2  CB  LYS A 131      28.345  25.722  17.026  1.00 20.94     0.034 C 
BRANCH   2   3
ATOM      3  CG  LYS A 131      27.602  24.400  16.916  1.00 22.96     0.005 C 
BRANCH   3   4
ATOM      4  CD  LYS A 131      26.152  24.532  17.293  1.00 24.33     0.041 C 
BRANCH   4   5
ATOM      5  CE  LYS A 131      25.787  23.446  18.301  1.00 26.91     0.338 C 
ATOM      6  NZ  LYS A 131      25.091  22.325  17.626  1.00 27.40     0.618 N 
ENDBRANCH   4   5
ENDBRANCH   3   4
ENDBRANCH   2   3
ENDBRANCH   1   2
END_RES LYS A 131
BEGIN_RES LYS A 135
REMARK  4 active torsions:
REMARK  status: ('A' for Active; 'I' for Inactive)
REMARK    5  A    between atoms: CA   and  CB  
REMARK    6  A    between atoms: CB   and  CG  
REMARK    7  A    between atoms: CG   and  CD  
REMARK    8  A    between atoms: CD   and  CE  
ROOT
ATOM      7  CA  LYS A 135      33.193  34.663   9.290  1.00 25.02     0.186 C 
ENDROOT
BRANCH   7   8
ATOM      8  CB  LYS A 135      32.060  35.360  10.034  1.00 26.63     0.034 C 
BRANCH   8   9
ATOM      9  CG  LYS A 135      32.509  36.559  10.829  1.00 29.45     0.005 C 
BRANCH   9  10
ATOM     10  CD  LYS A 135      31.314  37.397  11.257  1.00 32.00     0.041 C 
BRANCH  10  11
ATOM     11  CE  LYS A 135      31.665  38.873  11.241  1.00 34.25     0.338 C 
ATOM     12  NZ  LYS A 135      31.103  39.571  12.430  1.00 35.99     0.618 N 
ENDBRANCH  10  11
ENDBRANCH   9  10
ENDBRANCH   8   9
ENDBRANCH   7   8
END_RES LYS A 135
