REMARK VINA RESULT:    -5.257      3.811     10.722
REMARK INTER + INTRA:         -23.196
REMARK INTER:                 -11.660
REMARK INTRA:                 -11.536
REMARK UNBOUND:                -9.487
REMARK SMILES CC(=O)N[C@@H]1[C@@H](O)C[C@](OC[C@H]2O[C@@H](O[C@H]3[C@H](O)[C@@H](O)[C@H](OCCN=[N+]=[N-])O[C@@H]3CO)[C@H](O)[C@@H](O)[C@H]2O)(C(=O)O)O[C@H]1C(O)[C@H](O)CNC(=O)OCc1cn(Cc2ccc(C(=O)O)cc2)nn1
REMARK SMILES IDX 43 1 42 2 9 3 8 4 41 5 6 6 5 7 10 8 11 9 12 10 14 11 13 12
REMARK SMILES IDX 32 13 34 14 36 15 15 16 16 17 29 18 28 19 21 20 17 21 19 22
REMARK SMILES IDX 30 23 31 24 22 26 23 27 24 28 25 29 26 30 27 31 18 32 20 34
REMARK SMILES IDX 33 36 35 38 37 40 38 42 39 43 40 44 7 46 4 48 2 49 1 51 3 52
REMARK SMILES IDX 44 53 45 55 46 56 47 58 48 59 49 60 50 62 51 63 52 64 53 65
REMARK SMILES IDX 54 66 67 67 55 68 66 69 56 70 57 71 58 72 65 73 59 74 64 75
REMARK SMILES IDX 60 76 61 77 62 78 63 79
REMARK H PARENT 31 25 18 33 20 35 33 37 35 39 37 41 40 45 7 47 4 50 44 54
REMARK H PARENT 46 57 48 61 63 80
REMARK Flexibility Score: inf
ROOT
ATOM      1  C   UNL     1      29.164  31.988  17.277  1.00  0.00     0.176 C 
ENDROOT
BRANCH   1   2
ATOM      2  C   UNL     1      28.973  30.684  18.082  1.00  0.00     0.178 C 
ATOM      3  C   UNL     1      27.010  29.569  18.795  1.00  0.00     0.272 C 
ATOM      4  C   UNL     1      27.498  29.682  20.184  1.00  0.00     0.113 C 
ATOM      5  O   UNL     1      27.698  30.322  17.878  1.00  0.00    -0.332 OA
ATOM      6  C   UNL     1      28.294  30.945  20.440  1.00  0.00     0.145 C 
ATOM      7  C   UNL     1      29.429  30.945  19.459  1.00  0.00     0.142 C 
BRANCH   3   8
ATOM      8  O   UNL     1      25.703  29.964  18.686  1.00  0.00    -0.338 OA
BRANCH   8   9
ATOM      9  C   UNL     1      25.396  31.137  18.092  1.00  0.00     0.199 C 
BRANCH   9  10
ATOM     10  C   UNL     1      24.284  30.923  17.038  1.00  0.00     0.179 C 
ATOM     11  C   UNL     1      23.182  32.050  15.322  1.00  0.00     0.282 C 
ATOM     12  O   UNL     1      24.021  32.117  16.433  1.00  0.00    -0.341 OA
ATOM     13  C   UNL     1      22.537  30.725  15.123  1.00  0.00     0.202 C 
ATOM     14  C   UNL     1      23.625  29.675  15.040  1.00  0.00     0.179 C 
ATOM     15  C   UNL     1      24.701  29.850  16.065  1.00  0.00     0.177 C 
BRANCH  11  16
ATOM     16  O   UNL     1      23.926  32.418  14.202  1.00  0.00    -0.341 OA
BRANCH  16  17
ATOM     17  C   UNL     1      24.418  33.686  14.307  1.00  0.00     0.184 C 
ATOM     18  C   UNL     1      23.983  34.569  13.196  1.00  0.00     0.178 C 
ATOM     19  O   UNL     1      24.277  35.912  13.476  1.00  0.00    -0.341 OA
ATOM     20  C   UNL     1      25.548  36.037  14.042  1.00  0.00     0.281 C 
ATOM     21  C   UNL     1      25.953  33.559  14.284  1.00  0.00     0.180 C 
ATOM     22  C   UNL     1      26.461  34.883  13.753  1.00  0.00     0.202 C 
BRANCH  18  23
ATOM     23  C   UNL     1      22.500  34.461  12.977  1.00  0.00     0.191 C 
BRANCH  23  24
ATOM     24  O   UNL     1      22.343  33.720  11.783  1.00  0.00    -0.394 OA
ATOM     25  H   UNL     1      22.088  32.800  11.987  1.00  0.00     0.210 HD
ENDBRANCH  23  24
ENDBRANCH  18  23
BRANCH  20  26
ATOM     26  O   UNL     1      25.417  36.277  15.390  1.00  0.00    -0.350 OA
BRANCH  26  27
ATOM     27  C   UNL     1      26.502  36.878  15.986  1.00  0.00     0.169 C 
BRANCH  27  28
ATOM     28  C   UNL     1      26.549  36.793  17.475  1.00  0.00     0.119 C 
BRANCH  28  29
ATOM     29  N   UNL     1      26.659  35.363  17.809  1.00  0.00    -0.092 NA
ATOM     30  N   UNL     1      27.388  34.949  18.704  1.00  0.00     0.001 N 
ATOM     31  N   UNL     1      28.267  34.773  19.540  1.00  0.00    -0.003 NA
ENDBRANCH  28  29
ENDBRANCH  27  28
ENDBRANCH  26  27
ENDBRANCH  20  26
BRANCH  21  32
ATOM     32  O   UNL     1      26.432  33.296  15.549  1.00  0.00    -0.387 OA
ATOM     33  H   UNL     1      26.811  34.128  15.982  1.00  0.00     0.211 HD
ENDBRANCH  21  32
BRANCH  22  34
ATOM     34  O   UNL     1      26.744  34.767  12.412  1.00  0.00    -0.385 OA
ATOM     35  H   UNL     1      26.200  35.355  11.858  1.00  0.00     0.211 HD
ENDBRANCH  22  34
ENDBRANCH  16  17
ENDBRANCH  11  16
BRANCH  13  36
ATOM     36  O   UNL     1      21.646  30.415  16.162  1.00  0.00    -0.385 OA
ATOM     37  H   UNL     1      20.888  29.929  15.735  1.00  0.00     0.211 HD
ENDBRANCH  13  36
BRANCH  14  38
ATOM     38  O   UNL     1      24.198  29.638  13.769  1.00  0.00    -0.387 OA
ATOM     39  H   UNL     1      24.837  30.401  13.698  1.00  0.00     0.211 HD
ENDBRANCH  14  38
BRANCH  15  40
ATOM     40  O   UNL     1      25.944  30.137  15.484  1.00  0.00    -0.387 OA
ATOM     41  H   UNL     1      26.043  29.534  14.702  1.00  0.00     0.211 HD
ENDBRANCH  15  40
ENDBRANCH   9  10
ENDBRANCH   8   9
ENDBRANCH   3   8
BRANCH   3  42
ATOM     42  C   UNL     1      27.176  28.137  18.350  1.00  0.00     0.364 C 
ATOM     43  O   UNL     1      26.499  27.679  17.396  1.00  0.00    -0.246 OA
BRANCH  42  44
ATOM     44  O   UNL     1      28.073  27.282  18.969  1.00  0.00    -0.477 OA
ATOM     45  H   UNL     1      27.699  26.665  19.707  1.00  0.00     0.296 HD
ENDBRANCH  42  44
ENDBRANCH   3  42
BRANCH   6  46
ATOM     46  O   UNL     1      27.433  32.013  20.312  1.00  0.00    -0.391 OA
ATOM     47  H   UNL     1      27.526  32.413  19.408  1.00  0.00     0.211 HD
ENDBRANCH   6  46
BRANCH   7  48
ATOM     48  N   UNL     1      30.380  29.916  19.860  1.00  0.00    -0.348 N 
ATOM     49  C   UNL     1      31.526  30.233  20.669  1.00  0.00     0.217 C 
ATOM     50  H   UNL     1      30.302  28.911  19.596  1.00  0.00     0.163 HD
ATOM     51  C   UNL     1      32.479  29.147  21.060  1.00  0.00     0.114 C 
ATOM     52  O   UNL     1      31.695  31.410  21.026  1.00  0.00    -0.275 OA
ENDBRANCH   7  48
ENDBRANCH   1   2
BRANCH   1  53
ATOM     53  O   UNL     1      29.914  32.923  17.912  1.00  0.00    -0.388 OA
ATOM     54  H   UNL     1      30.210  33.691  17.376  1.00  0.00     0.211 HD
ENDBRANCH   1  53
BRANCH   1  55
ATOM     55  C   UNL     1      29.621  31.697  15.868  1.00  0.00     0.165 C 
BRANCH  55  56
ATOM     56  O   UNL     1      29.067  30.531  15.444  1.00  0.00    -0.388 OA
ATOM     57  H   UNL     1      28.094  30.465  15.502  1.00  0.00     0.211 HD
ENDBRANCH  55  56
BRANCH  55  58
ATOM     58  C   UNL     1      31.088  31.865  15.762  1.00  0.00     0.154 C 
BRANCH  58  59
ATOM     59  N   UNL     1      31.463  32.733  14.680  1.00  0.00    -0.319 N 
ATOM     60  C   UNL     1      31.457  34.143  14.753  1.00  0.00     0.407 C 
ATOM     61  H   UNL     1      31.768  32.315  13.758  1.00  0.00     0.167 HD
ATOM     62  O   UNL     1      31.121  34.750  15.781  1.00  0.00    -0.225 OA
BRANCH  60  63
ATOM     63  O   UNL     1      31.834  34.963  13.670  1.00  0.00    -0.443 OA
BRANCH  63  64
ATOM     64  C   UNL     1      32.094  36.338  13.886  1.00  0.00     0.294 C 
BRANCH  64  65
ATOM     65  C   UNL     1      31.642  37.186  12.769  1.00  0.00     0.120 A 
ATOM     66  C   UNL     1      30.542  37.992  12.672  1.00  0.00     0.138 A 
ATOM     67  N   UNL     1      32.287  37.279  11.590  1.00  0.00    -0.132 NA
ATOM     68  N   UNL     1      30.548  38.549  11.441  1.00  0.00    -0.248 N 
ATOM     69  N   UNL     1      31.615  38.101  10.806  1.00  0.00    -0.067 NA
BRANCH  68  70
ATOM     70  C   UNL     1      29.549  39.460  10.944  1.00  0.00     0.181 C 
BRANCH  70  71
ATOM     71  C   UNL     1      28.259  38.768  10.755  1.00  0.00    -0.026 A 
ATOM     72  C   UNL     1      27.192  39.066  11.574  1.00  0.00     0.006 A 
ATOM     73  C   UNL     1      28.119  37.800   9.763  1.00  0.00     0.006 A 
ATOM     74  C   UNL     1      26.018  38.367  11.354  1.00  0.00     0.016 A 
ATOM     75  C   UNL     1      26.949  37.108   9.551  1.00  0.00     0.016 A 
ATOM     76  C   UNL     1      25.885  37.408  10.370  1.00  0.00     0.059 A 
BRANCH  76  77
ATOM     77  C   UNL     1      24.624  36.705  10.195  1.00  0.00     0.335 C 
ATOM     78  O   UNL     1      24.565  35.698   9.476  1.00  0.00    -0.246 OA
BRANCH  77  79
ATOM     79  O   UNL     1      23.492  37.163  10.831  1.00  0.00    -0.478 OA
ATOM     80  H   UNL     1      23.030  38.029  10.561  1.00  0.00     0.297 HD
ENDBRANCH  77  79
ENDBRANCH  76  77
ENDBRANCH  70  71
ENDBRANCH  68  70
ENDBRANCH  64  65
ENDBRANCH  63  64
ENDBRANCH  60  63
ENDBRANCH  58  59
ENDBRANCH  55  58
ENDBRANCH   1  55
TORSDOF 33
BEGIN_RES LYS A 131
REMARK  4 active torsions:
REMARK  status: ('A' for Active; 'I' for Inactive)
REMARK    1  A    between atoms: CA   and  CB  
REMARK    2  A    between atoms: CB   and  CG  
REMARK    3  A    between atoms: CG   and  CD  
REMARK    4  A    between atoms: CD   and  CE  
ROOT
ATOM      1  CA  LYS A 131      29.867  25.555  16.977  1.00 20.52     0.186 C 
ENDROOT
BRANCH   1   2
ATOM      2  CB  LYS A 131      28.345  25.722  17.026  1.00 20.94     0.034 C 
BRANCH   2   3
ATOM      3  CG  LYS A 131      27.602  24.398  16.935  1.00 22.96     0.005 C 
BRANCH   3   4
ATOM      4  CD  LYS A 131      26.647  24.205  18.080  1.00 24.33     0.041 C 
BRANCH   4   5
ATOM      5  CE  LYS A 131      25.228  24.060  17.540  1.00 26.91     0.338 C 
ATOM      6  NZ  LYS A 131      24.860  22.629  17.424  1.00 27.40     0.618 N 
ENDBRANCH   4   5
ENDBRANCH   3   4
ENDBRANCH   2   3
ENDBRANCH   1   2
END_RES LYS A 131
BEGIN_RES LYS A 135
REMARK  4 active torsions:
REMARK  status: ('A' for Active; 'I' for Inactive)
REMARK    5  A    between atoms: CA   and  CB  
REMARK    6  A    between atoms: CB   and  CG  
REMARK    7  A    between atoms: CG   and  CD  
REMARK    8  A    between atoms: CD   and  CE  
ROOT
ATOM      7  CA  LYS A 135      33.193  34.663   9.290  1.00 25.02     0.186 C 
ENDROOT
BRANCH   7   8
ATOM      8  CB  LYS A 135      32.060  35.360  10.034  1.00 26.63     0.034 C 
BRANCH   8   9
ATOM      9  CG  LYS A 135      30.721  34.693   9.854  1.00 29.45     0.005 C 
BRANCH   9  10
ATOM     10  CD  LYS A 135      30.320  34.680   8.387  1.00 32.00     0.041 C 
BRANCH  10  11
ATOM     11  CE  LYS A 135      28.829  34.443   8.244  1.00 34.25     0.338 C 
ATOM     12  NZ  LYS A 135      28.271  33.789   9.460  1.00 35.99     0.618 N 
ENDBRANCH  10  11
ENDBRANCH   9  10
ENDBRANCH   8   9
ENDBRANCH   7   8
END_RES LYS A 135
