REMARK VINA RESULT:    -5.381      7.500     12.928
REMARK INTER + INTRA:         -21.471
REMARK INTER:                  -9.603
REMARK INTRA:                 -11.868
REMARK UNBOUND:                -8.226
REMARK SMILES CC(=O)N[C@@H]1[C@@H](O)C[C@](OC[C@H]2O[C@@H](O[C@H]3[C@H](O)[C@@H](O)[C@H](OCCN=[N+]=[N-])O[C@@H]3CO)[C@H](O)[C@@H](O)[C@H]2O)(C(=O)O)O[C@H]1C(O)[C@H](O)CNC(=O)OCc1cn(-c2ccccc2Br)nn1
REMARK SMILES IDX 9 1 8 2 6 3 5 4 42 5 41 6 10 7 11 8 12 9 14 10 13 11 32 12
REMARK SMILES IDX 34 13 36 14 15 15 16 16 29 17 28 18 21 19 17 20 19 21 30 22
REMARK SMILES IDX 31 23 22 25 23 26 24 27 25 28 26 29 27 30 18 31 20 33 33 35
REMARK SMILES IDX 35 37 37 39 38 41 39 42 40 43 7 45 43 47 44 48 45 50 46 51
REMARK SMILES IDX 47 53 48 54 49 55 50 57 51 58 52 59 53 60 54 61 64 62 55 63
REMARK SMILES IDX 63 64 56 65 57 66 61 67 58 68 60 69 62 70 59 71 4 72 2 73
REMARK SMILES IDX 1 75 3 76
REMARK H PARENT 31 24 18 32 20 34 33 36 35 38 37 40 40 44 7 46 44 49 46 52
REMARK H PARENT 48 56 4 74
REMARK Flexibility Score: inf
ROOT
ATOM      1  C   UNL     1      31.378  28.660  21.751  1.00  0.00     0.272 C 
ATOM      2  C   UNL     1      30.996  28.077  23.060  1.00  0.00     0.113 C 
ATOM      3  C   UNL     1      32.103  27.274  23.660  1.00  0.00     0.145 C 
ATOM      4  C   UNL     1      33.456  27.888  23.597  1.00  0.00     0.142 C 
ATOM      5  C   UNL     1      33.506  29.052  22.670  1.00  0.00     0.178 C 
ATOM      6  O   UNL     1      32.696  29.025  21.585  1.00  0.00    -0.332 OA
ENDROOT
BRANCH   1   7
ATOM      7  O   UNL     1      30.665  29.782  21.368  1.00  0.00    -0.338 OA
BRANCH   7   8
ATOM      8  C   UNL     1      29.710  30.238  22.213  1.00  0.00     0.199 C 
BRANCH   8   9
ATOM      9  C   UNL     1      28.594  30.860  21.338  1.00  0.00     0.179 C 
ATOM     10  C   UNL     1      28.439  32.084  19.384  1.00  0.00     0.282 C 
ATOM     11  O   UNL     1      29.042  31.886  20.598  1.00  0.00    -0.341 OA
ATOM     12  C   UNL     1      26.947  31.843  19.421  1.00  0.00     0.202 C 
ATOM     13  C   UNL     1      26.638  30.454  19.939  1.00  0.00     0.179 C 
ATOM     14  C   UNL     1      27.860  29.827  20.581  1.00  0.00     0.177 C 
BRANCH  10  15
ATOM     15  O   UNL     1      29.061  31.398  18.351  1.00  0.00    -0.341 OA
BRANCH  15  16
ATOM     16  C   UNL     1      29.272  32.143  17.215  1.00  0.00     0.184 C 
ATOM     17  C   UNL     1      28.782  31.492  15.945  1.00  0.00     0.178 C 
ATOM     18  O   UNL     1      28.682  32.501  14.999  1.00  0.00    -0.341 OA
ATOM     19  C   UNL     1      29.832  33.178  14.747  1.00  0.00     0.281 C 
ATOM     20  C   UNL     1      30.760  32.370  16.974  1.00  0.00     0.180 C 
ATOM     21  C   UNL     1      30.975  32.985  15.654  1.00  0.00     0.202 C 
BRANCH  17  22
ATOM     22  C   UNL     1      27.468  30.795  16.068  1.00  0.00     0.191 C 
BRANCH  22  23
ATOM     23  O   UNL     1      27.667  29.550  16.661  1.00  0.00    -0.394 OA
ATOM     24  H   UNL     1      28.539  29.527  17.094  1.00  0.00     0.210 HD
ENDBRANCH  22  23
ENDBRANCH  17  22
BRANCH  19  25
ATOM     25  O   UNL     1      29.492  34.551  14.747  1.00  0.00    -0.350 OA
BRANCH  25  26
ATOM     26  C   UNL     1      30.379  35.333  14.062  1.00  0.00     0.169 C 
BRANCH  26  27
ATOM     27  C   UNL     1      30.862  36.549  14.789  1.00  0.00     0.119 C 
BRANCH  27  28
ATOM     28  N   UNL     1      32.252  36.312  15.145  1.00  0.00    -0.092 NA
ATOM     29  N   UNL     1      32.548  36.013  16.293  1.00  0.00     0.001 N 
ATOM     30  N   UNL     1      32.860  35.645  17.419  1.00  0.00    -0.003 NA
ENDBRANCH  27  28
ENDBRANCH  26  27
ENDBRANCH  25  26
ENDBRANCH  19  25
BRANCH  20  31
ATOM     31  O   UNL     1      31.321  33.159  17.965  1.00  0.00    -0.387 OA
ATOM     32  H   UNL     1      31.790  33.952  17.615  1.00  0.00     0.211 HD
ENDBRANCH  20  31
BRANCH  21  33
ATOM     33  O   UNL     1      31.997  32.211  15.026  1.00  0.00    -0.385 OA
ATOM     34  H   UNL     1      32.081  31.327  15.454  1.00  0.00     0.211 HD
ENDBRANCH  21  33
ENDBRANCH  15  16
ENDBRANCH  10  15
BRANCH  12  35
ATOM     35  O   UNL     1      26.285  32.836  20.144  1.00  0.00    -0.385 OA
ATOM     36  H   UNL     1      26.509  33.739  19.810  1.00  0.00     0.211 HD
ENDBRANCH  12  35
BRANCH  13  37
ATOM     37  O   UNL     1      26.076  29.669  18.951  1.00  0.00    -0.387 OA
ATOM     38  H   UNL     1      25.994  28.740  19.247  1.00  0.00     0.211 HD
ENDBRANCH  13  37
BRANCH  14  39
ATOM     39  O   UNL     1      28.599  29.218  19.580  1.00  0.00    -0.387 OA
ATOM     40  H   UNL     1      28.588  29.723  18.731  1.00  0.00     0.211 HD
ENDBRANCH  14  39
ENDBRANCH   8   9
ENDBRANCH   7   8
ENDBRANCH   1   7
BRANCH   1  41
ATOM     41  C   UNL     1      31.183  27.551  20.734  1.00  0.00     0.364 C 
ATOM     42  O   UNL     1      30.092  26.941  20.775  1.00  0.00    -0.246 OA
BRANCH  41  43
ATOM     43  O   UNL     1      32.118  27.201  19.807  1.00  0.00    -0.477 OA
ATOM     44  H   UNL     1      33.007  26.768  20.102  1.00  0.00     0.296 HD
ENDBRANCH  41  43
ENDBRANCH   1  41
BRANCH   3  45
ATOM     45  O   UNL     1      31.749  26.967  24.993  1.00  0.00    -0.391 OA
ATOM     46  H   UNL     1      32.591  26.954  25.526  1.00  0.00     0.211 HD
ENDBRANCH   3  45
BRANCH   5  47
ATOM     47  C   UNL     1      33.513  30.376  23.434  1.00  0.00     0.176 C 
BRANCH  47  48
ATOM     48  O   UNL     1      32.981  31.421  22.721  1.00  0.00    -0.388 OA
ATOM     49  H   UNL     1      33.447  32.284  22.928  1.00  0.00     0.211 HD
ENDBRANCH  47  48
BRANCH  47  50
ATOM     50  C   UNL     1      34.942  30.769  23.847  1.00  0.00     0.165 C 
BRANCH  50  51
ATOM     51  O   UNL     1      34.878  31.999  24.448  1.00  0.00    -0.388 OA
ATOM     52  H   UNL     1      35.631  32.599  24.310  1.00  0.00     0.211 HD
ENDBRANCH  50  51
BRANCH  50  53
ATOM     53  C   UNL     1      35.840  30.787  22.653  1.00  0.00     0.154 C 
BRANCH  53  54
ATOM     54  N   UNL     1      35.557  31.872  21.777  1.00  0.00    -0.319 N 
ATOM     55  C   UNL     1      36.259  33.089  21.654  1.00  0.00     0.407 C 
ATOM     56  H   UNL     1      34.715  31.774  21.124  1.00  0.00     0.167 HD
ATOM     57  O   UNL     1      37.257  33.316  22.343  1.00  0.00    -0.225 OA
BRANCH  55  58
ATOM     58  O   UNL     1      35.837  34.063  20.749  1.00  0.00    -0.443 OA
BRANCH  58  59
ATOM     59  C   UNL     1      34.949  35.111  21.057  1.00  0.00     0.294 C 
BRANCH  59  60
ATOM     60  C   UNL     1      33.526  34.648  20.984  1.00  0.00     0.121 A 
ATOM     61  C   UNL     1      32.422  35.434  21.313  1.00  0.00     0.144 A 
ATOM     62  N   UNL     1      33.041  33.469  20.628  1.00  0.00    -0.131 NA
ATOM     63  N   UNL     1      31.328  34.679  21.135  1.00  0.00    -0.219 N 
ATOM     64  N   UNL     1      31.707  33.495  20.721  1.00  0.00    -0.062 NA
BRANCH  63  65
ATOM     65  C   UNL     1      29.986  35.074  21.355  1.00  0.00     0.081 A 
ATOM     66  C   UNL     1      29.286  35.806  20.421  1.00  0.00     0.029 A 
ATOM     67  C   UNL     1      29.349  34.730  22.516  1.00  0.00     0.043 A 
ATOM     68  C   UNL     1      27.967  36.176  20.672  1.00  0.00     0.002 A 
ATOM     69  C   UNL     1      28.047  35.092  22.770  1.00  0.00     0.018 A 
ATOM     70  Br  UNL     1      30.283  33.722  23.836  1.00  0.00    -0.048 Br
ATOM     71  C   UNL     1      27.338  35.822  21.846  1.00  0.00     0.001 A 
ENDBRANCH  63  65
ENDBRANCH  59  60
ENDBRANCH  58  59
ENDBRANCH  55  58
ENDBRANCH  53  54
ENDBRANCH  50  53
ENDBRANCH  47  50
ENDBRANCH   5  47
BRANCH   4  72
ATOM     72  N   UNL     1      34.497  26.941  23.268  1.00  0.00    -0.348 N 
ATOM     73  C   UNL     1      35.131  26.166  24.270  1.00  0.00     0.217 C 
ATOM     74  H   UNL     1      34.797  26.815  22.282  1.00  0.00     0.163 HD
ATOM     75  C   UNL     1      36.197  25.212  23.841  1.00  0.00     0.114 C 
ATOM     76  O   UNL     1      34.826  26.260  25.474  1.00  0.00    -0.275 OA
ENDBRANCH   4  72
TORSDOF 30
BEGIN_RES LYS A 131
REMARK  4 active torsions:
REMARK  status: ('A' for Active; 'I' for Inactive)
REMARK    1  A    between atoms: CA   and  CB  
REMARK    2  A    between atoms: CB   and  CG  
REMARK    3  A    between atoms: CG   and  CD  
REMARK    4  A    between atoms: CD   and  CE  
ROOT
ATOM      1  CA  LYS A 131      29.867  25.555  16.977  1.00 20.52     0.186 C 
ENDROOT
BRANCH   1   2
ATOM      2  CB  LYS A 131      28.345  25.722  17.026  1.00 20.94     0.034 C 
BRANCH   2   3
ATOM      3  CG  LYS A 131      27.601  24.404  16.872  1.00 22.96     0.005 C 
BRANCH   3   4
ATOM      4  CD  LYS A 131      26.678  24.137  18.029  1.00 24.33     0.041 C 
BRANCH   4   5
ATOM      5  CE  LYS A 131      25.354  23.588  17.507  1.00 26.91     0.338 C 
ATOM      6  NZ  LYS A 131      24.525  24.680  16.945  1.00 27.40     0.618 N 
ENDBRANCH   4   5
ENDBRANCH   3   4
ENDBRANCH   2   3
ENDBRANCH   1   2
END_RES LYS A 131
BEGIN_RES LYS A 135
REMARK  4 active torsions:
REMARK  status: ('A' for Active; 'I' for Inactive)
REMARK    5  A    between atoms: CA   and  CB  
REMARK    6  A    between atoms: CB   and  CG  
REMARK    7  A    between atoms: CG   and  CD  
REMARK    8  A    between atoms: CD   and  CE  
ROOT
ATOM      7  CA  LYS A 135      33.193  34.663   9.290  1.00 25.02     0.186 C 
ENDROOT
BRANCH   7   8
ATOM      8  CB  LYS A 135      32.060  35.360  10.034  1.00 26.63     0.034 C 
BRANCH   8   9
ATOM      9  CG  LYS A 135      30.781  35.444   9.242  1.00 29.45     0.005 C 
BRANCH   9  10
ATOM     10  CD  LYS A 135      30.221  34.055   8.978  1.00 32.00     0.041 C 
BRANCH  10  11
ATOM     11  CE  LYS A 135      28.722  34.032   9.207  1.00 34.25     0.338 C 
ATOM     12  NZ  LYS A 135      28.001  34.743   8.115  1.00 35.99     0.618 N 
ENDBRANCH  10  11
ENDBRANCH   9  10
ENDBRANCH   8   9
ENDBRANCH   7   8
END_RES LYS A 135
