REMARK VINA RESULT:    -5.553      2.908      7.822
REMARK INTER + INTRA:         -21.896
REMARK INTER:                 -13.106
REMARK INTRA:                  -8.790
REMARK UNBOUND:                -8.226
REMARK SMILES CC(=O)N[C@@H]1[C@@H](O)C[C@](OC[C@H]2O[C@@H](O[C@H]3[C@H](O)[C@@H](O)[C@H](OCCN=[N+]=[N-])O[C@@H]3CO)[C@H](O)[C@@H](O)[C@H]2O)(C(=O)O)O[C@H]1C(O)[C@H](O)CNC(=O)OCc1cn(-c2ccccc2Br)nn1
REMARK SMILES IDX 9 1 8 2 6 3 5 4 42 5 41 6 10 7 11 8 12 9 14 10 13 11 32 12
REMARK SMILES IDX 34 13 36 14 15 15 16 16 29 17 28 18 21 19 17 20 19 21 30 22
REMARK SMILES IDX 31 23 22 25 23 26 24 27 25 28 26 29 27 30 18 31 20 33 33 35
REMARK SMILES IDX 35 37 37 39 38 41 39 42 40 43 7 45 43 47 44 48 45 50 46 51
REMARK SMILES IDX 47 53 48 54 49 55 50 57 51 58 52 59 53 60 54 61 64 62 55 63
REMARK SMILES IDX 63 64 56 65 57 66 61 67 58 68 60 69 62 70 59 71 4 72 2 73
REMARK SMILES IDX 1 75 3 76
REMARK H PARENT 31 24 18 32 20 34 33 36 35 38 37 40 40 44 7 46 44 49 46 52
REMARK H PARENT 48 56 4 74
REMARK Flexibility Score: inf
ROOT
ATOM      1  C   UNL     1      28.623  35.331  13.849  1.00  0.00     0.272 C 
ATOM      2  C   UNL     1      29.613  35.026  12.788  1.00  0.00     0.113 C 
ATOM      3  C   UNL     1      31.015  35.060  13.302  1.00  0.00     0.145 C 
ATOM      4  C   UNL     1      31.241  34.386  14.608  1.00  0.00     0.142 C 
ATOM      5  C   UNL     1      29.967  34.071  15.311  1.00  0.00     0.178 C 
ATOM      6  O   UNL     1      28.925  34.916  15.128  1.00  0.00    -0.332 OA
ENDROOT
BRANCH   1   7
ATOM      7  O   UNL     1      27.346  34.848  13.629  1.00  0.00    -0.338 OA
BRANCH   7   8
ATOM      8  C   UNL     1      26.494  34.826  14.680  1.00  0.00     0.199 C 
BRANCH   8   9
ATOM      9  C   UNL     1      25.158  35.440  14.190  1.00  0.00     0.179 C 
ATOM     10  C   UNL     1      24.347  36.461  12.282  1.00  0.00     0.282 C 
ATOM     11  O   UNL     1      25.343  36.344  13.215  1.00  0.00    -0.341 OA
ATOM     12  C   UNL     1      22.963  36.344  12.881  1.00  0.00     0.202 C 
ATOM     13  C   UNL     1      22.814  35.047  13.647  1.00  0.00     0.179 C 
ATOM     14  C   UNL     1      24.162  34.395  13.883  1.00  0.00     0.177 C 
BRANCH  10  15
ATOM     15  O   UNL     1      24.525  35.622  11.191  1.00  0.00    -0.341 OA
BRANCH  15  16
ATOM     16  C   UNL     1      24.985  36.250  10.057  1.00  0.00     0.184 C 
ATOM     17  C   UNL     1      24.156  35.988   8.823  1.00  0.00     0.178 C 
ATOM     18  O   UNL     1      24.483  36.982   7.913  1.00  0.00    -0.341 OA
ATOM     19  C   UNL     1      25.796  37.049   7.572  1.00  0.00     0.281 C 
ATOM     20  C   UNL     1      26.380  35.761   9.686  1.00  0.00     0.180 C 
ATOM     21  C   UNL     1      26.769  36.283   8.366  1.00  0.00     0.202 C 
BRANCH  17  22
ATOM     22  C   UNL     1      22.681  35.989   9.051  1.00  0.00     0.191 C 
BRANCH  22  23
ATOM     23  O   UNL     1      22.336  34.865   9.799  1.00  0.00    -0.394 OA
ATOM     24  H   UNL     1      22.731  34.070   9.401  1.00  0.00     0.210 HD
ENDBRANCH  22  23
ENDBRANCH  17  22
BRANCH  19  25
ATOM     25  O   UNL     1      26.151  38.417   7.633  1.00  0.00    -0.350 OA
BRANCH  25  26
ATOM     26  C   UNL     1      27.358  38.694   7.055  1.00  0.00     0.169 C 
BRANCH  26  27
ATOM     27  C   UNL     1      27.709  40.146   6.958  1.00  0.00     0.119 C 
BRANCH  27  28
ATOM     28  N   UNL     1      26.771  40.754   6.027  1.00  0.00    -0.092 NA
ATOM     29  N   UNL     1      26.898  40.573   4.825  1.00  0.00     0.001 N 
ATOM     30  N   UNL     1      26.962  40.349   3.623  1.00  0.00    -0.003 NA
ENDBRANCH  27  28
ENDBRANCH  26  27
ENDBRANCH  25  26
ENDBRANCH  19  25
BRANCH  20  31
ATOM     31  O   UNL     1      27.317  36.127  10.639  1.00  0.00    -0.387 OA
ATOM     32  H   UNL     1      28.135  36.517  10.253  1.00  0.00     0.211 HD
ENDBRANCH  20  31
BRANCH  21  33
ATOM     33  O   UNL     1      27.253  35.159   7.630  1.00  0.00    -0.385 OA
ATOM     34  H   UNL     1      26.509  34.573   7.357  1.00  0.00     0.211 HD
ENDBRANCH  21  33
ENDBRANCH  15  16
ENDBRANCH  10  15
BRANCH  12  35
ATOM     35  O   UNL     1      22.647  37.458  13.660  1.00  0.00    -0.385 OA
ATOM     36  H   UNL     1      22.382  37.197  14.576  1.00  0.00     0.211 HD
ENDBRANCH  12  35
BRANCH  13  37
ATOM     37  O   UNL     1      21.902  34.210  13.033  1.00  0.00    -0.387 OA
ATOM     38  H   UNL     1      21.027  34.642  12.957  1.00  0.00     0.211 HD
ENDBRANCH  13  37
BRANCH  14  39
ATOM     39  O   UNL     1      24.463  33.628  12.771  1.00  0.00    -0.387 OA
ATOM     40  H   UNL     1      24.322  34.110  11.920  1.00  0.00     0.211 HD
ENDBRANCH  14  39
ENDBRANCH   8   9
ENDBRANCH   7   8
ENDBRANCH   1   7
BRANCH   1  41
ATOM     41  C   UNL     1      28.592  36.844  13.960  1.00  0.00     0.364 C 
ATOM     42  O   UNL     1      28.372  37.477  12.905  1.00  0.00    -0.246 OA
BRANCH  41  43
ATOM     43  O   UNL     1      28.789  37.521  15.126  1.00  0.00    -0.477 OA
ATOM     44  H   UNL     1      28.966  38.538  15.114  1.00  0.00     0.296 HD
ENDBRANCH  41  43
ENDBRANCH   1  41
BRANCH   3  45
ATOM     45  O   UNL     1      31.860  34.524  12.304  1.00  0.00    -0.391 OA
ATOM     46  H   UNL     1      31.865  33.535  12.422  1.00  0.00     0.211 HD
ENDBRANCH   3  45
BRANCH   5  47
ATOM     47  C   UNL     1      29.617  32.587  15.199  1.00  0.00     0.176 C 
BRANCH  47  48
ATOM     48  O   UNL     1      28.288  32.321  15.417  1.00  0.00    -0.388 OA
ATOM     49  H   UNL     1      27.953  32.771  16.247  1.00  0.00     0.211 HD
ENDBRANCH  47  48
BRANCH  47  50
ATOM     50  C   UNL     1      30.433  31.751  16.199  1.00  0.00     0.165 C 
BRANCH  50  51
ATOM     51  O   UNL     1      29.894  30.489  16.223  1.00  0.00    -0.388 OA
ATOM     52  H   UNL     1      30.516  29.744  16.289  1.00  0.00     0.211 HD
ENDBRANCH  50  51
BRANCH  50  53
ATOM     53  C   UNL     1      30.406  32.385  17.551  1.00  0.00     0.154 C 
BRANCH  53  54
ATOM     54  N   UNL     1      29.239  32.040  18.289  1.00  0.00    -0.319 N 
ATOM     55  C   UNL     1      28.117  32.850  18.561  1.00  0.00     0.407 C 
ATOM     56  H   UNL     1      29.186  31.052  18.695  1.00  0.00     0.167 HD
ATOM     57  O   UNL     1      28.053  34.006  18.133  1.00  0.00    -0.225 OA
BRANCH  55  58
ATOM     58  O   UNL     1      27.054  32.359  19.319  1.00  0.00    -0.443 OA
BRANCH  58  59
ATOM     59  C   UNL     1      26.636  31.016  19.336  1.00  0.00     0.294 C 
BRANCH  59  60
ATOM     60  C   UNL     1      26.441  30.497  17.943  1.00  0.00     0.121 A 
ATOM     61  C   UNL     1      25.232  30.535  17.248  1.00  0.00     0.144 A 
ATOM     62  N   UNL     1      27.310  29.917  17.132  1.00  0.00    -0.131 NA
ATOM     63  N   UNL     1      25.444  29.972  16.050  1.00  0.00    -0.219 N 
ATOM     64  N   UNL     1      26.700  29.602  15.984  1.00  0.00    -0.062 NA
BRANCH  63  65
ATOM     65  C   UNL     1      24.488  29.797  15.020  1.00  0.00     0.081 A 
ATOM     66  C   UNL     1      24.546  30.520  13.849  1.00  0.00     0.029 A 
ATOM     67  C   UNL     1      23.474  28.890  15.170  1.00  0.00     0.043 A 
ATOM     68  C   UNL     1      23.588  30.319  12.858  1.00  0.00     0.002 A 
ATOM     69  C   UNL     1      22.525  28.688  14.196  1.00  0.00     0.018 A 
ATOM     70  Br  UNL     1      23.355  27.873  16.777  1.00  0.00    -0.048 Br
ATOM     71  C   UNL     1      22.572  29.402  13.023  1.00  0.00     0.001 A 
ENDBRANCH  63  65
ENDBRANCH  59  60
ENDBRANCH  58  59
ENDBRANCH  55  58
ENDBRANCH  53  54
ENDBRANCH  50  53
ENDBRANCH  47  50
ENDBRANCH   5  47
BRANCH   4  72
ATOM     72  N   UNL     1      32.127  35.121  15.483  1.00  0.00    -0.348 N 
ATOM     73  C   UNL     1      33.517  35.201  15.224  1.00  0.00     0.217 C 
ATOM     74  H   UNL     1      31.750  35.605  16.321  1.00  0.00     0.163 HD
ATOM     75  C   UNL     1      34.359  35.981  16.180  1.00  0.00     0.114 C 
ATOM     76  O   UNL     1      34.042  34.647  14.240  1.00  0.00    -0.275 OA
ENDBRANCH   4  72
TORSDOF 30
BEGIN_RES LYS A 131
REMARK  4 active torsions:
REMARK  status: ('A' for Active; 'I' for Inactive)
REMARK    1  A    between atoms: CA   and  CB  
REMARK    2  A    between atoms: CB   and  CG  
REMARK    3  A    between atoms: CG   and  CD  
REMARK    4  A    between atoms: CD   and  CE  
ROOT
ATOM      1  CA  LYS A 131      29.867  25.555  16.977  1.00 20.52     0.186 C 
ENDROOT
BRANCH   1   2
ATOM      2  CB  LYS A 131      28.345  25.722  17.026  1.00 20.94     0.034 C 
BRANCH   2   3
ATOM      3  CG  LYS A 131      27.602  24.398  16.929  1.00 22.96     0.005 C 
BRANCH   3   4
ATOM      4  CD  LYS A 131      26.117  24.570  17.086  1.00 24.33     0.041 C 
BRANCH   4   5
ATOM      5  CE  LYS A 131      25.520  23.305  17.695  1.00 26.91     0.338 C 
ATOM      6  NZ  LYS A 131      25.762  23.269  19.157  1.00 27.40     0.618 N 
ENDBRANCH   4   5
ENDBRANCH   3   4
ENDBRANCH   2   3
ENDBRANCH   1   2
END_RES LYS A 131
BEGIN_RES LYS A 135
REMARK  4 active torsions:
REMARK  status: ('A' for Active; 'I' for Inactive)
REMARK    5  A    between atoms: CA   and  CB  
REMARK    6  A    between atoms: CB   and  CG  
REMARK    7  A    between atoms: CG   and  CD  
REMARK    8  A    between atoms: CD   and  CE  
ROOT
ATOM      7  CA  LYS A 135      33.193  34.663   9.290  1.00 25.02     0.186 C 
ENDROOT
BRANCH   7   8
ATOM      8  CB  LYS A 135      32.060  35.360  10.034  1.00 26.63     0.034 C 
BRANCH   8   9
ATOM      9  CG  LYS A 135      30.755  35.362   9.280  1.00 29.45     0.005 C 
BRANCH   9  10
ATOM     10  CD  LYS A 135      30.369  36.777   8.880  1.00 32.00     0.041 C 
BRANCH  10  11
ATOM     11  CE  LYS A 135      30.587  37.736  10.035  1.00 34.25     0.338 C 
ATOM     12  NZ  LYS A 135      29.610  38.858   9.993  1.00 35.99     0.618 N 
ENDBRANCH  10  11
ENDBRANCH   9  10
ENDBRANCH   8   9
ENDBRANCH   7   8
END_RES LYS A 135
