REMARK VINA RESULT:    -4.798      2.350      3.734
REMARK INTER + INTRA:         -21.523
REMARK INTER:                 -10.491
REMARK INTRA:                 -11.032
REMARK UNBOUND:                -9.712
REMARK SMILES CC(=O)N[C@@H]1[C@@H](O)C[C@](OC[C@H]2O[C@@H](O[C@H]3[C@H](O)[C@@H](O)[C@H](OCCN=[N+]=[N-])O[C@@H]3CO)[C@H](O)[C@@H](O)[C@H]2O)(C(=O)O)O[C@H]1C(O)[C@H](O)CNC(=O)OCc1cn(C2CCCCC2)nn1
REMARK SMILES IDX 9 1 8 2 6 3 5 4 42 5 41 6 10 7 11 8 12 9 14 10 13 11 32 12
REMARK SMILES IDX 34 13 36 14 15 15 16 16 29 17 28 18 21 19 17 20 19 21 30 22
REMARK SMILES IDX 31 23 22 25 23 26 24 27 25 28 26 29 27 30 18 31 20 33 33 35
REMARK SMILES IDX 35 37 37 39 38 41 39 42 40 43 7 45 43 47 44 48 45 50 46 51
REMARK SMILES IDX 47 53 48 54 49 55 50 57 51 58 52 59 53 60 54 61 63 62 55 63
REMARK SMILES IDX 62 64 56 65 57 66 61 67 58 68 60 69 59 70 4 71 2 72 1 74
REMARK SMILES IDX 3 75
REMARK H PARENT 31 24 18 32 20 34 33 36 35 38 37 40 40 44 7 46 44 49 46 52
REMARK H PARENT 48 56 4 73
REMARK Flexibility Score: inf
ROOT
ATOM      1  C   UNL     1      28.823  32.114  17.999  1.00  0.00     0.272 C 
ATOM      2  C   UNL     1      28.936  30.654  17.421  1.00  0.00     0.113 C 
ATOM      3  C   UNL     1      28.417  30.637  16.016  1.00  0.00     0.145 C 
ATOM      4  C   UNL     1      27.009  31.167  15.953  1.00  0.00     0.142 C 
ATOM      5  C   UNL     1      26.760  32.310  16.872  1.00  0.00     0.178 C 
ATOM      6  O   UNL     1      27.571  32.584  17.873  1.00  0.00    -0.332 OA
ENDROOT
BRANCH   1   7
ATOM      7  O   UNL     1      29.722  32.785  17.293  1.00  0.00    -0.338 OA
BRANCH   7   8
ATOM      8  C   UNL     1      30.788  33.457  17.570  1.00  0.00     0.199 C 
BRANCH   8   9
ATOM      9  C   UNL     1      31.898  33.689  16.558  1.00  0.00     0.179 C 
ATOM     10  C   UNL     1      31.538  34.710  14.478  1.00  0.00     0.282 C 
ATOM     11  O   UNL     1      31.474  33.571  15.274  1.00  0.00    -0.341 OA
ATOM     12  C   UNL     1      32.912  35.263  14.510  1.00  0.00     0.202 C 
ATOM     13  C   UNL     1      33.465  35.447  15.902  1.00  0.00     0.179 C 
ATOM     14  C   UNL     1      32.440  35.073  16.904  1.00  0.00     0.177 C 
BRANCH  10  15
ATOM     15  O   UNL     1      30.496  35.496  14.805  1.00  0.00    -0.341 OA
BRANCH  15  16
ATOM     16  C   UNL     1      30.168  36.561  14.032  1.00  0.00     0.184 C 
ATOM     17  C   UNL     1      29.837  36.047  12.646  1.00  0.00     0.178 C 
ATOM     18  O   UNL     1      29.219  37.002  11.862  1.00  0.00    -0.341 OA
ATOM     19  C   UNL     1      29.516  38.295  12.200  1.00  0.00     0.281 C 
ATOM     20  C   UNL     1      31.302  37.543  13.822  1.00  0.00     0.180 C 
ATOM     21  C   UNL     1      30.912  38.450  12.678  1.00  0.00     0.202 C 
BRANCH  17  22
ATOM     22  C   UNL     1      29.112  34.731  12.650  1.00  0.00     0.191 C 
BRANCH  22  23
ATOM     23  O   UNL     1      27.809  34.970  13.087  1.00  0.00    -0.394 OA
ATOM     24  H   UNL     1      27.294  35.515  12.445  1.00  0.00     0.210 HD
ENDBRANCH  22  23
ENDBRANCH  17  22
BRANCH  19  25
ATOM     25  O   UNL     1      28.532  38.795  13.010  1.00  0.00    -0.350 OA
BRANCH  25  26
ATOM     26  C   UNL     1      27.299  38.942  12.394  1.00  0.00     0.169 C 
BRANCH  26  27
ATOM     27  C   UNL     1      26.183  38.199  13.078  1.00  0.00     0.119 C 
BRANCH  27  28
ATOM     28  N   UNL     1      26.739  37.493  14.214  1.00  0.00    -0.092 NA
ATOM     29  N   UNL     1      26.313  37.829  15.327  1.00  0.00     0.001 N 
ATOM     30  N   UNL     1      26.393  38.387  16.436  1.00  0.00    -0.003 NA
ENDBRANCH  27  28
ENDBRANCH  26  27
ENDBRANCH  25  26
ENDBRANCH  19  25
BRANCH  20  31
ATOM     31  O   UNL     1      31.571  38.321  14.922  1.00  0.00    -0.387 OA
ATOM     32  H   UNL     1      32.530  38.542  15.019  1.00  0.00     0.211 HD
ENDBRANCH  20  31
BRANCH  21  33
ATOM     33  O   UNL     1      31.756  38.095  11.597  1.00  0.00    -0.385 OA
ATOM     34  H   UNL     1      31.305  37.445  11.005  1.00  0.00     0.211 HD
ENDBRANCH  21  33
ENDBRANCH  15  16
ENDBRANCH  10  15
BRANCH  12  35
ATOM     35  O   UNL     1      33.740  34.290  13.890  1.00  0.00    -0.385 OA
ATOM     36  H   UNL     1      33.523  34.186  12.938  1.00  0.00     0.211 HD
ENDBRANCH  12  35
BRANCH  13  37
ATOM     37  O   UNL     1      33.878  36.778  16.111  1.00  0.00    -0.387 OA
ATOM     38  H   UNL     1      33.620  37.045  17.007  1.00  0.00     0.211 HD
ENDBRANCH  13  37
BRANCH  14  39
ATOM     39  O   UNL     1      31.467  35.995  17.172  1.00  0.00    -0.387 OA
ATOM     40  H   UNL     1      30.991  35.713  17.988  1.00  0.00     0.211 HD
ENDBRANCH  14  39
ENDBRANCH   8   9
ENDBRANCH   7   8
ENDBRANCH   1   7
BRANCH   1  41
ATOM     41  C   UNL     1      29.077  31.902  19.467  1.00  0.00     0.364 C 
ATOM     42  O   UNL     1      28.791  32.705  20.347  1.00  0.00    -0.246 OA
BRANCH  41  43
ATOM     43  O   UNL     1      29.684  30.706  19.899  1.00  0.00    -0.477 OA
ATOM     44  H   UNL     1      30.596  30.724  20.326  1.00  0.00     0.296 HD
ENDBRANCH  41  43
ENDBRANCH   1  41
BRANCH   3  45
ATOM     45  O   UNL     1      29.270  31.306  15.147  1.00  0.00    -0.391 OA
ATOM     46  H   UNL     1      29.138  30.915  14.236  1.00  0.00     0.211 HD
ENDBRANCH   3  45
BRANCH   5  47
ATOM     47  C   UNL     1      26.599  33.624  16.047  1.00  0.00     0.176 C 
BRANCH  47  48
ATOM     48  O   UNL     1      26.287  33.280  14.718  1.00  0.00    -0.388 OA
ATOM     49  H   UNL     1      25.419  33.638  14.445  1.00  0.00     0.211 HD
ENDBRANCH  47  48
BRANCH  47  50
ATOM     50  C   UNL     1      25.580  34.531  16.646  1.00  0.00     0.165 C 
BRANCH  50  51
ATOM     51  O   UNL     1      26.115  34.977  17.878  1.00  0.00    -0.388 OA
ATOM     52  H   UNL     1      26.961  34.536  18.084  1.00  0.00     0.211 HD
ENDBRANCH  50  51
BRANCH  50  53
ATOM     53  C   UNL     1      24.252  33.946  16.949  1.00  0.00     0.154 C 
BRANCH  53  54
ATOM     54  N   UNL     1      23.500  33.475  15.816  1.00  0.00    -0.319 N 
ATOM     55  C   UNL     1      22.648  34.311  15.044  1.00  0.00     0.407 C 
ATOM     56  H   UNL     1      23.580  32.481  15.538  1.00  0.00     0.167 HD
ATOM     57  O   UNL     1      22.524  35.525  15.340  1.00  0.00    -0.225 OA
BRANCH  55  58
ATOM     58  O   UNL     1      21.944  33.837  13.973  1.00  0.00    -0.443 OA
BRANCH  58  59
ATOM     59  C   UNL     1      22.465  33.165  12.851  1.00  0.00     0.294 C 
BRANCH  59  60
ATOM     60  C   UNL     1      23.512  34.006  12.232  1.00  0.00     0.120 A 
ATOM     61  C   UNL     1      23.230  35.030  11.373  1.00  0.00     0.138 A 
ATOM     62  N   UNL     1      24.842  33.952  12.360  1.00  0.00    -0.132 NA
ATOM     63  N   UNL     1      24.398  35.592  10.986  1.00  0.00    -0.249 N 
ATOM     64  N   UNL     1      25.363  34.914  11.603  1.00  0.00    -0.067 NA
BRANCH  63  65
ATOM     65  C   UNL     1      24.547  36.708  10.073  1.00  0.00     0.109 C 
ATOM     66  C   UNL     1      23.621  36.408   8.898  1.00  0.00     0.027 C 
ATOM     67  C   UNL     1      25.965  36.780   9.554  1.00  0.00     0.027 C 
ATOM     68  C   UNL     1      23.651  37.589   7.928  1.00  0.00     0.002 C 
ATOM     69  C   UNL     1      26.029  36.834   8.042  1.00  0.00     0.002 C 
ATOM     70  C   UNL     1      25.063  37.849   7.511  1.00  0.00     0.000 C 
ENDBRANCH  63  65
ENDBRANCH  59  60
ENDBRANCH  58  59
ENDBRANCH  55  58
ENDBRANCH  53  54
ENDBRANCH  50  53
ENDBRANCH  47  50
ENDBRANCH   5  47
BRANCH   4  71
ATOM     71  N   UNL     1      26.034  30.112  16.049  1.00  0.00    -0.348 N 
ATOM     72  C   UNL     1      24.823  30.076  15.338  1.00  0.00     0.217 C 
ATOM     73  H   UNL     1      26.193  29.271  16.692  1.00  0.00     0.163 HD
ATOM     74  C   UNL     1      23.856  28.934  15.477  1.00  0.00     0.114 C 
ATOM     75  O   UNL     1      24.499  30.981  14.569  1.00  0.00    -0.275 OA
ENDBRANCH   4  71
TORSDOF 30
BEGIN_RES LYS A 131
REMARK  4 active torsions:
REMARK  status: ('A' for Active; 'I' for Inactive)
REMARK    1  A    between atoms: CA   and  CB  
REMARK    2  A    between atoms: CB   and  CG  
REMARK    3  A    between atoms: CG   and  CD  
REMARK    4  A    between atoms: CD   and  CE  
ROOT
ATOM      1  CA  LYS A 131      29.867  25.555  16.977  1.00 20.52     0.186 C 
ENDROOT
BRANCH   1   2
ATOM      2  CB  LYS A 131      28.345  25.722  17.026  1.00 20.94     0.034 C 
BRANCH   2   3
ATOM      3  CG  LYS A 131      27.602  24.399  16.927  1.00 22.96     0.005 C 
BRANCH   3   4
ATOM      4  CD  LYS A 131      26.524  24.275  17.968  1.00 24.33     0.041 C 
BRANCH   4   5
ATOM      5  CE  LYS A 131      25.198  24.758  17.387  1.00 26.91     0.338 C 
ATOM      6  NZ  LYS A 131      24.371  23.607  16.955  1.00 27.40     0.618 N 
ENDBRANCH   4   5
ENDBRANCH   3   4
ENDBRANCH   2   3
ENDBRANCH   1   2
END_RES LYS A 131
BEGIN_RES LYS A 135
REMARK  4 active torsions:
REMARK  status: ('A' for Active; 'I' for Inactive)
REMARK    5  A    between atoms: CA   and  CB  
REMARK    6  A    between atoms: CB   and  CG  
REMARK    7  A    between atoms: CG   and  CD  
REMARK    8  A    between atoms: CD   and  CE  
ROOT
ATOM      7  CA  LYS A 135      33.193  34.663   9.290  1.00 25.02     0.186 C 
ENDROOT
BRANCH   7   8
ATOM      8  CB  LYS A 135      32.060  35.360  10.034  1.00 26.63     0.034 C 
BRANCH   8   9
ATOM      9  CG  LYS A 135      30.844  35.611   9.181  1.00 29.45     0.005 C 
BRANCH   9  10
ATOM     10  CD  LYS A 135      30.240  34.298   8.707  1.00 32.00     0.041 C 
BRANCH  10  11
ATOM     11  CE  LYS A 135      28.750  34.451   8.469  1.00 34.25     0.338 C 
ATOM     12  NZ  LYS A 135      27.964  33.714   9.496  1.00 35.99     0.618 N 
ENDBRANCH  10  11
ENDBRANCH   9  10
ENDBRANCH   8   9
ENDBRANCH   7   8
END_RES LYS A 135
