REMARK VINA RESULT:    -4.573      3.909     11.448
REMARK INTER + INTRA:         -23.246
REMARK INTER:                 -10.986
REMARK INTRA:                 -12.260
REMARK UNBOUND:               -10.521
REMARK SMILES CC(=O)N[C@@H]1[C@@H](O)C[C@](OC[C@H]2O[C@@H](O[C@H]3[C@H](O)[C@@H](O)[C@H](OCCN=[N+]=[N-])O[C@@H]3CO)[C@H](O)[C@@H](O)[C@H]2O)(C(=O)O)O[C@H]1C(O)[C@H](O)CNC(=O)OCc1cn(CCCCCC(=O)O)nn1
REMARK SMILES IDX 47 1 45 2 43 3 42 4 9 5 8 6 41 7 6 8 5 9 10 10 11 11 12 12
REMARK SMILES IDX 14 13 13 14 32 15 34 16 36 17 15 18 16 19 29 20 28 21 21 22
REMARK SMILES IDX 17 23 19 24 30 25 31 26 22 28 23 29 24 30 25 31 26 32 27 33
REMARK SMILES IDX 18 34 20 36 33 38 35 40 37 42 38 44 39 45 40 46 7 48 4 50
REMARK SMILES IDX 2 51 1 53 3 54 44 55 46 57 48 59 49 60 50 62 51 63 52 64
REMARK SMILES IDX 53 65 54 66 65 67 55 68 64 69 56 70 57 71 58 72 59 73 60 74
REMARK SMILES IDX 61 75 62 76 63 77
REMARK H PARENT 31 27 18 35 20 37 33 39 35 41 37 43 40 47 7 49 4 52 44 56
REMARK H PARENT 46 58 48 61 63 78
REMARK Flexibility Score: inf
ROOT
ATOM      1  C   UNL     1      24.248  36.870  11.358  1.00  0.00     0.154 C 
ENDROOT
BRANCH   1   2
ATOM      2  C   UNL     1      24.910  36.555  12.678  1.00  0.00     0.165 C 
BRANCH   2   3
ATOM      3  C   UNL     1      24.657  35.108  12.954  1.00  0.00     0.176 C 
BRANCH   3   4
ATOM      4  C   UNL     1      24.701  34.696  14.385  1.00  0.00     0.178 C 
ATOM      5  C   UNL     1      25.652  35.059  16.395  1.00  0.00     0.272 C 
ATOM      6  C   UNL     1      24.437  34.342  16.889  1.00  0.00     0.113 C 
ATOM      7  O   UNL     1      25.898  34.951  15.033  1.00  0.00    -0.332 OA
ATOM      8  C   UNL     1      23.942  33.194  16.095  1.00  0.00     0.145 C 
ATOM      9  C   UNL     1      24.413  33.232  14.636  1.00  0.00     0.142 C 
BRANCH   5  10
ATOM     10  O   UNL     1      26.789  34.774  17.148  1.00  0.00    -0.338 OA
BRANCH  10  11
ATOM     11  C   UNL     1      26.761  33.661  17.925  1.00  0.00     0.199 C 
BRANCH  11  12
ATOM     12  C   UNL     1      27.700  32.657  17.283  1.00  0.00     0.179 C 
ATOM     13  C   UNL     1      28.952  32.079  15.522  1.00  0.00     0.282 C 
ATOM     14  O   UNL     1      28.507  33.194  16.293  1.00  0.00    -0.341 OA
ATOM     15  C   UNL     1      29.208  30.863  16.292  1.00  0.00     0.202 C 
ATOM     16  C   UNL     1      29.397  31.012  17.776  1.00  0.00     0.179 C 
ATOM     17  C   UNL     1      28.655  32.183  18.363  1.00  0.00     0.177 C 
BRANCH  13  18
ATOM     18  O   UNL     1      29.908  32.502  14.603  1.00  0.00    -0.341 OA
BRANCH  18  19
ATOM     19  C   UNL     1      30.450  33.711  14.835  1.00  0.00     0.184 C 
ATOM     20  C   UNL     1      30.646  34.521  13.590  1.00  0.00     0.178 C 
ATOM     21  O   UNL     1      30.826  35.847  14.034  1.00  0.00    -0.341 OA
ATOM     22  C   UNL     1      32.009  35.992  14.676  1.00  0.00     0.281 C 
ATOM     23  C   UNL     1      31.917  33.553  15.366  1.00  0.00     0.180 C 
ATOM     24  C   UNL     1      32.742  34.722  14.888  1.00  0.00     0.202 C 
BRANCH  20  25
ATOM     25  C   UNL     1      29.455  34.525  12.669  1.00  0.00     0.191 C 
BRANCH  25  26
ATOM     26  O   UNL     1      28.281  34.650  13.381  1.00  0.00    -0.394 OA
ATOM     27  H   UNL     1      28.120  35.621  13.524  1.00  0.00     0.210 HD
ENDBRANCH  25  26
ENDBRANCH  20  25
BRANCH  22  28
ATOM     28  O   UNL     1      31.911  36.713  15.873  1.00  0.00    -0.350 OA
BRANCH  28  29
ATOM     29  C   UNL     1      31.231  37.895  15.727  1.00  0.00     0.169 C 
BRANCH  29  30
ATOM     30  C   UNL     1      30.228  38.051  16.861  1.00  0.00     0.119 C 
BRANCH  30  31
ATOM     31  N   UNL     1      29.637  36.769  17.207  1.00  0.00    -0.092 NA
ATOM     32  N   UNL     1      29.260  36.563  18.377  1.00  0.00     0.001 N 
ATOM     33  N   UNL     1      29.293  36.129  19.529  1.00  0.00    -0.003 NA
ENDBRANCH  30  31
ENDBRANCH  29  30
ENDBRANCH  28  29
ENDBRANCH  22  28
BRANCH  23  34
ATOM     34  O   UNL     1      31.886  33.600  16.759  1.00  0.00    -0.387 OA
ATOM     35  H   UNL     1      31.080  33.100  17.079  1.00  0.00     0.211 HD
ENDBRANCH  23  34
BRANCH  24  36
ATOM     36  O   UNL     1      33.611  34.381  13.845  1.00  0.00    -0.385 OA
ATOM     37  H   UNL     1      34.512  34.133  14.170  1.00  0.00     0.211 HD
ENDBRANCH  24  36
ENDBRANCH  18  19
ENDBRANCH  13  18
BRANCH  15  38
ATOM     38  O   UNL     1      28.154  29.915  16.148  1.00  0.00    -0.385 OA
ATOM     39  H   UNL     1      27.669  30.072  15.318  1.00  0.00     0.211 HD
ENDBRANCH  15  38
BRANCH  16  40
ATOM     40  O   UNL     1      30.749  31.166  18.135  1.00  0.00    -0.387 OA
ATOM     41  H   UNL     1      30.963  30.756  18.992  1.00  0.00     0.211 HD
ENDBRANCH  16  40
BRANCH  17  42
ATOM     42  O   UNL     1      29.565  33.250  18.569  1.00  0.00    -0.387 OA
ATOM     43  H   UNL     1      29.231  33.991  17.972  1.00  0.00     0.211 HD
ENDBRANCH  17  42
ENDBRANCH  11  12
ENDBRANCH  10  11
ENDBRANCH   5  10
BRANCH   5  44
ATOM     44  C   UNL     1      25.405  36.510  16.621  1.00  0.00     0.364 C 
ATOM     45  O   UNL     1      24.241  36.945  16.772  1.00  0.00    -0.246 OA
BRANCH  44  46
ATOM     46  O   UNL     1      26.457  37.391  16.667  1.00  0.00    -0.477 OA
ATOM     47  H   UNL     1      26.359  38.400  16.463  1.00  0.00     0.296 HD
ENDBRANCH  44  46
ENDBRANCH   5  44
BRANCH   8  48
ATOM     48  O   UNL     1      24.132  31.941  16.673  1.00  0.00    -0.391 OA
ATOM     49  H   UNL     1      23.558  31.888  17.469  1.00  0.00     0.211 HD
ENDBRANCH   8  48
BRANCH   9  50
ATOM     50  N   UNL     1      23.461  32.647  13.759  1.00  0.00    -0.348 N 
ATOM     51  C   UNL     1      23.529  31.263  13.471  1.00  0.00     0.217 C 
ATOM     52  H   UNL     1      22.715  33.211  13.328  1.00  0.00     0.163 HD
ATOM     53  C   UNL     1      22.543  30.625  12.561  1.00  0.00     0.114 C 
ATOM     54  O   UNL     1      24.421  30.514  13.969  1.00  0.00    -0.275 OA
ENDBRANCH   9  50
ENDBRANCH   3   4
BRANCH   3  55
ATOM     55  O   UNL     1      25.542  34.287  12.219  1.00  0.00    -0.388 OA
ATOM     56  H   UNL     1      26.312  34.041  12.779  1.00  0.00     0.211 HD
ENDBRANCH   3  55
ENDBRANCH   2   3
BRANCH   2  57
ATOM     57  O   UNL     1      24.324  37.352  13.654  1.00  0.00    -0.388 OA
ATOM     58  H   UNL     1      24.847  37.223  14.485  1.00  0.00     0.211 HD
ENDBRANCH   2  57
ENDBRANCH   1   2
BRANCH   1  59
ATOM     59  N   UNL     1      25.150  36.961  10.255  1.00  0.00    -0.319 N 
ATOM     60  C   UNL     1      24.966  36.065   9.153  1.00  0.00     0.407 C 
ATOM     61  H   UNL     1      25.926  37.640  10.215  1.00  0.00     0.167 HD
ATOM     62  O   UNL     1      24.032  35.225   9.164  1.00  0.00    -0.225 OA
BRANCH  60  63
ATOM     63  O   UNL     1      25.791  36.083   8.053  1.00  0.00    -0.443 OA
BRANCH  63  64
ATOM     64  C   UNL     1      26.236  37.229   7.417  1.00  0.00     0.294 C 
BRANCH  64  65
ATOM     65  C   UNL     1      27.488  37.819   7.909  1.00  0.00     0.120 A 
ATOM     66  C   UNL     1      28.555  38.255   7.167  1.00  0.00     0.138 A 
ATOM     67  N   UNL     1      27.804  38.016   9.208  1.00  0.00    -0.132 NA
ATOM     68  N   UNL     1      29.481  38.702   8.017  1.00  0.00    -0.252 N 
ATOM     69  N   UNL     1      28.997  38.544   9.233  1.00  0.00    -0.067 NA
BRANCH  68  70
ATOM     70  C   UNL     1      30.773  39.265   7.651  1.00  0.00     0.146 C 
BRANCH  70  71
ATOM     71  C   UNL     1      31.731  39.051   8.823  1.00  0.00     0.024 C 
BRANCH  71  72
ATOM     72  C   UNL     1      32.124  40.355   9.452  1.00  0.00     0.002 C 
BRANCH  72  73
ATOM     73  C   UNL     1      31.573  40.436  10.846  1.00  0.00     0.012 C 
BRANCH  73  74
ATOM     74  C   UNL     1      31.550  39.121  11.553  1.00  0.00     0.122 C 
BRANCH  74  75
ATOM     75  C   UNL     1      30.269  38.980  12.301  1.00  0.00     0.303 C 
ATOM     76  O   UNL     1      29.930  39.854  13.128  1.00  0.00    -0.252 OA
BRANCH  75  77
ATOM     77  O   UNL     1      29.434  37.887  12.094  1.00  0.00    -0.481 OA
ATOM     78  H   UNL     1      29.165  37.631  11.142  1.00  0.00     0.296 HD
ENDBRANCH  75  77
ENDBRANCH  74  75
ENDBRANCH  73  74
ENDBRANCH  72  73
ENDBRANCH  71  72
ENDBRANCH  70  71
ENDBRANCH  68  70
ENDBRANCH  64  65
ENDBRANCH  63  64
ENDBRANCH  60  63
ENDBRANCH   1  59
TORSDOF 36
BEGIN_RES LYS A 131
REMARK  4 active torsions:
REMARK  status: ('A' for Active; 'I' for Inactive)
REMARK    1  A    between atoms: CA   and  CB  
REMARK    2  A    between atoms: CB   and  CG  
REMARK    3  A    between atoms: CG   and  CD  
REMARK    4  A    between atoms: CD   and  CE  
ROOT
ATOM      1  CA  LYS A 131      29.867  25.555  16.977  1.00 20.52     0.186 C 
ENDROOT
BRANCH   1   2
ATOM      2  CB  LYS A 131      28.345  25.722  17.026  1.00 20.94     0.034 C 
BRANCH   2   3
ATOM      3  CG  LYS A 131      27.601  24.403  16.888  1.00 22.96     0.005 C 
BRANCH   3   4
ATOM      4  CD  LYS A 131      26.267  24.429  17.582  1.00 24.33     0.041 C 
BRANCH   4   5
ATOM      5  CE  LYS A 131      26.292  25.474  18.693  1.00 26.91     0.338 C 
ATOM      6  NZ  LYS A 131      24.913  25.848  19.084  1.00 27.40     0.618 N 
ENDBRANCH   4   5
ENDBRANCH   3   4
ENDBRANCH   2   3
ENDBRANCH   1   2
END_RES LYS A 131
BEGIN_RES LYS A 135
REMARK  4 active torsions:
REMARK  status: ('A' for Active; 'I' for Inactive)
REMARK    5  A    between atoms: CA   and  CB  
REMARK    6  A    between atoms: CB   and  CG  
REMARK    7  A    between atoms: CG   and  CD  
REMARK    8  A    between atoms: CD   and  CE  
ROOT
ATOM      7  CA  LYS A 135      33.193  34.663   9.290  1.00 25.02     0.186 C 
ENDROOT
BRANCH   7   8
ATOM      8  CB  LYS A 135      32.060  35.360  10.034  1.00 26.63     0.034 C 
BRANCH   8   9
ATOM      9  CG  LYS A 135      30.833  35.586   9.188  1.00 29.45     0.005 C 
BRANCH   9  10
ATOM     10  CD  LYS A 135      30.276  34.263   8.687  1.00 32.00     0.041 C 
BRANCH  10  11
ATOM     11  CE  LYS A 135      28.786  34.377   8.427  1.00 34.25     0.338 C 
ATOM     12  NZ  LYS A 135      27.999  33.812   9.558  1.00 35.99     0.618 N 
ENDBRANCH  10  11
ENDBRANCH   9  10
ENDBRANCH   8   9
ENDBRANCH   7   8
END_RES LYS A 135
