REMARK VINA RESULT:    -5.061      3.903      7.844
REMARK INTER + INTRA:         -24.860
REMARK INTER:                 -12.494
REMARK INTRA:                 -12.366
REMARK UNBOUND:               -11.071
REMARK SMILES CC(=O)N[C@@H]1[C@@H](O)C[C@](OC[C@H]2O[C@@H](O[C@H]3[C@H](O)[C@@H](O)[C@H](OCCN=[N+]=[N-])O[C@@H]3CO)[C@H](O)[C@@H](O)[C@H]2O)(C(=O)O)O[C@H]1C(O)[C@H](O)CNC(=O)OCc1cn(CC(O)CCc2ccccc2)nn1
REMARK SMILES IDX 43 1 42 2 9 3 8 4 41 5 6 6 5 7 10 8 11 9 12 10 14 11 13 12
REMARK SMILES IDX 32 13 34 14 36 15 15 16 16 17 29 18 28 19 21 20 17 21 19 22
REMARK SMILES IDX 30 23 31 24 22 26 23 27 24 28 25 29 26 30 27 31 18 32 20 34
REMARK SMILES IDX 33 36 35 38 37 40 38 42 39 43 40 44 7 46 4 48 2 49 1 51 3 52
REMARK SMILES IDX 44 53 45 55 46 56 47 58 48 59 49 60 50 62 51 63 52 64 53 65
REMARK SMILES IDX 54 66 68 67 55 68 67 69 56 70 57 71 58 72 59 74 60 75 61 76
REMARK SMILES IDX 62 77 66 78 63 79 65 80 64 81
REMARK H PARENT 31 25 18 33 20 35 33 37 35 39 37 41 40 45 7 47 4 50 44 54
REMARK H PARENT 46 57 48 61 58 73
REMARK Flexibility Score: inf
ROOT
ATOM      1  C   UNL     1      28.023  37.665   7.101  1.00  0.00     0.176 C 
ENDROOT
BRANCH   1   2
ATOM      2  C   UNL     1      26.989  38.802   6.993  1.00  0.00     0.178 C 
ATOM      3  C   UNL     1      27.351  41.107   7.422  1.00  0.00     0.272 C 
ATOM      4  C   UNL     1      27.090  40.796   8.859  1.00  0.00     0.113 C 
ATOM      5  O   UNL     1      27.633  39.946   6.754  1.00  0.00    -0.332 OA
ATOM      6  C   UNL     1      25.941  39.865   9.010  1.00  0.00     0.145 C 
ATOM      7  C   UNL     1      26.028  38.668   8.111  1.00  0.00     0.142 C 
BRANCH   3   8
ATOM      8  O   UNL     1      28.392  42.048   7.298  1.00  0.00    -0.338 OA
BRANCH   8   9
ATOM      9  C   UNL     1      29.344  41.784   6.379  1.00  0.00     0.199 C 
BRANCH   9  10
ATOM     10  C   UNL     1      30.728  41.594   7.043  1.00  0.00     0.179 C 
ATOM     11  C   UNL     1      31.828  41.050   8.951  1.00  0.00     0.282 C 
ATOM     12  O   UNL     1      30.637  41.413   8.376  1.00  0.00    -0.341 OA
ATOM     13  C   UNL     1      32.183  39.684   8.299  1.00  0.00     0.202 C 
ATOM     14  C   UNL     1      32.696  40.112   6.920  1.00  0.00     0.179 C 
ATOM     15  C   UNL     1      31.468  40.613   6.210  1.00  0.00     0.177 C 
BRANCH  11  16
ATOM     16  O   UNL     1      31.696  40.841  10.278  1.00  0.00    -0.341 OA
BRANCH  16  17
ATOM     17  C   UNL     1      30.442  40.834  10.843  1.00  0.00     0.184 C 
ATOM     18  C   UNL     1      30.218  41.938  11.820  1.00  0.00     0.178 C 
ATOM     19  O   UNL     1      29.844  41.592  13.080  1.00  0.00    -0.341 OA
ATOM     20  C   UNL     1      29.099  40.463  13.248  1.00  0.00     0.281 C 
ATOM     21  C   UNL     1      30.192  39.440  11.342  1.00  0.00     0.180 C 
ATOM     22  C   UNL     1      29.938  39.292  12.798  1.00  0.00     0.202 C 
BRANCH  18  23
ATOM     23  C   UNL     1      29.166  42.881  11.275  1.00  0.00     0.191 C 
BRANCH  23  24
ATOM     24  O   UNL     1      29.441  43.243   9.957  1.00  0.00    -0.394 OA
ATOM     25  H   UNL     1      28.586  43.626   9.596  1.00  0.00     0.210 HD
ENDBRANCH  23  24
ENDBRANCH  18  23
BRANCH  20  26
ATOM     26  O   UNL     1      27.861  40.502  12.628  1.00  0.00    -0.350 OA
BRANCH  26  27
ATOM     27  C   UNL     1      26.858  40.291  13.576  1.00  0.00     0.169 C 
BRANCH  27  28
ATOM     28  C   UNL     1      25.832  41.408  13.385  1.00  0.00     0.119 C 
BRANCH  28  29
ATOM     29  N   UNL     1      25.976  42.036  12.100  1.00  0.00    -0.092 NA
ATOM     30  N   UNL     1      24.960  42.465  11.516  1.00  0.00     0.001 N 
ATOM     31  N   UNL     1      23.935  42.625  10.827  1.00  0.00    -0.003 NA
ENDBRANCH  28  29
ENDBRANCH  27  28
ENDBRANCH  26  27
ENDBRANCH  20  26
BRANCH  21  32
ATOM     32  O   UNL     1      29.071  38.857  10.692  1.00  0.00    -0.387 OA
ATOM     33  H   UNL     1      28.357  39.515  10.529  1.00  0.00     0.211 HD
ENDBRANCH  21  32
BRANCH  22  34
ATOM     34  O   UNL     1      31.134  39.325  13.522  1.00  0.00    -0.385 OA
ATOM     35  H   UNL     1      31.144  40.038  14.193  1.00  0.00     0.211 HD
ENDBRANCH  22  34
ENDBRANCH  16  17
ENDBRANCH  11  16
BRANCH  13  36
ATOM     36  O   UNL     1      33.074  38.954   9.013  1.00  0.00    -0.385 OA
ATOM     37  H   UNL     1      33.730  38.429   8.526  1.00  0.00     0.211 HD
ENDBRANCH  13  36
BRANCH  14  38
ATOM     38  O   UNL     1      33.294  39.044   6.256  1.00  0.00    -0.387 OA
ATOM     39  H   UNL     1      32.800  38.833   5.432  1.00  0.00     0.211 HD
ENDBRANCH  14  38
BRANCH  15  40
ATOM     40  O   UNL     1      30.669  39.490   5.968  1.00  0.00    -0.387 OA
ATOM     41  H   UNL     1      30.104  39.278   6.747  1.00  0.00     0.211 HD
ENDBRANCH  15  40
ENDBRANCH   9  10
ENDBRANCH   8   9
ENDBRANCH   3   8
BRANCH   3  42
ATOM     42  C   UNL     1      26.178  41.822   6.862  1.00  0.00     0.364 C 
ATOM     43  O   UNL     1      25.805  42.900   7.406  1.00  0.00    -0.246 OA
BRANCH  42  44
ATOM     44  O   UNL     1      25.469  41.378   5.781  1.00  0.00    -0.477 OA
ATOM     45  H   UNL     1      24.636  41.869   5.493  1.00  0.00     0.296 HD
ENDBRANCH  42  44
ENDBRANCH   3  42
BRANCH   6  46
ATOM     46  O   UNL     1      25.932  39.487  10.381  1.00  0.00    -0.391 OA
ATOM     47  H   UNL     1      25.323  40.041  10.909  1.00  0.00     0.211 HD
ENDBRANCH   6  46
BRANCH   7  48
ATOM     48  N   UNL     1      24.738  38.193   7.675  1.00  0.00    -0.348 N 
ATOM     49  C   UNL     1      23.880  37.390   8.475  1.00  0.00     0.217 C 
ATOM     50  H   UNL     1      24.377  38.432   6.704  1.00  0.00     0.163 HD
ATOM     51  C   UNL     1      22.578  36.971   7.915  1.00  0.00     0.114 C 
ATOM     52  O   UNL     1      24.213  37.050   9.615  1.00  0.00    -0.275 OA
ENDBRANCH   7  48
ENDBRANCH   1   2
BRANCH   1  53
ATOM     53  O   UNL     1      29.055  38.045   7.936  1.00  0.00    -0.388 OA
ATOM     54  H   UNL     1      29.011  37.617   8.825  1.00  0.00     0.211 HD
ENDBRANCH   1  53
BRANCH   1  55
ATOM     55  C   UNL     1      28.415  37.049   5.811  1.00  0.00     0.165 C 
BRANCH  55  56
ATOM     56  O   UNL     1      27.381  37.133   4.913  1.00  0.00    -0.388 OA
ATOM     57  H   UNL     1      26.792  37.898   5.062  1.00  0.00     0.211 HD
ENDBRANCH  55  56
BRANCH  55  58
ATOM     58  C   UNL     1      28.786  35.612   6.093  1.00  0.00     0.154 C 
BRANCH  58  59
ATOM     59  N   UNL     1      28.304  35.051   7.298  1.00  0.00    -0.319 N 
ATOM     60  C   UNL     1      29.060  34.458   8.344  1.00  0.00     0.407 C 
ATOM     61  H   UNL     1      27.243  35.048   7.497  1.00  0.00     0.167 HD
ATOM     62  O   UNL     1      30.293  34.405   8.272  1.00  0.00    -0.225 OA
BRANCH  60  63
ATOM     63  O   UNL     1      28.437  33.929   9.464  1.00  0.00    -0.443 OA
BRANCH  63  64
ATOM     64  C   UNL     1      27.148  34.150   9.900  1.00  0.00     0.294 C 
BRANCH  64  65
ATOM     65  C   UNL     1      26.945  35.217  10.893  1.00  0.00     0.120 A 
ATOM     66  C   UNL     1      26.281  35.117  12.110  1.00  0.00     0.138 A 
ATOM     67  N   UNL     1      27.342  36.501  10.778  1.00  0.00    -0.132 NA
ATOM     68  N   UNL     1      26.309  36.329  12.657  1.00  0.00    -0.250 N 
ATOM     69  N   UNL     1      26.946  37.145  11.855  1.00  0.00    -0.067 NA
BRANCH  68  70
ATOM     70  C   UNL     1      25.679  36.643  13.966  1.00  0.00     0.177 C 
BRANCH  70  71
ATOM     71  C   UNL     1      26.751  36.490  14.993  1.00  0.00     0.136 C 
BRANCH  71  72
ATOM     72  O   UNL     1      27.970  37.040  14.559  1.00  0.00    -0.391 OA
ATOM     73  H   UNL     1      28.375  36.517  13.836  1.00  0.00     0.211 HD
ENDBRANCH  71  72
BRANCH  71  74
ATOM     74  C   UNL     1      26.947  35.116  15.500  1.00  0.00     0.038 C 
BRANCH  74  75
ATOM     75  C   UNL     1      27.933  34.796  16.526  1.00  0.00     0.038 C 
BRANCH  75  76
ATOM     76  C   UNL     1      29.149  34.092  16.177  1.00  0.00    -0.048 A 
ATOM     77  C   UNL     1      29.109  32.770  15.743  1.00  0.00     0.004 A 
ATOM     78  C   UNL     1      30.405  34.679  16.336  1.00  0.00     0.004 A 
ATOM     79  C   UNL     1      30.261  32.086  15.486  1.00  0.00     0.000 A 
ATOM     80  C   UNL     1      31.546  33.962  16.069  1.00  0.00     0.000 A 
ATOM     81  C   UNL     1      31.508  32.643  15.637  1.00  0.00     0.000 A 
ENDBRANCH  75  76
ENDBRANCH  74  75
ENDBRANCH  71  74
ENDBRANCH  70  71
ENDBRANCH  68  70
ENDBRANCH  64  65
ENDBRANCH  63  64
ENDBRANCH  60  63
ENDBRANCH  58  59
ENDBRANCH  55  58
ENDBRANCH   1  55
TORSDOF 35
BEGIN_RES LYS A 131
REMARK  4 active torsions:
REMARK  status: ('A' for Active; 'I' for Inactive)
REMARK    1  A    between atoms: CA   and  CB  
REMARK    2  A    between atoms: CB   and  CG  
REMARK    3  A    between atoms: CG   and  CD  
REMARK    4  A    between atoms: CD   and  CE  
ROOT
ATOM      1  CA  LYS A 131      29.867  25.555  16.977  1.00 20.52     0.186 C 
ENDROOT
BRANCH   1   2
ATOM      2  CB  LYS A 131      28.345  25.722  17.026  1.00 20.94     0.034 C 
BRANCH   2   3
ATOM      3  CG  LYS A 131      27.601  24.401  16.899  1.00 22.96     0.005 C 
BRANCH   3   4
ATOM      4  CD  LYS A 131      26.151  24.530  17.273  1.00 24.33     0.041 C 
BRANCH   4   5
ATOM      5  CE  LYS A 131      26.016  24.540  18.792  1.00 26.91     0.338 C 
ATOM      6  NZ  LYS A 131      25.518  23.232  19.278  1.00 27.40     0.618 N 
ENDBRANCH   4   5
ENDBRANCH   3   4
ENDBRANCH   2   3
ENDBRANCH   1   2
END_RES LYS A 131
BEGIN_RES LYS A 135
REMARK  4 active torsions:
REMARK  status: ('A' for Active; 'I' for Inactive)
REMARK    5  A    between atoms: CA   and  CB  
REMARK    6  A    between atoms: CB   and  CG  
REMARK    7  A    between atoms: CG   and  CD  
REMARK    8  A    between atoms: CD   and  CE  
ROOT
ATOM      7  CA  LYS A 135      33.193  34.663   9.290  1.00 25.02     0.186 C 
ENDROOT
BRANCH   7   8
ATOM      8  CB  LYS A 135      32.060  35.360  10.034  1.00 26.63     0.034 C 
BRANCH   8   9
ATOM      9  CG  LYS A 135      32.533  36.261  11.146  1.00 29.45     0.005 C 
BRANCH   9  10
ATOM     10  CD  LYS A 135      31.691  36.059  12.396  1.00 32.00     0.041 C 
BRANCH  10  11
ATOM     11  CE  LYS A 135      31.125  34.652  12.435  1.00 34.25     0.338 C 
ATOM     12  NZ  LYS A 135      29.676  34.666  12.781  1.00 35.99     0.618 N 
ENDBRANCH  10  11
ENDBRANCH   9  10
ENDBRANCH   8   9
ENDBRANCH   7   8
END_RES LYS A 135
