REMARK VINA RESULT:    -4.841      3.768      7.647
REMARK INTER + INTRA:         -23.646
REMARK INTER:                 -13.714
REMARK INTRA:                  -9.932
REMARK UNBOUND:               -11.447
REMARK SMILES CC(=O)N[C@@H]1[C@@H](O)C[C@](OC[C@H]2O[C@@H](O[C@H]3[C@H](O)[C@@H](O)[C@H](OCCN=[N+]=[N-])O[C@@H]3CO)[C@H](O)[C@@H](O)[C@H]2O)(C(=O)O)O[C@H]1C(O)[C@H](O)CNC(=O)OCc1cn(-c2ccccc2C(C)C)nn1
REMARK SMILES IDX 9 1 8 2 6 3 5 4 42 5 41 6 10 7 11 8 12 9 14 10 13 11 32 12
REMARK SMILES IDX 34 13 36 14 15 15 16 16 29 17 28 18 21 19 17 20 19 21 30 22
REMARK SMILES IDX 31 23 22 25 23 26 24 27 25 28 26 29 27 30 18 31 20 33 33 35
REMARK SMILES IDX 35 37 37 39 38 41 39 42 40 43 7 45 43 47 44 48 45 50 46 51
REMARK SMILES IDX 47 53 48 54 49 55 50 57 51 58 52 59 53 60 54 61 66 62 55 63
REMARK SMILES IDX 65 64 56 65 61 66 57 67 60 68 58 69 59 70 62 71 63 72 64 73
REMARK SMILES IDX 4 74 2 75 1 77 3 78
REMARK H PARENT 31 24 18 32 20 34 33 36 35 38 37 40 40 44 7 46 44 49 46 52
REMARK H PARENT 48 56 4 76
REMARK Flexibility Score: inf
ROOT
ATOM      1  C   UNL     1      28.826  35.290   8.675  1.00  0.00     0.272 C 
ATOM      2  C   UNL     1      28.453  34.042   9.442  1.00  0.00     0.113 C 
ATOM      3  C   UNL     1      27.403  34.435  10.471  1.00  0.00     0.145 C 
ATOM      4  C   UNL     1      28.112  35.319  11.512  1.00  0.00     0.142 C 
ATOM      5  C   UNL     1      28.846  36.373  10.773  1.00  0.00     0.178 C 
ATOM      6  O   UNL     1      28.411  36.410   9.456  1.00  0.00    -0.332 OA
ENDROOT
BRANCH   1   7
ATOM      7  O   UNL     1      28.121  35.424   7.536  1.00  0.00    -0.338 OA
BRANCH   7   8
ATOM      8  C   UNL     1      28.440  35.877   6.374  1.00  0.00     0.199 C 
BRANCH   8   9
ATOM      9  C   UNL     1      28.082  37.233   5.859  1.00  0.00     0.179 C 
ATOM     10  C   UNL     1      26.692  39.012   6.124  1.00  0.00     0.282 C 
ATOM     11  O   UNL     1      26.879  37.701   6.327  1.00  0.00    -0.341 OA
ATOM     12  C   UNL     1      27.602  39.679   5.104  1.00  0.00     0.202 C 
ATOM     13  C   UNL     1      29.055  39.434   5.409  1.00  0.00     0.179 C 
ATOM     14  C   UNL     1      29.164  38.240   6.312  1.00  0.00     0.177 C 
BRANCH  10  15
ATOM     15  O   UNL     1      26.621  39.828   7.212  1.00  0.00    -0.341 OA
BRANCH  15  16
ATOM     16  C   UNL     1      25.491  39.822   7.990  1.00  0.00     0.184 C 
ATOM     17  C   UNL     1      24.327  39.139   7.352  1.00  0.00     0.178 C 
ATOM     18  O   UNL     1      23.238  39.927   7.214  1.00  0.00    -0.341 OA
ATOM     19  C   UNL     1      22.715  40.568   8.293  1.00  0.00     0.281 C 
ATOM     20  C   UNL     1      25.109  41.123   8.568  1.00  0.00     0.180 C 
ATOM     21  C   UNL     1      23.795  40.941   9.309  1.00  0.00     0.202 C 
BRANCH  17  22
ATOM     22  C   UNL     1      23.896  37.857   8.082  1.00  0.00     0.191 C 
BRANCH  22  23
ATOM     23  O   UNL     1      25.064  37.280   8.631  1.00  0.00    -0.394 OA
ATOM     24  H   UNL     1      24.808  36.981   9.559  1.00  0.00     0.210 HD
ENDBRANCH  22  23
ENDBRANCH  17  22
BRANCH  19  25
ATOM     25  O   UNL     1      21.799  39.776   8.932  1.00  0.00    -0.350 OA
BRANCH  25  26
ATOM     26  C   UNL     1      20.483  39.938   8.630  1.00  0.00     0.169 C 
BRANCH  26  27
ATOM     27  C   UNL     1      19.491  39.085   9.330  1.00  0.00     0.119 C 
BRANCH  27  28
ATOM     28  N   UNL     1      19.081  37.976   8.537  1.00  0.00    -0.092 NA
ATOM     29  N   UNL     1      19.794  37.151   8.001  1.00  0.00     0.001 N 
ATOM     30  N   UNL     1      20.632  36.325   7.659  1.00  0.00    -0.003 NA
ENDBRANCH  27  28
ENDBRANCH  26  27
ENDBRANCH  25  26
ENDBRANCH  19  25
BRANCH  20  31
ATOM     31  O   UNL     1      26.012  41.628   9.502  1.00  0.00    -0.387 OA
ATOM     32  H   UNL     1      25.711  41.356  10.397  1.00  0.00     0.211 HD
ENDBRANCH  20  31
BRANCH  21  33
ATOM     33  O   UNL     1      23.408  42.133   9.926  1.00  0.00    -0.385 OA
ATOM     34  H   UNL     1      23.890  42.177  10.790  1.00  0.00     0.211 HD
ENDBRANCH  21  33
ENDBRANCH  15  16
ENDBRANCH  10  15
BRANCH  12  35
ATOM     35  O   UNL     1      27.268  39.191   3.852  1.00  0.00    -0.385 OA
ATOM     36  H   UNL     1      26.298  39.387   3.657  1.00  0.00     0.211 HD
ENDBRANCH  12  35
BRANCH  13  37
ATOM     37  O   UNL     1      29.598  40.579   6.007  1.00  0.00    -0.387 OA
ATOM     38  H   UNL     1      29.211  40.630   6.916  1.00  0.00     0.211 HD
ENDBRANCH  13  37
BRANCH  14  39
ATOM     39  O   UNL     1      28.862  38.604   7.608  1.00  0.00    -0.387 OA
ATOM     40  H   UNL     1      28.583  37.789   8.096  1.00  0.00     0.211 HD
ENDBRANCH  14  39
ENDBRANCH   8   9
ENDBRANCH   7   8
ENDBRANCH   1   7
BRANCH   1  41
ATOM     41  C   UNL     1      30.277  35.395   8.477  1.00  0.00     0.364 C 
ATOM     42  O   UNL     1      30.911  34.290   8.323  1.00  0.00    -0.246 OA
BRANCH  41  43
ATOM     43  O   UNL     1      31.059  36.518   8.436  1.00  0.00    -0.477 OA
ATOM     44  H   UNL     1      31.968  36.633   8.845  1.00  0.00     0.296 HD
ENDBRANCH  41  43
ENDBRANCH   1  41
BRANCH   3  45
ATOM     45  O   UNL     1      26.453  35.273   9.877  1.00  0.00    -0.391 OA
ATOM     46  H   UNL     1      25.996  35.759  10.608  1.00  0.00     0.211 HD
ENDBRANCH   3  45
BRANCH   5  47
ATOM     47  C   UNL     1      28.716  37.781  11.269  1.00  0.00     0.176 C 
BRANCH  47  48
ATOM     48  O   UNL     1      28.346  37.610  12.650  1.00  0.00    -0.388 OA
ATOM     49  H   UNL     1      28.807  38.400  13.077  1.00  0.00     0.211 HD
ENDBRANCH  47  48
BRANCH  47  50
ATOM     50  C   UNL     1      27.626  38.611  10.670  1.00  0.00     0.165 C 
BRANCH  50  51
ATOM     51  O   UNL     1      28.070  39.701   9.971  1.00  0.00    -0.388 OA
ATOM     52  H   UNL     1      28.581  39.354   9.195  1.00  0.00     0.211 HD
ENDBRANCH  50  51
BRANCH  50  53
ATOM     53  C   UNL     1      26.446  38.781  11.550  1.00  0.00     0.154 C 
BRANCH  53  54
ATOM     54  N   UNL     1      25.509  37.674  11.558  1.00  0.00    -0.319 N 
ATOM     55  C   UNL     1      25.163  37.003  12.756  1.00  0.00     0.407 C 
ATOM     56  H   UNL     1      25.051  37.325  10.689  1.00  0.00     0.167 HD
ATOM     57  O   UNL     1      25.629  37.300  13.879  1.00  0.00    -0.225 OA
BRANCH  55  58
ATOM     58  O   UNL     1      24.246  35.925  12.790  1.00  0.00    -0.443 OA
BRANCH  58  59
ATOM     59  C   UNL     1      24.680  34.653  13.163  1.00  0.00     0.294 C 
BRANCH  59  60
ATOM     60  C   UNL     1      23.486  33.790  13.383  1.00  0.00     0.121 A 
ATOM     61  C   UNL     1      22.931  32.810  12.590  1.00  0.00     0.144 A 
ATOM     62  N   UNL     1      22.673  33.819  14.487  1.00  0.00    -0.131 NA
ATOM     63  N   UNL     1      21.848  32.271  13.173  1.00  0.00    -0.220 N 
ATOM     64  N   UNL     1      21.722  32.920  14.339  1.00  0.00    -0.062 NA
BRANCH  63  65
ATOM     65  C   UNL     1      20.988  31.235  12.711  1.00  0.00     0.070 A 
ATOM     66  C   UNL     1      21.394  29.923  12.818  1.00  0.00    -0.020 A 
ATOM     67  C   UNL     1      19.757  31.470  12.141  1.00  0.00     0.029 A 
ATOM     68  C   UNL     1      20.595  28.890  12.369  1.00  0.00     0.006 A 
ATOM     69  C   UNL     1      18.944  30.447  11.687  1.00  0.00     0.002 A 
ATOM     70  C   UNL     1      19.368  29.139  11.802  1.00  0.00     0.000 A 
BRANCH  66  71
ATOM     71  C   UNL     1      22.704  29.626  13.433  1.00  0.00     0.015 C 
ATOM     72  C   UNL     1      23.526  28.830  12.431  1.00  0.00     0.012 C 
ATOM     73  C   UNL     1      22.495  28.741  14.672  1.00  0.00     0.012 C 
ENDBRANCH  66  71
ENDBRANCH  63  65
ENDBRANCH  59  60
ENDBRANCH  58  59
ENDBRANCH  55  58
ENDBRANCH  53  54
ENDBRANCH  50  53
ENDBRANCH  47  50
ENDBRANCH   5  47
BRANCH   4  74
ATOM     74  N   UNL     1      28.980  34.453  12.277  1.00  0.00    -0.348 N 
ATOM     75  C   UNL     1      29.071  34.431  13.677  1.00  0.00     0.217 C 
ATOM     76  H   UNL     1      29.605  33.782  11.737  1.00  0.00     0.163 HD
ATOM     77  C   UNL     1      30.029  33.473  14.323  1.00  0.00     0.114 C 
ATOM     78  O   UNL     1      28.377  35.186  14.372  1.00  0.00    -0.275 OA
ENDBRANCH   4  74
TORSDOF 31
BEGIN_RES LYS A 131
REMARK  4 active torsions:
REMARK  status: ('A' for Active; 'I' for Inactive)
REMARK    1  A    between atoms: CA   and  CB  
REMARK    2  A    between atoms: CB   and  CG  
REMARK    3  A    between atoms: CG   and  CD  
REMARK    4  A    between atoms: CD   and  CE  
ROOT
ATOM      1  CA  LYS A 131      29.867  25.555  16.977  1.00 20.52     0.186 C 
ENDROOT
BRANCH   1   2
ATOM      2  CB  LYS A 131      28.345  25.722  17.026  1.00 20.94     0.034 C 
BRANCH   2   3
ATOM      3  CG  LYS A 131      27.601  24.400  16.908  1.00 22.96     0.005 C 
BRANCH   3   4
ATOM      4  CD  LYS A 131      26.151  24.531  17.283  1.00 24.33     0.041 C 
BRANCH   4   5
ATOM      5  CE  LYS A 131      25.784  23.439  18.283  1.00 26.91     0.338 C 
ATOM      6  NZ  LYS A 131      25.114  22.310  17.596  1.00 27.40     0.618 N 
ENDBRANCH   4   5
ENDBRANCH   3   4
ENDBRANCH   2   3
ENDBRANCH   1   2
END_RES LYS A 131
BEGIN_RES LYS A 135
REMARK  4 active torsions:
REMARK  status: ('A' for Active; 'I' for Inactive)
REMARK    5  A    between atoms: CA   and  CB  
REMARK    6  A    between atoms: CB   and  CG  
REMARK    7  A    between atoms: CG   and  CD  
REMARK    8  A    between atoms: CD   and  CE  
ROOT
ATOM      7  CA  LYS A 135      33.193  34.663   9.290  1.00 25.02     0.186 C 
ENDROOT
BRANCH   7   8
ATOM      8  CB  LYS A 135      32.060  35.360  10.034  1.00 26.63     0.034 C 
BRANCH   8   9
ATOM      9  CG  LYS A 135      32.268  35.425  11.525  1.00 29.45     0.005 C 
BRANCH   9  10
ATOM     10  CD  LYS A 135      32.252  36.867  12.007  1.00 32.00     0.041 C 
BRANCH  10  11
ATOM     11  CE  LYS A 135      31.808  36.940  13.455  1.00 34.25     0.338 C 
ATOM     12  NZ  LYS A 135      32.596  36.005  14.306  1.00 35.99     0.618 N 
ENDBRANCH  10  11
ENDBRANCH   9  10
ENDBRANCH   8   9
ENDBRANCH   7   8
END_RES LYS A 135
