REMARK VINA RESULT:    -5.212      2.426      8.177
REMARK INTER + INTRA:         -21.498
REMARK INTER:                 -10.373
REMARK INTRA:                 -11.126
REMARK UNBOUND:                -8.212
REMARK SMILES CC(=O)N[C@@H]1[C@@H](O)C[C@](OC[C@H]2O[C@@H](O[C@H]3[C@H](O)[C@@H](O)[C@H](OCCN=[N+]=[N-])O[C@@H]3CO)[C@H](O)[C@@H](O)[C@H]2O)(C(=O)O)O[C@H]1C(O)[C@H](O)CNC(=O)OCc1cn(-c2ccc(CO)cn2)nn1
REMARK SMILES IDX 9 1 8 2 6 3 5 4 42 5 41 6 10 7 11 8 12 9 14 10 13 11 32 12
REMARK SMILES IDX 34 13 36 14 15 15 16 16 29 17 28 18 21 19 17 20 19 21 30 22
REMARK SMILES IDX 31 23 22 25 23 26 24 27 25 28 26 29 27 30 18 31 20 33 33 35
REMARK SMILES IDX 35 37 37 39 38 41 39 42 40 43 7 45 43 47 44 48 45 50 46 51
REMARK SMILES IDX 47 53 48 54 49 55 50 57 51 58 52 59 53 60 54 61 65 62 55 63
REMARK SMILES IDX 64 64 56 65 57 66 63 67 58 68 62 69 59 70 60 71 61 72 4 74
REMARK SMILES IDX 2 75 1 77 3 78
REMARK H PARENT 31 24 18 32 20 34 33 36 35 38 37 40 40 44 7 46 44 49 46 52
REMARK H PARENT 48 56 61 73 4 76
REMARK Flexibility Score: inf
ROOT
ATOM      1  C   UNL     1      24.281  36.545   9.493  1.00  0.00     0.272 C 
ATOM      2  C   UNL     1      23.381  35.443   9.073  1.00  0.00     0.113 C 
ATOM      3  C   UNL     1      21.937  35.734   9.374  1.00  0.00     0.145 C 
ATOM      4  C   UNL     1      21.578  37.128   8.898  1.00  0.00     0.142 C 
ATOM      5  C   UNL     1      22.551  38.113   9.399  1.00  0.00     0.178 C 
ATOM      6  O   UNL     1      23.840  37.795   9.141  1.00  0.00    -0.332 OA
ENDROOT
BRANCH   1   7
ATOM      7  O   UNL     1      25.575  36.423   9.016  1.00  0.00    -0.338 OA
BRANCH   7   8
ATOM      8  C   UNL     1      25.722  36.877   7.721  1.00  0.00     0.199 C 
BRANCH   8   9
ATOM      9  C   UNL     1      27.047  37.561   7.574  1.00  0.00     0.179 C 
ATOM     10  C   UNL     1      28.273  38.803   6.138  1.00  0.00     0.282 C 
ATOM     11  O   UNL     1      26.975  38.655   6.690  1.00  0.00    -0.341 OA
ATOM     12  C   UNL     1      29.280  38.843   7.213  1.00  0.00     0.202 C 
ATOM     13  C   UNL     1      28.739  39.035   8.620  1.00  0.00     0.179 C 
ATOM     14  C   UNL     1      27.560  38.099   8.869  1.00  0.00     0.177 C 
BRANCH  10  15
ATOM     15  O   UNL     1      28.282  39.904   5.274  1.00  0.00    -0.341 OA
BRANCH  15  16
ATOM     16  C   UNL     1      27.403  40.891   5.660  1.00  0.00     0.184 C 
ATOM     17  C   UNL     1      26.377  41.282   4.643  1.00  0.00     0.178 C 
ATOM     18  O   UNL     1      26.553  42.567   4.138  1.00  0.00    -0.341 OA
ATOM     19  C   UNL     1      27.789  42.767   3.578  1.00  0.00     0.281 C 
ATOM     20  C   UNL     1      28.260  42.142   5.930  1.00  0.00     0.180 C 
ATOM     21  C   UNL     1      28.914  42.445   4.574  1.00  0.00     0.202 C 
BRANCH  17  22
ATOM     22  C   UNL     1      25.022  41.332   5.373  1.00  0.00     0.191 C 
BRANCH  22  23
ATOM     23  O   UNL     1      24.800  40.117   6.039  1.00  0.00    -0.394 OA
ATOM     24  H   UNL     1      25.672  39.716   6.338  1.00  0.00     0.210 HD
ENDBRANCH  22  23
ENDBRANCH  17  22
BRANCH  19  25
ATOM     25  O   UNL     1      27.891  44.104   3.205  1.00  0.00    -0.350 OA
BRANCH  25  26
ATOM     26  C   UNL     1      29.171  44.592   3.272  1.00  0.00     0.169 C 
BRANCH  26  27
ATOM     27  C   UNL     1      29.099  46.042   3.735  1.00  0.00     0.119 C 
BRANCH  27  28
ATOM     28  N   UNL     1      29.976  46.251   4.879  1.00  0.00    -0.092 NA
ATOM     29  N   UNL     1      29.716  45.878   6.010  1.00  0.00     0.001 N 
ATOM     30  N   UNL     1      29.728  45.221   7.051  1.00  0.00    -0.003 NA
ENDBRANCH  27  28
ENDBRANCH  26  27
ENDBRANCH  25  26
ENDBRANCH  19  25
BRANCH  20  31
ATOM     31  O   UNL     1      27.534  43.190   6.427  1.00  0.00    -0.387 OA
ATOM     32  H   UNL     1      27.287  43.010   7.346  1.00  0.00     0.211 HD
ENDBRANCH  20  31
BRANCH  21  33
ATOM     33  O   UNL     1      29.568  41.277   4.191  1.00  0.00    -0.385 OA
ATOM     34  H   UNL     1      29.671  40.716   5.000  1.00  0.00     0.211 HD
ENDBRANCH  21  33
ENDBRANCH  15  16
ENDBRANCH  10  15
BRANCH  12  35
ATOM     35  O   UNL     1      30.015  37.635   7.197  1.00  0.00    -0.385 OA
ATOM     36  H   UNL     1      29.463  36.878   6.870  1.00  0.00     0.211 HD
ENDBRANCH  12  35
BRANCH  13  37
ATOM     37  O   UNL     1      28.440  40.360   8.888  1.00  0.00    -0.387 OA
ATOM     38  H   UNL     1      28.942  40.740   9.625  1.00  0.00     0.211 HD
ENDBRANCH  13  37
BRANCH  14  39
ATOM     39  O   UNL     1      26.599  38.818   9.546  1.00  0.00    -0.387 OA
ATOM     40  H   UNL     1      26.502  39.700   9.137  1.00  0.00     0.211 HD
ENDBRANCH  14  39
ENDBRANCH   8   9
ENDBRANCH   7   8
ENDBRANCH   1   7
BRANCH   1  41
ATOM     41  C   UNL     1      24.427  36.595  11.000  1.00  0.00     0.364 C 
ATOM     42  O   UNL     1      25.109  37.465  11.591  1.00  0.00    -0.246 OA
BRANCH  41  43
ATOM     43  O   UNL     1      23.798  35.657  11.793  1.00  0.00    -0.477 OA
ATOM     44  H   UNL     1      23.342  34.845  11.357  1.00  0.00     0.296 HD
ENDBRANCH  41  43
ENDBRANCH   1  41
BRANCH   3  45
ATOM     45  O   UNL     1      21.182  34.850   8.578  1.00  0.00    -0.391 OA
ATOM     46  H   UNL     1      20.296  35.188   8.357  1.00  0.00     0.211 HD
ENDBRANCH   3  45
BRANCH   5  47
ATOM     47  C   UNL     1      22.259  39.535   8.956  1.00  0.00     0.176 C 
BRANCH  47  48
ATOM     48  O   UNL     1      22.211  39.590   7.564  1.00  0.00    -0.388 OA
ATOM     49  H   UNL     1      21.415  39.118   7.224  1.00  0.00     0.211 HD
ENDBRANCH  47  48
BRANCH  47  50
ATOM     50  C   UNL     1      23.214  40.562   9.431  1.00  0.00     0.165 C 
BRANCH  50  51
ATOM     51  O   UNL     1      24.499  40.408   8.893  1.00  0.00    -0.388 OA
ATOM     52  H   UNL     1      24.926  39.574   9.138  1.00  0.00     0.211 HD
ENDBRANCH  50  51
BRANCH  50  53
ATOM     53  C   UNL     1      23.278  40.771  10.917  1.00  0.00     0.154 C 
BRANCH  53  54
ATOM     54  N   UNL     1      24.543  40.333  11.445  1.00  0.00    -0.319 N 
ATOM     55  C   UNL     1      25.145  41.033  12.517  1.00  0.00     0.407 C 
ATOM     56  H   UNL     1      25.029  39.476  11.023  1.00  0.00     0.167 HD
ATOM     57  O   UNL     1      24.625  42.037  13.051  1.00  0.00    -0.225 OA
BRANCH  55  58
ATOM     58  O   UNL     1      26.375  40.625  13.044  1.00  0.00    -0.443 OA
BRANCH  58  59
ATOM     59  C   UNL     1      27.532  40.764  12.269  1.00  0.00     0.294 C 
BRANCH  59  60
ATOM     60  C   UNL     1      28.484  39.663  12.337  1.00  0.00     0.121 A 
ATOM     61  C   UNL     1      28.310  38.461  12.977  1.00  0.00     0.146 A 
ATOM     62  N   UNL     1      29.711  39.618  11.792  1.00  0.00    -0.131 NA
ATOM     63  N   UNL     1      29.425  37.722  12.807  1.00  0.00    -0.202 N 
ATOM     64  N   UNL     1      30.248  38.459  12.084  1.00  0.00    -0.061 NA
BRANCH  63  65
ATOM     65  C   UNL     1      29.619  36.417  13.330  1.00  0.00     0.155 A 
ATOM     66  C   UNL     1      30.885  35.852  13.436  1.00  0.00     0.049 A 
ATOM     67  N   UNL     1      28.579  35.671  13.738  1.00  0.00    -0.237 NA
ATOM     68  C   UNL     1      31.054  34.570  13.942  1.00  0.00     0.011 A 
ATOM     69  C   UNL     1      28.721  34.419  14.236  1.00  0.00     0.119 A 
ATOM     70  C   UNL     1      29.968  33.829  14.352  1.00  0.00    -0.004 A 
BRANCH  70  71
ATOM     71  C   UNL     1      30.156  32.455  14.892  1.00  0.00     0.193 C 
BRANCH  71  72
ATOM     72  O   UNL     1      31.510  32.128  14.957  1.00  0.00    -0.392 OA
ATOM     73  H   UNL     1      31.660  31.162  15.021  1.00  0.00     0.211 HD
ENDBRANCH  71  72
ENDBRANCH  70  71
ENDBRANCH  63  65
ENDBRANCH  59  60
ENDBRANCH  58  59
ENDBRANCH  55  58
ENDBRANCH  53  54
ENDBRANCH  50  53
ENDBRANCH  47  50
ENDBRANCH   5  47
BRANCH   4  74
ATOM     74  N   UNL     1      20.207  37.439   9.308  1.00  0.00    -0.348 N 
ATOM     75  C   UNL     1      19.113  37.255   8.467  1.00  0.00     0.217 C 
ATOM     76  H   UNL     1      20.061  37.803  10.271  1.00  0.00     0.163 HD
ATOM     77  C   UNL     1      17.753  37.624   9.015  1.00  0.00     0.114 C 
ATOM     78  O   UNL     1      19.188  36.814   7.312  1.00  0.00    -0.275 OA
ENDBRANCH   4  74
TORSDOF 32
BEGIN_RES LYS A 131
REMARK  4 active torsions:
REMARK  status: ('A' for Active; 'I' for Inactive)
REMARK    1  A    between atoms: CA   and  CB  
REMARK    2  A    between atoms: CB   and  CG  
REMARK    3  A    between atoms: CG   and  CD  
REMARK    4  A    between atoms: CD   and  CE  
ROOT
ATOM      1  CA  LYS A 131      29.867  25.555  16.977  1.00 20.52     0.186 C 
ENDROOT
BRANCH   1   2
ATOM      2  CB  LYS A 131      28.345  25.722  17.026  1.00 20.94     0.034 C 
BRANCH   2   3
ATOM      3  CG  LYS A 131      27.599  24.475  16.577  1.00 22.96     0.005 C 
BRANCH   3   4
ATOM      4  CD  LYS A 131      27.159  23.629  17.740  1.00 24.33     0.041 C 
BRANCH   4   5
ATOM      5  CE  LYS A 131      25.643  23.468  17.707  1.00 26.91     0.338 C 
ATOM      6  NZ  LYS A 131      25.115  23.241  19.074  1.00 27.40     0.618 N 
ENDBRANCH   4   5
ENDBRANCH   3   4
ENDBRANCH   2   3
ENDBRANCH   1   2
END_RES LYS A 131
BEGIN_RES LYS A 135
REMARK  4 active torsions:
REMARK  status: ('A' for Active; 'I' for Inactive)
REMARK    5  A    between atoms: CA   and  CB  
REMARK    6  A    between atoms: CB   and  CG  
REMARK    7  A    between atoms: CG   and  CD  
REMARK    8  A    between atoms: CD   and  CE  
ROOT
ATOM      7  CA  LYS A 135      33.193  34.663   9.290  1.00 25.02     0.186 C 
ENDROOT
BRANCH   7   8
ATOM      8  CB  LYS A 135      32.060  35.360  10.034  1.00 26.63     0.034 C 
BRANCH   8   9
ATOM      9  CG  LYS A 135      30.741  34.637   9.937  1.00 29.45     0.005 C 
BRANCH   9  10
ATOM     10  CD  LYS A 135      30.341  34.443   8.483  1.00 32.00     0.041 C 
BRANCH  10  11
ATOM     11  CE  LYS A 135      28.832  34.481   8.336  1.00 34.25     0.338 C 
ATOM     12  NZ  LYS A 135      28.165  33.799   9.479  1.00 35.99     0.618 N 
ENDBRANCH  10  11
ENDBRANCH   9  10
ENDBRANCH   8   9
ENDBRANCH   7   8
END_RES LYS A 135
