REMARK VINA RESULT:    -4.466      5.396     10.720
REMARK INTER + INTRA:         -23.506
REMARK INTER:                 -11.369
REMARK INTRA:                 -12.137
REMARK UNBOUND:               -12.122
REMARK SMILES CC(=O)N[C@@H]1[C@@H](O)C[C@](OC[C@H]2O[C@@H](O[C@H]3[C@H](O)[C@@H](O)[C@H](OCCN=[N+]=[N-])O[C@@H]3CO)[C@H](O)[C@@H](O)[C@H]2O)(C(=O)O)O[C@H]1C(O)[C@H](O)CNC(=O)OCc1cn(-c2ccc(O)c([N+](=O)[O-])c2)nn1
REMARK SMILES IDX 9 1 8 2 6 3 5 4 42 5 41 6 10 7 11 8 12 9 14 10 13 11 32 12
REMARK SMILES IDX 34 13 36 14 15 15 16 16 29 17 28 18 21 19 17 20 19 21 30 22
REMARK SMILES IDX 31 23 22 25 23 26 24 27 25 28 26 29 27 30 18 31 20 33 33 35
REMARK SMILES IDX 35 37 37 39 38 41 39 42 40 43 7 45 43 47 44 48 45 50 46 51
REMARK SMILES IDX 47 53 48 54 49 55 50 57 51 58 52 59 53 60 54 61 67 62 55 63
REMARK SMILES IDX 66 64 56 65 57 66 65 67 58 68 61 69 59 70 62 71 63 72 64 73
REMARK SMILES IDX 60 74 4 76 2 77 1 79 3 80
REMARK H PARENT 31 24 18 32 20 34 33 36 35 38 37 40 40 44 7 46 44 49 46 52
REMARK H PARENT 48 56 60 75 4 78
REMARK Flexibility Score: inf
ROOT
ATOM      1  C   UNL     1      28.400  30.183  22.015  1.00  0.00     0.272 C 
ATOM      2  C   UNL     1      27.592  30.195  23.327  1.00  0.00     0.113 C 
ATOM      3  C   UNL     1      27.668  28.812  23.966  1.00  0.00     0.145 C 
ATOM      4  C   UNL     1      26.858  27.908  23.001  1.00  0.00     0.142 C 
ATOM      5  C   UNL     1      27.185  28.271  21.579  1.00  0.00     0.178 C 
ATOM      6  O   UNL     1      28.438  28.906  21.501  1.00  0.00    -0.332 OA
ENDROOT
BRANCH   1   7
ATOM      7  O   UNL     1      29.675  30.565  22.388  1.00  0.00    -0.338 OA
BRANCH   7   8
ATOM      8  C   UNL     1      30.402  31.262  21.472  1.00  0.00     0.199 C 
BRANCH   8   9
ATOM      9  C   UNL     1      31.760  30.525  21.371  1.00  0.00     0.179 C 
ATOM     10  C   UNL     1      32.894  28.990  22.598  1.00  0.00     0.282 C 
ATOM     11  O   UNL     1      32.007  30.069  22.631  1.00  0.00    -0.341 OA
ATOM     12  C   UNL     1      32.137  27.823  22.066  1.00  0.00     0.202 C 
ATOM     13  C   UNL     1      31.734  28.105  20.641  1.00  0.00     0.179 C 
ATOM     14  C   UNL     1      31.683  29.540  20.273  1.00  0.00     0.177 C 
BRANCH  10  15
ATOM     15  O   UNL     1      33.433  28.786  23.875  1.00  0.00    -0.341 OA
BRANCH  15  16
ATOM     16  C   UNL     1      34.685  29.367  23.920  1.00  0.00     0.184 C 
ATOM     17  C   UNL     1      35.795  28.469  24.344  1.00  0.00     0.178 C 
ATOM     18  O   UNL     1      36.989  29.115  24.045  1.00  0.00    -0.341 OA
ATOM     19  C   UNL     1      37.188  30.214  24.932  1.00  0.00     0.281 C 
ATOM     20  C   UNL     1      34.678  30.513  24.966  1.00  0.00     0.180 C 
ATOM     21  C   UNL     1      36.054  31.168  24.861  1.00  0.00     0.202 C 
BRANCH  17  22
ATOM     22  C   UNL     1      35.798  27.104  23.741  1.00  0.00     0.191 C 
BRANCH  22  23
ATOM     23  O   UNL     1      34.816  26.306  24.303  1.00  0.00    -0.394 OA
ATOM     24  H   UNL     1      34.700  25.504  23.701  1.00  0.00     0.210 HD
ENDBRANCH  22  23
ENDBRANCH  17  22
BRANCH  19  25
ATOM     25  O   UNL     1      38.351  30.804  24.450  1.00  0.00    -0.350 OA
BRANCH  25  26
ATOM     26  C   UNL     1      38.402  30.893  23.073  1.00  0.00     0.169 C 
BRANCH  26  27
ATOM     27  C   UNL     1      38.854  32.245  22.617  1.00  0.00     0.119 C 
BRANCH  27  28
ATOM     28  N   UNL     1      37.692  32.966  22.103  1.00  0.00    -0.092 NA
ATOM     29  N   UNL     1      36.761  32.322  21.570  1.00  0.00     0.001 N 
ATOM     30  N   UNL     1      35.615  31.860  21.424  1.00  0.00    -0.003 NA
ENDBRANCH  27  28
ENDBRANCH  26  27
ENDBRANCH  25  26
ENDBRANCH  19  25
BRANCH  20  31
ATOM     31  O   UNL     1      33.736  31.475  24.637  1.00  0.00    -0.387 OA
ATOM     32  H   UNL     1      32.879  31.072  24.329  1.00  0.00     0.211 HD
ENDBRANCH  20  31
BRANCH  21  33
ATOM     33  O   UNL     1      36.108  32.062  25.928  1.00  0.00    -0.385 OA
ATOM     34  H   UNL     1      36.107  31.599  26.788  1.00  0.00     0.211 HD
ENDBRANCH  21  33
ENDBRANCH  15  16
ENDBRANCH  10  15
BRANCH  12  35
ATOM     35  O   UNL     1      32.846  26.628  22.130  1.00  0.00    -0.385 OA
ATOM     36  H   UNL     1      33.698  26.743  22.641  1.00  0.00     0.211 HD
ENDBRANCH  12  35
BRANCH  13  37
ATOM     37  O   UNL     1      30.543  27.406  20.411  1.00  0.00    -0.387 OA
ATOM     38  H   UNL     1      30.137  27.794  19.589  1.00  0.00     0.211 HD
ENDBRANCH  13  37
BRANCH  14  39
ATOM     39  O   UNL     1      30.552  29.741  19.451  1.00  0.00    -0.387 OA
ATOM     40  H   UNL     1      30.289  30.684  19.399  1.00  0.00     0.211 HD
ENDBRANCH  14  39
ENDBRANCH   8   9
ENDBRANCH   7   8
ENDBRANCH   1   7
BRANCH   1  41
ATOM     41  C   UNL     1      27.801  31.211  21.172  1.00  0.00     0.364 C 
ATOM     42  O   UNL     1      27.213  32.251  21.574  1.00  0.00    -0.246 OA
BRANCH  41  43
ATOM     43  O   UNL     1      27.862  31.074  19.784  1.00  0.00    -0.477 OA
ATOM     44  H   UNL     1      27.661  30.200  19.309  1.00  0.00     0.296 HD
ENDBRANCH  41  43
ENDBRANCH   1  41
BRANCH   3  45
ATOM     45  O   UNL     1      28.961  28.371  24.065  1.00  0.00    -0.391 OA
ATOM     46  H   UNL     1      29.525  29.093  24.431  1.00  0.00     0.211 HD
ENDBRANCH   3  45
BRANCH   5  47
ATOM     47  C   UNL     1      27.297  27.013  20.754  1.00  0.00     0.176 C 
BRANCH  47  48
ATOM     48  O   UNL     1      26.337  26.118  21.199  1.00  0.00    -0.388 OA
ATOM     49  H   UNL     1      26.604  25.654  22.031  1.00  0.00     0.211 HD
ENDBRANCH  47  48
BRANCH  47  50
ATOM     50  C   UNL     1      27.120  27.227  19.272  1.00  0.00     0.165 C 
BRANCH  50  51
ATOM     51  O   UNL     1      28.166  28.121  18.918  1.00  0.00    -0.388 OA
ATOM     52  H   UNL     1      28.029  28.484  17.999  1.00  0.00     0.211 HD
ENDBRANCH  50  51
BRANCH  50  53
ATOM     53  C   UNL     1      25.839  27.945  18.959  1.00  0.00     0.154 C 
BRANCH  53  54
ATOM     54  N   UNL     1      26.114  29.178  18.270  1.00  0.00    -0.319 N 
ATOM     55  C   UNL     1      25.462  29.636  17.106  1.00  0.00     0.407 C 
ATOM     56  H   UNL     1      26.873  29.822  18.653  1.00  0.00     0.167 HD
ATOM     57  O   UNL     1      24.577  28.917  16.623  1.00  0.00    -0.225 OA
BRANCH  55  58
ATOM     58  O   UNL     1      25.737  30.824  16.471  1.00  0.00    -0.443 OA
BRANCH  58  59
ATOM     59  C   UNL     1      26.688  30.891  15.439  1.00  0.00     0.294 C 
BRANCH  59  60
ATOM     60  C   UNL     1      28.005  31.250  16.046  1.00  0.00     0.121 A 
ATOM     61  C   UNL     1      28.771  32.376  15.732  1.00  0.00     0.144 A 
ATOM     62  N   UNL     1      28.737  30.622  16.975  1.00  0.00    -0.131 NA
ATOM     63  N   UNL     1      29.879  32.360  16.464  1.00  0.00    -0.220 N 
ATOM     64  N   UNL     1      29.822  31.269  17.214  1.00  0.00    -0.062 NA
BRANCH  63  65
ATOM     65  C   UNL     1      30.939  33.331  16.442  1.00  0.00     0.073 A 
ATOM     66  C   UNL     1      31.316  33.984  17.576  1.00  0.00     0.033 A 
ATOM     67  C   UNL     1      31.609  33.635  15.288  1.00  0.00     0.118 A 
ATOM     68  C   UNL     1      32.324  34.918  17.606  1.00  0.00     0.056 A 
ATOM     69  C   UNL     1      32.647  34.588  15.288  1.00  0.00     0.312 A 
ATOM     70  C   UNL     1      33.030  35.246  16.427  1.00  0.00     0.194 A 
BRANCH  69  71
ATOM     71  N   UNL     1      33.285  34.836  14.060  1.00  0.00     0.066 N 
ATOM     72  O   UNL     1      34.508  34.506  13.964  1.00  0.00    -0.258 OA
ATOM     73  O   UNL     1      32.636  35.406  13.013  1.00  0.00    -0.258 OA
ENDBRANCH  69  71
BRANCH  70  74
ATOM     74  O   UNL     1      34.038  36.190  16.514  1.00  0.00    -0.502 OA
ATOM     75  H   UNL     1      33.884  37.145  16.453  1.00  0.00     0.293 HD
ENDBRANCH  70  74
ENDBRANCH  63  65
ENDBRANCH  59  60
ENDBRANCH  58  59
ENDBRANCH  55  58
ENDBRANCH  53  54
ENDBRANCH  50  53
ENDBRANCH  47  50
ENDBRANCH   5  47
BRANCH   4  76
ATOM     76  N   UNL     1      25.476  28.178  23.342  1.00  0.00    -0.348 N 
ATOM     77  C   UNL     1      24.615  27.143  23.836  1.00  0.00     0.217 C 
ATOM     78  H   UNL     1      25.073  29.127  23.238  1.00  0.00     0.163 HD
ATOM     79  C   UNL     1      23.205  27.443  24.179  1.00  0.00     0.114 C 
ATOM     80  O   UNL     1      25.091  25.976  23.971  1.00  0.00    -0.275 OA
ENDBRANCH   4  76
TORSDOF 32
BEGIN_RES LYS A 131
REMARK  4 active torsions:
REMARK  status: ('A' for Active; 'I' for Inactive)
REMARK    1  A    between atoms: CA   and  CB  
REMARK    2  A    between atoms: CB   and  CG  
REMARK    3  A    between atoms: CG   and  CD  
REMARK    4  A    between atoms: CD   and  CE  
ROOT
ATOM      1  CA  LYS A 131      29.867  25.555  16.977  1.00 20.52     0.186 C 
ENDROOT
BRANCH   1   2
ATOM      2  CB  LYS A 131      28.345  25.722  17.026  1.00 20.94     0.034 C 
BRANCH   2   3
ATOM      3  CG  LYS A 131      27.602  24.398  16.940  1.00 22.96     0.005 C 
BRANCH   3   4
ATOM      4  CD  LYS A 131      26.115  24.572  17.075  1.00 24.33     0.041 C 
BRANCH   4   5
ATOM      5  CE  LYS A 131      25.518  23.345  17.756  1.00 26.91     0.338 C 
ATOM      6  NZ  LYS A 131      25.786  23.378  19.213  1.00 27.40     0.618 N 
ENDBRANCH   4   5
ENDBRANCH   3   4
ENDBRANCH   2   3
ENDBRANCH   1   2
END_RES LYS A 131
BEGIN_RES LYS A 135
REMARK  4 active torsions:
REMARK  status: ('A' for Active; 'I' for Inactive)
REMARK    5  A    between atoms: CA   and  CB  
REMARK    6  A    between atoms: CB   and  CG  
REMARK    7  A    between atoms: CG   and  CD  
REMARK    8  A    between atoms: CD   and  CE  
ROOT
ATOM      7  CA  LYS A 135      33.193  34.663   9.290  1.00 25.02     0.186 C 
ENDROOT
BRANCH   7   8
ATOM      8  CB  LYS A 135      32.060  35.360  10.034  1.00 26.63     0.034 C 
BRANCH   8   9
ATOM      9  CG  LYS A 135      30.758  34.601   9.997  1.00 29.45     0.005 C 
BRANCH   9  10
ATOM     10  CD  LYS A 135      30.388  34.241   8.566  1.00 32.00     0.041 C 
BRANCH  10  11
ATOM     11  CE  LYS A 135      28.924  34.539   8.304  1.00 34.25     0.338 C 
ATOM     12  NZ  LYS A 135      28.762  35.420   7.114  1.00 35.99     0.618 N 
ENDBRANCH  10  11
ENDBRANCH   9  10
ENDBRANCH   8   9
ENDBRANCH   7   8
END_RES LYS A 135
