REMARK VINA RESULT:    -4.250      4.899      9.846
REMARK INTER + INTRA:         -22.277
REMARK INTER:                  -8.801
REMARK INTRA:                 -13.476
REMARK UNBOUND:               -11.069
REMARK SMILES COCC(C(N)=O)n1cc(COC(=O)NC[C@@H](O)C(O)[C@@H]2O[C@@](OC[C@H]3O[C@@H](O[C@H]4[C@H](O)[C@@H](O)[C@H](OCCN=[N+]=[N-])O[C@@H]4CO)[C@H](O)[C@@H](O)[C@H]3O)(C(=O)O)C[C@H](O)[C@H]2NC(C)=O)nn1
REMARK SMILES IDX 23 1 55 2 56 3 58 4 21 5 22 6 24 7 25 8 26 9 28 10 27 11
REMARK SMILES IDX 46 12 48 13 50 14 29 15 30 16 43 17 42 18 35 19 31 20 33 21
REMARK SMILES IDX 44 22 45 23 36 25 37 26 38 27 39 28 40 29 41 30 32 31 34 33
REMARK SMILES IDX 47 35 49 37 51 39 52 41 53 42 54 43 57 45 19 47 20 48 17 50
REMARK SMILES IDX 18 51 16 53 15 54 13 55 14 57 12 58 11 59 10 60 9 61 63 62
REMARK SMILES IDX 8 63 64 64 4 65 3 66 2 67 1 68 5 69 7 70 6 71 59 74 60 75
REMARK SMILES IDX 61 77 62 78
REMARK H PARENT 45 24 32 32 34 34 47 36 49 38 51 40 54 44 57 46 20 49 18 52
REMARK H PARENT 15 56 6 72 6 73 59 76
REMARK Flexibility Score: inf
ROOT
ATOM      1  C   UNL     1      27.631  39.033   5.976  1.00  0.00     0.272 C 
ATOM      2  C   UNL     1      27.361  39.547   4.615  1.00  0.00     0.113 C 
ATOM      3  C   UNL     1      27.345  41.021   4.437  1.00  0.00     0.145 C 
ATOM      4  C   UNL     1      26.711  41.680   5.632  1.00  0.00     0.142 C 
ATOM      5  C   UNL     1      25.949  40.601   6.386  1.00  0.00     0.178 C 
ATOM      6  O   UNL     1      26.838  39.699   6.910  1.00  0.00    -0.332 OA
ENDROOT
BRANCH   1   7
ATOM      7  O   UNL     1      28.921  39.087   6.426  1.00  0.00    -0.338 OA
BRANCH   7   8
ATOM      8  C   UNL     1      29.141  38.950   7.756  1.00  0.00     0.199 C 
BRANCH   8   9
ATOM      9  C   UNL     1      29.657  40.243   8.402  1.00  0.00     0.179 C 
ATOM     10  C   UNL     1      30.098  39.780  10.635  1.00  0.00     0.282 C 
ATOM     11  O   UNL     1      29.251  40.359   9.701  1.00  0.00    -0.341 OA
ATOM     12  C   UNL     1      31.510  40.238  10.515  1.00  0.00     0.202 C 
ATOM     13  C   UNL     1      32.064  40.013   9.147  1.00  0.00     0.179 C 
ATOM     14  C   UNL     1      31.096  40.498   8.128  1.00  0.00     0.177 C 
BRANCH  10  15
ATOM     15  O   UNL     1      30.009  38.399  10.649  1.00  0.00    -0.341 OA
BRANCH  15  16
ATOM     16  C   UNL     1      29.349  37.956  11.794  1.00  0.00     0.184 C 
ATOM     17  C   UNL     1      30.081  36.952  12.601  1.00  0.00     0.178 C 
ATOM     18  O   UNL     1      29.455  36.700  13.796  1.00  0.00    -0.341 OA
ATOM     19  C   UNL     1      28.064  36.813  13.759  1.00  0.00     0.281 C 
ATOM     20  C   UNL     1      28.066  37.271  11.289  1.00  0.00     0.180 C 
ATOM     21  C   UNL     1      27.525  36.425  12.391  1.00  0.00     0.202 C 
BRANCH  17  22
ATOM     22  C   UNL     1      31.514  37.325  12.929  1.00  0.00     0.191 C 
BRANCH  22  23
ATOM     23  O   UNL     1      32.316  37.162  11.802  1.00  0.00    -0.394 OA
ATOM     24  H   UNL     1      33.189  37.610  11.899  1.00  0.00     0.210 HD
ENDBRANCH  22  23
ENDBRANCH  17  22
BRANCH  19  25
ATOM     25  O   UNL     1      27.696  38.051  14.151  1.00  0.00    -0.350 OA
BRANCH  25  26
ATOM     26  C   UNL     1      28.324  38.668  15.177  1.00  0.00     0.169 C 
BRANCH  26  27
ATOM     27  C   UNL     1      28.961  39.989  14.920  1.00  0.00     0.119 C 
BRANCH  27  28
ATOM     28  N   UNL     1      28.035  40.994  14.506  1.00  0.00    -0.092 NA
ATOM     29  N   UNL     1      27.744  41.115  13.319  1.00  0.00     0.001 N 
ATOM     30  N   UNL     1      27.064  40.993  12.287  1.00  0.00    -0.003 NA
ENDBRANCH  27  28
ENDBRANCH  26  27
ENDBRANCH  25  26
ENDBRANCH  19  25
BRANCH  20  31
ATOM     31  O   UNL     1      27.149  38.239  10.886  1.00  0.00    -0.387 OA
ATOM     32  H   UNL     1      26.666  38.516  11.699  1.00  0.00     0.211 HD
ENDBRANCH  20  31
BRANCH  21  33
ATOM     33  O   UNL     1      27.872  35.070  12.201  1.00  0.00    -0.385 OA
ATOM     34  H   UNL     1      27.122  34.607  11.727  1.00  0.00     0.211 HD
ENDBRANCH  21  33
ENDBRANCH  15  16
ENDBRANCH  10  15
BRANCH  12  35
ATOM     35  O   UNL     1      31.506  41.630  10.725  1.00  0.00    -0.385 OA
ATOM     36  H   UNL     1      30.640  42.018  10.477  1.00  0.00     0.211 HD
ENDBRANCH  12  35
BRANCH  13  37
ATOM     37  O   UNL     1      32.497  38.702   8.949  1.00  0.00    -0.387 OA
ATOM     38  H   UNL     1      32.799  38.369   9.837  1.00  0.00     0.211 HD
ENDBRANCH  13  37
BRANCH  14  39
ATOM     39  O   UNL     1      31.406  39.993   6.864  1.00  0.00    -0.387 OA
ATOM     40  H   UNL     1      32.290  40.330   6.558  1.00  0.00     0.211 HD
ENDBRANCH  14  39
ENDBRANCH   8   9
ENDBRANCH   7   8
ENDBRANCH   1   7
BRANCH   1  41
ATOM     41  C   UNL     1      27.130  37.612   6.016  1.00  0.00     0.364 C 
ATOM     42  O   UNL     1      26.396  37.205   6.937  1.00  0.00    -0.246 OA
BRANCH  41  43
ATOM     43  O   UNL     1      27.501  36.761   5.008  1.00  0.00    -0.477 OA
ATOM     44  H   UNL     1      28.376  36.842   4.514  1.00  0.00     0.296 HD
ENDBRANCH  41  43
ENDBRANCH   1  41
BRANCH   3  45
ATOM     45  O   UNL     1      28.586  41.570   4.128  1.00  0.00    -0.391 OA
ATOM     46  H   UNL     1      29.130  40.913   3.626  1.00  0.00     0.211 HD
ENDBRANCH   3  45
BRANCH   5  47
ATOM     47  C   UNL     1      25.148  41.233   7.507  1.00  0.00     0.176 C 
BRANCH  47  48
ATOM     48  O   UNL     1      24.212  40.399   8.039  1.00  0.00    -0.388 OA
ATOM     49  H   UNL     1      23.278  40.601   7.894  1.00  0.00     0.211 HD
ENDBRANCH  47  48
BRANCH  47  50
ATOM     50  C   UNL     1      26.071  41.740   8.581  1.00  0.00     0.165 C 
BRANCH  50  51
ATOM     51  O   UNL     1      26.407  40.618   9.378  1.00  0.00    -0.388 OA
ATOM     52  H   UNL     1      26.326  40.866  10.339  1.00  0.00     0.211 HD
ENDBRANCH  50  51
BRANCH  50  53
ATOM     53  C   UNL     1      25.461  42.739   9.506  1.00  0.00     0.154 C 
BRANCH  53  54
ATOM     54  N   UNL     1      24.693  42.208  10.583  1.00  0.00    -0.319 N 
ATOM     55  C   UNL     1      23.277  42.096  10.542  1.00  0.00     0.407 C 
ATOM     56  H   UNL     1      25.163  41.873  11.468  1.00  0.00     0.167 HD
ATOM     57  O   UNL     1      22.669  42.476   9.530  1.00  0.00    -0.225 OA
BRANCH  55  58
ATOM     58  O   UNL     1      22.546  41.568  11.611  1.00  0.00    -0.443 OA
BRANCH  58  59
ATOM     59  C   UNL     1      22.845  40.334  12.193  1.00  0.00     0.294 C 
BRANCH  59  60
ATOM     60  C   UNL     1      23.263  39.290  11.250  1.00  0.00     0.120 A 
ATOM     61  C   UNL     1      22.426  38.330  10.737  1.00  0.00     0.139 A 
ATOM     62  N   UNL     1      24.494  39.115  10.755  1.00  0.00    -0.132 NA
ATOM     63  N   UNL     1      23.180  37.581   9.929  1.00  0.00    -0.237 N 
ATOM     64  N   UNL     1      24.424  38.067   9.950  1.00  0.00    -0.066 NA
BRANCH  63  65
ATOM     65  C   UNL     1      22.712  36.440   9.166  1.00  0.00     0.223 C 
BRANCH  65  66
ATOM     66  C   UNL     1      21.529  35.853   9.865  1.00  0.00     0.197 C 
BRANCH  66  67
ATOM     67  O   UNL     1      21.896  34.928  10.810  1.00  0.00    -0.382 OA
ATOM     68  C   UNL     1      20.836  34.559  11.595  1.00  0.00     0.195 C 
ENDBRANCH  66  67
ENDBRANCH  65  66
BRANCH  65  69
ATOM     69  C   UNL     1      22.323  36.964   7.814  1.00  0.00     0.244 C 
ATOM     70  O   UNL     1      21.199  36.672   7.360  1.00  0.00    -0.273 OA
ATOM     71  N   UNL     1      23.243  37.772   7.100  1.00  0.00    -0.368 N 
ATOM     72  H   UNL     1      23.775  37.455   6.273  1.00  0.00     0.159 HD
ATOM     73  H   UNL     1      23.389  38.748   7.437  1.00  0.00     0.159 HD
ENDBRANCH  65  69
ENDBRANCH  63  65
ENDBRANCH  59  60
ENDBRANCH  58  59
ENDBRANCH  55  58
ENDBRANCH  53  54
ENDBRANCH  50  53
ENDBRANCH  47  50
ENDBRANCH   5  47
BRANCH   4  74
ATOM     74  N   UNL     1      25.836  42.778   5.228  1.00  0.00    -0.348 N 
ATOM     75  C   UNL     1      26.092  44.140   5.543  1.00  0.00     0.217 C 
ATOM     76  H   UNL     1      24.966  42.587   4.672  1.00  0.00     0.163 HD
ATOM     77  C   UNL     1      25.227  45.263   5.145  1.00  0.00     0.114 C 
ATOM     78  O   UNL     1      27.150  44.390   6.216  1.00  0.00    -0.275 OA
ENDBRANCH   4  74
TORSDOF 33
BEGIN_RES LYS A 131
REMARK  4 active torsions:
REMARK  status: ('A' for Active; 'I' for Inactive)
REMARK    1  A    between atoms: CA   and  CB  
REMARK    2  A    between atoms: CB   and  CG  
REMARK    3  A    between atoms: CG   and  CD  
REMARK    4  A    between atoms: CD   and  CE  
ROOT
ATOM      1  CA  LYS A 131      29.867  25.555  16.977  1.00 20.52     0.186 C 
ENDROOT
BRANCH   1   2
ATOM      2  CB  LYS A 131      28.345  25.722  17.026  1.00 20.94     0.034 C 
BRANCH   2   3
ATOM      3  CG  LYS A 131      27.601  24.406  16.861  1.00 22.96     0.005 C 
BRANCH   3   4
ATOM      4  CD  LYS A 131      26.171  24.503  17.315  1.00 24.33     0.041 C 
BRANCH   4   5
ATOM      5  CE  LYS A 131      25.657  23.115  17.683  1.00 26.91     0.338 C 
ATOM      6  NZ  LYS A 131      25.325  23.050  19.126  1.00 27.40     0.618 N 
ENDBRANCH   4   5
ENDBRANCH   3   4
ENDBRANCH   2   3
ENDBRANCH   1   2
END_RES LYS A 131
BEGIN_RES LYS A 135
REMARK  4 active torsions:
REMARK  status: ('A' for Active; 'I' for Inactive)
REMARK    5  A    between atoms: CA   and  CB  
REMARK    6  A    between atoms: CB   and  CG  
REMARK    7  A    between atoms: CG   and  CD  
REMARK    8  A    between atoms: CD   and  CE  
ROOT
ATOM      7  CA  LYS A 135      33.193  34.663   9.290  1.00 25.02     0.186 C 
ENDROOT
BRANCH   7   8
ATOM      8  CB  LYS A 135      32.060  35.360  10.034  1.00 26.63     0.034 C 
BRANCH   8   9
ATOM      9  CG  LYS A 135      30.758  35.370   9.276  1.00 29.45     0.005 C 
BRANCH   9  10
ATOM     10  CD  LYS A 135      30.009  34.062   9.477  1.00 32.00     0.041 C 
BRANCH  10  11
ATOM     11  CE  LYS A 135      28.604  34.160   8.916  1.00 34.25     0.338 C 
ATOM     12  NZ  LYS A 135      28.589  34.922   7.637  1.00 35.99     0.618 N 
ENDBRANCH  10  11
ENDBRANCH   9  10
ENDBRANCH   8   9
ENDBRANCH   7   8
END_RES LYS A 135
