REMARK VINA RESULT:    -5.221      1.787      2.490
REMARK INTER + INTRA:         -22.602
REMARK INTER:                 -12.389
REMARK INTRA:                 -10.213
REMARK UNBOUND:                -9.445
REMARK SMILES CC(=O)N[C@@H]1[C@@H](O)C[C@](OC[C@H]2O[C@@H](O[C@H]3[C@H](O)[C@@H](O)[C@H](OCCN=[N+]=[N-])O[C@@H]3CO)[C@H](O)[C@@H](O)[C@H]2O)(C(=O)O)O[C@H]1C(O)[C@H](O)CNC(=O)OCc1cn(Cc2cccc(Br)c2)nn1
REMARK SMILES IDX 9 1 8 2 6 3 5 4 42 5 41 6 10 7 11 8 12 9 14 10 13 11 32 12
REMARK SMILES IDX 34 13 36 14 15 15 16 16 29 17 28 18 21 19 17 20 19 21 30 22
REMARK SMILES IDX 31 23 22 25 23 26 24 27 25 28 26 29 27 30 18 31 20 33 33 35
REMARK SMILES IDX 35 37 37 39 38 41 39 42 40 43 7 45 43 47 44 48 45 50 46 51
REMARK SMILES IDX 47 53 48 54 49 55 50 57 51 58 52 59 53 60 54 61 65 62 55 63
REMARK SMILES IDX 64 64 56 65 57 66 58 67 63 68 59 69 61 70 60 71 62 72 4 73
REMARK SMILES IDX 2 74 1 76 3 77
REMARK H PARENT 31 24 18 32 20 34 33 36 35 38 37 40 40 44 7 46 44 49 46 52
REMARK H PARENT 48 56 4 75
REMARK Flexibility Score: inf
ROOT
ATOM      1  C   UNL     1      29.664  36.540  13.610  1.00  0.00     0.272 C 
ATOM      2  C   UNL     1      30.305  37.445  14.593  1.00  0.00     0.113 C 
ATOM      3  C   UNL     1      31.285  36.789  15.513  1.00  0.00     0.145 C 
ATOM      4  C   UNL     1      30.919  35.359  15.841  1.00  0.00     0.142 C 
ATOM      5  C   UNL     1      30.169  34.662  14.795  1.00  0.00     0.178 C 
ATOM      6  O   UNL     1      30.118  35.251  13.571  1.00  0.00    -0.332 OA
ENDROOT
BRANCH   1   7
ATOM      7  O   UNL     1      29.778  37.122  12.308  1.00  0.00    -0.338 OA
BRANCH   7   8
ATOM      8  C   UNL     1      30.951  37.798  12.136  1.00  0.00     0.199 C 
BRANCH   8   9
ATOM      9  C   UNL     1      31.106  38.246  10.667  1.00  0.00     0.179 C 
ATOM     10  C   UNL     1      29.725  38.428   8.784  1.00  0.00     0.282 C 
ATOM     11  O   UNL     1      29.994  37.808  10.027  1.00  0.00    -0.341 OA
ATOM     12  C   UNL     1      30.882  39.196   8.280  1.00  0.00     0.202 C 
ATOM     13  C   UNL     1      31.400  40.218   9.276  1.00  0.00     0.179 C 
ATOM     14  C   UNL     1      31.116  39.759  10.696  1.00  0.00     0.177 C 
BRANCH  10  15
ATOM     15  O   UNL     1      28.550  39.106   8.999  1.00  0.00    -0.341 OA
BRANCH  15  16
ATOM     16  C   UNL     1      27.462  38.375   9.314  1.00  0.00     0.184 C 
ATOM     17  C   UNL     1      26.417  38.555   8.243  1.00  0.00     0.178 C 
ATOM     18  O   UNL     1      25.372  37.667   8.485  1.00  0.00    -0.341 OA
ATOM     19  C   UNL     1      24.676  37.940   9.664  1.00  0.00     0.281 C 
ATOM     20  C   UNL     1      26.762  38.825  10.593  1.00  0.00     0.180 C 
ATOM     21  C   UNL     1      25.652  37.784  10.805  1.00  0.00     0.202 C 
BRANCH  17  22
ATOM     22  C   UNL     1      27.007  38.216   6.915  1.00  0.00     0.191 C 
BRANCH  22  23
ATOM     23  O   UNL     1      27.403  39.358   6.243  1.00  0.00    -0.394 OA
ATOM     24  H   UNL     1      26.838  39.442   5.432  1.00  0.00     0.210 HD
ENDBRANCH  22  23
ENDBRANCH  17  22
BRANCH  19  25
ATOM     25  O   UNL     1      23.636  37.035   9.713  1.00  0.00    -0.350 OA
BRANCH  25  26
ATOM     26  C   UNL     1      23.999  35.734   9.923  1.00  0.00     0.169 C 
BRANCH  26  27
ATOM     27  C   UNL     1      23.045  34.952  10.798  1.00  0.00     0.119 C 
BRANCH  27  28
ATOM     28  N   UNL     1      22.912  35.679  12.040  1.00  0.00    -0.092 NA
ATOM     29  N   UNL     1      23.634  35.519  13.013  1.00  0.00     0.001 N 
ATOM     30  N   UNL     1      24.494  35.383  13.881  1.00  0.00    -0.003 NA
ENDBRANCH  27  28
ENDBRANCH  26  27
ENDBRANCH  25  26
ENDBRANCH  19  25
BRANCH  20  31
ATOM     31  O   UNL     1      27.561  38.806  11.700  1.00  0.00    -0.387 OA
ATOM     32  H   UNL     1      27.315  39.443  12.408  1.00  0.00     0.211 HD
ENDBRANCH  20  31
BRANCH  21  33
ATOM     33  O   UNL     1      25.118  38.016  12.045  1.00  0.00    -0.385 OA
ATOM     34  H   UNL     1      24.201  38.439  11.999  1.00  0.00     0.211 HD
ENDBRANCH  21  33
ENDBRANCH  15  16
ENDBRANCH  10  15
BRANCH  12  35
ATOM     35  O   UNL     1      31.926  38.269   8.027  1.00  0.00    -0.385 OA
ATOM     36  H   UNL     1      32.615  38.702   7.461  1.00  0.00     0.211 HD
ENDBRANCH  12  35
BRANCH  13  37
ATOM     37  O   UNL     1      30.924  41.500   9.019  1.00  0.00    -0.387 OA
ATOM     38  H   UNL     1      29.943  41.433   8.784  1.00  0.00     0.211 HD
ENDBRANCH  13  37
BRANCH  14  39
ATOM     39  O   UNL     1      29.908  40.193  11.188  1.00  0.00    -0.387 OA
ATOM     40  H   UNL     1      29.750  41.154  10.936  1.00  0.00     0.211 HD
ENDBRANCH  14  39
ENDBRANCH   8   9
ENDBRANCH   7   8
ENDBRANCH   1   7
BRANCH   1  41
ATOM     41  C   UNL     1      28.191  36.522  13.854  1.00  0.00     0.364 C 
ATOM     42  O   UNL     1      27.732  37.070  14.918  1.00  0.00    -0.246 OA
BRANCH  41  43
ATOM     43  O   UNL     1      27.249  35.962  13.038  1.00  0.00    -0.477 OA
ATOM     44  H   UNL     1      26.954  34.998  13.239  1.00  0.00     0.296 HD
ENDBRANCH  41  43
ENDBRANCH   1  41
BRANCH   3  45
ATOM     45  O   UNL     1      32.588  36.925  15.057  1.00  0.00    -0.391 OA
ATOM     46  H   UNL     1      32.663  37.393  14.197  1.00  0.00     0.211 HD
ENDBRANCH   3  45
BRANCH   5  47
ATOM     47  C   UNL     1      30.606  33.197  14.630  1.00  0.00     0.176 C 
BRANCH  47  48
ATOM     48  O   UNL     1      31.722  33.037  15.546  1.00  0.00    -0.388 OA
ATOM     49  H   UNL     1      32.429  33.651  15.220  1.00  0.00     0.211 HD
ENDBRANCH  47  48
BRANCH  47  50
ATOM     50  C   UNL     1      29.592  32.189  15.031  1.00  0.00     0.165 C 
BRANCH  50  51
ATOM     51  O   UNL     1      28.438  32.972  15.411  1.00  0.00    -0.388 OA
ATOM     52  H   UNL     1      27.692  32.326  15.601  1.00  0.00     0.211 HD
ENDBRANCH  50  51
BRANCH  50  53
ATOM     53  C   UNL     1      29.866  31.367  16.245  1.00  0.00     0.154 C 
BRANCH  53  54
ATOM     54  N   UNL     1      28.809  30.420  16.565  1.00  0.00    -0.319 N 
ATOM     55  C   UNL     1      28.095  30.571  17.780  1.00  0.00     0.407 C 
ATOM     56  H   UNL     1      28.565  29.640  15.930  1.00  0.00     0.167 HD
ATOM     57  O   UNL     1      28.380  31.514  18.570  1.00  0.00    -0.225 OA
BRANCH  55  58
ATOM     58  O   UNL     1      27.068  29.694  18.128  1.00  0.00    -0.443 OA
BRANCH  58  59
ATOM     59  C   UNL     1      25.714  30.151  17.999  1.00  0.00     0.294 C 
BRANCH  59  60
ATOM     60  C   UNL     1      25.519  30.634  16.613  1.00  0.00     0.120 A 
ATOM     61  C   UNL     1      25.114  29.925  15.509  1.00  0.00     0.138 A 
ATOM     62  N   UNL     1      25.717  31.898  16.216  1.00  0.00    -0.132 NA
ATOM     63  N   UNL     1      25.081  30.787  14.475  1.00  0.00    -0.248 N 
ATOM     64  N   UNL     1      25.452  31.975  14.927  1.00  0.00    -0.067 NA
BRANCH  63  65
ATOM     65  C   UNL     1      24.701  30.440  13.109  1.00  0.00     0.181 C 
BRANCH  65  66
ATOM     66  C   UNL     1      23.255  30.690  12.872  1.00  0.00    -0.025 A 
ATOM     67  C   UNL     1      22.739  31.967  12.958  1.00  0.00     0.006 A 
ATOM     68  C   UNL     1      22.367  29.688  12.564  1.00  0.00     0.021 A 
ATOM     69  C   UNL     1      21.411  32.263  12.754  1.00  0.00     0.002 A 
ATOM     70  C   UNL     1      21.033  29.949  12.353  1.00  0.00     0.018 A 
ATOM     71  C   UNL     1      20.527  31.221  12.440  1.00  0.00     0.016 A 
ATOM     72  Br  UNL     1      19.793  28.556  11.922  1.00  0.00    -0.051 Br
ENDBRANCH  65  66
ENDBRANCH  63  65
ENDBRANCH  59  60
ENDBRANCH  58  59
ENDBRANCH  55  58
ENDBRANCH  53  54
ENDBRANCH  50  53
ENDBRANCH  47  50
ENDBRANCH   5  47
BRANCH   4  73
ATOM     73  N   UNL     1      30.166  35.333  17.122  1.00  0.00    -0.348 N 
ATOM     74  C   UNL     1      30.689  34.654  18.250  1.00  0.00     0.217 C 
ATOM     75  H   UNL     1      29.237  35.816  17.213  1.00  0.00     0.163 HD
ATOM     76  C   UNL     1      29.945  34.614  19.557  1.00  0.00     0.114 C 
ATOM     77  O   UNL     1      31.803  34.075  18.142  1.00  0.00    -0.275 OA
ENDBRANCH   4  73
TORSDOF 31
BEGIN_RES LYS A 131
REMARK  4 active torsions:
REMARK  status: ('A' for Active; 'I' for Inactive)
REMARK    1  A    between atoms: CA   and  CB  
REMARK    2  A    between atoms: CB   and  CG  
REMARK    3  A    between atoms: CG   and  CD  
REMARK    4  A    between atoms: CD   and  CE  
ROOT
ATOM      1  CA  LYS A 131      29.867  25.555  16.977  1.00 20.52     0.186 C 
ENDROOT
BRANCH   1   2
ATOM      2  CB  LYS A 131      28.345  25.722  17.026  1.00 20.94     0.034 C 
BRANCH   2   3
ATOM      3  CG  LYS A 131      27.602  24.398  16.930  1.00 22.96     0.005 C 
BRANCH   3   4
ATOM      4  CD  LYS A 131      26.357  24.385  17.772  1.00 24.33     0.041 C 
BRANCH   4   5
ATOM      5  CE  LYS A 131      26.252  25.695  18.547  1.00 26.91     0.338 C 
ATOM      6  NZ  LYS A 131      25.124  26.510  18.038  1.00 27.40     0.618 N 
ENDBRANCH   4   5
ENDBRANCH   3   4
ENDBRANCH   2   3
ENDBRANCH   1   2
END_RES LYS A 131
BEGIN_RES LYS A 135
REMARK  4 active torsions:
REMARK  status: ('A' for Active; 'I' for Inactive)
REMARK    5  A    between atoms: CA   and  CB  
REMARK    6  A    between atoms: CB   and  CG  
REMARK    7  A    between atoms: CG   and  CD  
REMARK    8  A    between atoms: CD   and  CE  
ROOT
ATOM      7  CA  LYS A 135      33.193  34.663   9.290  1.00 25.02     0.186 C 
ENDROOT
BRANCH   7   8
ATOM      8  CB  LYS A 135      32.060  35.360  10.034  1.00 26.63     0.034 C 
BRANCH   8   9
ATOM      9  CG  LYS A 135      30.731  34.663   9.897  1.00 29.45     0.005 C 
BRANCH   9  10
ATOM     10  CD  LYS A 135      30.335  34.544   8.433  1.00 32.00     0.041 C 
BRANCH  10  11
ATOM     11  CE  LYS A 135      28.830  34.644   8.279  1.00 34.25     0.338 C 
ATOM     12  NZ  LYS A 135      28.170  34.876   9.593  1.00 35.99     0.618 N 
ENDBRANCH  10  11
ENDBRANCH   9  10
ENDBRANCH   8   9
ENDBRANCH   7   8
END_RES LYS A 135
