REMARK VINA RESULT:    -4.673      3.825      9.340
REMARK INTER + INTRA:         -23.801
REMARK INTER:                 -13.013
REMARK INTRA:                 -10.789
REMARK UNBOUND:               -11.071
REMARK SMILES CC(=O)N[C@@H]1[C@@H](O)C[C@](OC[C@H]2O[C@@H](O[C@H]3[C@H](O)[C@@H](O)[C@H](OCCN=[N+]=[N-])O[C@@H]3CO)[C@H](O)[C@@H](O)[C@H]2O)(C(=O)O)O[C@H]1C(O)[C@H](O)CNC(=O)OCc1cn(CC(O)CCc2ccccc2)nn1
REMARK SMILES IDX 43 1 42 2 9 3 8 4 41 5 6 6 5 7 10 8 11 9 12 10 14 11 13 12
REMARK SMILES IDX 32 13 34 14 36 15 15 16 16 17 29 18 28 19 21 20 17 21 19 22
REMARK SMILES IDX 30 23 31 24 22 26 23 27 24 28 25 29 26 30 27 31 18 32 20 34
REMARK SMILES IDX 33 36 35 38 37 40 38 42 39 43 40 44 7 46 4 48 2 49 1 51 3 52
REMARK SMILES IDX 44 53 45 55 46 56 47 58 48 59 49 60 50 62 51 63 52 64 53 65
REMARK SMILES IDX 54 66 68 67 55 68 67 69 56 70 57 71 58 72 59 74 60 75 61 76
REMARK SMILES IDX 62 77 66 78 63 79 65 80 64 81
REMARK H PARENT 31 25 18 33 20 35 33 37 35 39 37 41 40 45 7 47 4 50 44 54
REMARK H PARENT 46 57 48 61 58 73
REMARK Flexibility Score: inf
ROOT
ATOM      1  C   UNL     1      23.685  35.647  16.017  1.00  0.00     0.176 C 
ENDROOT
BRANCH   1   2
ATOM      2  C   UNL     1      24.788  35.585  14.943  1.00  0.00     0.178 C 
ATOM      3  C   UNL     1      24.700  34.432  12.872  1.00  0.00     0.272 C 
ATOM      4  C   UNL     1      25.146  33.220  13.621  1.00  0.00     0.113 C 
ATOM      5  O   UNL     1      24.219  35.358  13.758  1.00  0.00    -0.332 OA
ATOM      6  C   UNL     1      26.217  33.553  14.597  1.00  0.00     0.145 C 
ATOM      7  C   UNL     1      25.891  34.739  15.453  1.00  0.00     0.142 C 
BRANCH   3   8
ATOM      8  O   UNL     1      23.740  34.091  11.899  1.00  0.00    -0.338 OA
BRANCH   8   9
ATOM      9  C   UNL     1      22.528  34.672  12.012  1.00  0.00     0.199 C 
BRANCH   9  10
ATOM     10  C   UNL     1      22.331  35.771  10.940  1.00  0.00     0.179 C 
ATOM     11  C   UNL     1      22.934  36.502   8.879  1.00  0.00     0.282 C 
ATOM     12  O   UNL     1      23.215  35.664   9.927  1.00  0.00    -0.341 OA
ATOM     13  C   UNL     1      21.544  36.036   8.360  1.00  0.00     0.202 C 
ATOM     14  C   UNL     1      20.597  36.628   9.409  1.00  0.00     0.179 C 
ATOM     15  C   UNL     1      20.875  35.826  10.651  1.00  0.00     0.177 C 
BRANCH  11  16
ATOM     16  O   UNL     1      23.815  36.345   7.868  1.00  0.00    -0.341 OA
BRANCH  16  17
ATOM     17  C   UNL     1      24.950  37.120   7.830  1.00  0.00     0.184 C 
ATOM     18  C   UNL     1      26.170  36.423   8.333  1.00  0.00     0.178 C 
ATOM     19  O   UNL     1      26.847  37.007   9.356  1.00  0.00    -0.341 OA
ATOM     20  C   UNL     1      26.835  38.367   9.448  1.00  0.00     0.281 C 
ATOM     21  C   UNL     1      24.612  38.429   8.484  1.00  0.00     0.180 C 
ATOM     22  C   UNL     1      25.407  38.796   9.684  1.00  0.00     0.202 C 
BRANCH  18  23
ATOM     23  C   UNL     1      27.143  36.234   7.190  1.00  0.00     0.191 C 
BRANCH  23  24
ATOM     24  O   UNL     1      26.836  37.068   6.116  1.00  0.00    -0.394 OA
ATOM     25  H   UNL     1      26.818  36.474   5.307  1.00  0.00     0.210 HD
ENDBRANCH  23  24
ENDBRANCH  18  23
BRANCH  20  26
ATOM     26  O   UNL     1      27.416  39.014   8.370  1.00  0.00    -0.350 OA
BRANCH  26  27
ATOM     27  C   UNL     1      28.709  39.418   8.710  1.00  0.00     0.169 C 
BRANCH  27  28
ATOM     28  C   UNL     1      29.657  38.720   7.736  1.00  0.00     0.119 C 
BRANCH  28  29
ATOM     29  N   UNL     1      31.032  38.977   8.069  1.00  0.00    -0.092 NA
ATOM     30  N   UNL     1      31.493  38.528   9.138  1.00  0.00     0.001 N 
ATOM     31  N   UNL     1      31.856  38.331  10.314  1.00  0.00    -0.003 NA
ENDBRANCH  28  29
ENDBRANCH  27  28
ENDBRANCH  26  27
ENDBRANCH  20  26
BRANCH  21  32
ATOM     32  O   UNL     1      24.764  39.509   7.573  1.00  0.00    -0.387 OA
ATOM     33  H   UNL     1      24.869  40.371   8.038  1.00  0.00     0.211 HD
ENDBRANCH  21  32
BRANCH  22  34
ATOM     34  O   UNL     1      24.945  38.123  10.818  1.00  0.00    -0.385 OA
ATOM     35  H   UNL     1      25.628  37.543  11.212  1.00  0.00     0.211 HD
ENDBRANCH  22  34
ENDBRANCH  16  17
ENDBRANCH  11  16
BRANCH  13  36
ATOM     36  O   UNL     1      21.275  36.432   7.093  1.00  0.00    -0.385 OA
ATOM     37  H   UNL     1      21.136  35.746   6.419  1.00  0.00     0.211 HD
ENDBRANCH  13  36
BRANCH  14  38
ATOM     38  O   UNL     1      19.271  36.527   8.998  1.00  0.00    -0.387 OA
ATOM     39  H   UNL     1      19.031  35.586   8.842  1.00  0.00     0.211 HD
ENDBRANCH  14  38
BRANCH  15  40
ATOM     40  O   UNL     1      20.386  34.539  10.405  1.00  0.00    -0.387 OA
ATOM     41  H   UNL     1      19.550  34.373  10.898  1.00  0.00     0.211 HD
ENDBRANCH  15  40
ENDBRANCH   9  10
ENDBRANCH   8   9
ENDBRANCH   3   8
BRANCH   3  42
ATOM     42  C   UNL     1      25.835  34.945  12.065  1.00  0.00     0.364 C 
ATOM     43  O   UNL     1      26.329  34.202  11.170  1.00  0.00    -0.246 OA
BRANCH  42  44
ATOM     44  O   UNL     1      26.381  36.187  12.234  1.00  0.00    -0.477 OA
ATOM     45  H   UNL     1      26.177  36.713  13.071  1.00  0.00     0.296 HD
ENDBRANCH  42  44
ENDBRANCH   3  42
BRANCH   6  46
ATOM     46  O   UNL     1      26.399  32.380  15.380  1.00  0.00    -0.391 OA
ATOM     47  H   UNL     1      25.728  32.304  16.087  1.00  0.00     0.211 HD
ENDBRANCH   6  46
BRANCH   7  48
ATOM     48  N   UNL     1      27.052  35.510  15.819  1.00  0.00    -0.348 N 
ATOM     49  C   UNL     1      27.591  35.551  17.134  1.00  0.00     0.217 C 
ATOM     50  H   UNL     1      27.559  36.099  15.092  1.00  0.00     0.163 HD
ATOM     51  C   UNL     1      28.793  36.377  17.382  1.00  0.00     0.114 C 
ATOM     52  O   UNL     1      27.070  34.910  18.052  1.00  0.00    -0.275 OA
ENDBRANCH   7  48
ENDBRANCH   1   2
BRANCH   1  53
ATOM     53  O   UNL     1      24.221  35.370  17.259  1.00  0.00    -0.388 OA
ATOM     54  H   UNL     1      23.717  35.785  18.001  1.00  0.00     0.211 HD
ENDBRANCH   1  53
BRANCH   1  55
ATOM     55  C   UNL     1      22.432  34.936  15.670  1.00  0.00     0.165 C 
BRANCH  55  56
ATOM     56  O   UNL     1      21.400  35.832  15.538  1.00  0.00    -0.388 OA
ATOM     57  H   UNL     1      21.629  36.618  15.004  1.00  0.00     0.211 HD
ENDBRANCH  55  56
BRANCH  55  58
ATOM     58  C   UNL     1      22.158  33.939  16.773  1.00  0.00     0.154 C 
BRANCH  58  59
ATOM     59  N   UNL     1      22.771  32.671  16.654  1.00  0.00    -0.319 N 
ATOM     60  C   UNL     1      22.320  31.554  15.901  1.00  0.00     0.407 C 
ATOM     61  H   UNL     1      23.695  32.475  17.176  1.00  0.00     0.167 HD
ATOM     62  O   UNL     1      21.284  31.630  15.230  1.00  0.00    -0.225 OA
BRANCH  60  63
ATOM     63  O   UNL     1      23.025  30.361  15.901  1.00  0.00    -0.443 OA
BRANCH  63  64
ATOM     64  C   UNL     1      23.585  29.708  16.979  1.00  0.00     0.294 C 
BRANCH  64  65
ATOM     65  C   UNL     1      25.052  29.716  17.084  1.00  0.00     0.120 A 
ATOM     66  C   UNL     1      25.812  29.896  18.235  1.00  0.00     0.138 A 
ATOM     67  N   UNL     1      25.927  29.585  16.065  1.00  0.00    -0.132 NA
ATOM     68  N   UNL     1      27.086  29.867  17.855  1.00  0.00    -0.250 N 
ATOM     69  N   UNL     1      27.142  29.679  16.561  1.00  0.00    -0.067 NA
BRANCH  68  70
ATOM     70  C   UNL     1      28.219  30.047  18.801  1.00  0.00     0.177 C 
BRANCH  70  71
ATOM     71  C   UNL     1      28.913  31.300  18.387  1.00  0.00     0.136 C 
BRANCH  71  72
ATOM     72  O   UNL     1      28.058  32.159  17.675  1.00  0.00    -0.391 OA
ATOM     73  H   UNL     1      28.367  32.311  16.757  1.00  0.00     0.211 HD
ENDBRANCH  71  72
BRANCH  71  74
ATOM     74  C   UNL     1      30.185  31.107  17.660  1.00  0.00     0.038 C 
BRANCH  74  75
ATOM     75  C   UNL     1      30.477  31.785  16.402  1.00  0.00     0.038 C 
BRANCH  75  76
ATOM     76  C   UNL     1      31.308  32.970  16.386  1.00  0.00    -0.048 A 
ATOM     77  C   UNL     1      31.451  33.758  17.525  1.00  0.00     0.004 A 
ATOM     78  C   UNL     1      31.930  33.411  15.218  1.00  0.00     0.004 A 
ATOM     79  C   UNL     1      32.174  34.914  17.487  1.00  0.00     0.000 A 
ATOM     80  C   UNL     1      32.651  34.581  15.213  1.00  0.00     0.000 A 
ATOM     81  C   UNL     1      32.794  35.368  16.348  1.00  0.00     0.000 A 
ENDBRANCH  75  76
ENDBRANCH  74  75
ENDBRANCH  71  74
ENDBRANCH  70  71
ENDBRANCH  68  70
ENDBRANCH  64  65
ENDBRANCH  63  64
ENDBRANCH  60  63
ENDBRANCH  58  59
ENDBRANCH  55  58
ENDBRANCH   1  55
TORSDOF 35
BEGIN_RES LYS A 131
REMARK  4 active torsions:
REMARK  status: ('A' for Active; 'I' for Inactive)
REMARK    1  A    between atoms: CA   and  CB  
REMARK    2  A    between atoms: CB   and  CG  
REMARK    3  A    between atoms: CG   and  CD  
REMARK    4  A    between atoms: CD   and  CE  
ROOT
ATOM      1  CA  LYS A 131      29.867  25.555  16.977  1.00 20.52     0.186 C 
ENDROOT
BRANCH   1   2
ATOM      2  CB  LYS A 131      28.345  25.722  17.026  1.00 20.94     0.034 C 
BRANCH   2   3
ATOM      3  CG  LYS A 131      27.602  24.400  16.914  1.00 22.96     0.005 C 
BRANCH   3   4
ATOM      4  CD  LYS A 131      26.526  24.265  17.956  1.00 24.33     0.041 C 
BRANCH   4   5
ATOM      5  CE  LYS A 131      25.158  24.279  17.280  1.00 26.91     0.338 C 
ATOM      6  NZ  LYS A 131      24.576  22.916  17.259  1.00 27.40     0.618 N 
ENDBRANCH   4   5
ENDBRANCH   3   4
ENDBRANCH   2   3
ENDBRANCH   1   2
END_RES LYS A 131
BEGIN_RES LYS A 135
REMARK  4 active torsions:
REMARK  status: ('A' for Active; 'I' for Inactive)
REMARK    5  A    between atoms: CA   and  CB  
REMARK    6  A    between atoms: CB   and  CG  
REMARK    7  A    between atoms: CG   and  CD  
REMARK    8  A    between atoms: CD   and  CE  
ROOT
ATOM      7  CA  LYS A 135      33.193  34.663   9.290  1.00 25.02     0.186 C 
ENDROOT
BRANCH   7   8
ATOM      8  CB  LYS A 135      32.060  35.360  10.034  1.00 26.63     0.034 C 
BRANCH   8   9
ATOM      9  CG  LYS A 135      30.689  34.967   9.549  1.00 29.45     0.005 C 
BRANCH   9  10
ATOM     10  CD  LYS A 135      29.658  35.143  10.653  1.00 32.00     0.041 C 
BRANCH  10  11
ATOM     11  CE  LYS A 135      30.298  34.955  12.015  1.00 34.25     0.338 C 
ATOM     12  NZ  LYS A 135      29.296  34.512  13.023  1.00 35.99     0.618 N 
ENDBRANCH  10  11
ENDBRANCH   9  10
ENDBRANCH   8   9
ENDBRANCH   7   8
END_RES LYS A 135
