REMARK VINA RESULT:    -4.859      2.092      4.047
REMARK INTER + INTRA:         -21.973
REMARK INTER:                 -10.705
REMARK INTRA:                 -11.268
REMARK UNBOUND:                -9.729
REMARK SMILES CC(=O)N[C@@H]1[C@@H](O)C[C@](OC[C@H]2O[C@@H](O[C@H]3[C@H](O)[C@@H](O)[C@H](OCCN=[N+]=[N-])O[C@@H]3CO)[C@H](O)[C@@H](O)[C@H]2O)(C(=O)O)O[C@H]1C(O)[C@H](O)CNC(=O)OCc1cn(-c2ncccc2C#N)nn1
REMARK SMILES IDX 9 1 8 2 6 3 5 4 42 5 41 6 10 7 11 8 12 9 14 10 13 11 32 12
REMARK SMILES IDX 34 13 36 14 15 15 16 16 29 17 28 18 21 19 17 20 19 21 30 22
REMARK SMILES IDX 31 23 22 25 23 26 24 27 25 28 26 29 27 30 18 31 20 33 33 35
REMARK SMILES IDX 35 37 37 39 38 41 39 42 40 43 7 45 43 47 44 48 45 50 46 51
REMARK SMILES IDX 47 53 48 54 49 55 50 57 51 58 52 59 53 60 54 61 65 62 55 63
REMARK SMILES IDX 64 64 56 65 57 66 61 67 58 68 60 69 59 70 62 71 63 72 4 73
REMARK SMILES IDX 2 74 1 76 3 77
REMARK H PARENT 31 24 18 32 20 34 33 36 35 38 37 40 40 44 7 46 44 49 46 52
REMARK H PARENT 48 56 4 75
REMARK Flexibility Score: inf
ROOT
ATOM      1  C   UNL     1      30.593  30.176  21.019  1.00  0.00     0.272 C 
ATOM      2  C   UNL     1      31.527  29.284  20.318  1.00  0.00     0.113 C 
ATOM      3  C   UNL     1      31.555  27.909  20.859  1.00  0.00     0.145 C 
ATOM      4  C   UNL     1      30.297  27.411  21.490  1.00  0.00     0.142 C 
ATOM      5  C   UNL     1      29.110  28.331  21.427  1.00  0.00     0.178 C 
ATOM      6  O   UNL     1      29.389  29.613  21.375  1.00  0.00    -0.332 OA
ENDROOT
BRANCH   1   7
ATOM      7  O   UNL     1      30.256  31.365  20.511  1.00  0.00    -0.338 OA
BRANCH   7   8
ATOM      8  C   UNL     1      30.381  32.602  20.883  1.00  0.00     0.199 C 
BRANCH   8   9
ATOM      9  C   UNL     1      31.460  33.236  19.999  1.00  0.00     0.179 C 
ATOM     10  C   UNL     1      31.853  34.765  18.373  1.00  0.00     0.282 C 
ATOM     11  O   UNL     1      30.896  33.824  18.901  1.00  0.00    -0.341 OA
ATOM     12  C   UNL     1      31.937  35.945  19.272  1.00  0.00     0.202 C 
ATOM     13  C   UNL     1      32.197  35.515  20.718  1.00  0.00     0.179 C 
ATOM     14  C   UNL     1      32.457  34.056  20.730  1.00  0.00     0.177 C 
BRANCH  10  15
ATOM     15  O   UNL     1      31.537  35.100  17.102  1.00  0.00    -0.341 OA
BRANCH  15  16
ATOM     16  C   UNL     1      32.064  34.300  16.128  1.00  0.00     0.184 C 
ATOM     17  C   UNL     1      32.559  35.175  14.939  1.00  0.00     0.178 C 
ATOM     18  O   UNL     1      31.712  34.946  13.856  1.00  0.00    -0.341 OA
ATOM     19  C   UNL     1      30.375  35.167  14.218  1.00  0.00     0.281 C 
ATOM     20  C   UNL     1      31.114  33.269  15.575  1.00  0.00     0.180 C 
ATOM     21  C   UNL     1      29.886  33.971  14.985  1.00  0.00     0.202 C 
BRANCH  17  22
ATOM     22  C   UNL     1      33.980  34.818  14.644  1.00  0.00     0.191 C 
BRANCH  22  23
ATOM     23  O   UNL     1      34.096  34.051  13.471  1.00  0.00    -0.394 OA
ATOM     24  H   UNL     1      33.281  34.099  12.917  1.00  0.00     0.210 HD
ENDBRANCH  22  23
ENDBRANCH  17  22
BRANCH  19  25
ATOM     25  O   UNL     1      29.680  35.378  13.049  1.00  0.00    -0.350 OA
BRANCH  25  26
ATOM     26  C   UNL     1      29.400  36.743  12.854  1.00  0.00     0.169 C 
BRANCH  26  27
ATOM     27  C   UNL     1      29.087  37.411  14.177  1.00  0.00     0.119 C 
BRANCH  27  28
ATOM     28  N   UNL     1      27.622  37.471  14.270  1.00  0.00    -0.092 NA
ATOM     29  N   UNL     1      27.129  36.978  15.319  1.00  0.00     0.001 N 
ATOM     30  N   UNL     1      26.562  36.217  16.117  1.00  0.00    -0.003 NA
ENDBRANCH  27  28
ENDBRANCH  26  27
ENDBRANCH  25  26
ENDBRANCH  19  25
BRANCH  20  31
ATOM     31  O   UNL     1      31.689  32.462  14.621  1.00  0.00    -0.387 OA
ATOM     32  H   UNL     1      31.439  31.524  14.616  1.00  0.00     0.211 HD
ENDBRANCH  20  31
BRANCH  21  33
ATOM     33  O   UNL     1      29.010  34.322  16.007  1.00  0.00    -0.385 OA
ATOM     34  H   UNL     1      28.864  33.504  16.557  1.00  0.00     0.211 HD
ENDBRANCH  21  33
ENDBRANCH  15  16
ENDBRANCH  10  15
BRANCH  12  35
ATOM     35  O   UNL     1      32.946  36.802  18.871  1.00  0.00    -0.385 OA
ATOM     36  H   UNL     1      33.040  37.511  19.589  1.00  0.00     0.211 HD
ENDBRANCH  12  35
BRANCH  13  37
ATOM     37  O   UNL     1      31.071  35.851  21.507  1.00  0.00    -0.387 OA
ATOM     38  H   UNL     1      30.625  35.020  21.834  1.00  0.00     0.211 HD
ENDBRANCH  13  37
BRANCH  14  39
ATOM     39  O   UNL     1      32.655  33.531  22.011  1.00  0.00    -0.387 OA
ATOM     40  H   UNL     1      32.842  34.279  22.664  1.00  0.00     0.211 HD
ENDBRANCH  14  39
ENDBRANCH   8   9
ENDBRANCH   7   8
ENDBRANCH   1   7
BRANCH   1  41
ATOM     41  C   UNL     1      31.273  30.500  22.348  1.00  0.00     0.364 C 
ATOM     42  O   UNL     1      32.465  30.716  22.486  1.00  0.00    -0.246 OA
BRANCH  41  43
ATOM     43  O   UNL     1      30.484  30.560  23.515  1.00  0.00    -0.477 OA
ATOM     44  H   UNL     1      29.521  30.261  23.535  1.00  0.00     0.296 HD
ENDBRANCH  41  43
ENDBRANCH   1  41
BRANCH   3  45
ATOM     45  O   UNL     1      32.037  27.006  19.892  1.00  0.00    -0.391 OA
ATOM     46  H   UNL     1      32.385  27.599  19.148  1.00  0.00     0.211 HD
ENDBRANCH   3  45
BRANCH   5  47
ATOM     47  C   UNL     1      28.108  27.876  20.328  1.00  0.00     0.176 C 
BRANCH  47  48
ATOM     48  O   UNL     1      28.452  26.524  20.029  1.00  0.00    -0.388 OA
ATOM     49  H   UNL     1      29.144  26.201  20.630  1.00  0.00     0.211 HD
ENDBRANCH  47  48
BRANCH  47  50
ATOM     50  C   UNL     1      28.149  28.599  19.083  1.00  0.00     0.165 C 
BRANCH  50  51
ATOM     51  O   UNL     1      27.847  29.982  19.127  1.00  0.00    -0.388 OA
ATOM     52  H   UNL     1      27.235  30.202  18.355  1.00  0.00     0.211 HD
ENDBRANCH  50  51
BRANCH  50  53
ATOM     53  C   UNL     1      27.235  28.081  18.019  1.00  0.00     0.154 C 
BRANCH  53  54
ATOM     54  N   UNL     1      26.887  28.891  16.919  1.00  0.00    -0.319 N 
ATOM     55  C   UNL     1      25.640  29.376  16.526  1.00  0.00     0.407 C 
ATOM     56  H   UNL     1      27.701  29.191  16.257  1.00  0.00     0.167 HD
ATOM     57  O   UNL     1      24.646  29.082  17.234  1.00  0.00    -0.225 OA
BRANCH  55  58
ATOM     58  O   UNL     1      25.535  30.174  15.369  1.00  0.00    -0.443 OA
BRANCH  58  59
ATOM     59  C   UNL     1      25.469  31.562  15.514  1.00  0.00     0.294 C 
BRANCH  59  60
ATOM     60  C   UNL     1      26.289  32.054  16.605  1.00  0.00     0.121 A 
ATOM     61  C   UNL     1      25.888  32.862  17.600  1.00  0.00     0.146 A 
ATOM     62  N   UNL     1      27.663  31.830  16.785  1.00  0.00    -0.131 NA
ATOM     63  N   UNL     1      26.914  33.160  18.386  1.00  0.00    -0.201 N 
ATOM     64  N   UNL     1      27.915  32.525  17.854  1.00  0.00    -0.060 NA
BRANCH  63  65
ATOM     65  C   UNL     1      26.980  33.916  19.577  1.00  0.00     0.173 A 
ATOM     66  N   UNL     1      27.388  35.204  19.434  1.00  0.00    -0.236 NA
ATOM     67  C   UNL     1      26.786  33.338  20.839  1.00  0.00     0.097 A 
ATOM     68  C   UNL     1      27.628  35.969  20.636  1.00  0.00     0.113 A 
ATOM     69  C   UNL     1      27.042  34.127  21.939  1.00  0.00     0.025 A 
ATOM     70  C   UNL     1      27.447  35.387  21.796  1.00  0.00     0.022 A 
BRANCH  67  71
ATOM     71  C   UNL     1      26.258  32.031  21.065  1.00  0.00     0.103 C 
ATOM     72  N   UNL     1      25.802  30.930  21.275  1.00  0.00    -0.192 NA
ENDBRANCH  67  71
ENDBRANCH  63  65
ENDBRANCH  59  60
ENDBRANCH  58  59
ENDBRANCH  55  58
ENDBRANCH  53  54
ENDBRANCH  50  53
ENDBRANCH  47  50
ENDBRANCH   5  47
BRANCH   4  73
ATOM     73  N   UNL     1      30.678  26.918  22.795  1.00  0.00    -0.348 N 
ATOM     74  C   UNL     1      29.876  26.268  23.738  1.00  0.00     0.217 C 
ATOM     75  H   UNL     1      31.704  27.072  23.109  1.00  0.00     0.163 HD
ATOM     76  C   UNL     1      30.467  25.773  25.045  1.00  0.00     0.114 C 
ATOM     77  O   UNL     1      28.654  26.037  23.605  1.00  0.00    -0.275 OA
ENDBRANCH   4  73
TORSDOF 31
BEGIN_RES LYS A 131
REMARK  4 active torsions:
REMARK  status: ('A' for Active; 'I' for Inactive)
REMARK    1  A    between atoms: CA   and  CB  
REMARK    2  A    between atoms: CB   and  CG  
REMARK    3  A    between atoms: CG   and  CD  
REMARK    4  A    between atoms: CD   and  CE  
ROOT
ATOM      1  CA  LYS A 131      29.867  25.555  16.977  1.00 20.52     0.186 C 
ENDROOT
BRANCH   1   2
ATOM      2  CB  LYS A 131      28.345  25.722  17.026  1.00 20.94     0.034 C 
BRANCH   2   3
ATOM      3  CG  LYS A 131      27.601  24.402  16.889  1.00 22.96     0.005 C 
BRANCH   3   4
ATOM      4  CD  LYS A 131      26.591  24.205  17.985  1.00 24.33     0.041 C 
BRANCH   4   5
ATOM      5  CE  LYS A 131      25.620  23.098  17.589  1.00 26.91     0.338 C 
ATOM      6  NZ  LYS A 131      24.417  23.671  16.939  1.00 27.40     0.618 N 
ENDBRANCH   4   5
ENDBRANCH   3   4
ENDBRANCH   2   3
ENDBRANCH   1   2
END_RES LYS A 131
BEGIN_RES LYS A 135
REMARK  4 active torsions:
REMARK  status: ('A' for Active; 'I' for Inactive)
REMARK    5  A    between atoms: CA   and  CB  
REMARK    6  A    between atoms: CB   and  CG  
REMARK    7  A    between atoms: CG   and  CD  
REMARK    8  A    between atoms: CD   and  CE  
ROOT
ATOM      7  CA  LYS A 135      33.193  34.663   9.290  1.00 25.02     0.186 C 
ENDROOT
BRANCH   7   8
ATOM      8  CB  LYS A 135      32.060  35.360  10.034  1.00 26.63     0.034 C 
BRANCH   8   9
ATOM      9  CG  LYS A 135      30.700  34.784   9.736  1.00 29.45     0.005 C 
BRANCH   9  10
ATOM     10  CD  LYS A 135      30.559  34.479   8.253  1.00 32.00     0.041 C 
BRANCH  10  11
ATOM     11  CE  LYS A 135      29.330  35.162   7.683  1.00 34.25     0.338 C 
ATOM     12  NZ  LYS A 135      28.084  34.624   8.298  1.00 35.99     0.618 N 
ENDBRANCH  10  11
ENDBRANCH   9  10
ENDBRANCH   8   9
ENDBRANCH   7   8
END_RES LYS A 135
