REMARK VINA RESULT:    -5.706      3.778      9.975
REMARK INTER + INTRA:         -24.128
REMARK INTER:                 -13.345
REMARK INTRA:                 -10.782
REMARK UNBOUND:                -9.416
REMARK SMILES CC(=O)N[C@@H]1[C@@H](O)C[C@](OC[C@H]2O[C@@H](O[C@H]3[C@H](O)[C@@H](O)[C@H](OCCN=[N+]=[N-])O[C@@H]3CO)[C@H](O)[C@@H](O)[C@H]2O)(C(=O)O)O[C@H]1C(O)[C@H](O)CNC(=O)OCc1cn(C(C)(C)C(=O)c2c[nH]c3ccccc23)nn1
REMARK SMILES IDX 9 1 8 2 6 3 5 4 42 5 41 6 10 7 11 8 12 9 14 10 13 11 32 12
REMARK SMILES IDX 34 13 36 14 15 15 16 16 29 17 28 18 21 19 17 20 19 21 30 22
REMARK SMILES IDX 31 23 22 25 23 26 24 27 25 28 26 29 27 30 18 31 20 33 33 35
REMARK SMILES IDX 35 37 37 39 38 41 39 42 40 43 7 45 43 47 44 48 45 50 46 51
REMARK SMILES IDX 47 53 48 54 49 55 50 57 51 58 52 59 53 60 54 61 71 62 55 63
REMARK SMILES IDX 70 64 56 65 57 66 58 67 59 68 60 69 61 70 62 71 69 72 63 73
REMARK SMILES IDX 64 74 68 75 65 77 67 78 66 79 4 80 2 81 1 83 3 84
REMARK H PARENT 31 24 18 32 20 34 33 36 35 38 37 40 40 44 7 46 44 49 46 52
REMARK H PARENT 48 56 63 76 4 82
REMARK Flexibility Score: inf
ROOT
ATOM      1  C   UNL     1      29.870  32.887  16.645  1.00  0.00     0.272 C 
ATOM      2  C   UNL     1      31.051  33.247  17.530  1.00  0.00     0.113 C 
ATOM      3  C   UNL     1      30.706  34.345  18.505  1.00  0.00     0.145 C 
ATOM      4  C   UNL     1      30.479  35.668  17.694  1.00  0.00     0.142 C 
ATOM      5  C   UNL     1      29.819  35.234  16.426  1.00  0.00     0.178 C 
ATOM      6  O   UNL     1      29.115  34.062  16.611  1.00  0.00    -0.332 OA
ENDROOT
BRANCH   1   7
ATOM      7  O   UNL     1      29.141  31.824  16.995  1.00  0.00    -0.338 OA
BRANCH   7   8
ATOM      8  C   UNL     1      28.045  31.281  16.584  1.00  0.00     0.199 C 
BRANCH   8   9
ATOM      9  C   UNL     1      26.948  31.153  17.644  1.00  0.00     0.179 C 
ATOM     10  C   UNL     1      25.031  30.957  16.261  1.00  0.00     0.282 C 
ATOM     11  O   UNL     1      25.763  31.617  17.183  1.00  0.00    -0.341 OA
ATOM     12  C   UNL     1      24.930  29.475  16.499  1.00  0.00     0.202 C 
ATOM     13  C   UNL     1      25.510  29.131  17.866  1.00  0.00     0.179 C 
ATOM     14  C   UNL     1      26.857  29.714  18.070  1.00  0.00     0.177 C 
BRANCH  10  15
ATOM     15  O   UNL     1      25.537  31.171  14.991  1.00  0.00    -0.341 OA
BRANCH  15  16
ATOM     16  C   UNL     1      24.950  32.214  14.333  1.00  0.00     0.184 C 
ATOM     17  C   UNL     1      24.217  31.913  13.077  1.00  0.00     0.178 C 
ATOM     18  O   UNL     1      23.356  33.005  12.845  1.00  0.00    -0.341 OA
ATOM     19  C   UNL     1      24.007  34.188  12.646  1.00  0.00     0.281 C 
ATOM     20  C   UNL     1      25.912  33.346  14.033  1.00  0.00     0.180 C 
ATOM     21  C   UNL     1      25.041  34.536  13.694  1.00  0.00     0.202 C 
BRANCH  17  22
ATOM     22  C   UNL     1      23.314  30.699  13.150  1.00  0.00     0.191 C 
BRANCH  22  23
ATOM     23  O   UNL     1      24.087  29.586  12.797  1.00  0.00    -0.394 OA
ATOM     24  H   UNL     1      23.808  28.765  13.264  1.00  0.00     0.210 HD
ENDBRANCH  22  23
ENDBRANCH  17  22
BRANCH  19  25
ATOM     25  O   UNL     1      23.055  35.211  12.696  1.00  0.00    -0.350 OA
BRANCH  25  26
ATOM     26  C   UNL     1      21.802  34.651  12.529  1.00  0.00     0.169 C 
BRANCH  26  27
ATOM     27  C   UNL     1      20.861  35.555  11.779  1.00  0.00     0.119 C 
BRANCH  27  28
ATOM     28  N   UNL     1      20.783  35.259  10.365  1.00  0.00    -0.092 NA
ATOM     29  N   UNL     1      21.693  35.604   9.585  1.00  0.00     0.001 N 
ATOM     30  N   UNL     1      22.772  35.525   8.992  1.00  0.00    -0.003 NA
ENDBRANCH  27  28
ENDBRANCH  26  27
ENDBRANCH  25  26
ENDBRANCH  19  25
BRANCH  20  31
ATOM     31  O   UNL     1      26.731  33.654  15.093  1.00  0.00    -0.387 OA
ATOM     32  H   UNL     1      26.597  34.599  15.322  1.00  0.00     0.211 HD
ENDBRANCH  20  31
BRANCH  21  33
ATOM     33  O   UNL     1      25.863  35.522  13.150  1.00  0.00    -0.385 OA
ATOM     34  H   UNL     1      26.750  35.161  12.878  1.00  0.00     0.211 HD
ENDBRANCH  21  33
ENDBRANCH  15  16
ENDBRANCH  10  15
BRANCH  12  35
ATOM     35  O   UNL     1      23.635  28.972  16.379  1.00  0.00    -0.385 OA
ATOM     36  H   UNL     1      23.212  28.950  17.263  1.00  0.00     0.211 HD
ENDBRANCH  12  35
BRANCH  13  37
ATOM     37  O   UNL     1      25.552  27.717  17.895  1.00  0.00    -0.387 OA
ATOM     38  H   UNL     1      26.061  27.397  18.680  1.00  0.00     0.211 HD
ENDBRANCH  13  37
BRANCH  14  39
ATOM     39  O   UNL     1      27.825  29.000  17.319  1.00  0.00    -0.387 OA
ATOM     40  H   UNL     1      28.217  28.287  17.888  1.00  0.00     0.211 HD
ENDBRANCH  14  39
ENDBRANCH   8   9
ENDBRANCH   7   8
ENDBRANCH   1   7
BRANCH   1  41
ATOM     41  C   UNL     1      30.397  32.611  15.290  1.00  0.00     0.364 C 
ATOM     42  O   UNL     1      29.764  33.045  14.294  1.00  0.00    -0.246 OA
BRANCH  41  43
ATOM     43  O   UNL     1      31.533  31.906  15.048  1.00  0.00    -0.477 OA
ATOM     44  H   UNL     1      31.603  30.919  14.811  1.00  0.00     0.296 HD
ENDBRANCH  41  43
ENDBRANCH   1  41
BRANCH   3  45
ATOM     45  O   UNL     1      29.525  34.184  19.189  1.00  0.00    -0.391 OA
ATOM     46  H   UNL     1      28.803  34.806  18.887  1.00  0.00     0.211 HD
ENDBRANCH   3  45
BRANCH   5  47
ATOM     47  C   UNL     1      28.890  36.190  15.774  1.00  0.00     0.176 C 
BRANCH  47  48
ATOM     48  O   UNL     1      28.451  35.779  14.537  1.00  0.00    -0.388 OA
ATOM     49  H   UNL     1      28.544  36.459  13.812  1.00  0.00     0.211 HD
ENDBRANCH  47  48
BRANCH  47  50
ATOM     50  C   UNL     1      27.811  36.795  16.645  1.00  0.00     0.165 C 
BRANCH  50  51
ATOM     51  O   UNL     1      26.694  36.032  16.734  1.00  0.00    -0.388 OA
ATOM     52  H   UNL     1      26.879  35.107  16.954  1.00  0.00     0.211 HD
ENDBRANCH  50  51
BRANCH  50  53
ATOM     53  C   UNL     1      27.634  38.225  16.250  1.00  0.00     0.154 C 
BRANCH  53  54
ATOM     54  N   UNL     1      27.317  38.497  14.898  1.00  0.00    -0.319 N 
ATOM     55  C   UNL     1      25.995  38.375  14.345  1.00  0.00     0.407 C 
ATOM     56  H   UNL     1      28.076  38.813  14.221  1.00  0.00     0.167 HD
ATOM     57  O   UNL     1      25.030  37.994  15.037  1.00  0.00    -0.225 OA
BRANCH  55  58
ATOM     58  O   UNL     1      25.753  38.680  13.019  1.00  0.00    -0.443 OA
BRANCH  58  59
ATOM     59  C   UNL     1      26.771  39.082  12.148  1.00  0.00     0.294 C 
BRANCH  59  60
ATOM     60  C   UNL     1      27.438  37.853  11.614  1.00  0.00     0.120 A 
ATOM     61  C   UNL     1      27.076  37.187  10.429  1.00  0.00     0.139 A 
ATOM     62  N   UNL     1      28.446  37.121  12.105  1.00  0.00    -0.132 NA
ATOM     63  N   UNL     1      27.858  36.112  10.261  1.00  0.00    -0.239 N 
ATOM     64  N   UNL     1      28.682  36.084  11.281  1.00  0.00    -0.066 NA
BRANCH  63  65
ATOM     65  C   UNL     1      27.774  35.188   9.150  1.00  0.00     0.122 C 
ATOM     66  C   UNL     1      26.384  35.449   8.471  1.00  0.00     0.046 C 
ATOM     67  C   UNL     1      27.688  33.741   9.571  1.00  0.00     0.046 C 
BRANCH  65  68
ATOM     68  C   UNL     1      28.780  35.448   8.138  1.00  0.00     0.192 C 
ATOM     69  O   UNL     1      29.611  34.458   7.944  1.00  0.00    -0.291 OA
BRANCH  68  70
ATOM     70  C   UNL     1      29.017  36.598   7.321  1.00  0.00     0.045 A 
ATOM     71  C   UNL     1      28.654  36.677   5.971  1.00  0.00     0.095 A 
ATOM     72  C   UNL     1      29.630  37.795   7.630  1.00  0.00     0.010 A 
ATOM     73  N   UNL     1      29.035  37.855   5.517  1.00  0.00    -0.360 N 
ATOM     74  C   UNL     1      29.630  38.574   6.469  1.00  0.00     0.046 A 
ATOM     75  C   UNL     1      30.194  38.330   8.756  1.00  0.00     0.011 A 
ATOM     76  H   UNL     1      28.876  38.163   4.516  1.00  0.00     0.166 HD
ATOM     77  C   UNL     1      30.181  39.843   6.455  1.00  0.00     0.027 A 
ATOM     78  C   UNL     1      30.749  39.609   8.737  1.00  0.00     0.001 A 
ATOM     79  C   UNL     1      30.738  40.351   7.593  1.00  0.00     0.002 A 
ENDBRANCH  68  70
ENDBRANCH  65  68
ENDBRANCH  63  65
ENDBRANCH  59  60
ENDBRANCH  58  59
ENDBRANCH  55  58
ENDBRANCH  53  54
ENDBRANCH  50  53
ENDBRANCH  47  50
ENDBRANCH   5  47
BRANCH   4  80
ATOM     80  N   UNL     1      31.845  36.119  17.440  1.00  0.00    -0.348 N 
ATOM     81  C   UNL     1      32.212  37.478  17.274  1.00  0.00     0.217 C 
ATOM     82  H   UNL     1      32.612  35.397  17.371  1.00  0.00     0.163 HD
ATOM     83  C   UNL     1      33.603  37.933  17.012  1.00  0.00     0.114 C 
ATOM     84  O   UNL     1      31.266  38.334  17.361  1.00  0.00    -0.275 OA
ENDBRANCH   4  80
TORSDOF 32
BEGIN_RES LYS A 131
REMARK  4 active torsions:
REMARK  status: ('A' for Active; 'I' for Inactive)
REMARK    1  A    between atoms: CA   and  CB  
REMARK    2  A    between atoms: CB   and  CG  
REMARK    3  A    between atoms: CG   and  CD  
REMARK    4  A    between atoms: CD   and  CE  
ROOT
ATOM      1  CA  LYS A 131      29.867  25.555  16.977  1.00 20.52     0.186 C 
ENDROOT
BRANCH   1   2
ATOM      2  CB  LYS A 131      28.345  25.722  17.026  1.00 20.94     0.034 C 
BRANCH   2   3
ATOM      3  CG  LYS A 131      27.602  24.400  16.916  1.00 22.96     0.005 C 
BRANCH   3   4
ATOM      4  CD  LYS A 131      26.154  24.530  17.301  1.00 24.33     0.041 C 
BRANCH   4   5
ATOM      5  CE  LYS A 131      25.931  23.887  18.666  1.00 26.91     0.338 C 
ATOM      6  NZ  LYS A 131      24.540  24.113  19.125  1.00 27.40     0.618 N 
ENDBRANCH   4   5
ENDBRANCH   3   4
ENDBRANCH   2   3
ENDBRANCH   1   2
END_RES LYS A 131
BEGIN_RES LYS A 135
REMARK  4 active torsions:
REMARK  status: ('A' for Active; 'I' for Inactive)
REMARK    5  A    between atoms: CA   and  CB  
REMARK    6  A    between atoms: CB   and  CG  
REMARK    7  A    between atoms: CG   and  CD  
REMARK    8  A    between atoms: CD   and  CE  
ROOT
ATOM      7  CA  LYS A 135      33.193  34.663   9.290  1.00 25.02     0.186 C 
ENDROOT
BRANCH   7   8
ATOM      8  CB  LYS A 135      32.060  35.360  10.034  1.00 26.63     0.034 C 
BRANCH   8   9
ATOM      9  CG  LYS A 135      32.508  36.068  11.286  1.00 29.45     0.005 C 
BRANCH   9  10
ATOM     10  CD  LYS A 135      31.906  35.412  12.519  1.00 32.00     0.041 C 
BRANCH  10  11
ATOM     11  CE  LYS A 135      32.204  36.232  13.759  1.00 34.25     0.338 C 
ATOM     12  NZ  LYS A 135      31.554  37.570  13.687  1.00 35.99     0.618 N 
ENDBRANCH  10  11
ENDBRANCH   9  10
ENDBRANCH   8   9
ENDBRANCH   7   8
END_RES LYS A 135
