REMARK VINA RESULT:    -5.999      3.783      8.140
REMARK INTER + INTRA:         -22.694
REMARK INTER:                 -10.814
REMARK INTRA:                 -11.880
REMARK UNBOUND:                -7.575
REMARK SMILES CC(=O)N[C@@H]1[C@@H](O)C[C@](OC[C@H]2O[C@@H](O[C@H]3[C@H](O)[C@@H](O)[C@H](OCCN=[N+]=[N-])O[C@@H]3CO)[C@H](O)[C@@H](O)[C@H]2O)(C(=O)O)O[C@H]1C(O)[C@H](O)CNC(=O)OCc1cn(Cc2ccccc2Br)nn1
REMARK SMILES IDX 9 1 8 2 6 3 5 4 42 5 41 6 10 7 11 8 12 9 14 10 13 11 32 12
REMARK SMILES IDX 34 13 36 14 15 15 16 16 29 17 28 18 21 19 17 20 19 21 30 22
REMARK SMILES IDX 31 23 22 25 23 26 24 27 25 28 26 29 27 30 18 31 20 33 33 35
REMARK SMILES IDX 35 37 37 39 38 41 39 42 40 43 7 45 43 47 44 48 45 50 46 51
REMARK SMILES IDX 47 53 48 54 49 55 50 57 51 58 52 59 53 60 54 61 65 62 55 63
REMARK SMILES IDX 64 64 56 65 57 66 58 67 62 68 59 69 61 70 63 71 60 72 4 73
REMARK SMILES IDX 2 74 1 76 3 77
REMARK H PARENT 31 24 18 32 20 34 33 36 35 38 37 40 40 44 7 46 44 49 46 52
REMARK H PARENT 48 56 4 75
REMARK Flexibility Score: inf
ROOT
ATOM      1  C   UNL     1      29.467  28.422  24.388  1.00  0.00     0.272 C 
ATOM      2  C   UNL     1      30.400  29.049  25.346  1.00  0.00     0.113 C 
ATOM      3  C   UNL     1      31.412  28.079  25.841  1.00  0.00     0.145 C 
ATOM      4  C   UNL     1      32.153  27.494  24.671  1.00  0.00     0.142 C 
ATOM      5  C   UNL     1      31.325  27.305  23.460  1.00  0.00     0.178 C 
ATOM      6  O   UNL     1      30.324  28.177  23.214  1.00  0.00    -0.332 OA
ENDROOT
BRANCH   1   7
ATOM      7  O   UNL     1      28.496  29.220  23.906  1.00  0.00    -0.338 OA
BRANCH   7   8
ATOM      8  C   UNL     1      27.496  28.959  23.126  1.00  0.00     0.199 C 
BRANCH   8   9
ATOM      9  C   UNL     1      27.405  28.945  21.665  1.00  0.00     0.179 C 
ATOM     10  C   UNL     1      27.925  29.846  19.621  1.00  0.00     0.282 C 
ATOM     11  O   UNL     1      28.370  29.665  20.953  1.00  0.00    -0.341 OA
ATOM     12  C   UNL     1      28.166  28.539  18.918  1.00  0.00     0.202 C 
ATOM     13  C   UNL     1      27.601  27.393  19.683  1.00  0.00     0.179 C 
ATOM     14  C   UNL     1      26.917  27.721  20.981  1.00  0.00     0.177 C 
BRANCH  10  15
ATOM     15  O   UNL     1      28.648  30.881  19.108  1.00  0.00    -0.341 OA
BRANCH  15  16
ATOM     16  C   UNL     1      28.007  32.060  18.874  1.00  0.00     0.184 C 
ATOM     17  C   UNL     1      26.559  32.104  19.215  1.00  0.00     0.178 C 
ATOM     18  O   UNL     1      25.869  32.632  18.128  1.00  0.00    -0.341 OA
ATOM     19  C   UNL     1      26.029  31.693  17.077  1.00  0.00     0.281 C 
ATOM     20  C   UNL     1      28.239  32.599  17.471  1.00  0.00     0.180 C 
ATOM     21  C   UNL     1      27.390  31.858  16.457  1.00  0.00     0.202 C 
BRANCH  17  22
ATOM     22  C   UNL     1      26.271  33.030  20.396  1.00  0.00     0.191 C 
BRANCH  22  23
ATOM     23  O   UNL     1      27.037  34.192  20.304  1.00  0.00    -0.394 OA
ATOM     24  H   UNL     1      26.984  34.744  21.118  1.00  0.00     0.210 HD
ENDBRANCH  22  23
ENDBRANCH  17  22
BRANCH  19  25
ATOM     25  O   UNL     1      24.985  31.939  16.189  1.00  0.00    -0.350 OA
BRANCH  25  26
ATOM     26  C   UNL     1      25.356  31.681  14.870  1.00  0.00     0.169 C 
BRANCH  26  27
ATOM     27  C   UNL     1      24.631  32.678  13.982  1.00  0.00     0.119 C 
BRANCH  27  28
ATOM     28  N   UNL     1      25.592  33.652  13.529  1.00  0.00    -0.092 NA
ATOM     29  N   UNL     1      26.214  34.367  14.320  1.00  0.00     0.001 N 
ATOM     30  N   UNL     1      26.431  35.284  15.139  1.00  0.00    -0.003 NA
ENDBRANCH  27  28
ENDBRANCH  26  27
ENDBRANCH  25  26
ENDBRANCH  19  25
BRANCH  20  31
ATOM     31  O   UNL     1      27.864  33.941  17.386  1.00  0.00    -0.387 OA
ATOM     32  H   UNL     1      26.922  33.948  17.056  1.00  0.00     0.211 HD
ENDBRANCH  20  31
BRANCH  21  33
ATOM     33  O   UNL     1      27.959  30.688  16.025  1.00  0.00    -0.385 OA
ATOM     34  H   UNL     1      27.378  29.929  16.266  1.00  0.00     0.211 HD
ENDBRANCH  21  33
ENDBRANCH  15  16
ENDBRANCH  10  15
BRANCH  12  35
ATOM     35  O   UNL     1      27.545  28.518  17.659  1.00  0.00    -0.385 OA
ATOM     36  H   UNL     1      27.056  27.666  17.601  1.00  0.00     0.211 HD
ENDBRANCH  12  35
BRANCH  13  37
ATOM     37  O   UNL     1      28.627  26.477  19.953  1.00  0.00    -0.387 OA
ATOM     38  H   UNL     1      29.488  26.917  20.100  1.00  0.00     0.211 HD
ENDBRANCH  13  37
BRANCH  14  39
ATOM     39  O   UNL     1      27.002  26.585  21.772  1.00  0.00    -0.387 OA
ATOM     40  H   UNL     1      27.288  26.719  22.687  1.00  0.00     0.211 HD
ENDBRANCH  14  39
ENDBRANCH   8   9
ENDBRANCH   7   8
ENDBRANCH   1   7
BRANCH   1  41
ATOM     41  C   UNL     1      29.011  27.045  24.668  1.00  0.00     0.364 C 
ATOM     42  O   UNL     1      28.639  26.596  25.775  1.00  0.00    -0.246 OA
BRANCH  41  43
ATOM     43  O   UNL     1      28.988  26.131  23.627  1.00  0.00    -0.477 OA
ATOM     44  H   UNL     1      28.221  25.468  23.510  1.00  0.00     0.296 HD
ENDBRANCH  41  43
ENDBRANCH   1  41
BRANCH   3  45
ATOM     45  O   UNL     1      32.340  28.862  26.602  1.00  0.00    -0.391 OA
ATOM     46  H   UNL     1      32.322  28.598  27.543  1.00  0.00     0.211 HD
ENDBRANCH   3  45
BRANCH   5  47
ATOM     47  C   UNL     1      32.226  27.317  22.221  1.00  0.00     0.176 C 
BRANCH  47  48
ATOM     48  O   UNL     1      33.330  28.099  22.524  1.00  0.00    -0.388 OA
ATOM     49  H   UNL     1      33.105  28.998  22.820  1.00  0.00     0.211 HD
ENDBRANCH  47  48
BRANCH  47  50
ATOM     50  C   UNL     1      31.544  27.866  21.018  1.00  0.00     0.165 C 
BRANCH  50  51
ATOM     51  O   UNL     1      31.714  27.039  19.894  1.00  0.00    -0.388 OA
ATOM     52  H   UNL     1      32.673  26.824  19.769  1.00  0.00     0.211 HD
ENDBRANCH  50  51
BRANCH  50  53
ATOM     53  C   UNL     1      32.136  29.197  20.633  1.00  0.00     0.154 C 
BRANCH  53  54
ATOM     54  N   UNL     1      31.283  30.261  21.028  1.00  0.00    -0.319 N 
ATOM     55  C   UNL     1      31.480  31.051  22.180  1.00  0.00     0.407 C 
ATOM     56  H   UNL     1      30.443  30.471  20.412  1.00  0.00     0.167 HD
ATOM     57  O   UNL     1      32.454  30.857  22.949  1.00  0.00    -0.225 OA
BRANCH  55  58
ATOM     58  O   UNL     1      30.598  32.086  22.514  1.00  0.00    -0.443 OA
BRANCH  58  59
ATOM     59  C   UNL     1      30.976  33.435  22.434  1.00  0.00     0.294 C 
BRANCH  59  60
ATOM     60  C   UNL     1      30.851  34.023  21.082  1.00  0.00     0.120 A 
ATOM     61  C   UNL     1      31.901  34.074  20.151  1.00  0.00     0.138 A 
ATOM     62  N   UNL     1      29.807  34.596  20.476  1.00  0.00    -0.132 NA
ATOM     63  N   UNL     1      31.448  34.664  19.051  1.00  0.00    -0.248 N 
ATOM     64  N   UNL     1      30.166  34.976  19.268  1.00  0.00    -0.067 NA
BRANCH  63  65
ATOM     65  C   UNL     1      32.144  34.942  17.795  1.00  0.00     0.182 C 
BRANCH  65  66
ATOM     66  C   UNL     1      31.442  34.420  16.603  1.00  0.00    -0.012 A 
ATOM     67  C   UNL     1      31.611  33.057  16.306  1.00  0.00     0.007 A 
ATOM     68  C   UNL     1      30.670  35.179  15.766  1.00  0.00     0.023 A 
ATOM     69  C   UNL     1      31.006  32.542  15.201  1.00  0.00     0.000 A 
ATOM     70  C   UNL     1      30.062  34.640  14.644  1.00  0.00     0.016 A 
ATOM     71  Br  UNL     1      30.353  37.014  16.144  1.00  0.00    -0.050 Br
ATOM     72  C   UNL     1      30.237  33.309  14.369  1.00  0.00     0.001 A 
ENDBRANCH  65  66
ENDBRANCH  63  65
ENDBRANCH  59  60
ENDBRANCH  58  59
ENDBRANCH  55  58
ENDBRANCH  53  54
ENDBRANCH  50  53
ENDBRANCH  47  50
ENDBRANCH   5  47
BRANCH   4  73
ATOM     73  N   UNL     1      32.747  26.245  25.072  1.00  0.00    -0.348 N 
ATOM     74  C   UNL     1      34.156  26.031  25.140  1.00  0.00     0.217 C 
ATOM     75  H   UNL     1      32.168  25.419  25.335  1.00  0.00     0.163 HD
ATOM     76  C   UNL     1      34.704  24.704  25.563  1.00  0.00     0.114 C 
ATOM     77  O   UNL     1      34.905  26.970  24.840  1.00  0.00    -0.275 OA
ENDBRANCH   4  73
TORSDOF 31
BEGIN_RES LYS A 131
REMARK  4 active torsions:
REMARK  status: ('A' for Active; 'I' for Inactive)
REMARK    1  A    between atoms: CA   and  CB  
REMARK    2  A    between atoms: CB   and  CG  
REMARK    3  A    between atoms: CG   and  CD  
REMARK    4  A    between atoms: CD   and  CE  
ROOT
ATOM      1  CA  LYS A 131      29.867  25.555  16.977  1.00 20.52     0.186 C 
ENDROOT
BRANCH   1   2
ATOM      2  CB  LYS A 131      28.345  25.722  17.026  1.00 20.94     0.034 C 
BRANCH   2   3
ATOM      3  CG  LYS A 131      27.600  24.409  16.838  1.00 22.96     0.005 C 
BRANCH   3   4
ATOM      4  CD  LYS A 131      26.780  24.045  18.044  1.00 24.33     0.041 C 
BRANCH   4   5
ATOM      5  CE  LYS A 131      25.470  24.826  18.023  1.00 26.91     0.338 C 
ATOM      6  NZ  LYS A 131      24.627  24.394  16.883  1.00 27.40     0.618 N 
ENDBRANCH   4   5
ENDBRANCH   3   4
ENDBRANCH   2   3
ENDBRANCH   1   2
END_RES LYS A 131
BEGIN_RES LYS A 135
REMARK  4 active torsions:
REMARK  status: ('A' for Active; 'I' for Inactive)
REMARK    5  A    between atoms: CA   and  CB  
REMARK    6  A    between atoms: CB   and  CG  
REMARK    7  A    between atoms: CG   and  CD  
REMARK    8  A    between atoms: CD   and  CE  
ROOT
ATOM      7  CA  LYS A 135      33.193  34.663   9.290  1.00 25.02     0.186 C 
ENDROOT
BRANCH   7   8
ATOM      8  CB  LYS A 135      32.060  35.360  10.034  1.00 26.63     0.034 C 
BRANCH   8   9
ATOM      9  CG  LYS A 135      30.787  35.462   9.234  1.00 29.45     0.005 C 
BRANCH   9  10
ATOM     10  CD  LYS A 135      30.199  34.082   8.983  1.00 32.00     0.041 C 
BRANCH  10  11
ATOM     11  CE  LYS A 135      28.748  34.033   9.422  1.00 34.25     0.338 C 
ATOM     12  NZ  LYS A 135      27.849  34.570   8.364  1.00 35.99     0.618 N 
ENDBRANCH  10  11
ENDBRANCH   9  10
ENDBRANCH   8   9
ENDBRANCH   7   8
END_RES LYS A 135
