REMARK VINA RESULT:    -4.363      2.644      7.227
REMARK INTER + INTRA:         -21.354
REMARK INTER:                 -10.257
REMARK INTRA:                 -11.097
REMARK UNBOUND:               -10.616
REMARK SMILES CC(=O)N[C@@H]1[C@@H](O)C[C@](OC[C@H]2O[C@@H](O[C@H]3[C@H](O)[C@@H](O)[C@H](OCCN=[N+]=[N-])O[C@@H]3CO)[C@H](O)[C@@H](O)[C@H]2O)(C(=O)O)O[C@H]1C(O)[C@H](O)CNC(=O)OCc1cn(C2CCCC2)nn1
REMARK SMILES IDX 9 1 8 2 6 3 5 4 42 5 41 6 10 7 11 8 12 9 14 10 13 11 32 12
REMARK SMILES IDX 34 13 36 14 15 15 16 16 29 17 28 18 21 19 17 20 19 21 30 22
REMARK SMILES IDX 31 23 22 25 23 26 24 27 25 28 26 29 27 30 18 31 20 33 33 35
REMARK SMILES IDX 35 37 37 39 38 41 39 42 40 43 7 45 43 47 44 48 45 50 46 51
REMARK SMILES IDX 47 53 48 54 49 55 50 57 51 58 52 59 53 60 54 61 62 62 55 63
REMARK SMILES IDX 61 64 56 65 57 66 60 67 58 68 59 69 4 70 2 71 1 73 3 74
REMARK H PARENT 31 24 18 32 20 34 33 36 35 38 37 40 40 44 7 46 44 49 46 52
REMARK H PARENT 48 56 4 72
REMARK Flexibility Score: inf
ROOT
ATOM      1  C   UNL     1      28.920  36.605   8.787  1.00  0.00     0.272 C 
ATOM      2  C   UNL     1      30.374  36.692   9.065  1.00  0.00     0.113 C 
ATOM      3  C   UNL     1      30.881  38.073   9.294  1.00  0.00     0.145 C 
ATOM      4  C   UNL     1      30.386  39.017   8.172  1.00  0.00     0.142 C 
ATOM      5  C   UNL     1      29.579  38.201   7.225  1.00  0.00     0.178 C 
ATOM      6  O   UNL     1      28.490  37.721   8.031  1.00  0.00    -0.332 OA
ENDROOT
BRANCH   1   7
ATOM      7  O   UNL     1      28.151  36.540   9.892  1.00  0.00    -0.338 OA
BRANCH   7   8
ATOM      8  C   UNL     1      28.485  35.676  10.903  1.00  0.00     0.199 C 
BRANCH   8   9
ATOM      9  C   UNL     1      27.992  36.294  12.209  1.00  0.00     0.179 C 
ATOM     10  C   UNL     1      25.727  35.750  12.222  1.00  0.00     0.282 C 
ATOM     11  O   UNL     1      26.708  36.732  12.161  1.00  0.00    -0.341 OA
ATOM     12  C   UNL     1      26.111  34.567  13.041  1.00  0.00     0.202 C 
ATOM     13  C   UNL     1      27.170  34.840  14.063  1.00  0.00     0.179 C 
ATOM     14  C   UNL     1      28.363  35.423  13.349  1.00  0.00     0.177 C 
BRANCH  10  15
ATOM     15  O   UNL     1      25.246  35.423  10.956  1.00  0.00    -0.341 OA
BRANCH  15  16
ATOM     16  C   UNL     1      24.255  36.305  10.526  1.00  0.00     0.184 C 
ATOM     17  C   UNL     1      22.948  35.658  10.212  1.00  0.00     0.178 C 
ATOM     18  O   UNL     1      22.078  36.628   9.718  1.00  0.00    -0.341 OA
ATOM     19  C   UNL     1      22.407  36.932   8.409  1.00  0.00     0.281 C 
ATOM     20  C   UNL     1      24.773  36.909   9.227  1.00  0.00     0.180 C 
ATOM     21  C   UNL     1      23.733  37.668   8.467  1.00  0.00     0.202 C 
BRANCH  17  22
ATOM     22  C   UNL     1      22.242  35.082  11.435  1.00  0.00     0.191 C 
BRANCH  22  23
ATOM     23  O   UNL     1      22.857  33.841  11.669  1.00  0.00    -0.394 OA
ATOM     24  H   UNL     1      22.265  33.239  12.151  1.00  0.00     0.210 HD
ENDBRANCH  22  23
ENDBRANCH  17  22
BRANCH  19  25
ATOM     25  O   UNL     1      21.466  37.822   7.901  1.00  0.00    -0.350 OA
BRANCH  25  26
ATOM     26  C   UNL     1      20.561  38.184   8.913  1.00  0.00     0.169 C 
BRANCH  26  27
ATOM     27  C   UNL     1      19.132  38.097   8.406  1.00  0.00     0.119 C 
BRANCH  27  28
ATOM     28  N   UNL     1      18.412  37.049   9.068  1.00  0.00    -0.092 NA
ATOM     29  N   UNL     1      18.908  35.919   9.250  1.00  0.00     0.001 N 
ATOM     30  N   UNL     1      19.238  34.769   8.972  1.00  0.00    -0.003 NA
ENDBRANCH  27  28
ENDBRANCH  26  27
ENDBRANCH  25  26
ENDBRANCH  19  25
BRANCH  20  31
ATOM     31  O   UNL     1      25.789  37.790   9.588  1.00  0.00    -0.387 OA
ATOM     32  H   UNL     1      25.715  38.669   9.139  1.00  0.00     0.211 HD
ENDBRANCH  20  31
BRANCH  21  33
ATOM     33  O   UNL     1      24.177  37.804   7.142  1.00  0.00    -0.385 OA
ATOM     34  H   UNL     1      23.419  38.211   6.649  1.00  0.00     0.211 HD
ENDBRANCH  21  33
ENDBRANCH  15  16
ENDBRANCH  10  15
BRANCH  12  35
ATOM     35  O   UNL     1      25.001  34.062  13.759  1.00  0.00    -0.385 OA
ATOM     36  H   UNL     1      25.275  33.980  14.692  1.00  0.00     0.211 HD
ENDBRANCH  12  35
BRANCH  13  37
ATOM     37  O   UNL     1      27.552  33.652  14.657  1.00  0.00    -0.387 OA
ATOM     38  H   UNL     1      28.144  33.867  15.412  1.00  0.00     0.211 HD
ENDBRANCH  13  37
BRANCH  14  39
ATOM     39  O   UNL     1      29.222  34.384  13.015  1.00  0.00    -0.387 OA
ATOM     40  H   UNL     1      30.156  34.618  13.109  1.00  0.00     0.211 HD
ENDBRANCH  14  39
ENDBRANCH   8   9
ENDBRANCH   7   8
ENDBRANCH   1   7
BRANCH   1  41
ATOM     41  C   UNL     1      28.680  35.442   7.850  1.00  0.00     0.364 C 
ATOM     42  O   UNL     1      29.564  34.618   7.568  1.00  0.00    -0.246 OA
BRANCH  41  43
ATOM     43  O   UNL     1      27.392  35.351   7.313  1.00  0.00    -0.477 OA
ATOM     44  H   UNL     1      27.101  34.468   6.875  1.00  0.00     0.296 HD
ENDBRANCH  41  43
ENDBRANCH   1  41
BRANCH   3  45
ATOM     45  O   UNL     1      30.648  38.597  10.540  1.00  0.00    -0.391 OA
ATOM     46  H   UNL     1      30.070  39.392  10.473  1.00  0.00     0.211 HD
ENDBRANCH   3  45
BRANCH   5  47
ATOM     47  C   UNL     1      28.893  38.976   6.128  1.00  0.00     0.176 C 
BRANCH  47  48
ATOM     48  O   UNL     1      28.616  40.289   6.698  1.00  0.00    -0.388 OA
ATOM     49  H   UNL     1      27.839  40.587   6.173  1.00  0.00     0.211 HD
ENDBRANCH  47  48
BRANCH  47  50
ATOM     50  C   UNL     1      27.515  38.507   5.755  1.00  0.00     0.165 C 
BRANCH  50  51
ATOM     51  O   UNL     1      27.401  37.360   5.053  1.00  0.00    -0.388 OA
ATOM     52  H   UNL     1      26.499  36.973   5.010  1.00  0.00     0.211 HD
ENDBRANCH  50  51
BRANCH  50  53
ATOM     53  C   UNL     1      26.850  39.618   4.949  1.00  0.00     0.154 C 
BRANCH  53  54
ATOM     54  N   UNL     1      25.701  40.114   5.719  1.00  0.00    -0.319 N 
ATOM     55  C   UNL     1      25.593  41.483   6.069  1.00  0.00     0.407 C 
ATOM     56  H   UNL     1      24.931  39.468   6.031  1.00  0.00     0.167 HD
ATOM     57  O   UNL     1      26.500  42.279   5.710  1.00  0.00    -0.225 OA
BRANCH  55  58
ATOM     58  O   UNL     1      24.523  41.962   6.791  1.00  0.00    -0.443 OA
BRANCH  58  59
ATOM     59  C   UNL     1      24.211  41.491   8.087  1.00  0.00     0.294 C 
BRANCH  59  60
ATOM     60  C   UNL     1      25.405  41.298   8.940  1.00  0.00     0.120 A 
ATOM     61  C   UNL     1      25.802  41.947  10.088  1.00  0.00     0.138 A 
ATOM     62  N   UNL     1      26.372  40.384   8.708  1.00  0.00    -0.132 NA
ATOM     63  N   UNL     1      26.959  41.425  10.504  1.00  0.00    -0.249 N 
ATOM     64  N   UNL     1      27.276  40.475   9.641  1.00  0.00    -0.067 NA
BRANCH  63  65
ATOM     65  C   UNL     1      27.752  41.791  11.671  1.00  0.00     0.109 C 
ATOM     66  C   UNL     1      26.937  42.417  12.754  1.00  0.00     0.027 C 
ATOM     67  C   UNL     1      28.301  40.525  12.293  1.00  0.00     0.027 C 
ATOM     68  C   UNL     1      26.525  41.325  13.707  1.00  0.00     0.002 C 
ATOM     69  C   UNL     1      27.315  40.096  13.336  1.00  0.00     0.002 C 
ENDBRANCH  63  65
ENDBRANCH  59  60
ENDBRANCH  58  59
ENDBRANCH  55  58
ENDBRANCH  53  54
ENDBRANCH  50  53
ENDBRANCH  47  50
ENDBRANCH   5  47
BRANCH   4  70
ATOM     70  N   UNL     1      31.529  39.707   7.620  1.00  0.00    -0.348 N 
ATOM     71  C   UNL     1      31.651  41.142   7.775  1.00  0.00     0.217 C 
ATOM     72  H   UNL     1      32.305  39.229   7.118  1.00  0.00     0.163 HD
ATOM     73  C   UNL     1      32.816  41.871   7.216  1.00  0.00     0.114 C 
ATOM     74  O   UNL     1      30.768  41.801   8.388  1.00  0.00    -0.275 OA
ENDBRANCH   4  70
TORSDOF 30
BEGIN_RES LYS A 131
REMARK  4 active torsions:
REMARK  status: ('A' for Active; 'I' for Inactive)
REMARK    1  A    between atoms: CA   and  CB  
REMARK    2  A    between atoms: CB   and  CG  
REMARK    3  A    between atoms: CG   and  CD  
REMARK    4  A    between atoms: CD   and  CE  
ROOT
ATOM      1  CA  LYS A 131      29.867  25.555  16.977  1.00 20.52     0.186 C 
ENDROOT
BRANCH   1   2
ATOM      2  CB  LYS A 131      28.345  25.722  17.026  1.00 20.94     0.034 C 
BRANCH   2   3
ATOM      3  CG  LYS A 131      27.603  24.395  16.974  1.00 22.96     0.005 C 
BRANCH   3   4
ATOM      4  CD  LYS A 131      26.114  24.574  17.080  1.00 24.33     0.041 C 
BRANCH   4   5
ATOM      5  CE  LYS A 131      25.716  24.665  18.550  1.00 26.91     0.338 C 
ATOM      6  NZ  LYS A 131      25.799  23.332  19.193  1.00 27.40     0.618 N 
ENDBRANCH   4   5
ENDBRANCH   3   4
ENDBRANCH   2   3
ENDBRANCH   1   2
END_RES LYS A 131
BEGIN_RES LYS A 135
REMARK  4 active torsions:
REMARK  status: ('A' for Active; 'I' for Inactive)
REMARK    5  A    between atoms: CA   and  CB  
REMARK    6  A    between atoms: CB   and  CG  
REMARK    7  A    between atoms: CG   and  CD  
REMARK    8  A    between atoms: CD   and  CE  
ROOT
ATOM      7  CA  LYS A 135      33.193  34.663   9.290  1.00 25.02     0.186 C 
ENDROOT
BRANCH   7   8
ATOM      8  CB  LYS A 135      32.060  35.360  10.034  1.00 26.63     0.034 C 
BRANCH   8   9
ATOM      9  CG  LYS A 135      32.093  35.140  11.524  1.00 29.45     0.005 C 
BRANCH   9  10
ATOM     10  CD  LYS A 135      32.628  36.372  12.238  1.00 32.00     0.041 C 
BRANCH  10  11
ATOM     11  CE  LYS A 135      32.057  36.466  13.639  1.00 34.25     0.338 C 
ATOM     12  NZ  LYS A 135      31.213  37.684  13.794  1.00 35.99     0.618 N 
ENDBRANCH  10  11
ENDBRANCH   9  10
ENDBRANCH   8   9
ENDBRANCH   7   8
END_RES LYS A 135
