REMARK VINA RESULT:    -4.843      5.083     11.669
REMARK INTER + INTRA:         -23.144
REMARK INTER:                 -12.260
REMARK INTRA:                 -10.884
REMARK UNBOUND:               -10.372
REMARK SMILES CC(=O)N[C@@H]1[C@@H](O)C[C@](OC[C@H]2O[C@@H](O[C@H]3[C@H](O)[C@@H](O)[C@H](OCCN=[N+]=[N-])O[C@@H]3CO)[C@H](O)[C@@H](O)[C@H]2O)(C(=O)O)O[C@H]1C(O)[C@H](O)CNC(=O)OCc1cn(CC(=O)NCc2cccs2)nn1
REMARK SMILES IDX 43 1 42 2 9 3 8 4 41 5 6 6 5 7 10 8 11 9 12 10 14 11 13 12
REMARK SMILES IDX 32 13 34 14 36 15 15 16 16 17 29 18 28 19 21 20 17 21 19 22
REMARK SMILES IDX 30 23 31 24 22 26 23 27 24 28 25 29 26 30 27 31 18 32 20 34
REMARK SMILES IDX 33 36 35 38 37 40 38 42 39 43 40 44 7 46 4 48 2 49 1 51 3 52
REMARK SMILES IDX 44 53 45 55 46 56 47 58 48 59 49 60 50 62 51 63 52 64 53 65
REMARK SMILES IDX 54 66 67 67 55 68 66 69 56 70 57 71 58 72 59 73 60 75 61 76
REMARK SMILES IDX 62 77 65 78 63 79 64 80
REMARK H PARENT 31 25 18 33 20 35 33 37 35 39 37 41 40 45 7 47 4 50 44 54
REMARK H PARENT 46 57 48 61 59 74
REMARK Flexibility Score: inf
ROOT
ATOM      1  C   UNL     1      30.498  27.957  21.180  1.00  0.00     0.176 C 
ENDROOT
BRANCH   1   2
ATOM      2  C   UNL     1      30.911  28.325  22.581  1.00  0.00     0.178 C 
ATOM      3  C   UNL     1      32.420  30.142  22.703  1.00  0.00     0.272 C 
ATOM      4  C   UNL     1      33.550  29.122  22.486  1.00  0.00     0.113 C 
ATOM      5  O   UNL     1      31.182  29.649  22.609  1.00  0.00    -0.332 OA
ATOM      6  C   UNL     1      33.283  27.938  23.324  1.00  0.00     0.145 C 
ATOM      7  C   UNL     1      31.874  27.413  23.235  1.00  0.00     0.142 C 
BRANCH   3   8
ATOM      8  O   UNL     1      32.653  31.102  21.747  1.00  0.00    -0.338 OA
BRANCH   8   9
ATOM      9  C   UNL     1      32.302  32.376  21.937  1.00  0.00     0.199 C 
BRANCH   9  10
ATOM     10  C   UNL     1      31.080  32.922  21.255  1.00  0.00     0.179 C 
ATOM     11  C   UNL     1      29.920  32.477  19.326  1.00  0.00     0.282 C 
ATOM     12  O   UNL     1      30.684  31.905  20.352  1.00  0.00    -0.341 OA
ATOM     13  C   UNL     1      28.910  33.439  19.856  1.00  0.00     0.202 C 
ATOM     14  C   UNL     1      28.682  33.380  21.330  1.00  0.00     0.179 C 
ATOM     15  C   UNL     1      29.885  33.087  22.168  1.00  0.00     0.177 C 
BRANCH  11  16
ATOM     16  O   UNL     1      29.326  31.541  18.524  1.00  0.00    -0.341 OA
BRANCH  16  17
ATOM     17  C   UNL     1      29.551  31.751  17.165  1.00  0.00     0.184 C 
ATOM     18  C   UNL     1      30.347  32.944  16.866  1.00  0.00     0.178 C 
ATOM     19  O   UNL     1      29.733  34.007  16.260  1.00  0.00    -0.341 OA
ATOM     20  C   UNL     1      28.379  33.998  16.166  1.00  0.00     0.281 C 
ATOM     21  C   UNL     1      28.228  31.615  16.467  1.00  0.00     0.180 C 
ATOM     22  C   UNL     1      27.988  32.696  15.444  1.00  0.00     0.202 C 
BRANCH  18  23
ATOM     23  C   UNL     1      31.516  32.579  15.928  1.00  0.00     0.191 C 
BRANCH  23  24
ATOM     24  O   UNL     1      31.085  32.215  14.671  1.00  0.00    -0.394 OA
ATOM     25  H   UNL     1      30.091  32.268  14.660  1.00  0.00     0.210 HD
ENDBRANCH  23  24
ENDBRANCH  18  23
BRANCH  20  26
ATOM     26  O   UNL     1      27.986  35.011  15.275  1.00  0.00    -0.350 OA
BRANCH  26  27
ATOM     27  C   UNL     1      29.046  35.818  14.914  1.00  0.00     0.169 C 
BRANCH  27  28
ATOM     28  C   UNL     1      29.177  35.737  13.390  1.00  0.00     0.119 C 
BRANCH  28  29
ATOM     29  N   UNL     1      30.214  34.774  13.051  1.00  0.00    -0.092 NA
ATOM     30  N   UNL     1      31.397  35.099  13.145  1.00  0.00     0.001 N 
ATOM     31  N   UNL     1      32.598  35.296  13.409  1.00  0.00    -0.003 NA
ENDBRANCH  28  29
ENDBRANCH  27  28
ENDBRANCH  26  27
ENDBRANCH  20  26
BRANCH  21  32
ATOM     32  O   UNL     1      28.030  30.346  15.913  1.00  0.00    -0.387 OA
ATOM     33  H   UNL     1      27.116  30.274  15.499  1.00  0.00     0.211 HD
ENDBRANCH  21  32
BRANCH  22  34
ATOM     34  O   UNL     1      26.646  32.697  15.119  1.00  0.00    -0.385 OA
ATOM     35  H   UNL     1      26.090  32.534  15.922  1.00  0.00     0.211 HD
ENDBRANCH  22  34
ENDBRANCH  16  17
ENDBRANCH  11  16
BRANCH  13  36
ATOM     36  O   UNL     1      29.202  34.767  19.468  1.00  0.00    -0.385 OA
ATOM     37  H   UNL     1      29.796  35.229  20.081  1.00  0.00     0.211 HD
ENDBRANCH  13  36
BRANCH  14  38
ATOM     38  O   UNL     1      27.611  32.506  21.632  1.00  0.00    -0.387 OA
ATOM     39  H   UNL     1      26.910  32.999  22.125  1.00  0.00     0.211 HD
ENDBRANCH  14  38
BRANCH  15  40
ATOM     40  O   UNL     1      29.632  31.850  22.807  1.00  0.00    -0.387 OA
ATOM     41  H   UNL     1      28.764  31.466  22.546  1.00  0.00     0.211 HD
ENDBRANCH  15  40
ENDBRANCH   9  10
ENDBRANCH   8   9
ENDBRANCH   3   8
BRANCH   3  42
ATOM     42  C   UNL     1      32.667  30.672  24.081  1.00  0.00     0.364 C 
ATOM     43  O   UNL     1      33.793  30.982  24.531  1.00  0.00    -0.246 OA
BRANCH  42  44
ATOM     44  O   UNL     1      31.590  30.845  24.941  1.00  0.00    -0.477 OA
ATOM     45  H   UNL     1      30.925  30.095  25.088  1.00  0.00     0.296 HD
ENDBRANCH  42  44
ENDBRANCH   3  42
BRANCH   6  46
ATOM     46  O   UNL     1      34.226  26.918  23.007  1.00  0.00    -0.391 OA
ATOM     47  H   UNL     1      35.147  27.237  23.121  1.00  0.00     0.211 HD
ENDBRANCH   6  46
BRANCH   7  48
ATOM     48  N   UNL     1      31.405  26.972  24.534  1.00  0.00    -0.348 N 
ATOM     49  C   UNL     1      30.401  25.985  24.629  1.00  0.00     0.217 C 
ATOM     50  H   UNL     1      31.790  27.370  25.431  1.00  0.00     0.163 HD
ATOM     51  C   UNL     1      29.931  25.544  25.975  1.00  0.00     0.114 C 
ATOM     52  O   UNL     1      29.861  25.441  23.638  1.00  0.00    -0.275 OA
ENDBRANCH   7  48
ENDBRANCH   1   2
BRANCH   1  53
ATOM     53  O   UNL     1      30.408  26.620  20.921  1.00  0.00    -0.388 OA
ATOM     54  H   UNL     1      31.190  26.200  20.504  1.00  0.00     0.211 HD
ENDBRANCH   1  53
BRANCH   1  55
ATOM     55  C   UNL     1      29.339  28.754  20.623  1.00  0.00     0.165 C 
BRANCH  55  56
ATOM     56  O   UNL     1      28.769  29.593  21.532  1.00  0.00    -0.388 OA
ATOM     57  H   UNL     1      27.787  29.619  21.520  1.00  0.00     0.211 HD
ENDBRANCH  55  56
BRANCH  55  58
ATOM     58  C   UNL     1      28.308  27.819  20.014  1.00  0.00     0.154 C 
BRANCH  58  59
ATOM     59  N   UNL     1      27.701  28.351  18.830  1.00  0.00    -0.319 N 
ATOM     60  C   UNL     1      26.325  28.328  18.494  1.00  0.00     0.407 C 
ATOM     61  H   UNL     1      28.306  28.834  18.074  1.00  0.00     0.167 HD
ATOM     62  O   UNL     1      25.478  27.828  19.234  1.00  0.00    -0.225 OA
BRANCH  60  63
ATOM     63  O   UNL     1      25.857  28.881  17.285  1.00  0.00    -0.443 OA
BRANCH  63  64
ATOM     64  C   UNL     1      24.722  29.673  17.154  1.00  0.00     0.294 C 
BRANCH  64  65
ATOM     65  C   UNL     1      24.514  30.237  15.814  1.00  0.00     0.120 A 
ATOM     66  C   UNL     1      23.496  31.074  15.413  1.00  0.00     0.138 A 
ATOM     67  N   UNL     1      25.291  30.043  14.715  1.00  0.00    -0.132 NA
ATOM     68  N   UNL     1      23.668  31.364  14.117  1.00  0.00    -0.243 N 
ATOM     69  N   UNL     1      24.751  30.732  13.732  1.00  0.00    -0.067 NA
BRANCH  68  70
ATOM     70  C   UNL     1      22.886  32.196  13.229  1.00  0.00     0.245 C 
BRANCH  70  71
ATOM     71  C   UNL     1      23.620  33.454  13.000  1.00  0.00     0.242 C 
ATOM     72  O   UNL     1      23.031  34.548  13.070  1.00  0.00    -0.273 OA
ATOM     73  N   UNL     1      25.003  33.433  12.698  1.00  0.00    -0.350 N 
ATOM     74  H   UNL     1      25.542  32.525  12.628  1.00  0.00     0.163 HD
BRANCH  73  75
ATOM     75  C   UNL     1      25.752  34.630  12.471  1.00  0.00     0.162 C 
BRANCH  75  76
ATOM     76  C   UNL     1      26.087  34.730  11.043  1.00  0.00     0.024 A 
ATOM     77  C   UNL     1      27.035  34.111  10.294  1.00  0.00     0.017 A 
ATOM     78  S   UNL     1      25.255  35.756   9.883  1.00  0.00    -0.147 S 
ATOM     79  C   UNL     1      27.122  34.386   8.984  1.00  0.00     0.012 A 
ATOM     80  C   UNL     1      26.275  35.266   8.420  1.00  0.00     0.065 A 
ENDBRANCH  75  76
ENDBRANCH  73  75
ENDBRANCH  70  71
ENDBRANCH  68  70
ENDBRANCH  64  65
ENDBRANCH  63  64
ENDBRANCH  60  63
ENDBRANCH  58  59
ENDBRANCH  55  58
ENDBRANCH   1  55
TORSDOF 33
BEGIN_RES LYS A 131
REMARK  4 active torsions:
REMARK  status: ('A' for Active; 'I' for Inactive)
REMARK    1  A    between atoms: CA   and  CB  
REMARK    2  A    between atoms: CB   and  CG  
REMARK    3  A    between atoms: CG   and  CD  
REMARK    4  A    between atoms: CD   and  CE  
ROOT
ATOM      1  CA  LYS A 131      29.867  25.555  16.977  1.00 20.52     0.186 C 
ENDROOT
BRANCH   1   2
ATOM      2  CB  LYS A 131      28.345  25.722  17.026  1.00 20.94     0.034 C 
BRANCH   2   3
ATOM      3  CG  LYS A 131      27.602  24.398  16.933  1.00 22.96     0.005 C 
BRANCH   3   4
ATOM      4  CD  LYS A 131      26.153  24.534  17.309  1.00 24.33     0.041 C 
BRANCH   4   5
ATOM      5  CE  LYS A 131      25.777  23.432  18.295  1.00 26.91     0.338 C 
ATOM      6  NZ  LYS A 131      25.495  24.006  19.632  1.00 27.40     0.618 N 
ENDBRANCH   4   5
ENDBRANCH   3   4
ENDBRANCH   2   3
ENDBRANCH   1   2
END_RES LYS A 131
BEGIN_RES LYS A 135
REMARK  4 active torsions:
REMARK  status: ('A' for Active; 'I' for Inactive)
REMARK    5  A    between atoms: CA   and  CB  
REMARK    6  A    between atoms: CB   and  CG  
REMARK    7  A    between atoms: CG   and  CD  
REMARK    8  A    between atoms: CD   and  CE  
ROOT
ATOM      7  CA  LYS A 135      33.193  34.663   9.290  1.00 25.02     0.186 C 
ENDROOT
BRANCH   7   8
ATOM      8  CB  LYS A 135      32.060  35.360  10.034  1.00 26.63     0.034 C 
BRANCH   8   9
ATOM      9  CG  LYS A 135      30.689  34.905   9.607  1.00 29.45     0.005 C 
BRANCH   9  10
ATOM     10  CD  LYS A 135      30.191  35.731   8.431  1.00 32.00     0.041 C 
BRANCH  10  11
ATOM     11  CE  LYS A 135      30.378  37.211   8.704  1.00 34.25     0.338 C 
ATOM     12  NZ  LYS A 135      29.083  37.863   9.044  1.00 35.99     0.618 N 
ENDBRANCH  10  11
ENDBRANCH   9  10
ENDBRANCH   8   9
ENDBRANCH   7   8
END_RES LYS A 135
