REMARK VINA RESULT:    -3.873      2.431      6.483
REMARK INTER + INTRA:         -23.736
REMARK INTER:                 -10.048
REMARK INTRA:                 -13.688
REMARK UNBOUND:               -13.184
REMARK SMILES CC(=O)N[C@@H]1[C@@H](O)C[C@](OC[C@H]2O[C@@H](O[C@H]3[C@H](O)[C@@H](O)[C@H](OCCN=[N+]=[N-])O[C@@H]3CO)[C@H](O)[C@@H](O)[C@H]2O)(C(=O)O)O[C@H]1C(O)[C@H](O)CNC(=O)OCc1cn(CC(O)Cn2ccnc2[N+](=O)[O-])nn1
REMARK SMILES IDX 43 1 42 2 9 3 8 4 41 5 6 6 5 7 10 8 11 9 12 10 14 11 13 12
REMARK SMILES IDX 32 13 34 14 36 15 15 16 16 17 29 18 28 19 21 20 17 21 19 22
REMARK SMILES IDX 30 23 31 24 22 26 23 27 24 28 25 29 26 30 27 31 18 32 20 34
REMARK SMILES IDX 33 36 35 38 37 40 38 42 39 43 40 44 7 46 4 48 2 49 1 51 3 52
REMARK SMILES IDX 44 53 45 55 46 56 47 58 48 59 49 60 50 62 51 63 52 64 53 65
REMARK SMILES IDX 54 66 69 67 55 68 68 69 56 70 57 71 58 72 59 74 60 75 61 76
REMARK SMILES IDX 64 77 62 78 63 79 65 80 66 81 67 82
REMARK H PARENT 31 25 18 33 20 35 33 37 35 39 37 41 40 45 7 47 4 50 44 54
REMARK H PARENT 46 57 48 61 58 73
REMARK Flexibility Score: inf
ROOT
ATOM      1  C   UNL     1      24.567  35.118  15.471  1.00  0.00     0.176 C 
ENDROOT
BRANCH   1   2
ATOM      2  C   UNL     1      25.299  35.910  14.346  1.00  0.00     0.178 C 
ATOM      3  C   UNL     1      27.317  35.679  13.240  1.00  0.00     0.272 C 
ATOM      4  C   UNL     1      27.543  37.160  13.319  1.00  0.00     0.113 C 
ATOM      5  O   UNL     1      26.529  35.251  14.303  1.00  0.00    -0.332 OA
ATOM      6  C   UNL     1      26.968  37.743  14.604  1.00  0.00     0.145 C 
ATOM      7  C   UNL     1      25.522  37.297  14.784  1.00  0.00     0.142 C 
BRANCH   3   8
ATOM      8  O   UNL     1      28.485  34.940  13.383  1.00  0.00    -0.338 OA
BRANCH   8   9
ATOM      9  C   UNL     1      29.673  35.555  13.252  1.00  0.00     0.199 C 
BRANCH   9  10
ATOM     10  C   UNL     1      30.594  35.357  14.440  1.00  0.00     0.179 C 
ATOM     11  C   UNL     1      30.805  34.302  16.397  1.00  0.00     0.282 C 
ATOM     12  O   UNL     1      30.370  34.100  15.065  1.00  0.00    -0.341 OA
ATOM     13  C   UNL     1      32.266  34.678  16.427  1.00  0.00     0.202 C 
ATOM     14  C   UNL     1      32.825  34.399  15.033  1.00  0.00     0.179 C 
ATOM     15  C   UNL     1      32.059  35.312  14.070  1.00  0.00     0.177 C 
BRANCH  11  16
ATOM     16  O   UNL     1      30.594  33.187  17.182  1.00  0.00    -0.341 OA
BRANCH  16  17
ATOM     17  C   UNL     1      29.316  32.740  16.934  1.00  0.00     0.184 C 
ATOM     18  C   UNL     1      28.458  32.604  18.182  1.00  0.00     0.178 C 
ATOM     19  O   UNL     1      27.148  32.543  17.698  1.00  0.00    -0.341 OA
ATOM     20  C   UNL     1      26.858  31.409  16.991  1.00  0.00     0.281 C 
ATOM     21  C   UNL     1      29.304  31.354  16.305  1.00  0.00     0.180 C 
ATOM     22  C   UNL     1      27.921  30.858  16.113  1.00  0.00     0.202 C 
BRANCH  18  23
ATOM     23  C   UNL     1      28.622  33.712  19.158  1.00  0.00     0.191 C 
BRANCH  23  24
ATOM     24  O   UNL     1      29.732  33.439  19.949  1.00  0.00    -0.394 OA
ATOM     25  H   UNL     1      29.946  32.473  19.993  1.00  0.00     0.210 HD
ENDBRANCH  23  24
ENDBRANCH  18  23
BRANCH  20  26
ATOM     26  O   UNL     1      25.765  31.745  16.148  1.00  0.00    -0.350 OA
BRANCH  26  27
ATOM     27  C   UNL     1      25.966  31.373  14.843  1.00  0.00     0.169 C 
BRANCH  27  28
ATOM     28  C   UNL     1      24.750  30.523  14.452  1.00  0.00     0.119 C 
BRANCH  28  29
ATOM     29  N   UNL     1      24.134  30.982  13.245  1.00  0.00    -0.092 NA
ATOM     30  N   UNL     1      23.631  32.126  13.159  1.00  0.00     0.001 N 
ATOM     31  N   UNL     1      23.460  33.264  12.755  1.00  0.00    -0.003 NA
ENDBRANCH  28  29
ENDBRANCH  27  28
ENDBRANCH  26  27
ENDBRANCH  20  26
BRANCH  21  32
ATOM     32  O   UNL     1      29.945  31.414  15.051  1.00  0.00    -0.387 OA
ATOM     33  H   UNL     1      30.389  32.280  15.016  1.00  0.00     0.211 HD
ENDBRANCH  21  32
BRANCH  22  34
ATOM     34  O   UNL     1      27.966  29.462  16.360  1.00  0.00    -0.385 OA
ATOM     35  H   UNL     1      27.063  29.114  16.582  1.00  0.00     0.211 HD
ENDBRANCH  22  34
ENDBRANCH  16  17
ENDBRANCH  11  16
BRANCH  13  36
ATOM     36  O   UNL     1      32.369  36.034  16.739  1.00  0.00    -0.385 OA
ATOM     37  H   UNL     1      32.847  36.537  16.022  1.00  0.00     0.211 HD
ENDBRANCH  13  36
BRANCH  14  38
ATOM     38  O   UNL     1      32.467  33.105  14.698  1.00  0.00    -0.387 OA
ATOM     39  H   UNL     1      31.633  32.862  15.136  1.00  0.00     0.211 HD
ENDBRANCH  14  38
BRANCH  15  40
ATOM     40  O   UNL     1      32.277  34.791  12.814  1.00  0.00    -0.387 OA
ATOM     41  H   UNL     1      33.161  35.047  12.447  1.00  0.00     0.211 HD
ENDBRANCH  15  40
ENDBRANCH   9  10
ENDBRANCH   8   9
ENDBRANCH   3   8
BRANCH   3  42
ATOM     42  C   UNL     1      26.658  35.309  11.980  1.00  0.00     0.364 C 
ATOM     43  O   UNL     1      26.459  36.159  11.044  1.00  0.00    -0.246 OA
BRANCH  42  44
ATOM     44  O   UNL     1      26.200  34.038  11.695  1.00  0.00    -0.477 OA
ATOM     45  H   UNL     1      26.394  33.223  12.285  1.00  0.00     0.296 HD
ENDBRANCH  42  44
ENDBRANCH   3  42
BRANCH   6  46
ATOM     46  O   UNL     1      27.743  37.434  15.704  1.00  0.00    -0.391 OA
ATOM     47  H   UNL     1      28.625  37.884  15.670  1.00  0.00     0.211 HD
ENDBRANCH   6  46
BRANCH   7  48
ATOM     48  N   UNL     1      24.622  38.308  14.327  1.00  0.00    -0.348 N 
ATOM     49  C   UNL     1      23.434  38.740  14.906  1.00  0.00     0.217 C 
ATOM     50  H   UNL     1      24.889  38.841  13.395  1.00  0.00     0.163 HD
ATOM     51  C   UNL     1      22.620  39.863  14.285  1.00  0.00     0.114 C 
ATOM     52  O   UNL     1      22.958  38.266  15.939  1.00  0.00    -0.275 OA
ENDBRANCH   7  48
ENDBRANCH   1   2
BRANCH   1  53
ATOM     53  O   UNL     1      23.178  35.326  15.273  1.00  0.00    -0.388 OA
ATOM     54  H   UNL     1      22.724  34.526  14.967  1.00  0.00     0.211 HD
ENDBRANCH   1  53
BRANCH   1  55
ATOM     55  C   UNL     1      24.949  35.468  16.833  1.00  0.00     0.165 C 
BRANCH  55  56
ATOM     56  O   UNL     1      26.237  35.205  17.222  1.00  0.00    -0.388 OA
ATOM     57  H   UNL     1      26.323  34.896  18.151  1.00  0.00     0.211 HD
ENDBRANCH  55  56
BRANCH  55  58
ATOM     58  C   UNL     1      23.982  34.895  17.897  1.00  0.00     0.154 C 
BRANCH  58  59
ATOM     59  N   UNL     1      23.895  33.466  17.619  1.00  0.00    -0.319 N 
ATOM     60  C   UNL     1      23.492  32.527  18.625  1.00  0.00     0.407 C 
ATOM     61  H   UNL     1      24.127  33.097  16.670  1.00  0.00     0.167 HD
ATOM     62  O   UNL     1      23.204  32.936  19.770  1.00  0.00    -0.225 OA
BRANCH  60  63
ATOM     63  O   UNL     1      23.418  31.177  18.357  1.00  0.00    -0.443 OA
BRANCH  63  64
ATOM     64  C   UNL     1      23.438  30.131  19.280  1.00  0.00     0.294 C 
BRANCH  64  65
ATOM     65  C   UNL     1      24.541  29.192  18.960  1.00  0.00     0.120 A 
ATOM     66  C   UNL     1      25.363  28.543  19.864  1.00  0.00     0.138 A 
ATOM     67  N   UNL     1      24.966  28.776  17.758  1.00  0.00    -0.132 NA
ATOM     68  N   UNL     1      26.239  27.769  19.177  1.00  0.00    -0.249 N 
ATOM     69  N   UNL     1      25.976  27.931  17.906  1.00  0.00    -0.067 NA
BRANCH  68  70
ATOM     70  C   UNL     1      27.226  26.913  19.828  1.00  0.00     0.181 C 
BRANCH  70  71
ATOM     71  C   UNL     1      28.497  27.755  19.905  1.00  0.00     0.170 C 
BRANCH  71  72
ATOM     72  O   UNL     1      28.382  28.804  19.024  1.00  0.00    -0.388 OA
ATOM     73  H   UNL     1      27.670  28.620  18.365  1.00  0.00     0.211 HD
ENDBRANCH  71  72
BRANCH  71  74
ATOM     74  C   UNL     1      28.752  28.189  21.316  1.00  0.00     0.239 C 
BRANCH  74  75
ATOM     75  N   UNL     1      30.174  28.100  21.606  1.00  0.00    -0.227 N 
ATOM     76  C   UNL     1      30.731  26.981  22.174  1.00  0.00     0.204 A 
ATOM     77  C   UNL     1      31.129  29.001  21.376  1.00  0.00     0.434 A 
ATOM     78  C   UNL     1      32.082  27.218  22.289  1.00  0.00     0.245 A 
ATOM     79  N   UNL     1      32.304  28.453  21.797  1.00  0.00    -0.074 NA
BRANCH  77  80
ATOM     80  N   UNL     1      30.965  30.291  20.814  1.00  0.00    -0.047 N 
ATOM     81  O   UNL     1      30.993  31.329  21.547  1.00  0.00    -0.390 OA
ATOM     82  O   UNL     1      30.760  30.516  19.481  1.00  0.00    -0.390 OA
ENDBRANCH  77  80
ENDBRANCH  74  75
ENDBRANCH  71  74
ENDBRANCH  70  71
ENDBRANCH  68  70
ENDBRANCH  64  65
ENDBRANCH  63  64
ENDBRANCH  60  63
ENDBRANCH  58  59
ENDBRANCH  55  58
ENDBRANCH   1  55
TORSDOF 35
BEGIN_RES LYS A 131
REMARK  4 active torsions:
REMARK  status: ('A' for Active; 'I' for Inactive)
REMARK    1  A    between atoms: CA   and  CB  
REMARK    2  A    between atoms: CB   and  CG  
REMARK    3  A    between atoms: CG   and  CD  
REMARK    4  A    between atoms: CD   and  CE  
ROOT
ATOM      1  CA  LYS A 131      29.867  25.555  16.977  1.00 20.52     0.186 C 
ENDROOT
BRANCH   1   2
ATOM      2  CB  LYS A 131      28.345  25.722  17.026  1.00 20.94     0.034 C 
BRANCH   2   3
ATOM      3  CG  LYS A 131      27.601  24.405  16.868  1.00 22.96     0.005 C 
BRANCH   3   4
ATOM      4  CD  LYS A 131      26.151  24.525  17.247  1.00 24.33     0.041 C 
BRANCH   4   5
ATOM      5  CE  LYS A 131      25.634  23.169  17.718  1.00 26.91     0.338 C 
ATOM      6  NZ  LYS A 131      25.471  23.159  19.191  1.00 27.40     0.618 N 
ENDBRANCH   4   5
ENDBRANCH   3   4
ENDBRANCH   2   3
ENDBRANCH   1   2
END_RES LYS A 131
BEGIN_RES LYS A 135
REMARK  4 active torsions:
REMARK  status: ('A' for Active; 'I' for Inactive)
REMARK    5  A    between atoms: CA   and  CB  
REMARK    6  A    between atoms: CB   and  CG  
REMARK    7  A    between atoms: CG   and  CD  
REMARK    8  A    between atoms: CD   and  CE  
ROOT
ATOM      7  CA  LYS A 135      33.193  34.663   9.290  1.00 25.02     0.186 C 
ENDROOT
BRANCH   7   8
ATOM      8  CB  LYS A 135      32.060  35.360  10.034  1.00 26.63     0.034 C 
BRANCH   8   9
ATOM      9  CG  LYS A 135      30.699  34.791   9.728  1.00 29.45     0.005 C 
BRANCH   9  10
ATOM     10  CD  LYS A 135      30.560  34.501   8.241  1.00 32.00     0.041 C 
BRANCH  10  11
ATOM     11  CE  LYS A 135      29.210  34.967   7.731  1.00 34.25     0.338 C 
ATOM     12  NZ  LYS A 135      28.103  34.409   8.557  1.00 35.99     0.618 N 
ENDBRANCH  10  11
ENDBRANCH   9  10
ENDBRANCH   8   9
ENDBRANCH   7   8
END_RES LYS A 135
