REMARK VINA RESULT:    -3.538      2.719      7.292
REMARK INTER + INTRA:         -23.211
REMARK INTER:                 -12.791
REMARK INTRA:                 -10.420
REMARK UNBOUND:               -13.881
REMARK SMILES CCOC(=O)c1cccc(-n2cc(COC(=O)NC[C@@H](O)C(O)[C@@H]3O[C@@](OC[C@H]4O[C@@H](O[C@H]5[C@H](O)[C@@H](O)[C@H](OCCN=[N+]=[N-])O[C@@H]5CO)[C@H](O)[C@@H](O)[C@H]4O)(C(=O)O)C[C@H](O)[C@H]3NC(C)=O)nn2)c1
REMARK SMILES IDX 22 1 24 2 26 3 58 4 25 5 59 6 61 7 27 8 28 9 29 10 31 11
REMARK SMILES IDX 30 12 49 13 51 14 53 15 32 16 33 17 46 18 45 19 38 20 34 21
REMARK SMILES IDX 36 22 47 23 48 24 39 26 40 27 41 28 42 29 43 30 44 31 35 32
REMARK SMILES IDX 37 34 50 36 52 38 54 40 55 42 56 43 57 44 60 46 62 48 63 49
REMARK SMILES IDX 64 51 65 52 23 53 20 55 21 56 19 58 18 59 16 60 17 62 15 63
REMARK SMILES IDX 14 64 13 65 12 66 66 67 11 68 67 69 10 70 68 71 9 72 6 73
REMARK SMILES IDX 8 74 7 75 4 76 5 77 3 78 2 79 1 80
REMARK H PARENT 48 25 35 33 37 35 50 37 52 39 54 41 57 45 60 47 62 50 23 54
REMARK H PARENT 21 57 18 61
REMARK Flexibility Score: inf
ROOT
ATOM      1  C   UNL     1      26.744  32.245  18.741  1.00  0.00     0.176 C 
ENDROOT
BRANCH   1   2
ATOM      2  C   UNL     1      27.929  31.719  18.048  1.00  0.00     0.178 C 
ATOM      3  C   UNL     1      29.682  32.656  16.768  1.00  0.00     0.272 C 
ATOM      4  C   UNL     1      30.061  31.210  16.783  1.00  0.00     0.113 C 
ATOM      5  O   UNL     1      28.265  32.618  17.033  1.00  0.00    -0.332 OA
ATOM      6  C   UNL     1      28.937  30.285  16.346  1.00  0.00     0.145 C 
ATOM      7  C   UNL     1      27.827  30.361  17.447  1.00  0.00     0.142 C 
BRANCH   3   8
ATOM      8  O   UNL     1      29.793  33.166  15.513  1.00  0.00    -0.338 OA
BRANCH   8   9
ATOM      9  C   UNL     1      30.890  33.292  14.807  1.00  0.00     0.199 C 
BRANCH   9  10
ATOM     10  C   UNL     1      31.291  34.422  13.959  1.00  0.00     0.179 C 
ATOM     11  C   UNL     1      30.547  35.915  12.318  1.00  0.00     0.282 C 
ATOM     12  O   UNL     1      30.464  34.635  12.915  1.00  0.00    -0.341 OA
ATOM     13  C   UNL     1      31.807  36.620  12.714  1.00  0.00     0.202 C 
ATOM     14  C   UNL     1      31.985  36.738  14.194  1.00  0.00     0.179 C 
ATOM     15  C   UNL     1      31.193  35.680  14.881  1.00  0.00     0.177 C 
BRANCH  11  16
ATOM     16  O   UNL     1      29.375  36.535  12.638  1.00  0.00    -0.341 OA
BRANCH  16  17
ATOM     17  C   UNL     1      28.404  36.650  11.704  1.00  0.00     0.184 C 
ATOM     18  C   UNL     1      27.744  37.994  11.863  1.00  0.00     0.178 C 
ATOM     19  O   UNL     1      26.763  38.198  10.891  1.00  0.00    -0.341 OA
ATOM     20  C   UNL     1      25.692  37.304  11.172  1.00  0.00     0.281 C 
ATOM     21  C   UNL     1      27.296  35.596  11.870  1.00  0.00     0.180 C 
ATOM     22  C   UNL     1      26.222  35.937  10.840  1.00  0.00     0.202 C 
BRANCH  18  23
ATOM     23  C   UNL     1      28.747  39.107  11.760  1.00  0.00     0.191 C 
BRANCH  23  24
ATOM     24  O   UNL     1      28.209  40.304  12.300  1.00  0.00    -0.394 OA
ATOM     25  H   UNL     1      27.364  40.113  12.781  1.00  0.00     0.210 HD
ENDBRANCH  23  24
ENDBRANCH  18  23
BRANCH  20  26
ATOM     26  O   UNL     1      24.617  37.693  10.427  1.00  0.00    -0.350 OA
BRANCH  26  27
ATOM     27  C   UNL     1      24.967  38.040   9.130  1.00  0.00     0.169 C 
BRANCH  27  28
ATOM     28  C   UNL     1      24.154  39.168   8.568  1.00  0.00     0.119 C 
BRANCH  28  29
ATOM     29  N   UNL     1      23.378  38.674   7.423  1.00  0.00    -0.092 NA
ATOM     30  N   UNL     1      22.794  37.590   7.553  1.00  0.00     0.001 N 
ATOM     31  N   UNL     1      21.966  36.659   7.613  1.00  0.00    -0.003 NA
ENDBRANCH  28  29
ENDBRANCH  27  28
ENDBRANCH  26  27
ENDBRANCH  20  26
BRANCH  21  32
ATOM     32  O   UNL     1      27.750  34.333  11.518  1.00  0.00    -0.387 OA
ATOM     33  H   UNL     1      27.736  33.778  12.334  1.00  0.00     0.211 HD
ENDBRANCH  21  32
BRANCH  22  34
ATOM     34  O   UNL     1      25.220  34.972  10.829  1.00  0.00    -0.385 OA
ATOM     35  H   UNL     1      25.175  34.462   9.966  1.00  0.00     0.211 HD
ENDBRANCH  22  34
ENDBRANCH  16  17
ENDBRANCH  11  16
BRANCH  13  36
ATOM     36  O   UNL     1      32.901  35.989  12.090  1.00  0.00    -0.385 OA
ATOM     37  H   UNL     1      32.619  35.266  11.485  1.00  0.00     0.211 HD
ENDBRANCH  13  36
BRANCH  14  38
ATOM     38  O   UNL     1      31.814  38.017  14.673  1.00  0.00    -0.387 OA
ATOM     39  H   UNL     1      31.189  38.479  14.053  1.00  0.00     0.211 HD
ENDBRANCH  14  38
BRANCH  15  40
ATOM     40  O   UNL     1      29.903  36.041  15.114  1.00  0.00    -0.387 OA
ATOM     41  H   UNL     1      29.314  35.633  14.431  1.00  0.00     0.211 HD
ENDBRANCH  15  40
ENDBRANCH   9  10
ENDBRANCH   8   9
ENDBRANCH   3   8
BRANCH   3  42
ATOM     42  C   UNL     1      30.282  33.488  17.801  1.00  0.00     0.364 C 
ATOM     43  O   UNL     1      31.125  33.057  18.602  1.00  0.00    -0.246 OA
BRANCH  42  44
ATOM     44  O   UNL     1      29.920  34.830  17.927  1.00  0.00    -0.477 OA
ATOM     45  H   UNL     1      30.188  35.409  18.696  1.00  0.00     0.296 HD
ENDBRANCH  42  44
ENDBRANCH   3  42
BRANCH   6  46
ATOM     46  O   UNL     1      28.371  30.795  15.204  1.00  0.00    -0.391 OA
ATOM     47  H   UNL     1      28.889  31.580  14.902  1.00  0.00     0.211 HD
ENDBRANCH   6  46
BRANCH   7  48
ATOM     48  N   UNL     1      28.123  29.298  18.378  1.00  0.00    -0.348 N 
ATOM     49  C   UNL     1      27.296  28.141  18.558  1.00  0.00     0.217 C 
ATOM     50  H   UNL     1      28.992  29.314  18.993  1.00  0.00     0.163 HD
ATOM     51  C   UNL     1      27.632  27.065  19.527  1.00  0.00     0.114 C 
ATOM     52  O   UNL     1      26.253  28.017  17.884  1.00  0.00    -0.275 OA
ENDBRANCH   7  48
ENDBRANCH   1   2
BRANCH   1  53
ATOM     53  O   UNL     1      25.929  31.327  19.347  1.00  0.00    -0.388 OA
ATOM     54  H   UNL     1      25.660  31.595  20.257  1.00  0.00     0.211 HD
ENDBRANCH   1  53
BRANCH   1  55
ATOM     55  C   UNL     1      26.945  33.460  19.611  1.00  0.00     0.165 C 
BRANCH  55  56
ATOM     56  O   UNL     1      26.709  33.148  20.953  1.00  0.00    -0.388 OA
ATOM     57  H   UNL     1      25.983  33.720  21.315  1.00  0.00     0.211 HD
ENDBRANCH  55  56
BRANCH  55  58
ATOM     58  C   UNL     1      26.267  34.704  19.122  1.00  0.00     0.154 C 
BRANCH  58  59
ATOM     59  N   UNL     1      26.001  34.661  17.702  1.00  0.00    -0.319 N 
ATOM     60  C   UNL     1      26.704  35.485  16.796  1.00  0.00     0.407 C 
ATOM     61  H   UNL     1      25.263  33.997  17.311  1.00  0.00     0.167 HD
ATOM     62  O   UNL     1      27.600  36.302  17.107  1.00  0.00    -0.225 OA
BRANCH  60  63
ATOM     63  O   UNL     1      26.409  35.433  15.419  1.00  0.00    -0.443 OA
BRANCH  63  64
ATOM     64  C   UNL     1      25.278  35.989  14.824  1.00  0.00     0.294 C 
BRANCH  64  65
ATOM     65  C   UNL     1      24.417  35.059  14.082  1.00  0.00     0.121 A 
ATOM     66  C   UNL     1      24.483  33.670  14.123  1.00  0.00     0.144 A 
ATOM     67  N   UNL     1      23.431  35.357  13.245  1.00  0.00    -0.131 NA
ATOM     68  N   UNL     1      23.538  33.198  13.311  1.00  0.00    -0.220 N 
ATOM     69  N   UNL     1      22.906  34.222  12.785  1.00  0.00    -0.062 NA
BRANCH  68  70
ATOM     70  C   UNL     1      23.267  31.834  13.068  1.00  0.00     0.067 A 
ATOM     71  C   UNL     1      21.995  31.395  12.710  1.00  0.00     0.044 A 
ATOM     72  C   UNL     1      24.240  30.875  13.161  1.00  0.00     0.028 A 
ATOM     73  C   UNL     1      21.686  30.086  12.454  1.00  0.00     0.062 A 
ATOM     74  C   UNL     1      23.969  29.539  12.909  1.00  0.00     0.003 A 
ATOM     75  C   UNL     1      22.700  29.141  12.558  1.00  0.00     0.016 A 
BRANCH  73  76
ATOM     76  C   UNL     1      20.340  29.698  12.088  1.00  0.00     0.338 C 
ATOM     77  O   UNL     1      19.429  30.548  12.106  1.00  0.00    -0.246 OA
BRANCH  76  78
ATOM     78  O   UNL     1      20.072  28.404  11.722  1.00  0.00    -0.462 OA
BRANCH  78  79
ATOM     79  C   UNL     1      19.066  27.608  12.305  1.00  0.00     0.230 C 
ATOM     80  C   UNL     1      18.399  26.761  11.244  1.00  0.00     0.049 C 
ENDBRANCH  78  79
ENDBRANCH  76  78
ENDBRANCH  73  76
ENDBRANCH  68  70
ENDBRANCH  64  65
ENDBRANCH  63  64
ENDBRANCH  60  63
ENDBRANCH  58  59
ENDBRANCH  55  58
ENDBRANCH   1  55
TORSDOF 33
BEGIN_RES LYS A 131
REMARK  4 active torsions:
REMARK  status: ('A' for Active; 'I' for Inactive)
REMARK    1  A    between atoms: CA   and  CB  
REMARK    2  A    between atoms: CB   and  CG  
REMARK    3  A    between atoms: CG   and  CD  
REMARK    4  A    between atoms: CD   and  CE  
ROOT
ATOM      1  CA  LYS A 131      29.867  25.555  16.977  1.00 20.52     0.186 C 
ENDROOT
BRANCH   1   2
ATOM      2  CB  LYS A 131      28.345  25.722  17.026  1.00 20.94     0.034 C 
BRANCH   2   3
ATOM      3  CG  LYS A 131      27.602  24.397  16.947  1.00 22.96     0.005 C 
BRANCH   3   4
ATOM      4  CD  LYS A 131      26.113  24.575  17.053  1.00 24.33     0.041 C 
BRANCH   4   5
ATOM      5  CE  LYS A 131      25.557  23.607  18.092  1.00 26.91     0.338 C 
ATOM      6  NZ  LYS A 131      25.462  22.240  17.528  1.00 27.40     0.618 N 
ENDBRANCH   4   5
ENDBRANCH   3   4
ENDBRANCH   2   3
ENDBRANCH   1   2
END_RES LYS A 131
BEGIN_RES LYS A 135
REMARK  4 active torsions:
REMARK  status: ('A' for Active; 'I' for Inactive)
REMARK    5  A    between atoms: CA   and  CB  
REMARK    6  A    between atoms: CB   and  CG  
REMARK    7  A    between atoms: CG   and  CD  
REMARK    8  A    between atoms: CD   and  CE  
ROOT
ATOM      7  CA  LYS A 135      33.193  34.663   9.290  1.00 25.02     0.186 C 
ENDROOT
BRANCH   7   8
ATOM      8  CB  LYS A 135      32.060  35.360  10.034  1.00 26.63     0.034 C 
BRANCH   8   9
ATOM      9  CG  LYS A 135      30.878  35.689   9.159  1.00 29.45     0.005 C 
BRANCH   9  10
ATOM     10  CD  LYS A 135      30.389  34.449   8.428  1.00 32.00     0.041 C 
BRANCH  10  11
ATOM     11  CE  LYS A 135      28.877  34.460   8.313  1.00 34.25     0.338 C 
ATOM     12  NZ  LYS A 135      28.429  35.344   7.202  1.00 35.99     0.618 N 
ENDBRANCH  10  11
ENDBRANCH   9  10
ENDBRANCH   8   9
ENDBRANCH   7   8
END_RES LYS A 135
