REMARK VINA RESULT:    -4.511      1.996      6.328
REMARK INTER + INTRA:         -21.644
REMARK INTER:                 -12.400
REMARK INTRA:                  -9.244
REMARK UNBOUND:               -10.541
REMARK SMILES CC(=O)N[C@@H]1[C@@H](O)C[C@](OC[C@H]2O[C@@H](O[C@H]3[C@H](O)[C@@H](O)[C@H](OCCN=[N+]=[N-])O[C@@H]3CO)[C@H](O)[C@@H](O)[C@H]2O)(C(=O)O)O[C@H]1C(O)[C@H](O)CNC(=O)OCc1cn(-c2ccccc2)nn1
REMARK SMILES IDX 9 1 8 2 6 3 5 4 42 5 41 6 10 7 11 8 12 9 14 10 13 11 32 12
REMARK SMILES IDX 34 13 36 14 15 15 16 16 29 17 28 18 21 19 17 20 19 21 30 22
REMARK SMILES IDX 31 23 22 25 23 26 24 27 25 28 26 29 27 30 18 31 20 33 33 35
REMARK SMILES IDX 35 37 37 39 38 41 39 42 40 43 7 45 43 47 44 48 45 50 46 51
REMARK SMILES IDX 47 53 48 54 49 55 50 57 51 58 52 59 53 60 54 61 63 62 55 63
REMARK SMILES IDX 62 64 56 65 57 66 61 67 58 68 60 69 59 70 4 71 2 72 1 74
REMARK SMILES IDX 3 75
REMARK H PARENT 31 24 18 32 20 34 33 36 35 38 37 40 40 44 7 46 44 49 46 52
REMARK H PARENT 48 56 4 73
REMARK Flexibility Score: inf
ROOT
ATOM      1  C   UNL     1      31.408  35.805  14.348  1.00  0.00     0.272 C 
ATOM      2  C   UNL     1      31.926  37.184  14.522  1.00  0.00     0.113 C 
ATOM      3  C   UNL     1      31.101  38.252  13.909  1.00  0.00     0.145 C 
ATOM      4  C   UNL     1      29.625  37.985  14.142  1.00  0.00     0.142 C 
ATOM      5  C   UNL     1      29.346  36.626  13.540  1.00  0.00     0.178 C 
ATOM      6  O   UNL     1      29.982  35.725  14.353  1.00  0.00    -0.332 OA
ENDROOT
BRANCH   1   7
ATOM      7  O   UNL     1      31.740  34.925  15.336  1.00  0.00    -0.338 OA
BRANCH   7   8
ATOM      8  C   UNL     1      31.089  34.797  16.477  1.00  0.00     0.199 C 
BRANCH   8   9
ATOM      9  C   UNL     1      30.578  33.504  16.982  1.00  0.00     0.179 C 
ATOM     10  C   UNL     1      28.533  32.500  17.488  1.00  0.00     0.282 C 
ATOM     11  O   UNL     1      29.180  33.722  17.205  1.00  0.00    -0.341 OA
ATOM     12  C   UNL     1      29.458  31.342  17.672  1.00  0.00     0.202 C 
ATOM     13  C   UNL     1      30.315  31.124  16.444  1.00  0.00     0.179 C 
ATOM     14  C   UNL     1      30.642  32.465  15.855  1.00  0.00     0.177 C 
BRANCH  10  15
ATOM     15  O   UNL     1      27.691  32.236  16.471  1.00  0.00    -0.341 OA
BRANCH  15  16
ATOM     16  C   UNL     1      26.357  32.176  16.638  1.00  0.00     0.184 C 
ATOM     17  C   UNL     1      25.896  31.787  18.024  1.00  0.00     0.178 C 
ATOM     18  O   UNL     1      24.606  31.246  17.855  1.00  0.00    -0.341 OA
ATOM     19  C   UNL     1      24.820  29.903  17.477  1.00  0.00     0.281 C 
ATOM     20  C   UNL     1      25.669  31.253  15.632  1.00  0.00     0.180 C 
ATOM     21  C   UNL     1      25.602  29.843  16.181  1.00  0.00     0.202 C 
BRANCH  17  22
ATOM     22  C   UNL     1      25.752  32.982  18.941  1.00  0.00     0.191 C 
BRANCH  22  23
ATOM     23  O   UNL     1      26.044  34.137  18.210  1.00  0.00    -0.394 OA
ATOM     24  H   UNL     1      25.219  34.701  18.073  1.00  0.00     0.210 HD
ENDBRANCH  22  23
ENDBRANCH  17  22
BRANCH  19  25
ATOM     25  O   UNL     1      23.654  29.219  17.318  1.00  0.00    -0.350 OA
BRANCH  25  26
ATOM     26  C   UNL     1      23.669  28.107  16.523  1.00  0.00     0.169 C 
BRANCH  26  27
ATOM     27  C   UNL     1      22.532  27.996  15.557  1.00  0.00     0.119 C 
BRANCH  27  28
ATOM     28  N   UNL     1      22.353  29.183  14.805  1.00  0.00    -0.092 NA
ATOM     29  N   UNL     1      22.932  29.370  13.719  1.00  0.00     0.001 N 
ATOM     30  N   UNL     1      23.819  29.525  12.864  1.00  0.00    -0.003 NA
ENDBRANCH  27  28
ENDBRANCH  26  27
ENDBRANCH  25  26
ENDBRANCH  19  25
BRANCH  20  31
ATOM     31  O   UNL     1      24.368  31.640  15.341  1.00  0.00    -0.387 OA
ATOM     32  H   UNL     1      24.272  32.624  15.341  1.00  0.00     0.211 HD
ENDBRANCH  20  31
BRANCH  21  33
ATOM     33  O   UNL     1      26.852  29.293  16.383  1.00  0.00    -0.385 OA
ATOM     34  H   UNL     1      27.295  29.612  17.202  1.00  0.00     0.211 HD
ENDBRANCH  21  33
ENDBRANCH  15  16
ENDBRANCH  10  15
BRANCH  12  35
ATOM     35  O   UNL     1      30.176  31.353  18.860  1.00  0.00    -0.385 OA
ATOM     36  H   UNL     1      31.140  31.350  18.624  1.00  0.00     0.211 HD
ENDBRANCH  12  35
BRANCH  13  37
ATOM     37  O   UNL     1      29.589  30.398  15.519  1.00  0.00    -0.387 OA
ATOM     38  H   UNL     1      29.914  29.474  15.381  1.00  0.00     0.211 HD
ENDBRANCH  13  37
BRANCH  14  39
ATOM     39  O   UNL     1      29.657  32.862  14.921  1.00  0.00    -0.387 OA
ATOM     40  H   UNL     1      28.900  33.296  15.364  1.00  0.00     0.211 HD
ENDBRANCH  14  39
ENDBRANCH   8   9
ENDBRANCH   7   8
ENDBRANCH   1   7
BRANCH   1  41
ATOM     41  C   UNL     1      31.734  35.314  12.989  1.00  0.00     0.364 C 
ATOM     42  O   UNL     1      32.572  35.869  12.280  1.00  0.00    -0.246 OA
BRANCH  41  43
ATOM     43  O   UNL     1      31.075  34.180  12.470  1.00  0.00    -0.477 OA
ATOM     44  H   UNL     1      30.906  33.395  13.096  1.00  0.00     0.296 HD
ENDBRANCH  41  43
ENDBRANCH   1  41
BRANCH   3  45
ATOM     45  O   UNL     1      31.482  39.491  14.420  1.00  0.00    -0.391 OA
ATOM     46  H   UNL     1      31.341  39.460  15.382  1.00  0.00     0.211 HD
ENDBRANCH   3  45
BRANCH   5  47
ATOM     47  C   UNL     1      27.859  36.291  13.604  1.00  0.00     0.176 C 
BRANCH  47  48
ATOM     48  O   UNL     1      27.515  35.685  12.426  1.00  0.00    -0.388 OA
ATOM     49  H   UNL     1      27.573  36.264  11.634  1.00  0.00     0.211 HD
ENDBRANCH  47  48
BRANCH  47  50
ATOM     50  C   UNL     1      27.422  35.533  14.786  1.00  0.00     0.165 C 
BRANCH  50  51
ATOM     51  O   UNL     1      27.083  34.225  14.317  1.00  0.00    -0.388 OA
ATOM     52  H   UNL     1      27.546  33.600  14.904  1.00  0.00     0.211 HD
ENDBRANCH  50  51
BRANCH  50  53
ATOM     53  C   UNL     1      26.091  36.059  15.348  1.00  0.00     0.154 C 
BRANCH  53  54
ATOM     54  N   UNL     1      25.186  36.464  14.301  1.00  0.00    -0.319 N 
ATOM     55  C   UNL     1      24.105  35.619  13.871  1.00  0.00     0.407 C 
ATOM     56  H   UNL     1      25.259  37.376  13.805  1.00  0.00     0.167 HD
ATOM     57  O   UNL     1      23.910  34.504  14.406  1.00  0.00    -0.225 OA
BRANCH  55  58
ATOM     58  O   UNL     1      23.252  36.017  12.858  1.00  0.00    -0.443 OA
BRANCH  58  59
ATOM     59  C   UNL     1      23.579  37.104  12.000  1.00  0.00     0.294 C 
BRANCH  59  60
ATOM     60  C   UNL     1      24.100  36.483  10.747  1.00  0.00     0.121 A 
ATOM     61  C   UNL     1      25.180  36.990  10.037  1.00  0.00     0.144 A 
ATOM     62  N   UNL     1      23.701  35.403  10.071  1.00  0.00    -0.131 NA
ATOM     63  N   UNL     1      25.404  36.203   8.952  1.00  0.00    -0.220 N 
ATOM     64  N   UNL     1      24.494  35.257   9.005  1.00  0.00    -0.062 NA
BRANCH  63  65
ATOM     65  C   UNL     1      26.411  36.377   7.969  1.00  0.00     0.066 A 
ATOM     66  C   UNL     1      27.220  35.339   7.567  1.00  0.00     0.028 A 
ATOM     67  C   UNL     1      26.595  37.610   7.383  1.00  0.00     0.028 A 
ATOM     68  C   UNL     1      28.196  35.499   6.606  1.00  0.00     0.002 A 
ATOM     69  C   UNL     1      27.578  37.766   6.417  1.00  0.00     0.002 A 
ATOM     70  C   UNL     1      28.395  36.743   6.004  1.00  0.00     0.000 A 
ENDBRANCH  63  65
ENDBRANCH  59  60
ENDBRANCH  58  59
ENDBRANCH  55  58
ENDBRANCH  53  54
ENDBRANCH  50  53
ENDBRANCH  47  50
ENDBRANCH   5  47
BRANCH   4  71
ATOM     71  N   UNL     1      28.810  39.056  13.690  1.00  0.00    -0.348 N 
ATOM     72  C   UNL     1      27.919  39.679  14.602  1.00  0.00     0.217 C 
ATOM     73  H   UNL     1      28.850  39.414  12.718  1.00  0.00     0.163 HD
ATOM     74  C   UNL     1      27.050  40.809  14.153  1.00  0.00     0.114 C 
ATOM     75  O   UNL     1      27.820  39.315  15.813  1.00  0.00    -0.275 OA
ENDBRANCH   4  71
TORSDOF 30
BEGIN_RES LYS A 131
REMARK  4 active torsions:
REMARK  status: ('A' for Active; 'I' for Inactive)
REMARK    1  A    between atoms: CA   and  CB  
REMARK    2  A    between atoms: CB   and  CG  
REMARK    3  A    between atoms: CG   and  CD  
REMARK    4  A    between atoms: CD   and  CE  
ROOT
ATOM      1  CA  LYS A 131      29.867  25.555  16.977  1.00 20.52     0.186 C 
ENDROOT
BRANCH   1   2
ATOM      2  CB  LYS A 131      28.345  25.722  17.026  1.00 20.94     0.034 C 
BRANCH   2   3
ATOM      3  CG  LYS A 131      27.601  24.403  16.888  1.00 22.96     0.005 C 
BRANCH   3   4
ATOM      4  CD  LYS A 131      26.453  24.296  17.853  1.00 24.33     0.041 C 
BRANCH   4   5
ATOM      5  CE  LYS A 131      25.671  23.016  17.574  1.00 26.91     0.338 C 
ATOM      6  NZ  LYS A 131      24.283  23.335  17.165  1.00 27.40     0.618 N 
ENDBRANCH   4   5
ENDBRANCH   3   4
ENDBRANCH   2   3
ENDBRANCH   1   2
END_RES LYS A 131
BEGIN_RES LYS A 135
REMARK  4 active torsions:
REMARK  status: ('A' for Active; 'I' for Inactive)
REMARK    5  A    between atoms: CA   and  CB  
REMARK    6  A    between atoms: CB   and  CG  
REMARK    7  A    between atoms: CG   and  CD  
REMARK    8  A    between atoms: CD   and  CE  
ROOT
ATOM      7  CA  LYS A 135      33.193  34.663   9.290  1.00 25.02     0.186 C 
ENDROOT
BRANCH   7   8
ATOM      8  CB  LYS A 135      32.060  35.360  10.034  1.00 26.63     0.034 C 
BRANCH   8   9
ATOM      9  CG  LYS A 135      30.792  35.477   9.228  1.00 29.45     0.005 C 
BRANCH   9  10
ATOM     10  CD  LYS A 135      29.833  36.463   9.877  1.00 32.00     0.041 C 
BRANCH  10  11
ATOM     11  CE  LYS A 135      30.000  37.845   9.273  1.00 34.25     0.338 C 
ATOM     12  NZ  LYS A 135      29.000  38.797   9.830  1.00 35.99     0.618 N 
ENDBRANCH  10  11
ENDBRANCH   9  10
ENDBRANCH   8   9
ENDBRANCH   7   8
END_RES LYS A 135
