REMARK VINA RESULT:    -4.750      4.360      9.518
REMARK INTER + INTRA:         -21.404
REMARK INTER:                 -11.245
REMARK INTRA:                 -10.159
REMARK UNBOUND:                -9.712
REMARK SMILES CC(=O)N[C@@H]1[C@@H](O)C[C@](OC[C@H]2O[C@@H](O[C@H]3[C@H](O)[C@@H](O)[C@H](OCCN=[N+]=[N-])O[C@@H]3CO)[C@H](O)[C@@H](O)[C@H]2O)(C(=O)O)O[C@H]1C(O)[C@H](O)CNC(=O)OCc1cn(C2CCCCC2)nn1
REMARK SMILES IDX 9 1 8 2 6 3 5 4 42 5 41 6 10 7 11 8 12 9 14 10 13 11 32 12
REMARK SMILES IDX 34 13 36 14 15 15 16 16 29 17 28 18 21 19 17 20 19 21 30 22
REMARK SMILES IDX 31 23 22 25 23 26 24 27 25 28 26 29 27 30 18 31 20 33 33 35
REMARK SMILES IDX 35 37 37 39 38 41 39 42 40 43 7 45 43 47 44 48 45 50 46 51
REMARK SMILES IDX 47 53 48 54 49 55 50 57 51 58 52 59 53 60 54 61 63 62 55 63
REMARK SMILES IDX 62 64 56 65 57 66 61 67 58 68 60 69 59 70 4 71 2 72 1 74
REMARK SMILES IDX 3 75
REMARK H PARENT 31 24 18 32 20 34 33 36 35 38 37 40 40 44 7 46 44 49 46 52
REMARK H PARENT 48 56 4 73
REMARK Flexibility Score: inf
ROOT
ATOM      1  C   UNL     1      29.217  35.324   8.668  1.00  0.00     0.272 C 
ATOM      2  C   UNL     1      28.039  34.305   8.440  1.00  0.00     0.113 C 
ATOM      3  C   UNL     1      26.743  34.956   8.815  1.00  0.00     0.145 C 
ATOM      4  C   UNL     1      26.785  35.470  10.229  1.00  0.00     0.142 C 
ATOM      5  C   UNL     1      28.100  36.051  10.615  1.00  0.00     0.178 C 
ATOM      6  O   UNL     1      29.193  35.813   9.919  1.00  0.00    -0.332 OA
ENDROOT
BRANCH   1   7
ATOM      7  O   UNL     1      29.008  36.237   7.730  1.00  0.00    -0.338 OA
BRANCH   7   8
ATOM      8  C   UNL     1      29.324  37.478   7.573  1.00  0.00     0.199 C 
BRANCH   8   9
ATOM      9  C   UNL     1      29.001  38.254   6.307  1.00  0.00     0.179 C 
ATOM     10  C   UNL     1      26.894  39.193   5.885  1.00  0.00     0.282 C 
ATOM     11  O   UNL     1      27.721  38.075   5.891  1.00  0.00    -0.341 OA
ATOM     12  C   UNL     1      27.533  40.281   5.109  1.00  0.00     0.202 C 
ATOM     13  C   UNL     1      28.959  40.565   5.513  1.00  0.00     0.179 C 
ATOM     14  C   UNL     1      29.340  39.700   6.653  1.00  0.00     0.177 C 
BRANCH  10  15
ATOM     15  O   UNL     1      26.505  39.420   7.154  1.00  0.00    -0.341 OA
BRANCH  15  16
ATOM     16  C   UNL     1      25.215  39.733   7.433  1.00  0.00     0.184 C 
ATOM     17  C   UNL     1      25.216  40.788   8.519  1.00  0.00     0.178 C 
ATOM     18  O   UNL     1      23.979  41.383   8.679  1.00  0.00    -0.341 OA
ATOM     19  C   UNL     1      22.919  40.602   8.304  1.00  0.00     0.281 C 
ATOM     20  C   UNL     1      24.412  38.584   8.005  1.00  0.00     0.180 C 
ATOM     21  C   UNL     1      23.145  39.163   8.591  1.00  0.00     0.202 C 
BRANCH  17  22
ATOM     22  C   UNL     1      26.334  41.782   8.393  1.00  0.00     0.191 C 
BRANCH  22  23
ATOM     23  O   UNL     1      27.231  41.542   9.434  1.00  0.00    -0.394 OA
ATOM     24  H   UNL     1      28.137  41.875   9.230  1.00  0.00     0.210 HD
ENDBRANCH  22  23
ENDBRANCH  17  22
BRANCH  19  25
ATOM     25  O   UNL     1      22.544  40.920   7.026  1.00  0.00    -0.350 OA
BRANCH  25  26
ATOM     26  C   UNL     1      21.730  42.037   6.927  1.00  0.00     0.169 C 
BRANCH  26  27
ATOM     27  C   UNL     1      22.429  43.255   6.386  1.00  0.00     0.119 C 
BRANCH  27  28
ATOM     28  N   UNL     1      23.528  42.812   5.552  1.00  0.00    -0.092 NA
ATOM     29  N   UNL     1      24.615  43.375   5.739  1.00  0.00     0.001 N 
ATOM     30  N   UNL     1      25.537  44.158   5.447  1.00  0.00    -0.003 NA
ENDBRANCH  27  28
ENDBRANCH  26  27
ENDBRANCH  25  26
ENDBRANCH  19  25
BRANCH  20  31
ATOM     31  O   UNL     1      24.066  37.634   7.076  1.00  0.00    -0.387 OA
ATOM     32  H   UNL     1      24.664  37.621   6.288  1.00  0.00     0.211 HD
ENDBRANCH  20  31
BRANCH  21  33
ATOM     33  O   UNL     1      23.279  39.043   9.997  1.00  0.00    -0.385 OA
ATOM     34  H   UNL     1      22.525  38.527  10.373  1.00  0.00     0.211 HD
ENDBRANCH  21  33
ENDBRANCH  15  16
ENDBRANCH  10  15
BRANCH  12  35
ATOM     35  O   UNL     1      27.596  39.820   3.768  1.00  0.00    -0.385 OA
ATOM     36  H   UNL     1      27.055  40.379   3.168  1.00  0.00     0.211 HD
ENDBRANCH  12  35
BRANCH  13  37
ATOM     37  O   UNL     1      29.125  41.920   5.862  1.00  0.00    -0.387 OA
ATOM     38  H   UNL     1      28.919  42.467   5.087  1.00  0.00     0.211 HD
ENDBRANCH  13  37
BRANCH  14  39
ATOM     39  O   UNL     1      28.914  40.084   7.895  1.00  0.00    -0.387 OA
ATOM     40  H   UNL     1      28.595  41.016   7.837  1.00  0.00     0.211 HD
ENDBRANCH  14  39
ENDBRANCH   8   9
ENDBRANCH   7   8
ENDBRANCH   1   7
BRANCH   1  41
ATOM     41  C   UNL     1      30.433  34.445   8.554  1.00  0.00     0.364 C 
ATOM     42  O   UNL     1      31.223  34.465   7.618  1.00  0.00    -0.246 OA
BRANCH  41  43
ATOM     43  O   UNL     1      30.716  33.519   9.578  1.00  0.00    -0.477 OA
ATOM     44  H   UNL     1      30.935  33.841  10.507  1.00  0.00     0.296 HD
ENDBRANCH  41  43
ENDBRANCH   1  41
BRANCH   3  45
ATOM     45  O   UNL     1      26.385  35.944   7.907  1.00  0.00    -0.391 OA
ATOM     46  H   UNL     1      25.422  36.165   8.067  1.00  0.00     0.211 HD
ENDBRANCH   3  45
BRANCH   5  47
ATOM     47  C   UNL     1      27.975  37.600  10.744  1.00  0.00     0.176 C 
BRANCH  47  48
ATOM     48  O   UNL     1      26.789  38.006  10.102  1.00  0.00    -0.388 OA
ATOM     49  H   UNL     1      26.290  37.243   9.749  1.00  0.00     0.211 HD
ENDBRANCH  47  48
BRANCH  47  50
ATOM     50  C   UNL     1      28.022  38.041  12.167  1.00  0.00     0.165 C 
BRANCH  50  51
ATOM     51  O   UNL     1      26.679  38.134  12.602  1.00  0.00    -0.388 OA
ATOM     52  H   UNL     1      26.285  38.998  12.376  1.00  0.00     0.211 HD
ENDBRANCH  50  51
BRANCH  50  53
ATOM     53  C   UNL     1      28.648  39.357  12.443  1.00  0.00     0.154 C 
BRANCH  53  54
ATOM     54  N   UNL     1      28.917  40.179  11.293  1.00  0.00    -0.319 N 
ATOM     55  C   UNL     1      30.205  40.693  10.986  1.00  0.00     0.407 C 
ATOM     56  H   UNL     1      28.140  40.410  10.649  1.00  0.00     0.167 HD
ATOM     57  O   UNL     1      31.180  40.434  11.736  1.00  0.00    -0.225 OA
BRANCH  55  58
ATOM     58  O   UNL     1      30.432  41.473   9.887  1.00  0.00    -0.443 OA
BRANCH  58  59
ATOM     59  C   UNL     1      31.623  42.149   9.563  1.00  0.00     0.294 C 
BRANCH  59  60
ATOM     60  C   UNL     1      32.004  41.810   8.175  1.00  0.00     0.120 A 
ATOM     61  C   UNL     1      32.620  40.638   7.840  1.00  0.00     0.138 A 
ATOM     62  N   UNL     1      31.850  42.513   7.048  1.00  0.00    -0.132 NA
ATOM     63  N   UNL     1      32.835  40.639   6.504  1.00  0.00    -0.249 N 
ATOM     64  N   UNL     1      32.355  41.795   6.048  1.00  0.00    -0.067 NA
BRANCH  63  65
ATOM     65  C   UNL     1      33.469  39.583   5.740  1.00  0.00     0.109 C 
ATOM     66  C   UNL     1      34.882  39.458   6.301  1.00  0.00     0.027 C 
ATOM     67  C   UNL     1      33.569  39.973   4.282  1.00  0.00     0.027 C 
ATOM     68  C   UNL     1      35.592  38.296   5.606  1.00  0.00     0.002 C 
ATOM     69  C   UNL     1      34.977  39.838   3.739  1.00  0.00     0.002 C 
ATOM     70  C   UNL     1      35.565  38.515   4.127  1.00  0.00     0.000 C 
ENDBRANCH  63  65
ENDBRANCH  59  60
ENDBRANCH  58  59
ENDBRANCH  55  58
ENDBRANCH  53  54
ENDBRANCH  50  53
ENDBRANCH  47  50
ENDBRANCH   5  47
BRANCH   4  71
ATOM     71  N   UNL     1      26.272  34.505  11.167  1.00  0.00    -0.348 N 
ATOM     72  C   UNL     1      25.321  34.786  12.162  1.00  0.00     0.217 C 
ATOM     73  H   UNL     1      26.604  33.488  11.148  1.00  0.00     0.163 HD
ATOM     74  C   UNL     1      24.818  33.725  13.100  1.00  0.00     0.114 C 
ATOM     75  O   UNL     1      24.857  35.916  12.311  1.00  0.00    -0.275 OA
ENDBRANCH   4  71
TORSDOF 30
BEGIN_RES LYS A 131
REMARK  4 active torsions:
REMARK  status: ('A' for Active; 'I' for Inactive)
REMARK    1  A    between atoms: CA   and  CB  
REMARK    2  A    between atoms: CB   and  CG  
REMARK    3  A    between atoms: CG   and  CD  
REMARK    4  A    between atoms: CD   and  CE  
ROOT
ATOM      1  CA  LYS A 131      29.867  25.555  16.977  1.00 20.52     0.186 C 
ENDROOT
BRANCH   1   2
ATOM      2  CB  LYS A 131      28.345  25.722  17.026  1.00 20.94     0.034 C 
BRANCH   2   3
ATOM      3  CG  LYS A 131      27.600  24.407  16.851  1.00 22.96     0.005 C 
BRANCH   3   4
ATOM      4  CD  LYS A 131      26.667  24.129  17.997  1.00 24.33     0.041 C 
BRANCH   4   5
ATOM      5  CE  LYS A 131      25.534  23.224  17.521  1.00 26.91     0.338 C 
ATOM      6  NZ  LYS A 131      24.472  24.023  16.866  1.00 27.40     0.618 N 
ENDBRANCH   4   5
ENDBRANCH   3   4
ENDBRANCH   2   3
ENDBRANCH   1   2
END_RES LYS A 131
BEGIN_RES LYS A 135
REMARK  4 active torsions:
REMARK  status: ('A' for Active; 'I' for Inactive)
REMARK    5  A    between atoms: CA   and  CB  
REMARK    6  A    between atoms: CB   and  CG  
REMARK    7  A    between atoms: CG   and  CD  
REMARK    8  A    between atoms: CD   and  CE  
ROOT
ATOM      7  CA  LYS A 135      33.193  34.663   9.290  1.00 25.02     0.186 C 
ENDROOT
BRANCH   7   8
ATOM      8  CB  LYS A 135      32.060  35.360  10.034  1.00 26.63     0.034 C 
BRANCH   8   9
ATOM      9  CG  LYS A 135      32.529  36.452  10.960  1.00 29.45     0.005 C 
BRANCH   9  10
ATOM     10  CD  LYS A 135      32.435  36.004  12.410  1.00 32.00     0.041 C 
BRANCH  10  11
ATOM     11  CE  LYS A 135      31.226  35.110  12.614  1.00 34.25     0.338 C 
ATOM     12  NZ  LYS A 135      30.318  35.667  13.654  1.00 35.99     0.618 N 
ENDBRANCH  10  11
ENDBRANCH   9  10
ENDBRANCH   8   9
ENDBRANCH   7   8
END_RES LYS A 135
