REMARK VINA RESULT:    -5.031      3.281      6.850
REMARK INTER + INTRA:         -24.777
REMARK INTER:                 -12.827
REMARK INTRA:                 -11.950
REMARK UNBOUND:               -11.071
REMARK SMILES CC(=O)N[C@@H]1[C@@H](O)C[C@](OC[C@H]2O[C@@H](O[C@H]3[C@H](O)[C@@H](O)[C@H](OCCN=[N+]=[N-])O[C@@H]3CO)[C@H](O)[C@@H](O)[C@H]2O)(C(=O)O)O[C@H]1C(O)[C@H](O)CNC(=O)OCc1cn(CC(O)CCc2ccccc2)nn1
REMARK SMILES IDX 43 1 42 2 9 3 8 4 41 5 6 6 5 7 10 8 11 9 12 10 14 11 13 12
REMARK SMILES IDX 32 13 34 14 36 15 15 16 16 17 29 18 28 19 21 20 17 21 19 22
REMARK SMILES IDX 30 23 31 24 22 26 23 27 24 28 25 29 26 30 27 31 18 32 20 34
REMARK SMILES IDX 33 36 35 38 37 40 38 42 39 43 40 44 7 46 4 48 2 49 1 51 3 52
REMARK SMILES IDX 44 53 45 55 46 56 47 58 48 59 49 60 50 62 51 63 52 64 53 65
REMARK SMILES IDX 54 66 68 67 55 68 67 69 56 70 57 71 58 72 59 74 60 75 61 76
REMARK SMILES IDX 62 77 66 78 63 79 65 80 64 81
REMARK H PARENT 31 25 18 33 20 35 33 37 35 39 37 41 40 45 7 47 4 50 44 54
REMARK H PARENT 46 57 48 61 58 73
REMARK Flexibility Score: inf
ROOT
ATOM      1  C   UNL     1      28.389  38.053  12.451  1.00  0.00     0.176 C 
ENDROOT
BRANCH   1   2
ATOM      2  C   UNL     1      29.631  38.943  12.253  1.00  0.00     0.178 C 
ATOM      3  C   UNL     1      30.764  39.381  10.216  1.00  0.00     0.272 C 
ATOM      4  C   UNL     1      31.517  38.115  10.456  1.00  0.00     0.113 C 
ATOM      5  O   UNL     1      29.640  39.393  10.998  1.00  0.00    -0.332 OA
ATOM      6  C   UNL     1      31.923  37.991  11.881  1.00  0.00     0.145 C 
ATOM      7  C   UNL     1      30.801  38.250  12.841  1.00  0.00     0.142 C 
BRANCH   3   8
ATOM      8  O   UNL     1      30.451  39.523   8.849  1.00  0.00    -0.338 OA
BRANCH   8   9
ATOM      9  C   UNL     1      30.478  38.402   8.100  1.00  0.00     0.199 C 
BRANCH   9  10
ATOM     10  C   UNL     1      29.053  37.978   7.673  1.00  0.00     0.179 C 
ATOM     11  C   UNL     1      26.830  38.299   7.997  1.00  0.00     0.282 C 
ATOM     12  O   UNL     1      28.101  38.502   8.472  1.00  0.00    -0.341 OA
ATOM     13  C   UNL     1      26.791  39.053   6.638  1.00  0.00     0.202 C 
ATOM     14  C   UNL     1      27.553  38.093   5.718  1.00  0.00     0.179 C 
ATOM     15  C   UNL     1      28.974  38.170   6.203  1.00  0.00     0.177 C 
BRANCH  11  16
ATOM     16  O   UNL     1      25.904  38.866   8.799  1.00  0.00    -0.341 OA
BRANCH  16  17
ATOM     17  C   UNL     1      24.898  38.091   9.327  1.00  0.00     0.184 C 
ATOM     18  C   UNL     1      24.628  36.846   8.550  1.00  0.00     0.178 C 
ATOM     19  O   UNL     1      23.361  36.654   8.097  1.00  0.00    -0.341 OA
ATOM     20  C   UNL     1      22.328  37.157   8.829  1.00  0.00     0.281 C 
ATOM     21  C   UNL     1      23.724  38.996   9.566  1.00  0.00     0.180 C 
ATOM     22  C   UNL     1      22.469  38.660   8.846  1.00  0.00     0.202 C 
BRANCH  18  23
ATOM     23  C   UNL     1      24.999  35.643   9.391  1.00  0.00     0.191 C 
BRANCH  23  24
ATOM     24  O   UNL     1      25.960  35.967  10.347  1.00  0.00    -0.394 OA
ATOM     25  H   UNL     1      26.824  35.590  10.003  1.00  0.00     0.210 HD
ENDBRANCH  23  24
ENDBRANCH  18  23
BRANCH  20  26
ATOM     26  O   UNL     1      22.216  36.617  10.100  1.00  0.00    -0.350 OA
BRANCH  26  27
ATOM     27  C   UNL     1      20.908  36.776  10.561  1.00  0.00     0.169 C 
BRANCH  27  28
ATOM     28  C   UNL     1      20.270  35.388  10.561  1.00  0.00     0.119 C 
BRANCH  28  29
ATOM     29  N   UNL     1      21.069  34.446  11.296  1.00  0.00    -0.092 NA
ATOM     30  N   UNL     1      20.681  34.066  12.420  1.00  0.00     0.001 N 
ATOM     31  N   UNL     1      20.441  33.920  13.634  1.00  0.00    -0.003 NA
ENDBRANCH  28  29
ENDBRANCH  27  28
ENDBRANCH  26  27
ENDBRANCH  20  26
BRANCH  21  32
ATOM     32  O   UNL     1      23.380  39.035  10.944  1.00  0.00    -0.387 OA
ATOM     33  H   UNL     1      23.416  39.950  11.307  1.00  0.00     0.211 HD
ENDBRANCH  21  32
BRANCH  22  34
ATOM     34  O   UNL     1      22.520  39.094   7.518  1.00  0.00    -0.385 OA
ATOM     35  H   UNL     1      21.650  39.404   7.193  1.00  0.00     0.211 HD
ENDBRANCH  22  34
ENDBRANCH  16  17
ENDBRANCH  11  16
BRANCH  13  36
ATOM     36  O   UNL     1      25.537  39.342   6.211  1.00  0.00    -0.385 OA
ATOM     37  H   UNL     1      25.242  40.267   6.250  1.00  0.00     0.211 HD
ENDBRANCH  13  36
BRANCH  14  38
ATOM     38  O   UNL     1      27.426  38.472   4.385  1.00  0.00    -0.387 OA
ATOM     39  H   UNL     1      26.531  38.242   4.046  1.00  0.00     0.211 HD
ENDBRANCH  14  38
BRANCH  15  40
ATOM     40  O   UNL     1      29.437  39.445   5.861  1.00  0.00    -0.387 OA
ATOM     41  H   UNL     1      30.296  39.645   6.300  1.00  0.00     0.211 HD
ENDBRANCH  15  40
ENDBRANCH   9  10
ENDBRANCH   8   9
ENDBRANCH   3   8
BRANCH   3  42
ATOM     42  C   UNL     1      31.660  40.534  10.480  1.00  0.00     0.364 C 
ATOM     43  O   UNL     1      32.660  40.713   9.728  1.00  0.00    -0.246 OA
BRANCH  42  44
ATOM     44  O   UNL     1      31.466  41.422  11.501  1.00  0.00    -0.477 OA
ATOM     45  H   UNL     1      32.192  42.084  11.733  1.00  0.00     0.296 HD
ENDBRANCH  42  44
ENDBRANCH   3  42
BRANCH   6  46
ATOM     46  O   UNL     1      32.433  36.671  12.020  1.00  0.00    -0.391 OA
ATOM     47  H   UNL     1      32.420  36.370  12.950  1.00  0.00     0.211 HD
ENDBRANCH   6  46
BRANCH   7  48
ATOM     48  N   UNL     1      31.239  38.856  14.073  1.00  0.00    -0.348 N 
ATOM     49  C   UNL     1      31.012  38.291  15.357  1.00  0.00     0.217 C 
ATOM     50  H   UNL     1      31.760  39.784  14.061  1.00  0.00     0.163 HD
ATOM     51  C   UNL     1      31.516  39.008  16.547  1.00  0.00     0.114 C 
ATOM     52  O   UNL     1      30.407  37.220  15.479  1.00  0.00    -0.275 OA
ENDBRANCH   7  48
ENDBRANCH   1   2
BRANCH   1  53
ATOM     53  O   UNL     1      27.707  37.924  11.257  1.00  0.00    -0.388 OA
ATOM     54  H   UNL     1      26.794  37.564  11.369  1.00  0.00     0.211 HD
ENDBRANCH   1  53
BRANCH   1  55
ATOM     55  C   UNL     1      27.570  38.375  13.643  1.00  0.00     0.165 C 
BRANCH  55  56
ATOM     56  O   UNL     1      27.667  37.369  14.570  1.00  0.00    -0.388 OA
ATOM     57  H   UNL     1      26.810  36.949  14.785  1.00  0.00     0.211 HD
ENDBRANCH  55  56
BRANCH  55  58
ATOM     58  C   UNL     1      26.145  38.559  13.175  1.00  0.00     0.154 C 
BRANCH  58  59
ATOM     59  N   UNL     1      25.431  37.391  12.823  1.00  0.00    -0.319 N 
ATOM     60  C   UNL     1      24.325  36.812  13.500  1.00  0.00     0.407 C 
ATOM     61  H   UNL     1      25.719  36.836  11.943  1.00  0.00     0.167 HD
ATOM     62  O   UNL     1      23.864  37.345  14.516  1.00  0.00    -0.225 OA
BRANCH  60  63
ATOM     63  O   UNL     1      23.739  35.643  13.040  1.00  0.00    -0.443 OA
BRANCH  63  64
ATOM     64  C   UNL     1      24.319  34.397  12.915  1.00  0.00     0.294 C 
BRANCH  64  65
ATOM     65  C   UNL     1      25.649  34.209  13.513  1.00  0.00     0.120 A 
ATOM     66  C   UNL     1      25.955  33.529  14.686  1.00  0.00     0.138 A 
ATOM     67  N   UNL     1      26.814  34.700  13.041  1.00  0.00    -0.132 NA
ATOM     68  N   UNL     1      27.268  33.645  14.859  1.00  0.00    -0.250 N 
ATOM     69  N   UNL     1      27.770  34.344  13.872  1.00  0.00    -0.067 NA
BRANCH  68  70
ATOM     70  C   UNL     1      27.988  33.066  16.024  1.00  0.00     0.177 C 
BRANCH  70  71
ATOM     71  C   UNL     1      28.793  31.928  15.494  1.00  0.00     0.136 C 
BRANCH  71  72
ATOM     72  O   UNL     1      28.173  30.691  15.741  1.00  0.00    -0.391 OA
ATOM     73  H   UNL     1      28.796  29.940  15.648  1.00  0.00     0.211 HD
ENDBRANCH  71  72
BRANCH  71  74
ATOM     74  C   UNL     1      30.207  31.901  15.924  1.00  0.00     0.038 C 
BRANCH  74  75
ATOM     75  C   UNL     1      30.758  32.875  16.859  1.00  0.00     0.038 C 
BRANCH  75  76
ATOM     76  C   UNL     1      31.778  33.807  16.426  1.00  0.00    -0.048 A 
ATOM     77  C   UNL     1      32.296  34.757  17.302  1.00  0.00     0.004 A 
ATOM     78  C   UNL     1      32.220  33.844  15.104  1.00  0.00     0.004 A 
ATOM     79  C   UNL     1      33.202  35.682  16.872  1.00  0.00     0.000 A 
ATOM     80  C   UNL     1      33.133  34.790  14.702  1.00  0.00     0.000 A 
ATOM     81  C   UNL     1      33.650  35.737  15.575  1.00  0.00     0.000 A 
ENDBRANCH  75  76
ENDBRANCH  74  75
ENDBRANCH  71  74
ENDBRANCH  70  71
ENDBRANCH  68  70
ENDBRANCH  64  65
ENDBRANCH  63  64
ENDBRANCH  60  63
ENDBRANCH  58  59
ENDBRANCH  55  58
ENDBRANCH   1  55
TORSDOF 35
BEGIN_RES LYS A 131
REMARK  4 active torsions:
REMARK  status: ('A' for Active; 'I' for Inactive)
REMARK    1  A    between atoms: CA   and  CB  
REMARK    2  A    between atoms: CB   and  CG  
REMARK    3  A    between atoms: CG   and  CD  
REMARK    4  A    between atoms: CD   and  CE  
ROOT
ATOM      1  CA  LYS A 131      29.867  25.555  16.977  1.00 20.52     0.186 C 
ENDROOT
BRANCH   1   2
ATOM      2  CB  LYS A 131      28.345  25.722  17.026  1.00 20.94     0.034 C 
BRANCH   2   3
ATOM      3  CG  LYS A 131      27.601  24.405  16.868  1.00 22.96     0.005 C 
BRANCH   3   4
ATOM      4  CD  LYS A 131      26.159  24.516  17.281  1.00 24.33     0.041 C 
BRANCH   4   5
ATOM      5  CE  LYS A 131      25.874  23.523  18.404  1.00 26.91     0.338 C 
ATOM      6  NZ  LYS A 131      24.988  22.437  17.923  1.00 27.40     0.618 N 
ENDBRANCH   4   5
ENDBRANCH   3   4
ENDBRANCH   2   3
ENDBRANCH   1   2
END_RES LYS A 131
BEGIN_RES LYS A 135
REMARK  4 active torsions:
REMARK  status: ('A' for Active; 'I' for Inactive)
REMARK    5  A    between atoms: CA   and  CB  
REMARK    6  A    between atoms: CB   and  CG  
REMARK    7  A    between atoms: CG   and  CD  
REMARK    8  A    between atoms: CD   and  CE  
ROOT
ATOM      7  CA  LYS A 135      33.193  34.663   9.290  1.00 25.02     0.186 C 
ENDROOT
BRANCH   7   8
ATOM      8  CB  LYS A 135      32.060  35.360  10.034  1.00 26.63     0.034 C 
BRANCH   8   9
ATOM      9  CG  LYS A 135      30.773  34.576  10.043  1.00 29.45     0.005 C 
BRANCH   9  10
ATOM     10  CD  LYS A 135      30.162  34.533   8.651  1.00 32.00     0.041 C 
BRANCH  10  11
ATOM     11  CE  LYS A 135      28.663  34.316   8.733  1.00 34.25     0.338 C 
ATOM     12  NZ  LYS A 135      27.980  34.821   7.510  1.00 35.99     0.618 N 
ENDBRANCH  10  11
ENDBRANCH   9  10
ENDBRANCH   8   9
ENDBRANCH   7   8
END_RES LYS A 135
