REMARK VINA RESULT:    -4.783      4.346      7.728
REMARK INTER + INTRA:         -23.799
REMARK INTER:                 -10.469
REMARK INTRA:                 -13.330
REMARK UNBOUND:               -11.187
REMARK SMILES CC(=O)N[C@@H]1[C@@H](O)C[C@](OC[C@H]2O[C@@H](O[C@H]3[C@H](O)[C@@H](O)[C@H](OCCN=[N+]=[N-])O[C@@H]3CO)[C@H](O)[C@@H](O)[C@H]2O)(C(=O)O)O[C@H]1C(O)[C@H](O)CNC(=O)OCc1cn(-c2ccc(S(=O)(=O)Nc3nccs3)cc2)nn1
REMARK SMILES IDX 43 1 42 2 9 3 8 4 41 5 6 6 5 7 10 8 11 9 12 10 14 11 13 12
REMARK SMILES IDX 32 13 34 14 36 15 15 16 16 17 29 18 28 19 21 20 17 21 19 22
REMARK SMILES IDX 30 23 31 24 22 26 23 27 24 28 25 29 26 30 27 31 18 32 20 34
REMARK SMILES IDX 33 36 35 38 37 40 38 42 39 43 40 44 7 46 4 48 2 49 1 51 3 52
REMARK SMILES IDX 44 53 45 55 46 56 47 58 48 59 49 60 50 62 51 63 52 64 53 65
REMARK SMILES IDX 54 66 72 67 55 68 71 69 56 70 57 71 70 72 58 73 69 74 59 75
REMARK SMILES IDX 60 76 61 77 62 78 63 79 64 81 65 82 68 83 66 84 67 85
REMARK H PARENT 31 25 18 33 20 35 33 37 35 39 37 41 40 45 7 47 4 50 44 54
REMARK H PARENT 46 57 48 61 63 80
REMARK Flexibility Score: inf
ROOT
ATOM      1  C   UNL     1      28.041  32.207  16.919  1.00  0.00     0.176 C 
ENDROOT
BRANCH   1   2
ATOM      2  C   UNL     1      26.786  31.705  17.549  1.00  0.00     0.178 C 
ATOM      3  C   UNL     1      25.358  29.895  17.160  1.00  0.00     0.272 C 
ATOM      4  C   UNL     1      24.731  30.558  18.406  1.00  0.00     0.113 C 
ATOM      5  O   UNL     1      26.329  30.703  16.637  1.00  0.00    -0.332 OA
ATOM      6  C   UNL     1      24.456  32.002  18.225  1.00  0.00     0.145 C 
ATOM      7  C   UNL     1      25.651  32.701  17.573  1.00  0.00     0.142 C 
BRANCH   3   8
ATOM      8  O   UNL     1      24.396  29.695  16.202  1.00  0.00    -0.338 OA
BRANCH   8   9
ATOM      9  C   UNL     1      24.754  30.068  14.931  1.00  0.00     0.199 C 
BRANCH   9  10
ATOM     10  C   UNL     1      23.617  30.671  14.141  1.00  0.00     0.179 C 
ATOM     11  C   UNL     1      21.441  31.151  14.011  1.00  0.00     0.282 C 
ATOM     12  O   UNL     1      22.501  30.942  14.925  1.00  0.00    -0.341 OA
ATOM     13  C   UNL     1      21.600  32.560  13.494  1.00  0.00     0.202 C 
ATOM     14  C   UNL     1      23.006  33.076  13.816  1.00  0.00     0.179 C 
ATOM     15  C   UNL     1      24.028  31.996  13.517  1.00  0.00     0.177 C 
BRANCH  11  16
ATOM     16  O   UNL     1      20.220  30.978  14.571  1.00  0.00    -0.341 OA
BRANCH  16  17
ATOM     17  C   UNL     1      19.592  29.778  14.290  1.00  0.00     0.184 C 
ATOM     18  C   UNL     1      20.380  28.737  13.604  1.00  0.00     0.178 C 
ATOM     19  O   UNL     1      19.479  27.937  12.847  1.00  0.00    -0.341 OA
ATOM     20  C   UNL     1      19.080  28.609  11.683  1.00  0.00     0.281 C 
ATOM     21  C   UNL     1      18.269  30.010  13.574  1.00  0.00     0.180 C 
ATOM     22  C   UNL     1      18.422  29.925  12.054  1.00  0.00     0.202 C 
BRANCH  18  23
ATOM     23  C   UNL     1      21.044  27.718  14.529  1.00  0.00     0.191 C 
BRANCH  23  24
ATOM     24  O   UNL     1      21.606  28.253  15.648  1.00  0.00    -0.394 OA
ATOM     25  H   UNL     1      21.550  29.235  15.621  1.00  0.00     0.210 HD
ENDBRANCH  23  24
ENDBRANCH  18  23
BRANCH  20  26
ATOM     26  O   UNL     1      18.198  27.797  11.006  1.00  0.00    -0.350 OA
BRANCH  26  27
ATOM     27  C   UNL     1      18.710  26.606  10.562  1.00  0.00     0.169 C 
BRANCH  27  28
ATOM     28  C   UNL     1      17.965  26.027   9.382  1.00  0.00     0.119 C 
BRANCH  28  29
ATOM     29  N   UNL     1      17.635  24.664   9.711  1.00  0.00    -0.092 NA
ATOM     30  N   UNL     1      18.372  23.757   9.332  1.00  0.00     0.001 N 
ATOM     31  N   UNL     1      18.785  22.794   8.682  1.00  0.00    -0.003 NA
ENDBRANCH  28  29
ENDBRANCH  27  28
ENDBRANCH  26  27
ENDBRANCH  20  26
BRANCH  21  32
ATOM     32  O   UNL     1      17.332  29.041  13.932  1.00  0.00    -0.387 OA
ATOM     33  H   UNL     1      17.155  29.054  14.901  1.00  0.00     0.211 HD
ENDBRANCH  21  32
BRANCH  22  34
ATOM     34  O   UNL     1      19.092  31.031  11.550  1.00  0.00    -0.385 OA
ATOM     35  H   UNL     1      19.156  30.910  10.576  1.00  0.00     0.211 HD
ENDBRANCH  22  34
ENDBRANCH  16  17
ENDBRANCH  11  16
BRANCH  13  36
ATOM     36  O   UNL     1      21.546  32.617  12.078  1.00  0.00    -0.385 OA
ATOM     37  H   UNL     1      20.681  32.914  11.762  1.00  0.00     0.211 HD
ENDBRANCH  13  36
BRANCH  14  38
ATOM     38  O   UNL     1      23.072  33.535  15.124  1.00  0.00    -0.387 OA
ATOM     39  H   UNL     1      23.436  32.848  15.742  1.00  0.00     0.211 HD
ENDBRANCH  14  38
BRANCH  15  40
ATOM     40  O   UNL     1      25.256  32.428  13.993  1.00  0.00    -0.387 OA
ATOM     41  H   UNL     1      25.926  31.732  14.083  1.00  0.00     0.211 HD
ENDBRANCH  15  40
ENDBRANCH   9  10
ENDBRANCH   8   9
ENDBRANCH   3   8
BRANCH   3  42
ATOM     42  C   UNL     1      25.919  28.629  17.637  1.00  0.00     0.364 C 
ATOM     43  O   UNL     1      27.018  28.167  17.192  1.00  0.00    -0.246 OA
BRANCH  42  44
ATOM     44  O   UNL     1      25.300  27.851  18.599  1.00  0.00    -0.477 OA
ATOM     45  H   UNL     1      24.313  28.019  18.832  1.00  0.00     0.296 HD
ENDBRANCH  42  44
ENDBRANCH   3  42
BRANCH   6  46
ATOM     46  O   UNL     1      23.285  32.255  17.510  1.00  0.00    -0.391 OA
ATOM     47  H   UNL     1      23.119  31.515  16.878  1.00  0.00     0.211 HD
ENDBRANCH   6  46
BRANCH   7  48
ATOM     48  N   UNL     1      25.915  33.932  18.228  1.00  0.00    -0.348 N 
ATOM     49  C   UNL     1      25.350  35.141  17.732  1.00  0.00     0.217 C 
ATOM     50  H   UNL     1      26.513  33.992  19.074  1.00  0.00     0.163 HD
ATOM     51  C   UNL     1      25.572  36.458  18.352  1.00  0.00     0.114 C 
ATOM     52  O   UNL     1      24.608  35.095  16.693  1.00  0.00    -0.275 OA
ENDBRANCH   7  48
ENDBRANCH   1   2
BRANCH   1  53
ATOM     53  O   UNL     1      27.753  32.547  15.560  1.00  0.00    -0.388 OA
ATOM     54  H   UNL     1      28.569  32.782  15.082  1.00  0.00     0.211 HD
ENDBRANCH   1  53
BRANCH   1  55
ATOM     55  C   UNL     1      29.225  31.283  16.941  1.00  0.00     0.165 C 
BRANCH  55  56
ATOM     56  O   UNL     1      28.895  30.337  17.971  1.00  0.00    -0.388 OA
ATOM     57  H   UNL     1      28.263  29.670  17.599  1.00  0.00     0.211 HD
ENDBRANCH  55  56
BRANCH  55  58
ATOM     58  C   UNL     1      30.466  31.971  17.496  1.00  0.00     0.154 C 
BRANCH  58  59
ATOM     59  N   UNL     1      30.632  33.195  16.757  1.00  0.00    -0.319 N 
ATOM     60  C   UNL     1      31.350  33.282  15.535  1.00  0.00     0.407 C 
ATOM     61  H   UNL     1      30.203  34.110  17.114  1.00  0.00     0.167 HD
ATOM     62  O   UNL     1      31.864  32.278  15.029  1.00  0.00    -0.225 OA
BRANCH  60  63
ATOM     63  O   UNL     1      31.503  34.494  14.871  1.00  0.00    -0.443 OA
BRANCH  63  64
ATOM     64  C   UNL     1      30.814  34.897  13.720  1.00  0.00     0.294 C 
BRANCH  64  65
ATOM     65  C   UNL     1      29.372  35.129  13.903  1.00  0.00     0.121 A 
ATOM     66  C   UNL     1      28.413  35.218  12.889  1.00  0.00     0.144 A 
ATOM     67  N   UNL     1      28.679  35.295  15.029  1.00  0.00    -0.131 NA
ATOM     68  N   UNL     1      27.186  35.431  13.430  1.00  0.00    -0.220 N 
ATOM     69  N   UNL     1      27.381  35.473  14.735  1.00  0.00    -0.062 NA
BRANCH  68  70
ATOM     70  C   UNL     1      25.964  35.568  12.684  1.00  0.00     0.066 A 
ATOM     71  C   UNL     1      25.792  35.008  11.450  1.00  0.00     0.030 A 
ATOM     72  C   UNL     1      24.937  36.308  13.242  1.00  0.00     0.030 A 
ATOM     73  C   UNL     1      24.592  35.182  10.762  1.00  0.00     0.024 A 
ATOM     74  C   UNL     1      23.737  36.508  12.604  1.00  0.00     0.024 A 
ATOM     75  C   UNL     1      23.596  35.924  11.351  1.00  0.00     0.088 A 
BRANCH  75  76
ATOM     76  S   UNL     1      22.084  36.166  10.511  1.00  0.00     0.263 S 
ATOM     77  O   UNL     1      22.217  35.542   9.136  1.00  0.00    -0.201 OA
ATOM     78  O   UNL     1      21.922  37.648  10.321  1.00  0.00    -0.201 OA
BRANCH  76  79
ATOM     79  N   UNL     1      20.804  35.490  11.407  1.00  0.00    -0.255 N 
ATOM     80  H   UNL     1      20.903  35.428  12.436  1.00  0.00     0.182 HD
BRANCH  79  81
ATOM     81  C   UNL     1      19.667  35.041  10.756  1.00  0.00     0.196 A 
ATOM     82  N   UNL     1      19.037  33.955  10.527  1.00  0.00    -0.228 NA
ATOM     83  S   UNL     1      18.554  36.225   9.855  1.00  0.00    -0.105 S 
ATOM     84  C   UNL     1      17.953  33.835   9.853  1.00  0.00     0.125 A 
ATOM     85  C   UNL     1      17.372  34.947   9.304  1.00  0.00     0.089 A 
ENDBRANCH  79  81
ENDBRANCH  76  79
ENDBRANCH  75  76
ENDBRANCH  68  70
ENDBRANCH  64  65
ENDBRANCH  63  64
ENDBRANCH  60  63
ENDBRANCH  58  59
ENDBRANCH  55  58
ENDBRANCH   1  55
TORSDOF 33
BEGIN_RES LYS A 131
REMARK  4 active torsions:
REMARK  status: ('A' for Active; 'I' for Inactive)
REMARK    1  A    between atoms: CA   and  CB  
REMARK    2  A    between atoms: CB   and  CG  
REMARK    3  A    between atoms: CG   and  CD  
REMARK    4  A    between atoms: CD   and  CE  
ROOT
ATOM      1  CA  LYS A 131      29.867  25.555  16.977  1.00 20.52     0.186 C 
ENDROOT
BRANCH   1   2
ATOM      2  CB  LYS A 131      28.345  25.722  17.026  1.00 20.94     0.034 C 
BRANCH   2   3
ATOM      3  CG  LYS A 131      27.601  24.401  16.905  1.00 22.96     0.005 C 
BRANCH   3   4
ATOM      4  CD  LYS A 131      26.154  24.528  17.291  1.00 24.33     0.041 C 
BRANCH   4   5
ATOM      5  CE  LYS A 131      26.029  24.513  18.811  1.00 26.91     0.338 C 
ATOM      6  NZ  LYS A 131      25.555  23.190  19.280  1.00 27.40     0.618 N 
ENDBRANCH   4   5
ENDBRANCH   3   4
ENDBRANCH   2   3
ENDBRANCH   1   2
END_RES LYS A 131
BEGIN_RES LYS A 135
REMARK  4 active torsions:
REMARK  status: ('A' for Active; 'I' for Inactive)
REMARK    5  A    between atoms: CA   and  CB  
REMARK    6  A    between atoms: CB   and  CG  
REMARK    7  A    between atoms: CG   and  CD  
REMARK    8  A    between atoms: CD   and  CE  
ROOT
ATOM      7  CA  LYS A 135      33.193  34.663   9.290  1.00 25.02     0.186 C 
ENDROOT
BRANCH   7   8
ATOM      8  CB  LYS A 135      32.060  35.360  10.034  1.00 26.63     0.034 C 
BRANCH   8   9
ATOM      9  CG  LYS A 135      30.717  34.707   9.834  1.00 29.45     0.005 C 
BRANCH   9  10
ATOM     10  CD  LYS A 135      30.452  34.466   8.356  1.00 32.00     0.041 C 
BRANCH  10  11
ATOM     11  CE  LYS A 135      29.015  34.808   8.009  1.00 34.25     0.338 C 
ATOM     12  NZ  LYS A 135      28.063  34.098   8.908  1.00 35.99     0.618 N 
ENDBRANCH  10  11
ENDBRANCH   9  10
ENDBRANCH   8   9
ENDBRANCH   7   8
END_RES LYS A 135
