REMARK VINA RESULT:    -4.985      3.142      7.815
REMARK INTER + INTRA:         -25.920
REMARK INTER:                 -12.010
REMARK INTRA:                 -13.910
REMARK UNBOUND:               -12.046
REMARK SMILES CC(=O)N[C@@H]1[C@@H](O)C[C@](OC[C@H]2O[C@@H](O[C@H]3[C@H](O)[C@@H](O)[C@H](OCCN=[N+]=[N-])O[C@@H]3CO)[C@H](O)[C@@H](O)[C@H]2O)(C(=O)O)O[C@H]1C(O)[C@H](O)CNC(=O)OCc1cn(C[C@@H](C(=O)O)C(c2ccccc2)c2ccccc2)nn1
REMARK SMILES IDX 43 1 42 2 9 3 8 4 41 5 6 6 5 7 10 8 11 9 12 10 14 11 13 12
REMARK SMILES IDX 32 13 34 14 36 15 15 16 16 17 29 18 28 19 21 20 17 21 19 22
REMARK SMILES IDX 30 23 31 24 22 26 23 27 24 28 25 29 26 30 27 31 18 32 20 34
REMARK SMILES IDX 33 36 35 38 37 40 38 42 39 43 40 44 7 46 4 48 2 49 1 51 3 52
REMARK SMILES IDX 44 53 45 55 46 56 47 58 48 59 49 60 50 62 51 63 52 64 53 65
REMARK SMILES IDX 54 66 75 67 55 68 74 69 56 70 57 71 58 72 59 73 60 74 61 76
REMARK SMILES IDX 62 77 63 78 67 79 64 80 66 81 65 82 68 83 69 84 73 85 70 86
REMARK SMILES IDX 72 87 71 88
REMARK H PARENT 31 25 18 33 20 35 33 37 35 39 37 41 40 45 7 47 4 50 44 54
REMARK H PARENT 46 57 48 61 60 75
REMARK Flexibility Score: inf
ROOT
ATOM      1  C   UNL     1      24.582  34.784  15.921  1.00  0.00     0.176 C 
ENDROOT
BRANCH   1   2
ATOM      2  C   UNL     1      24.398  33.331  16.409  1.00  0.00     0.178 C 
ATOM      3  C   UNL     1      25.075  31.626  17.813  1.00  0.00     0.272 C 
ATOM      4  C   UNL     1      23.788  31.065  17.122  1.00  0.00     0.113 C 
ATOM      5  O   UNL     1      25.307  32.919  17.312  1.00  0.00    -0.332 OA
ATOM      6  C   UNL     1      23.888  31.108  15.637  1.00  0.00     0.145 C 
ATOM      7  C   UNL     1      24.268  32.476  15.170  1.00  0.00     0.142 C 
BRANCH   3   8
ATOM      8  O   UNL     1      26.021  30.760  17.656  1.00  0.00    -0.338 OA
BRANCH   8   9
ATOM      9  C   UNL     1      26.452  29.661  18.137  1.00  0.00     0.199 C 
BRANCH   9  10
ATOM     10  C   UNL     1      27.837  29.435  18.683  1.00  0.00     0.179 C 
ATOM     11  C   UNL     1      29.892  30.592  18.431  1.00  0.00     0.282 C 
ATOM     12  O   UNL     1      28.763  30.077  17.920  1.00  0.00    -0.341 OA
ATOM     13  C   UNL     1      30.244  30.354  19.847  1.00  0.00     0.202 C 
ATOM     14  C   UNL     1      29.174  29.709  20.680  1.00  0.00     0.179 C 
ATOM     15  C   UNL     1      27.867  30.109  20.074  1.00  0.00     0.177 C 
BRANCH  11  16
ATOM     16  O   UNL     1      29.747  32.004  18.288  1.00  0.00    -0.341 OA
BRANCH  16  17
ATOM     17  C   UNL     1      29.882  32.439  17.000  1.00  0.00     0.184 C 
ATOM     18  C   UNL     1      31.128  33.272  16.900  1.00  0.00     0.178 C 
ATOM     19  O   UNL     1      30.911  34.603  17.236  1.00  0.00    -0.341 OA
ATOM     20  C   UNL     1      29.846  34.788  18.129  1.00  0.00     0.281 C 
ATOM     21  C   UNL     1      28.713  33.306  16.553  1.00  0.00     0.180 C 
ATOM     22  C   UNL     1      28.527  34.465  17.512  1.00  0.00     0.202 C 
BRANCH  18  23
ATOM     23  C   UNL     1      31.808  33.211  15.561  1.00  0.00     0.191 C 
BRANCH  23  24
ATOM     24  O   UNL     1      31.475  32.086  14.834  1.00  0.00    -0.394 OA
ATOM     25  H   UNL     1      31.443  31.321  15.483  1.00  0.00     0.210 HD
ENDBRANCH  23  24
ENDBRANCH  18  23
BRANCH  20  26
ATOM     26  O   UNL     1      29.831  36.110  18.513  1.00  0.00    -0.350 OA
BRANCH  26  27
ATOM     27  C   UNL     1      30.332  36.404  19.742  1.00  0.00     0.169 C 
BRANCH  27  28
ATOM     28  C   UNL     1      29.304  36.584  20.810  1.00  0.00     0.119 C 
BRANCH  28  29
ATOM     29  N   UNL     1      29.414  35.402  21.688  1.00  0.00    -0.092 NA
ATOM     30  N   UNL     1      28.502  34.573  21.619  1.00  0.00     0.001 N 
ATOM     31  N   UNL     1      27.537  33.815  21.669  1.00  0.00    -0.003 NA
ENDBRANCH  28  29
ENDBRANCH  27  28
ENDBRANCH  26  27
ENDBRANCH  20  26
BRANCH  21  32
ATOM     32  O   UNL     1      29.051  33.839  15.312  1.00  0.00    -0.387 OA
ATOM     33  H   UNL     1      28.731  33.293  14.558  1.00  0.00     0.211 HD
ENDBRANCH  21  32
BRANCH  22  34
ATOM     34  O   UNL     1      27.624  34.121  18.508  1.00  0.00    -0.385 OA
ATOM     35  H   UNL     1      28.160  33.999  19.355  1.00  0.00     0.211 HD
ENDBRANCH  22  34
ENDBRANCH  16  17
ENDBRANCH  11  16
BRANCH  13  36
ATOM     36  O   UNL     1      31.367  29.497  19.934  1.00  0.00    -0.385 OA
ATOM     37  H   UNL     1      31.468  28.975  19.088  1.00  0.00     0.211 HD
ENDBRANCH  13  36
BRANCH  14  38
ATOM     38  O   UNL     1      29.265  30.139  21.989  1.00  0.00    -0.387 OA
ATOM     39  H   UNL     1      29.398  31.123  21.997  1.00  0.00     0.211 HD
ENDBRANCH  14  38
BRANCH  15  40
ATOM     40  O   UNL     1      27.832  31.491  19.952  1.00  0.00    -0.387 OA
ATOM     41  H   UNL     1      26.967  31.803  20.291  1.00  0.00     0.211 HD
ENDBRANCH  15  40
ENDBRANCH   9  10
ENDBRANCH   8   9
ENDBRANCH   3   8
BRANCH   3  42
ATOM     42  C   UNL     1      24.613  31.839  19.200  1.00  0.00     0.364 C 
ATOM     43  O   UNL     1      23.767  31.138  19.793  1.00  0.00    -0.246 OA
BRANCH  42  44
ATOM     44  O   UNL     1      25.147  32.910  19.947  1.00  0.00    -0.477 OA
ATOM     45  H   UNL     1      25.427  32.718  20.885  1.00  0.00     0.296 HD
ENDBRANCH  42  44
ENDBRANCH   3  42
BRANCH   6  46
ATOM     46  O   UNL     1      24.771  30.141  15.134  1.00  0.00    -0.391 OA
ATOM     47  H   UNL     1      25.436  30.531  14.519  1.00  0.00     0.211 HD
ENDBRANCH   6  46
BRANCH   7  48
ATOM     48  N   UNL     1      23.199  33.018  14.362  1.00  0.00    -0.348 N 
ATOM     49  C   UNL     1      23.415  33.399  13.014  1.00  0.00     0.217 C 
ATOM     50  H   UNL     1      22.240  33.125  14.798  1.00  0.00     0.163 HD
ATOM     51  C   UNL     1      22.306  33.963  12.169  1.00  0.00     0.114 C 
ATOM     52  O   UNL     1      24.574  33.249  12.550  1.00  0.00    -0.275 OA
ENDBRANCH   7  48
ENDBRANCH   1   2
BRANCH   1  53
ATOM     53  O   UNL     1      25.586  34.867  14.995  1.00  0.00    -0.388 OA
ATOM     54  H   UNL     1      25.361  34.486  14.116  1.00  0.00     0.211 HD
ENDBRANCH   1  53
BRANCH   1  55
ATOM     55  C   UNL     1      24.854  35.687  17.060  1.00  0.00     0.165 C 
BRANCH  55  56
ATOM     56  O   UNL     1      24.106  35.371  18.213  1.00  0.00    -0.388 OA
ATOM     57  H   UNL     1      24.176  34.369  18.285  1.00  0.00     0.211 HD
ENDBRANCH  55  56
BRANCH  55  58
ATOM     58  C   UNL     1      24.865  37.158  16.876  1.00  0.00     0.154 C 
BRANCH  58  59
ATOM     59  N   UNL     1      26.033  37.727  16.312  1.00  0.00    -0.319 N 
ATOM     60  C   UNL     1      27.201  38.112  17.004  1.00  0.00     0.407 C 
ATOM     61  H   UNL     1      26.040  37.882  15.230  1.00  0.00     0.167 HD
ATOM     62  O   UNL     1      27.315  38.029  18.239  1.00  0.00    -0.225 OA
BRANCH  60  63
ATOM     63  O   UNL     1      28.260  38.599  16.267  1.00  0.00    -0.443 OA
BRANCH  63  64
ATOM     64  C   UNL     1      29.116  37.769  15.564  1.00  0.00     0.294 C 
BRANCH  64  65
ATOM     65  C   UNL     1      28.595  37.296  14.273  1.00  0.00     0.120 A 
ATOM     66  C   UNL     1      28.644  37.896  13.037  1.00  0.00     0.138 A 
ATOM     67  N   UNL     1      27.903  36.133  14.063  1.00  0.00    -0.132 NA
ATOM     68  N   UNL     1      28.013  37.127  12.144  1.00  0.00    -0.251 N 
ATOM     69  N   UNL     1      27.574  36.065  12.793  1.00  0.00    -0.067 NA
BRANCH  68  70
ATOM     70  C   UNL     1      27.819  37.370  10.701  1.00  0.00     0.162 C 
BRANCH  70  71
ATOM     71  C   UNL     1      26.364  37.315  10.369  1.00  0.00     0.132 C 
BRANCH  71  72
ATOM     72  C   UNL     1      25.569  38.150  11.319  1.00  0.00     0.309 C 
ATOM     73  O   UNL     1      25.535  39.390  11.263  1.00  0.00    -0.252 OA
BRANCH  72  74
ATOM     74  O   UNL     1      24.830  37.530  12.312  1.00  0.00    -0.481 OA
ATOM     75  H   UNL     1      24.668  38.017  13.198  1.00  0.00     0.296 HD
ENDBRANCH  72  74
ENDBRANCH  71  72
BRANCH  71  76
ATOM     76  C   UNL     1      25.960  37.511   8.956  1.00  0.00     0.065 C 
BRANCH  76  77
ATOM     77  C   UNL     1      26.949  37.223   7.916  1.00  0.00    -0.040 A 
ATOM     78  C   UNL     1      27.058  35.940   7.358  1.00  0.00     0.004 A 
ATOM     79  C   UNL     1      27.845  38.169   7.413  1.00  0.00     0.004 A 
ATOM     80  C   UNL     1      27.964  35.625   6.396  1.00  0.00     0.000 A 
ATOM     81  C   UNL     1      28.757  37.840   6.440  1.00  0.00     0.000 A 
ATOM     82  C   UNL     1      28.828  36.563   5.921  1.00  0.00     0.000 A 
ENDBRANCH  76  77
BRANCH  76  83
ATOM     83  C   UNL     1      24.582  37.039   8.657  1.00  0.00    -0.040 A 
ATOM     84  C   UNL     1      24.180  35.869   9.267  1.00  0.00     0.004 A 
ATOM     85  C   UNL     1      23.728  37.718   7.830  1.00  0.00     0.004 A 
ATOM     86  C   UNL     1      22.927  35.366   9.060  1.00  0.00     0.000 A 
ATOM     87  C   UNL     1      22.455  37.194   7.628  1.00  0.00     0.000 A 
ATOM     88  C   UNL     1      22.047  36.026   8.234  1.00  0.00     0.000 A 
ENDBRANCH  76  83
ENDBRANCH  71  76
ENDBRANCH  70  71
ENDBRANCH  68  70
ENDBRANCH  64  65
ENDBRANCH  63  64
ENDBRANCH  60  63
ENDBRANCH  58  59
ENDBRANCH  55  58
ENDBRANCH   1  55
TORSDOF 36
BEGIN_RES LYS A 131
REMARK  4 active torsions:
REMARK  status: ('A' for Active; 'I' for Inactive)
REMARK    1  A    between atoms: CA   and  CB  
REMARK    2  A    between atoms: CB   and  CG  
REMARK    3  A    between atoms: CG   and  CD  
REMARK    4  A    between atoms: CD   and  CE  
ROOT
ATOM      1  CA  LYS A 131      29.867  25.555  16.977  1.00 20.52     0.186 C 
ENDROOT
BRANCH   1   2
ATOM      2  CB  LYS A 131      28.345  25.722  17.026  1.00 20.94     0.034 C 
BRANCH   2   3
ATOM      3  CG  LYS A 131      27.603  24.396  16.960  1.00 22.96     0.005 C 
BRANCH   3   4
ATOM      4  CD  LYS A 131      26.117  24.570  17.116  1.00 24.33     0.041 C 
BRANCH   4   5
ATOM      5  CE  LYS A 131      25.832  25.442  18.334  1.00 26.91     0.338 C 
ATOM      6  NZ  LYS A 131      25.682  24.605  19.548  1.00 27.40     0.618 N 
ENDBRANCH   4   5
ENDBRANCH   3   4
ENDBRANCH   2   3
ENDBRANCH   1   2
END_RES LYS A 131
BEGIN_RES LYS A 135
REMARK  4 active torsions:
REMARK  status: ('A' for Active; 'I' for Inactive)
REMARK    5  A    between atoms: CA   and  CB  
REMARK    6  A    between atoms: CB   and  CG  
REMARK    7  A    between atoms: CG   and  CD  
REMARK    8  A    between atoms: CD   and  CE  
ROOT
ATOM      7  CA  LYS A 135      33.193  34.663   9.290  1.00 25.02     0.186 C 
ENDROOT
BRANCH   7   8
ATOM      8  CB  LYS A 135      32.060  35.360  10.034  1.00 26.63     0.034 C 
BRANCH   8   9
ATOM      9  CG  LYS A 135      30.832  35.584   9.189  1.00 29.45     0.005 C 
BRANCH   9  10
ATOM     10  CD  LYS A 135      30.046  34.292   9.033  1.00 32.00     0.041 C 
BRANCH  10  11
ATOM     11  CE  LYS A 135      29.100  34.099  10.203  1.00 34.25     0.338 C 
ATOM     12  NZ  LYS A 135      27.741  33.706   9.736  1.00 35.99     0.618 N 
ENDBRANCH  10  11
ENDBRANCH   9  10
ENDBRANCH   8   9
ENDBRANCH   7   8
END_RES LYS A 135
