REMARK VINA RESULT:    -5.091      3.199      7.079
REMARK INTER + INTRA:         -23.892
REMARK INTER:                 -13.275
REMARK INTRA:                 -10.617
REMARK UNBOUND:               -10.617
REMARK SMILES CC(=O)N[C@@H]1[C@@H](O)C[C@](OC[C@H]2O[C@@H](O[C@H]3[C@H](O)[C@@H](O)[C@H](OCCN=[N+]=[N-])O[C@@H]3CO)[C@H](O)[C@@H](O)[C@H]2O)(C(=O)O)O[C@H]1C(O)[C@H](O)CNC(=O)OCc1cn(-c2ccc(S(=O)(=O)c3ccc(N)cc3)cc2)nn1
REMARK SMILES IDX 43 1 42 2 9 3 8 4 41 5 6 6 5 7 10 8 11 9 12 10 14 11 13 12
REMARK SMILES IDX 32 13 34 14 36 15 15 16 16 17 29 18 28 19 21 20 17 21 19 22
REMARK SMILES IDX 30 23 31 24 22 26 23 27 24 28 25 29 26 30 27 31 18 32 20 34
REMARK SMILES IDX 33 36 35 38 37 40 38 42 39 43 40 44 7 46 4 48 2 49 1 51 3 52
REMARK SMILES IDX 44 53 45 55 46 56 47 58 48 59 49 60 50 62 51 63 52 64 53 65
REMARK SMILES IDX 54 66 73 67 55 68 72 69 56 70 57 71 71 72 58 73 70 74 59 75
REMARK SMILES IDX 60 76 61 77 62 78 63 79 64 80 69 81 65 82 68 83 66 84 67 85
REMARK H PARENT 31 25 18 33 20 35 33 37 35 39 37 41 40 45 7 47 4 50 44 54
REMARK H PARENT 46 57 48 61 67 86 67 87
REMARK Flexibility Score: inf
ROOT
ATOM      1  C   UNL     1      21.948  39.748   8.537  1.00  0.00     0.176 C 
ENDROOT
BRANCH   1   2
ATOM      2  C   UNL     1      21.932  38.295   9.012  1.00  0.00     0.178 C 
ATOM      3  C   UNL     1      23.187  36.356   9.133  1.00  0.00     0.272 C 
ATOM      4  C   UNL     1      22.011  35.548   8.690  1.00  0.00     0.113 C 
ATOM      5  O   UNL     1      23.091  37.676   8.656  1.00  0.00    -0.332 OA
ATOM      6  C   UNL     1      21.196  36.377   7.711  1.00  0.00     0.145 C 
ATOM      7  C   UNL     1      20.700  37.593   8.418  1.00  0.00     0.142 C 
BRANCH   3   8
ATOM      8  O   UNL     1      24.422  35.912   8.654  1.00  0.00    -0.338 OA
BRANCH   8   9
ATOM      9  C   UNL     1      25.269  36.869   8.183  1.00  0.00     0.199 C 
BRANCH   9  10
ATOM     10  C   UNL     1      26.575  36.227   7.771  1.00  0.00     0.179 C 
ATOM     11  C   UNL     1      28.771  36.649   7.306  1.00  0.00     0.282 C 
ATOM     12  O   UNL     1      27.577  37.203   7.838  1.00  0.00    -0.341 OA
ATOM     13  C   UNL     1      29.250  35.672   8.341  1.00  0.00     0.202 C 
ATOM     14  C   UNL     1      28.274  34.519   8.414  1.00  0.00     0.179 C 
ATOM     15  C   UNL     1      26.875  35.063   8.651  1.00  0.00     0.177 C 
BRANCH  11  16
ATOM     16  O   UNL     1      29.624  37.685   7.031  1.00  0.00    -0.341 OA
BRANCH  16  17
ATOM     17  C   UNL     1      29.086  38.913   7.483  1.00  0.00     0.184 C 
ATOM     18  C   UNL     1      29.333  39.939   6.423  1.00  0.00     0.178 C 
ATOM     19  O   UNL     1      29.961  41.081   6.843  1.00  0.00    -0.341 OA
ATOM     20  C   UNL     1      31.103  40.942   7.576  1.00  0.00     0.281 C 
ATOM     21  C   UNL     1      29.862  39.221   8.757  1.00  0.00     0.180 C 
ATOM     22  C   UNL     1      31.249  39.618   8.293  1.00  0.00     0.202 C 
BRANCH  18  23
ATOM     23  C   UNL     1      27.939  40.385   5.941  1.00  0.00     0.191 C 
BRANCH  23  24
ATOM     24  O   UNL     1      26.923  39.655   6.507  1.00  0.00    -0.394 OA
ATOM     25  H   UNL     1      26.536  40.049   7.327  1.00  0.00     0.210 HD
ENDBRANCH  23  24
ENDBRANCH  18  23
BRANCH  20  26
ATOM     26  O   UNL     1      31.097  41.926   8.558  1.00  0.00    -0.350 OA
BRANCH  26  27
ATOM     27  C   UNL     1      32.215  41.979   9.344  1.00  0.00     0.169 C 
BRANCH  27  28
ATOM     28  C   UNL     1      31.929  42.649  10.646  1.00  0.00     0.119 C 
BRANCH  28  29
ATOM     29  N   UNL     1      32.220  41.721  11.751  1.00  0.00    -0.092 NA
ATOM     30  N   UNL     1      31.464  40.786  12.010  1.00  0.00     0.001 N 
ATOM     31  N   UNL     1      30.992  39.635  12.003  1.00  0.00    -0.003 NA
ENDBRANCH  28  29
ENDBRANCH  27  28
ENDBRANCH  26  27
ENDBRANCH  20  26
BRANCH  21  32
ATOM     32  O   UNL     1      29.289  40.280   9.421  1.00  0.00    -0.387 OA
ATOM     33  H   UNL     1      29.921  40.657  10.091  1.00  0.00     0.211 HD
ENDBRANCH  21  32
BRANCH  22  34
ATOM     34  O   UNL     1      31.855  38.645   7.533  1.00  0.00    -0.385 OA
ATOM     35  H   UNL     1      31.314  37.815   7.463  1.00  0.00     0.211 HD
ENDBRANCH  22  34
ENDBRANCH  16  17
ENDBRANCH  11  16
BRANCH  13  36
ATOM     36  O   UNL     1      30.549  35.230   8.099  1.00  0.00    -0.385 OA
ATOM     37  H   UNL     1      30.466  34.286   7.750  1.00  0.00     0.211 HD
ENDBRANCH  13  36
BRANCH  14  38
ATOM     38  O   UNL     1      28.578  33.756   9.550  1.00  0.00    -0.387 OA
ATOM     39  H   UNL     1      27.764  33.543  10.042  1.00  0.00     0.211 HD
ENDBRANCH  14  38
BRANCH  15  40
ATOM     40  O   UNL     1      26.681  35.359   9.992  1.00  0.00    -0.387 OA
ATOM     41  H   UNL     1      27.534  35.615  10.413  1.00  0.00     0.211 HD
ENDBRANCH  15  40
ENDBRANCH   9  10
ENDBRANCH   8   9
ENDBRANCH   3   8
BRANCH   3  42
ATOM     42  C   UNL     1      23.325  36.441  10.611  1.00  0.00     0.364 C 
ATOM     43  O   UNL     1      22.495  36.009  11.445  1.00  0.00    -0.246 OA
BRANCH  42  44
ATOM     44  O   UNL     1      24.452  37.044  11.144  1.00  0.00    -0.477 OA
ATOM     45  H   UNL     1      25.403  36.762  10.857  1.00  0.00     0.296 HD
ENDBRANCH  42  44
ENDBRANCH   3  42
BRANCH   6  46
ATOM     46  O   UNL     1      22.095  36.798   6.724  1.00  0.00    -0.391 OA
ATOM     47  H   UNL     1      21.677  37.447   6.096  1.00  0.00     0.211 HD
ENDBRANCH   6  46
BRANCH   7  48
ATOM     48  N   UNL     1      19.730  37.360   9.440  1.00  0.00    -0.348 N 
ATOM     49  C   UNL     1      18.459  37.999   9.503  1.00  0.00     0.217 C 
ATOM     50  H   UNL     1      19.950  36.672  10.201  1.00  0.00     0.163 HD
ATOM     51  C   UNL     1      17.536  37.672  10.617  1.00  0.00     0.114 C 
ATOM     52  O   UNL     1      18.174  38.812   8.614  1.00  0.00    -0.275 OA
ENDBRANCH   7  48
ENDBRANCH   1   2
BRANCH   1  53
ATOM     53  O   UNL     1      20.786  40.062   7.852  1.00  0.00    -0.388 OA
ATOM     54  H   UNL     1      21.007  40.439   6.949  1.00  0.00     0.211 HD
ENDBRANCH   1  53
BRANCH   1  55
ATOM     55  C   UNL     1      22.298  40.699   9.616  1.00  0.00     0.165 C 
BRANCH  55  56
ATOM     56  O   UNL     1      21.654  41.925   9.434  1.00  0.00    -0.388 OA
ATOM     57  H   UNL     1      21.400  42.368  10.261  1.00  0.00     0.211 HD
ENDBRANCH  55  56
BRANCH  55  58
ATOM     58  C   UNL     1      23.779  41.009   9.618  1.00  0.00     0.154 C 
BRANCH  58  59
ATOM     59  N   UNL     1      24.573  40.023  10.297  1.00  0.00    -0.319 N 
ATOM     60  C   UNL     1      25.957  39.944  10.004  1.00  0.00     0.407 C 
ATOM     61  H   UNL     1      24.161  39.377  10.988  1.00  0.00     0.167 HD
ATOM     62  O   UNL     1      26.445  40.753   9.163  1.00  0.00    -0.225 OA
BRANCH  60  63
ATOM     63  O   UNL     1      26.825  39.040  10.572  1.00  0.00    -0.443 OA
BRANCH  63  64
ATOM     64  C   UNL     1      27.263  39.089  11.913  1.00  0.00     0.294 C 
BRANCH  64  65
ATOM     65  C   UNL     1      27.832  37.766  12.273  1.00  0.00     0.121 A 
ATOM     66  C   UNL     1      27.811  37.080  13.470  1.00  0.00     0.144 A 
ATOM     67  N   UNL     1      28.504  36.936  11.413  1.00  0.00    -0.131 NA
ATOM     68  N   UNL     1      28.452  35.882  13.307  1.00  0.00    -0.220 N 
ATOM     69  N   UNL     1      28.849  35.845  12.059  1.00  0.00    -0.062 NA
BRANCH  68  70
ATOM     70  C   UNL     1      28.649  34.864  14.265  1.00  0.00     0.066 A 
ATOM     71  C   UNL     1      27.958  34.890  15.481  1.00  0.00     0.030 A 
ATOM     72  C   UNL     1      29.507  33.811  14.077  1.00  0.00     0.030 A 
ATOM     73  C   UNL     1      28.114  33.926  16.444  1.00  0.00     0.023 A 
ATOM     74  C   UNL     1      29.671  32.826  15.053  1.00  0.00     0.023 A 
ATOM     75  C   UNL     1      28.979  32.873  16.243  1.00  0.00     0.072 A 
BRANCH  75  76
ATOM     76  S   UNL     1      29.183  31.634  17.464  1.00  0.00     0.206 S 
ATOM     77  O   UNL     1      29.121  32.297  18.831  1.00  0.00    -0.219 OA
ATOM     78  O   UNL     1      30.437  30.845  17.294  1.00  0.00    -0.219 OA
BRANCH  76  79
ATOM     79  C   UNL     1      27.792  30.551  17.406  1.00  0.00     0.072 A 
ATOM     80  C   UNL     1      27.466  29.786  18.492  1.00  0.00     0.023 A 
ATOM     81  C   UNL     1      27.019  30.460  16.272  1.00  0.00     0.023 A 
ATOM     82  C   UNL     1      26.388  28.950  18.436  1.00  0.00     0.027 A 
ATOM     83  C   UNL     1      25.940  29.615  16.229  1.00  0.00     0.027 A 
ATOM     84  C   UNL     1      25.590  28.839  17.298  1.00  0.00     0.031 A 
BRANCH  84  85
ATOM     85  N   UNL     1      24.486  27.960  17.282  1.00  0.00    -0.399 N 
ATOM     86  H   UNL     1      24.167  27.487  18.139  1.00  0.00     0.156 HD
ATOM     87  H   UNL     1      23.986  27.785  16.394  1.00  0.00     0.156 HD
ENDBRANCH  84  85
ENDBRANCH  76  79
ENDBRANCH  75  76
ENDBRANCH  68  70
ENDBRANCH  64  65
ENDBRANCH  63  64
ENDBRANCH  60  63
ENDBRANCH  58  59
ENDBRANCH  55  58
ENDBRANCH   1  55
TORSDOF 33
BEGIN_RES LYS A 131
REMARK  4 active torsions:
REMARK  status: ('A' for Active; 'I' for Inactive)
REMARK    1  A    between atoms: CA   and  CB  
REMARK    2  A    between atoms: CB   and  CG  
REMARK    3  A    between atoms: CG   and  CD  
REMARK    4  A    between atoms: CD   and  CE  
ROOT
ATOM      1  CA  LYS A 131      29.867  25.555  16.977  1.00 20.52     0.186 C 
ENDROOT
BRANCH   1   2
ATOM      2  CB  LYS A 131      28.345  25.722  17.026  1.00 20.94     0.034 C 
BRANCH   2   3
ATOM      3  CG  LYS A 131      27.601  24.403  16.887  1.00 22.96     0.005 C 
BRANCH   3   4
ATOM      4  CD  LYS A 131      26.217  24.469  17.471  1.00 24.33     0.041 C 
BRANCH   4   5
ATOM      5  CE  LYS A 131      26.262  25.205  18.806  1.00 26.91     0.338 C 
ATOM      6  NZ  LYS A 131      25.018  24.963  19.574  1.00 27.40     0.618 N 
ENDBRANCH   4   5
ENDBRANCH   3   4
ENDBRANCH   2   3
ENDBRANCH   1   2
END_RES LYS A 131
BEGIN_RES LYS A 135
REMARK  4 active torsions:
REMARK  status: ('A' for Active; 'I' for Inactive)
REMARK    5  A    between atoms: CA   and  CB  
REMARK    6  A    between atoms: CB   and  CG  
REMARK    7  A    between atoms: CG   and  CD  
REMARK    8  A    between atoms: CD   and  CE  
ROOT
ATOM      7  CA  LYS A 135      33.193  34.663   9.290  1.00 25.02     0.186 C 
ENDROOT
BRANCH   7   8
ATOM      8  CB  LYS A 135      32.060  35.360  10.034  1.00 26.63     0.034 C 
BRANCH   8   9
ATOM      9  CG  LYS A 135      32.525  36.171  11.216  1.00 29.45     0.005 C 
BRANCH   9  10
ATOM     10  CD  LYS A 135      32.096  35.514  12.519  1.00 32.00     0.041 C 
BRANCH  10  11
ATOM     11  CE  LYS A 135      32.646  36.278  13.708  1.00 34.25     0.338 C 
ATOM     12  NZ  LYS A 135      31.557  36.961  14.458  1.00 35.99     0.618 N 
ENDBRANCH  10  11
ENDBRANCH   9  10
ENDBRANCH   8   9
ENDBRANCH   7   8
END_RES LYS A 135
