REMARK VINA RESULT:    -4.337      2.669      7.052
REMARK INTER + INTRA:         -22.244
REMARK INTER:                 -10.934
REMARK INTRA:                 -11.310
REMARK UNBOUND:               -10.809
REMARK SMILES COc1ccc(Cn2cc(COC(=O)NC[C@@H](O)C(O)[C@@H]3O[C@@](OC[C@H]4O[C@@H](O[C@H]5[C@H](O)[C@@H](O)[C@H](OCCN=[N+]=[N-])O[C@@H]5CO)[C@H](O)[C@@H](O)[C@H]4O)(C(=O)O)C[C@H](O)[C@H]3NC(C)=O)nn2)cc1OC
REMARK SMILES IDX 23 1 55 2 56 3 58 4 21 5 22 6 24 7 25 8 26 9 28 10 27 11
REMARK SMILES IDX 46 12 48 13 50 14 29 15 30 16 43 17 42 18 35 19 31 20 33 21
REMARK SMILES IDX 44 22 45 23 36 25 37 26 38 27 39 28 40 29 41 30 32 31 34 33
REMARK SMILES IDX 47 35 49 37 51 39 52 41 53 42 54 43 57 45 19 47 20 48 17 50
REMARK SMILES IDX 18 51 16 53 15 54 13 55 14 57 12 58 11 59 10 60 9 61 63 62
REMARK SMILES IDX 8 63 64 64 7 65 6 66 65 67 5 68 66 69 4 70 3 71 67 72 68 73
REMARK SMILES IDX 2 74 1 75 59 76 60 77 61 79 62 80
REMARK H PARENT 45 24 32 32 34 34 47 36 49 38 51 40 54 44 57 46 20 49 18 52
REMARK H PARENT 15 56 59 78
REMARK Flexibility Score: inf
ROOT
ATOM      1  C   UNL     1      25.374  38.303  13.088  1.00  0.00     0.272 C 
ATOM      2  C   UNL     1      26.315  38.348  14.279  1.00  0.00     0.113 C 
ATOM      3  C   UNL     1      27.577  37.568  14.219  1.00  0.00     0.145 C 
ATOM      4  C   UNL     1      27.442  36.453  13.186  1.00  0.00     0.142 C 
ATOM      5  C   UNL     1      26.014  36.075  13.203  1.00  0.00     0.178 C 
ATOM      6  O   UNL     1      25.281  37.021  12.511  1.00  0.00    -0.332 OA
ENDROOT
BRANCH   1   7
ATOM      7  O   UNL     1      25.959  39.149  12.155  1.00  0.00    -0.338 OA
BRANCH   7   8
ATOM      8  C   UNL     1      25.134  39.782  11.276  1.00  0.00     0.199 C 
BRANCH   8   9
ATOM      9  C   UNL     1      25.525  39.484   9.855  1.00  0.00     0.179 C 
ATOM     10  C   UNL     1      27.124  38.668   8.461  1.00  0.00     0.282 C 
ATOM     11  O   UNL     1      26.590  38.566   9.804  1.00  0.00    -0.341 OA
ATOM     12  C   UNL     1      26.203  38.044   7.519  1.00  0.00     0.202 C 
ATOM     13  C   UNL     1      24.757  38.444   7.761  1.00  0.00     0.179 C 
ATOM     14  C   UNL     1      24.387  38.718   9.166  1.00  0.00     0.177 C 
BRANCH  10  15
ATOM     15  O   UNL     1      28.387  38.114   8.512  1.00  0.00    -0.341 OA
BRANCH  15  16
ATOM     16  C   UNL     1      29.341  39.105   8.746  1.00  0.00     0.184 C 
ATOM     17  C   UNL     1      30.337  39.235   7.663  1.00  0.00     0.178 C 
ATOM     18  O   UNL     1      31.047  40.414   7.872  1.00  0.00    -0.341 OA
ATOM     19  C   UNL     1      31.299  40.668   9.172  1.00  0.00     0.281 C 
ATOM     20  C   UNL     1      30.047  38.740  10.058  1.00  0.00     0.180 C 
ATOM     21  C   UNL     1      31.402  39.459  10.074  1.00  0.00     0.202 C 
BRANCH  17  22
ATOM     22  C   UNL     1      29.723  39.194   6.283  1.00  0.00     0.191 C 
BRANCH  22  23
ATOM     23  O   UNL     1      29.565  37.847   5.962  1.00  0.00    -0.394 OA
ATOM     24  H   UNL     1      28.613  37.582   6.138  1.00  0.00     0.210 HD
ENDBRANCH  22  23
ENDBRANCH  17  22
BRANCH  19  25
ATOM     25  O   UNL     1      30.200  41.442   9.695  1.00  0.00    -0.350 OA
BRANCH  25  26
ATOM     26  C   UNL     1      30.754  42.635  10.201  1.00  0.00     0.169 C 
BRANCH  26  27
ATOM     27  C   UNL     1      30.194  43.014  11.560  1.00  0.00     0.119 C 
BRANCH  27  28
ATOM     28  N   UNL     1      31.129  42.617  12.575  1.00  0.00    -0.092 NA
ATOM     29  N   UNL     1      31.114  41.491  13.081  1.00  0.00     0.001 N 
ATOM     30  N   UNL     1      30.740  40.383  13.513  1.00  0.00    -0.003 NA
ENDBRANCH  27  28
ENDBRANCH  26  27
ENDBRANCH  25  26
ENDBRANCH  19  25
BRANCH  20  31
ATOM     31  O   UNL     1      29.292  39.268  11.092  1.00  0.00    -0.387 OA
ATOM     32  H   UNL     1      29.919  39.520  11.835  1.00  0.00     0.211 HD
ENDBRANCH  20  31
BRANCH  21  33
ATOM     33  O   UNL     1      32.353  38.594   9.586  1.00  0.00    -0.385 OA
ATOM     34  H   UNL     1      32.591  38.787   8.638  1.00  0.00     0.211 HD
ENDBRANCH  21  33
ENDBRANCH  15  16
ENDBRANCH  10  15
BRANCH  12  35
ATOM     35  O   UNL     1      26.482  38.404   6.211  1.00  0.00    -0.385 OA
ATOM     36  H   UNL     1      27.408  38.136   5.938  1.00  0.00     0.211 HD
ENDBRANCH  12  35
BRANCH  13  37
ATOM     37  O   UNL     1      23.939  37.423   7.207  1.00  0.00    -0.387 OA
ATOM     38  H   UNL     1      23.902  37.593   6.229  1.00  0.00     0.211 HD
ENDBRANCH  13  37
BRANCH  14  39
ATOM     39  O   UNL     1      24.244  37.523   9.907  1.00  0.00    -0.387 OA
ATOM     40  H   UNL     1      24.406  36.712   9.314  1.00  0.00     0.211 HD
ENDBRANCH  14  39
ENDBRANCH   8   9
ENDBRANCH   7   8
ENDBRANCH   1   7
BRANCH   1  41
ATOM     41  C   UNL     1      24.022  38.704  13.552  1.00  0.00     0.364 C 
ATOM     42  O   UNL     1      23.857  39.645  14.332  1.00  0.00    -0.246 OA
BRANCH  41  43
ATOM     43  O   UNL     1      22.829  38.047  13.147  1.00  0.00    -0.477 OA
ATOM     44  H   UNL     1      22.883  37.002  13.126  1.00  0.00     0.296 HD
ENDBRANCH  41  43
ENDBRANCH   1  41
BRANCH   3  45
ATOM     45  O   UNL     1      28.649  38.354  13.870  1.00  0.00    -0.391 OA
ATOM     46  H   UNL     1      28.334  39.175  13.392  1.00  0.00     0.211 HD
ENDBRANCH   3  45
BRANCH   5  47
ATOM     47  C   UNL     1      25.753  34.672  12.900  1.00  0.00     0.176 C 
BRANCH  47  48
ATOM     48  O   UNL     1      26.153  33.746  13.855  1.00  0.00    -0.388 OA
ATOM     49  H   UNL     1      26.935  33.983  14.365  1.00  0.00     0.211 HD
ENDBRANCH  47  48
BRANCH  47  50
ATOM     50  C   UNL     1      24.152  34.439  13.038  1.00  0.00     0.165 C 
BRANCH  50  51
ATOM     51  O   UNL     1      23.710  35.286  13.978  1.00  0.00    -0.388 OA
ATOM     52  H   UNL     1      24.059  35.081  14.895  1.00  0.00     0.211 HD
ENDBRANCH  50  51
BRANCH  50  53
ATOM     53  C   UNL     1      23.852  33.027  13.032  1.00  0.00     0.154 C 
BRANCH  53  54
ATOM     54  N   UNL     1      23.844  32.190  14.184  1.00  0.00    -0.319 N 
ATOM     55  C   UNL     1      24.290  30.858  13.997  1.00  0.00     0.407 C 
ATOM     56  H   UNL     1      23.537  32.443  15.121  1.00  0.00     0.167 HD
ATOM     57  O   UNL     1      24.662  30.455  12.846  1.00  0.00    -0.225 OA
BRANCH  55  58
ATOM     58  O   UNL     1      24.369  29.889  14.992  1.00  0.00    -0.443 OA
BRANCH  58  59
ATOM     59  C   UNL     1      24.559  30.383  16.362  1.00  0.00     0.294 C 
BRANCH  59  60
ATOM     60  C   UNL     1      25.916  30.999  16.297  1.00  0.00     0.120 A 
ATOM     61  C   UNL     1      27.121  30.279  16.125  1.00  0.00     0.138 A 
ATOM     62  N   UNL     1      26.227  32.289  16.308  1.00  0.00    -0.132 NA
ATOM     63  N   UNL     1      28.093  31.218  16.039  1.00  0.00    -0.248 N 
ATOM     64  N   UNL     1      27.564  32.387  16.148  1.00  0.00    -0.067 NA
BRANCH  63  65
ATOM     65  C   UNL     1      29.527  30.910  15.788  1.00  0.00     0.181 C 
BRANCH  65  66
ATOM     66  C   UNL     1      30.241  31.742  16.854  1.00  0.00    -0.023 A 
ATOM     67  C   UNL     1      30.958  32.877  16.541  1.00  0.00     0.056 A 
ATOM     68  C   UNL     1      30.042  31.392  18.151  1.00  0.00     0.010 A 
ATOM     69  C   UNL     1      31.442  33.619  17.655  1.00  0.00     0.161 A 
ATOM     70  C   UNL     1      30.538  32.151  19.255  1.00  0.00     0.051 A 
ATOM     71  C   UNL     1      31.242  33.280  18.932  1.00  0.00     0.160 A 
BRANCH  69  72
ATOM     72  O   UNL     1      32.182  34.776  17.406  1.00  0.00    -0.493 OA
ATOM     73  C   UNL     1      31.758  35.752  16.448  1.00  0.00     0.278 C 
ENDBRANCH  69  72
BRANCH  71  74
ATOM     74  O   UNL     1      31.752  34.118  19.963  1.00  0.00    -0.493 OA
ATOM     75  C   UNL     1      32.650  33.533  20.930  1.00  0.00     0.278 C 
ENDBRANCH  71  74
ENDBRANCH  65  66
ENDBRANCH  63  65
ENDBRANCH  59  60
ENDBRANCH  58  59
ENDBRANCH  55  58
ENDBRANCH  53  54
ENDBRANCH  50  53
ENDBRANCH  47  50
ENDBRANCH   5  47
BRANCH   4  76
ATOM     76  N   UNL     1      28.358  35.399  13.531  1.00  0.00    -0.348 N 
ATOM     77  C   UNL     1      29.665  35.432  13.034  1.00  0.00     0.217 C 
ATOM     78  H   UNL     1      28.107  34.592  14.167  1.00  0.00     0.163 HD
ATOM     79  C   UNL     1      30.726  34.407  13.276  1.00  0.00     0.114 C 
ATOM     80  O   UNL     1      30.099  36.396  12.282  1.00  0.00    -0.275 OA
ENDBRANCH   4  76
TORSDOF 33
BEGIN_RES LYS A 131
REMARK  4 active torsions:
REMARK  status: ('A' for Active; 'I' for Inactive)
REMARK    1  A    between atoms: CA   and  CB  
REMARK    2  A    between atoms: CB   and  CG  
REMARK    3  A    between atoms: CG   and  CD  
REMARK    4  A    between atoms: CD   and  CE  
ROOT
ATOM      1  CA  LYS A 131      29.867  25.555  16.977  1.00 20.52     0.186 C 
ENDROOT
BRANCH   1   2
ATOM      2  CB  LYS A 131      28.345  25.722  17.026  1.00 20.94     0.034 C 
BRANCH   2   3
ATOM      3  CG  LYS A 131      27.601  24.402  16.890  1.00 22.96     0.005 C 
BRANCH   3   4
ATOM      4  CD  LYS A 131      26.151  24.528  17.269  1.00 24.33     0.041 C 
BRANCH   4   5
ATOM      5  CE  LYS A 131      25.638  23.182  17.771  1.00 26.91     0.338 C 
ATOM      6  NZ  LYS A 131      24.305  22.887  17.195  1.00 27.40     0.618 N 
ENDBRANCH   4   5
ENDBRANCH   3   4
ENDBRANCH   2   3
ENDBRANCH   1   2
END_RES LYS A 131
BEGIN_RES LYS A 135
REMARK  4 active torsions:
REMARK  status: ('A' for Active; 'I' for Inactive)
REMARK    5  A    between atoms: CA   and  CB  
REMARK    6  A    between atoms: CB   and  CG  
REMARK    7  A    between atoms: CG   and  CD  
REMARK    8  A    between atoms: CD   and  CE  
ROOT
ATOM      7  CA  LYS A 135      33.193  34.663   9.290  1.00 25.02     0.186 C 
ENDROOT
BRANCH   7   8
ATOM      8  CB  LYS A 135      32.060  35.360  10.034  1.00 26.63     0.034 C 
BRANCH   8   9
ATOM      9  CG  LYS A 135      30.790  35.470   9.231  1.00 29.45     0.005 C 
BRANCH   9  10
ATOM     10  CD  LYS A 135      30.192  34.094   8.982  1.00 32.00     0.041 C 
BRANCH  10  11
ATOM     11  CE  LYS A 135      28.688  34.190   8.805  1.00 34.25     0.338 C 
ATOM     12  NZ  LYS A 135      27.990  34.152  10.119  1.00 35.99     0.618 N 
ENDBRANCH  10  11
ENDBRANCH   9  10
ENDBRANCH   8   9
ENDBRANCH   7   8
END_RES LYS A 135
