REMARK VINA RESULT:    -4.368      5.025     11.475
REMARK INTER + INTRA:         -23.161
REMARK INTER:                 -10.752
REMARK INTRA:                 -12.409
REMARK UNBOUND:               -12.409
REMARK SMILES CC(=O)N[C@@H]1[C@@H](O)C[C@](OC[C@H]2O[C@@H](O[C@H]3[C@H](O)[C@@H](O)[C@H](OCCN=[N+]=[N-])O[C@@H]3CO)[C@H](O)[C@@H](O)[C@H]2O)(C(=O)O)O[C@H]1C(O)[C@H](O)CNC(=O)OCc1cn(C2c3ccccc3-c3ccccc32)nn1
REMARK SMILES IDX 9 1 8 2 6 3 5 4 42 5 41 6 10 7 11 8 12 9 14 10 13 11 32 12
REMARK SMILES IDX 34 13 36 14 15 15 16 16 29 17 28 18 21 19 17 20 19 21 30 22
REMARK SMILES IDX 31 23 22 25 23 26 24 27 25 28 26 29 27 30 18 31 20 33 33 35
REMARK SMILES IDX 35 37 37 39 38 41 39 42 40 43 7 45 43 47 44 48 45 50 46 51
REMARK SMILES IDX 47 53 48 54 49 55 50 57 51 58 52 59 53 60 54 61 70 62 55 63
REMARK SMILES IDX 69 64 56 65 57 66 68 67 58 68 62 69 63 70 67 71 59 72 61 73
REMARK SMILES IDX 64 74 66 75 60 76 65 77 4 78 2 79 1 81 3 82
REMARK H PARENT 31 24 18 32 20 34 33 36 35 38 37 40 40 44 7 46 44 49 46 52
REMARK H PARENT 48 56 4 80
REMARK Flexibility Score: inf
ROOT
ATOM      1  C   UNL     1      29.524  30.203  19.873  1.00  0.00     0.272 C 
ATOM      2  C   UNL     1      28.929  28.978  20.438  1.00  0.00     0.113 C 
ATOM      3  C   UNL     1      27.449  28.967  20.375  1.00  0.00     0.145 C 
ATOM      4  C   UNL     1      26.831  30.331  20.236  1.00  0.00     0.142 C 
ATOM      5  C   UNL     1      27.731  31.335  20.868  1.00  0.00     0.178 C 
ATOM      6  O   UNL     1      29.013  31.388  20.425  1.00  0.00    -0.332 OA
ENDROOT
BRANCH   1   7
ATOM      7  O   UNL     1      29.413  30.286  18.510  1.00  0.00    -0.338 OA
BRANCH   7   8
ATOM      8  C   UNL     1      29.903  31.418  17.918  1.00  0.00     0.199 C 
BRANCH   8   9
ATOM      9  C   UNL     1      30.224  31.144  16.465  1.00  0.00     0.179 C 
ATOM     10  C   UNL     1      28.308  32.251  15.689  1.00  0.00     0.282 C 
ATOM     11  O   UNL     1      29.040  31.099  15.766  1.00  0.00    -0.341 OA
ATOM     12  C   UNL     1      29.165  33.414  15.366  1.00  0.00     0.202 C 
ATOM     13  C   UNL     1      30.424  32.830  14.697  1.00  0.00     0.179 C 
ATOM     14  C   UNL     1      31.162  32.162  15.876  1.00  0.00     0.177 C 
BRANCH  10  15
ATOM     15  O   UNL     1      27.427  32.372  16.729  1.00  0.00    -0.341 OA
BRANCH  15  16
ATOM     16  C   UNL     1      26.136  31.983  16.495  1.00  0.00     0.184 C 
ATOM     17  C   UNL     1      26.088  30.824  15.571  1.00  0.00     0.178 C 
ATOM     18  O   UNL     1      25.044  30.890  14.653  1.00  0.00    -0.341 OA
ATOM     19  C   UNL     1      23.925  31.489  15.131  1.00  0.00     0.281 C 
ATOM     20  C   UNL     1      25.459  33.224  15.919  1.00  0.00     0.180 C 
ATOM     21  C   UNL     1      24.193  32.988  15.206  1.00  0.00     0.202 C 
BRANCH  17  22
ATOM     22  C   UNL     1      25.946  29.511  16.310  1.00  0.00     0.191 C 
BRANCH  22  23
ATOM     23  O   UNL     1      27.182  29.135  16.889  1.00  0.00    -0.394 OA
ATOM     24  H   UNL     1      27.925  29.320  16.238  1.00  0.00     0.210 HD
ENDBRANCH  22  23
ENDBRANCH  17  22
BRANCH  19  25
ATOM     25  O   UNL     1      23.501  31.102  16.388  1.00  0.00    -0.350 OA
BRANCH  25  26
ATOM     26  C   UNL     1      22.226  31.482  16.698  1.00  0.00     0.169 C 
BRANCH  26  27
ATOM     27  C   UNL     1      21.999  32.012  18.072  1.00  0.00     0.119 C 
BRANCH  27  28
ATOM     28  N   UNL     1      23.139  32.729  18.605  1.00  0.00    -0.092 NA
ATOM     29  N   UNL     1      23.014  33.184  19.749  1.00  0.00     0.001 N 
ATOM     30  N   UNL     1      22.930  33.756  20.842  1.00  0.00    -0.003 NA
ENDBRANCH  27  28
ENDBRANCH  26  27
ENDBRANCH  25  26
ENDBRANCH  19  25
BRANCH  20  31
ATOM     31  O   UNL     1      25.200  34.136  16.976  1.00  0.00    -0.387 OA
ATOM     32  H   UNL     1      25.977  34.178  17.589  1.00  0.00     0.211 HD
ENDBRANCH  20  31
BRANCH  21  33
ATOM     33  O   UNL     1      24.284  33.445  13.884  1.00  0.00    -0.385 OA
ATOM     34  H   UNL     1      25.119  33.152  13.436  1.00  0.00     0.211 HD
ENDBRANCH  21  33
ENDBRANCH  15  16
ENDBRANCH  10  15
BRANCH  12  35
ATOM     35  O   UNL     1      28.614  34.266  14.410  1.00  0.00    -0.385 OA
ATOM     36  H   UNL     1      28.983  35.170  14.547  1.00  0.00     0.211 HD
ENDBRANCH  12  35
BRANCH  13  37
ATOM     37  O   UNL     1      31.249  33.819  14.217  1.00  0.00    -0.387 OA
ATOM     38  H   UNL     1      30.705  34.461  13.699  1.00  0.00     0.211 HD
ENDBRANCH  13  37
BRANCH  14  39
ATOM     39  O   UNL     1      31.380  33.170  16.796  1.00  0.00    -0.387 OA
ATOM     40  H   UNL     1      32.122  32.971  17.419  1.00  0.00     0.211 HD
ENDBRANCH  14  39
ENDBRANCH   8   9
ENDBRANCH   7   8
ENDBRANCH   1   7
BRANCH   1  41
ATOM     41  C   UNL     1      30.999  30.293  20.261  1.00  0.00     0.364 C 
ATOM     42  O   UNL     1      31.397  31.350  20.760  1.00  0.00    -0.246 OA
BRANCH  41  43
ATOM     43  O   UNL     1      31.861  29.242  20.066  1.00  0.00    -0.477 OA
ATOM     44  H   UNL     1      32.722  29.350  19.517  1.00  0.00     0.296 HD
ENDBRANCH  41  43
ENDBRANCH   1  41
BRANCH   3  45
ATOM     45  O   UNL     1      26.907  28.125  19.403  1.00  0.00    -0.391 OA
ATOM     46  H   UNL     1      25.971  27.923  19.546  1.00  0.00     0.211 HD
ENDBRANCH   3  45
BRANCH   5  47
ATOM     47  C   UNL     1      27.102  32.718  20.710  1.00  0.00     0.176 C 
BRANCH  47  48
ATOM     48  O   UNL     1      26.250  32.712  19.636  1.00  0.00    -0.388 OA
ATOM     49  H   UNL     1      26.003  31.775  19.371  1.00  0.00     0.211 HD
ENDBRANCH  47  48
BRANCH  47  50
ATOM     50  C   UNL     1      28.206  33.719  20.552  1.00  0.00     0.165 C 
BRANCH  50  51
ATOM     51  O   UNL     1      28.756  34.016  21.811  1.00  0.00    -0.388 OA
ATOM     52  H   UNL     1      28.684  34.977  22.003  1.00  0.00     0.211 HD
ENDBRANCH  50  51
BRANCH  50  53
ATOM     53  C   UNL     1      27.555  35.026  20.086  1.00  0.00     0.154 C 
BRANCH  53  54
ATOM     54  N   UNL     1      27.555  35.034  18.655  1.00  0.00    -0.319 N 
ATOM     55  C   UNL     1      27.550  36.250  17.940  1.00  0.00     0.407 C 
ATOM     56  H   UNL     1      27.562  34.127  18.130  1.00  0.00     0.167 HD
ATOM     57  O   UNL     1      27.534  37.358  18.536  1.00  0.00    -0.225 OA
BRANCH  55  58
ATOM     58  O   UNL     1      27.566  36.286  16.560  1.00  0.00    -0.443 OA
BRANCH  58  59
ATOM     59  C   UNL     1      27.165  37.424  15.812  1.00  0.00     0.294 C 
BRANCH  59  60
ATOM     60  C   UNL     1      26.731  36.945  14.475  1.00  0.00     0.120 A 
ATOM     61  C   UNL     1      26.748  37.635  13.271  1.00  0.00     0.139 A 
ATOM     62  N   UNL     1      26.237  35.733  14.182  1.00  0.00    -0.132 NA
ATOM     63  N   UNL     1      26.274  36.837  12.301  1.00  0.00    -0.240 N 
ATOM     64  N   UNL     1      25.972  35.689  12.888  1.00  0.00    -0.066 NA
BRANCH  63  65
ATOM     65  C   UNL     1      26.124  37.171  10.884  1.00  0.00     0.170 C 
ATOM     66  C   UNL     1      24.763  36.817  10.472  1.00  0.00    -0.011 A 
ATOM     67  C   UNL     1      26.984  36.307  10.057  1.00  0.00    -0.011 A 
ATOM     68  C   UNL     1      23.519  37.281  10.880  1.00  0.00     0.007 A 
ATOM     69  C   UNL     1      24.782  35.846   9.507  1.00  0.00    -0.012 A 
ATOM     70  C   UNL     1      26.186  35.530   9.252  1.00  0.00    -0.012 A 
ATOM     71  C   UNL     1      28.356  36.162   9.963  1.00  0.00     0.007 A 
ATOM     72  C   UNL     1      22.363  36.777  10.327  1.00  0.00     0.000 A 
ATOM     73  C   UNL     1      23.616  35.339   8.952  1.00  0.00     0.009 A 
ATOM     74  C   UNL     1      26.731  34.626   8.369  1.00  0.00     0.009 A 
ATOM     75  C   UNL     1      28.922  35.264   9.087  1.00  0.00     0.000 A 
ATOM     76  C   UNL     1      22.381  35.793   9.350  1.00  0.00     0.001 A 
ATOM     77  C   UNL     1      28.106  34.493   8.286  1.00  0.00     0.001 A 
ENDBRANCH  63  65
ENDBRANCH  59  60
ENDBRANCH  58  59
ENDBRANCH  55  58
ENDBRANCH  53  54
ENDBRANCH  50  53
ENDBRANCH  47  50
ENDBRANCH   5  47
BRANCH   4  78
ATOM     78  N   UNL     1      25.602  30.310  21.054  1.00  0.00    -0.348 N 
ATOM     79  C   UNL     1      24.349  29.934  20.506  1.00  0.00     0.217 C 
ATOM     80  H   UNL     1      25.683  30.583  22.043  1.00  0.00     0.163 HD
ATOM     81  C   UNL     1      23.112  29.918  21.348  1.00  0.00     0.114 C 
ATOM     82  O   UNL     1      24.310  29.611  19.286  1.00  0.00    -0.275 OA
ENDBRANCH   4  78
TORSDOF 30
BEGIN_RES LYS A 131
REMARK  4 active torsions:
REMARK  status: ('A' for Active; 'I' for Inactive)
REMARK    1  A    between atoms: CA   and  CB  
REMARK    2  A    between atoms: CB   and  CG  
REMARK    3  A    between atoms: CG   and  CD  
REMARK    4  A    between atoms: CD   and  CE  
ROOT
ATOM      1  CA  LYS A 131      29.867  25.555  16.977  1.00 20.52     0.186 C 
ENDROOT
BRANCH   1   2
ATOM      2  CB  LYS A 131      28.345  25.722  17.026  1.00 20.94     0.034 C 
BRANCH   2   3
ATOM      3  CG  LYS A 131      27.599  24.420  16.778  1.00 22.96     0.005 C 
BRANCH   3   4
ATOM      4  CD  LYS A 131      26.847  23.957  17.995  1.00 24.33     0.041 C 
BRANCH   4   5
ATOM      5  CE  LYS A 131      25.537  23.305  17.565  1.00 26.91     0.338 C 
ATOM      6  NZ  LYS A 131      24.680  24.282  16.852  1.00 27.40     0.618 N 
ENDBRANCH   4   5
ENDBRANCH   3   4
ENDBRANCH   2   3
ENDBRANCH   1   2
END_RES LYS A 131
BEGIN_RES LYS A 135
REMARK  4 active torsions:
REMARK  status: ('A' for Active; 'I' for Inactive)
REMARK    5  A    between atoms: CA   and  CB  
REMARK    6  A    between atoms: CB   and  CG  
REMARK    7  A    between atoms: CG   and  CD  
REMARK    8  A    between atoms: CD   and  CE  
ROOT
ATOM      7  CA  LYS A 135      33.193  34.663   9.290  1.00 25.02     0.186 C 
ENDROOT
BRANCH   7   8
ATOM      8  CB  LYS A 135      32.060  35.360  10.034  1.00 26.63     0.034 C 
BRANCH   8   9
ATOM      9  CG  LYS A 135      32.504  36.050  11.298  1.00 29.45     0.005 C 
BRANCH   9  10
ATOM     10  CD  LYS A 135      31.896  37.441  11.392  1.00 32.00     0.041 C 
BRANCH  10  11
ATOM     11  CE  LYS A 135      31.437  37.915  10.027  1.00 34.25     0.338 C 
ATOM     12  NZ  LYS A 135      32.247  39.075   9.562  1.00 35.99     0.618 N 
ENDBRANCH  10  11
ENDBRANCH   9  10
ENDBRANCH   8   9
ENDBRANCH   7   8
END_RES LYS A 135
