REMARK VINA RESULT:    -3.188      2.304      6.644
REMARK INTER + INTRA:         -21.645
REMARK INTER:                  -8.995
REMARK INTRA:                 -12.651
REMARK UNBOUND:               -13.239
REMARK SMILES CCOC(=O)Cn1cc(COC(=O)NC[C@@H](O)C(O)[C@@H]2O[C@@](OC[C@H]3O[C@@H](O[C@H]4[C@H](O)[C@@H](O)[C@H](OCCN=[N+]=[N-])O[C@@H]4CO)[C@H](O)[C@@H](O)[C@H]3O)(C(=O)O)C[C@H](O)[C@H]2NC(C)=O)nn1
REMARK SMILES IDX 18 1 20 2 22 3 54 4 21 5 55 6 57 7 23 8 24 9 25 10 27 11
REMARK SMILES IDX 26 12 45 13 47 14 49 15 28 16 29 17 42 18 41 19 34 20 30 21
REMARK SMILES IDX 32 22 43 23 44 24 35 26 36 27 37 28 38 29 39 30 40 31 31 32
REMARK SMILES IDX 33 34 46 36 48 38 50 40 51 42 52 43 53 44 56 46 58 48 59 49
REMARK SMILES IDX 60 51 61 52 19 53 16 55 17 56 15 58 14 59 12 60 13 62 11 63
REMARK SMILES IDX 10 64 9 65 8 66 62 67 7 68 63 69 6 70 4 71 5 72 3 73 2 74
REMARK SMILES IDX 1 75
REMARK H PARENT 44 25 31 33 33 35 46 37 48 39 50 41 53 45 56 47 58 50 19 54
REMARK H PARENT 17 57 14 61
REMARK Flexibility Score: inf
ROOT
ATOM      1  C   UNL     1      29.147  31.362  16.950  1.00  0.00     0.176 C 
ENDROOT
BRANCH   1   2
ATOM      2  C   UNL     1      27.870  30.846  16.348  1.00  0.00     0.178 C 
ATOM      3  C   UNL     1      25.693  31.525  15.830  1.00  0.00     0.272 C 
ATOM      4  C   UNL     1      25.493  30.059  15.655  1.00  0.00     0.113 C 
ATOM      5  O   UNL     1      27.060  31.865  15.920  1.00  0.00    -0.332 OA
ATOM      6  C   UNL     1      26.098  29.225  16.738  1.00  0.00     0.145 C 
ATOM      7  C   UNL     1      27.164  30.055  17.435  1.00  0.00     0.142 C 
BRANCH   3   8
ATOM      8  O   UNL     1      25.027  32.093  16.894  1.00  0.00    -0.338 OA
BRANCH   8   9
ATOM      9  C   UNL     1      23.675  32.108  16.875  1.00  0.00     0.199 C 
BRANCH   9  10
ATOM     10  C   UNL     1      23.206  33.552  17.141  1.00  0.00     0.179 C 
ATOM     11  C   UNL     1      23.954  35.742  17.292  1.00  0.00     0.282 C 
ATOM     12  O   UNL     1      24.256  34.399  17.304  1.00  0.00    -0.341 OA
ATOM     13  C   UNL     1      23.134  36.171  16.114  1.00  0.00     0.202 C 
ATOM     14  C   UNL     1      21.831  35.415  16.188  1.00  0.00     0.179 C 
ATOM     15  C   UNL     1      22.164  33.961  16.144  1.00  0.00     0.177 C 
BRANCH  11  16
ATOM     16  O   UNL     1      25.077  36.551  17.357  1.00  0.00    -0.341 OA
BRANCH  16  17
ATOM     17  C   UNL     1      26.276  35.889  17.422  1.00  0.00     0.184 C 
ATOM     18  C   UNL     1      26.941  35.982  18.779  1.00  0.00     0.178 C 
ATOM     19  O   UNL     1      28.080  36.773  18.738  1.00  0.00    -0.341 OA
ATOM     20  C   UNL     1      29.096  36.198  17.940  1.00  0.00     0.281 C 
ATOM     21  C   UNL     1      27.232  36.466  16.378  1.00  0.00     0.180 C 
ATOM     22  C   UNL     1      28.571  35.780  16.603  1.00  0.00     0.202 C 
BRANCH  18  23
ATOM     23  C   UNL     1      27.181  34.601  19.334  1.00  0.00     0.191 C 
BRANCH  23  24
ATOM     24  O   UNL     1      26.822  33.615  18.396  1.00  0.00    -0.394 OA
ATOM     25  H   UNL     1      26.332  34.001  17.643  1.00  0.00     0.210 HD
ENDBRANCH  23  24
ENDBRANCH  18  23
BRANCH  20  26
ATOM     26  O   UNL     1      29.715  35.175  18.609  1.00  0.00    -0.350 OA
BRANCH  26  27
ATOM     27  C   UNL     1      30.869  35.401  19.280  1.00  0.00     0.169 C 
BRANCH  27  28
ATOM     28  C   UNL     1      31.239  34.525  20.417  1.00  0.00     0.119 C 
BRANCH  28  29
ATOM     29  N   UNL     1      30.330  33.490  20.774  1.00  0.00    -0.092 NA
ATOM     30  N   UNL     1      30.442  32.338  20.304  1.00  0.00     0.001 N 
ATOM     31  N   UNL     1      30.848  31.239  19.888  1.00  0.00    -0.003 NA
ENDBRANCH  28  29
ENDBRANCH  27  28
ENDBRANCH  26  27
ENDBRANCH  20  26
BRANCH  21  32
ATOM     32  O   UNL     1      26.753  36.163  15.101  1.00  0.00    -0.387 OA
ATOM     33  H   UNL     1      27.510  35.713  14.612  1.00  0.00     0.211 HD
ENDBRANCH  21  32
BRANCH  22  34
ATOM     34  O   UNL     1      29.434  36.100  15.552  1.00  0.00    -0.385 OA
ATOM     35  H   UNL     1      30.058  35.369  15.318  1.00  0.00     0.211 HD
ENDBRANCH  22  34
ENDBRANCH  16  17
ENDBRANCH  11  16
BRANCH  13  36
ATOM     36  O   UNL     1      22.903  37.538  16.205  1.00  0.00    -0.385 OA
ATOM     37  H   UNL     1      22.096  37.796  16.676  1.00  0.00     0.211 HD
ENDBRANCH  13  36
BRANCH  14  38
ATOM     38  O   UNL     1      21.075  35.752  15.043  1.00  0.00    -0.387 OA
ATOM     39  H   UNL     1      21.475  36.533  14.587  1.00  0.00     0.211 HD
ENDBRANCH  14  38
BRANCH  15  40
ATOM     40  O   UNL     1      22.570  33.662  14.823  1.00  0.00    -0.387 OA
ATOM     41  H   UNL     1      21.806  33.961  14.258  1.00  0.00     0.211 HD
ENDBRANCH  15  40
ENDBRANCH   9  10
ENDBRANCH   8   9
ENDBRANCH   3   8
BRANCH   3  42
ATOM     42  C   UNL     1      25.255  32.187  14.577  1.00  0.00     0.364 C 
ATOM     43  O   UNL     1      24.684  31.514  13.691  1.00  0.00    -0.246 OA
BRANCH  42  44
ATOM     44  O   UNL     1      25.471  33.521  14.378  1.00  0.00    -0.477 OA
ATOM     45  H   UNL     1      25.028  34.038  13.622  1.00  0.00     0.296 HD
ENDBRANCH  42  44
ENDBRANCH   3  42
BRANCH   6  46
ATOM     46  O   UNL     1      25.202  28.679  17.625  1.00  0.00    -0.391 OA
ATOM     47  H   UNL     1      25.711  28.209  18.344  1.00  0.00     0.211 HD
ENDBRANCH   6  46
BRANCH   7  48
ATOM     48  N   UNL     1      28.095  29.198  18.155  1.00  0.00    -0.348 N 
ATOM     49  C   UNL     1      27.941  28.906  19.531  1.00  0.00     0.217 C 
ATOM     50  H   UNL     1      28.892  28.786  17.640  1.00  0.00     0.163 HD
ATOM     51  C   UNL     1      28.889  28.030  20.281  1.00  0.00     0.114 C 
ATOM     52  O   UNL     1      26.959  29.414  20.138  1.00  0.00    -0.275 OA
ENDBRANCH   7  48
ENDBRANCH   1   2
BRANCH   1  53
ATOM     53  O   UNL     1      30.136  30.400  16.899  1.00  0.00    -0.388 OA
ATOM     54  H   UNL     1      30.635  30.389  16.032  1.00  0.00     0.211 HD
ENDBRANCH   1  53
BRANCH   1  55
ATOM     55  C   UNL     1      29.658  32.622  16.272  1.00  0.00     0.165 C 
BRANCH  55  56
ATOM     56  O   UNL     1      29.345  32.677  14.934  1.00  0.00    -0.388 OA
ATOM     57  H   UNL     1      28.390  32.535  14.738  1.00  0.00     0.211 HD
ENDBRANCH  55  56
BRANCH  55  58
ATOM     58  C   UNL     1      31.131  32.716  16.497  1.00  0.00     0.154 C 
BRANCH  58  59
ATOM     59  N   UNL     1      31.879  33.157  15.374  1.00  0.00    -0.319 N 
ATOM     60  C   UNL     1      32.422  34.458  15.206  1.00  0.00     0.407 C 
ATOM     61  H   UNL     1      32.074  32.479  14.557  1.00  0.00     0.167 HD
ATOM     62  O   UNL     1      32.285  35.346  16.064  1.00  0.00    -0.225 OA
BRANCH  60  63
ATOM     63  O   UNL     1      33.142  34.753  14.034  1.00  0.00    -0.443 OA
BRANCH  63  64
ATOM     64  C   UNL     1      32.663  35.679  13.116  1.00  0.00     0.294 C 
BRANCH  64  65
ATOM     65  C   UNL     1      31.224  35.546  12.819  1.00  0.00     0.120 A 
ATOM     66  C   UNL     1      30.388  36.540  12.347  1.00  0.00     0.139 A 
ATOM     67  N   UNL     1      30.448  34.463  12.954  1.00  0.00    -0.132 NA
ATOM     68  N   UNL     1      29.136  36.043  12.208  1.00  0.00    -0.241 N 
ATOM     69  N   UNL     1      29.211  34.784  12.583  1.00  0.00    -0.066 NA
BRANCH  68  70
ATOM     70  C   UNL     1      27.988  36.809  11.738  1.00  0.00     0.268 C 
BRANCH  70  71
ATOM     71  C   UNL     1      26.844  35.842  11.576  1.00  0.00     0.327 C 
ATOM     72  O   UNL     1      26.015  35.638  12.484  1.00  0.00    -0.250 OA
BRANCH  71  73
ATOM     73  O   UNL     1      26.666  35.137  10.399  1.00  0.00    -0.465 OA
BRANCH  73  74
ATOM     74  C   UNL     1      25.541  35.232   9.574  1.00  0.00     0.229 C 
ATOM     75  C   UNL     1      25.349  36.613   8.996  1.00  0.00     0.049 C 
ENDBRANCH  73  74
ENDBRANCH  71  73
ENDBRANCH  70  71
ENDBRANCH  68  70
ENDBRANCH  64  65
ENDBRANCH  63  64
ENDBRANCH  60  63
ENDBRANCH  58  59
ENDBRANCH  55  58
ENDBRANCH   1  55
TORSDOF 33
BEGIN_RES LYS A 131
REMARK  4 active torsions:
REMARK  status: ('A' for Active; 'I' for Inactive)
REMARK    1  A    between atoms: CA   and  CB  
REMARK    2  A    between atoms: CB   and  CG  
REMARK    3  A    between atoms: CG   and  CD  
REMARK    4  A    between atoms: CD   and  CE  
ROOT
ATOM      1  CA  LYS A 131      29.867  25.555  16.977  1.00 20.52     0.186 C 
ENDROOT
BRANCH   1   2
ATOM      2  CB  LYS A 131      28.345  25.722  17.026  1.00 20.94     0.034 C 
BRANCH   2   3
ATOM      3  CG  LYS A 131      27.599  24.479  16.566  1.00 22.96     0.005 C 
BRANCH   3   4
ATOM      4  CD  LYS A 131      26.938  23.759  17.709  1.00 24.33     0.041 C 
BRANCH   4   5
ATOM      5  CE  LYS A 131      25.432  23.704  17.473  1.00 26.91     0.338 C 
ATOM      6  NZ  LYS A 131      24.807  25.007  17.799  1.00 27.40     0.618 N 
ENDBRANCH   4   5
ENDBRANCH   3   4
ENDBRANCH   2   3
ENDBRANCH   1   2
END_RES LYS A 131
BEGIN_RES LYS A 135
REMARK  4 active torsions:
REMARK  status: ('A' for Active; 'I' for Inactive)
REMARK    5  A    between atoms: CA   and  CB  
REMARK    6  A    between atoms: CB   and  CG  
REMARK    7  A    between atoms: CG   and  CD  
REMARK    8  A    between atoms: CD   and  CE  
ROOT
ATOM      7  CA  LYS A 135      33.193  34.663   9.290  1.00 25.02     0.186 C 
ENDROOT
BRANCH   7   8
ATOM      8  CB  LYS A 135      32.060  35.360  10.034  1.00 26.63     0.034 C 
BRANCH   8   9
ATOM      9  CG  LYS A 135      30.887  35.708   9.155  1.00 29.45     0.005 C 
BRANCH   9  10
ATOM     10  CD  LYS A 135      30.145  34.451   8.728  1.00 32.00     0.041 C 
BRANCH  10  11
ATOM     11  CE  LYS A 135      28.909  34.810   7.924  1.00 34.25     0.338 C 
ATOM     12  NZ  LYS A 135      28.759  36.286   7.800  1.00 35.99     0.618 N 
ENDBRANCH  10  11
ENDBRANCH   9  10
ENDBRANCH   8   9
ENDBRANCH   7   8
END_RES LYS A 135
