REMARK VINA RESULT:    -3.431      2.802      3.746
REMARK INTER + INTRA:         -22.929
REMARK INTER:                 -12.150
REMARK INTRA:                 -10.779
REMARK UNBOUND:               -13.881
REMARK SMILES CCOC(=O)c1cccc(-n2cc(COC(=O)NC[C@@H](O)C(O)[C@@H]3O[C@@](OC[C@H]4O[C@@H](O[C@H]5[C@H](O)[C@@H](O)[C@H](OCCN=[N+]=[N-])O[C@@H]5CO)[C@H](O)[C@@H](O)[C@H]4O)(C(=O)O)C[C@H](O)[C@H]3NC(C)=O)nn2)c1
REMARK SMILES IDX 22 1 24 2 26 3 58 4 25 5 59 6 61 7 27 8 28 9 29 10 31 11
REMARK SMILES IDX 30 12 49 13 51 14 53 15 32 16 33 17 46 18 45 19 38 20 34 21
REMARK SMILES IDX 36 22 47 23 48 24 39 26 40 27 41 28 42 29 43 30 44 31 35 32
REMARK SMILES IDX 37 34 50 36 52 38 54 40 55 42 56 43 57 44 60 46 62 48 63 49
REMARK SMILES IDX 64 51 65 52 23 53 20 55 21 56 19 58 18 59 16 60 17 62 15 63
REMARK SMILES IDX 14 64 13 65 12 66 66 67 11 68 67 69 10 70 68 71 9 72 6 73
REMARK SMILES IDX 8 74 7 75 4 76 5 77 3 78 2 79 1 80
REMARK H PARENT 48 25 35 33 37 35 50 37 52 39 54 41 57 45 60 47 62 50 23 54
REMARK H PARENT 21 57 18 61
REMARK Flexibility Score: inf
ROOT
ATOM      1  C   UNL     1      30.620  35.273  14.579  1.00  0.00     0.176 C 
ENDROOT
BRANCH   1   2
ATOM      2  C   UNL     1      30.841  34.537  15.832  1.00  0.00     0.178 C 
ATOM      3  C   UNL     1      29.690  32.841  17.010  1.00  0.00     0.272 C 
ATOM      4  C   UNL     1      30.889  33.047  17.877  1.00  0.00     0.113 C 
ATOM      5  O   UNL     1      29.600  34.085  16.287  1.00  0.00    -0.332 OA
ATOM      6  C   UNL     1      31.117  34.501  18.259  1.00  0.00     0.145 C 
ATOM      7  C   UNL     1      31.506  35.263  16.948  1.00  0.00     0.142 C 
BRANCH   3   8
ATOM      8  O   UNL     1      28.559  32.788  17.763  1.00  0.00    -0.338 OA
BRANCH   8   9
ATOM      9  C   UNL     1      28.424  32.239  18.945  1.00  0.00     0.199 C 
BRANCH   9  10
ATOM     10  C   UNL     1      27.582  31.094  19.316  1.00  0.00     0.179 C 
ATOM     11  C   UNL     1      25.715  29.834  18.683  1.00  0.00     0.282 C 
ATOM     12  O   UNL     1      26.385  31.079  18.695  1.00  0.00    -0.341 OA
ATOM     13  C   UNL     1      26.289  28.897  19.701  1.00  0.00     0.202 C 
ATOM     14  C   UNL     1      27.761  28.683  19.552  1.00  0.00     0.179 C 
ATOM     15  C   UNL     1      28.365  29.834  18.824  1.00  0.00     0.177 C 
BRANCH  11  16
ATOM     16  O   UNL     1      25.754  29.420  17.384  1.00  0.00    -0.341 OA
BRANCH  16  17
ATOM     17  C   UNL     1      24.955  30.016  16.471  1.00  0.00     0.184 C 
ATOM     18  C   UNL     1      24.168  28.950  15.754  1.00  0.00     0.178 C 
ATOM     19  O   UNL     1      23.282  29.505  14.829  1.00  0.00    -0.341 OA
ATOM     20  C   UNL     1      24.059  30.062  13.775  1.00  0.00     0.281 C 
ATOM     21  C   UNL     1      25.751  30.772  15.392  1.00  0.00     0.180 C 
ATOM     22  C   UNL     1      24.727  31.269  14.374  1.00  0.00     0.202 C 
BRANCH  18  23
ATOM     23  C   UNL     1      23.378  28.117  16.722  1.00  0.00     0.191 C 
BRANCH  23  24
ATOM     24  O   UNL     1      24.177  27.055  17.220  1.00  0.00    -0.394 OA
ATOM     25  H   UNL     1      24.487  27.260  18.138  1.00  0.00     0.210 HD
ENDBRANCH  23  24
ENDBRANCH  18  23
BRANCH  20  26
ATOM     26  O   UNL     1      23.217  30.335  12.736  1.00  0.00    -0.350 OA
BRANCH  26  27
ATOM     27  C   UNL     1      22.349  29.288  12.466  1.00  0.00     0.169 C 
BRANCH  27  28
ATOM     28  C   UNL     1      20.925  29.720  12.282  1.00  0.00     0.119 C 
BRANCH  28  29
ATOM     29  N   UNL     1      20.854  31.184  12.371  1.00  0.00    -0.092 NA
ATOM     30  N   UNL     1      20.068  31.670  13.195  1.00  0.00     0.001 N 
ATOM     31  N   UNL     1      19.521  32.293  14.127  1.00  0.00    -0.003 NA
ENDBRANCH  28  29
ENDBRANCH  27  28
ENDBRANCH  26  27
ENDBRANCH  20  26
BRANCH  21  32
ATOM     32  O   UNL     1      26.334  31.917  15.912  1.00  0.00    -0.387 OA
ATOM     33  H   UNL     1      25.617  32.585  16.030  1.00  0.00     0.211 HD
ENDBRANCH  21  32
BRANCH  22  34
ATOM     34  O   UNL     1      25.335  32.066  13.409  1.00  0.00    -0.385 OA
ATOM     35  H   UNL     1      24.708  32.738  13.003  1.00  0.00     0.211 HD
ENDBRANCH  22  34
ENDBRANCH  16  17
ENDBRANCH  11  16
BRANCH  13  36
ATOM     36  O   UNL     1      25.939  29.348  20.988  1.00  0.00    -0.385 OA
ATOM     37  H   UNL     1      26.549  29.007  21.681  1.00  0.00     0.211 HD
ENDBRANCH  13  36
BRANCH  14  38
ATOM     38  O   UNL     1      28.095  27.436  19.076  1.00  0.00    -0.387 OA
ATOM     39  H   UNL     1      28.867  27.556  18.460  1.00  0.00     0.211 HD
ENDBRANCH  14  38
BRANCH  15  40
ATOM     40  O   UNL     1      28.316  29.701  17.472  1.00  0.00    -0.387 OA
ATOM     41  H   UNL     1      29.124  29.226  17.155  1.00  0.00     0.211 HD
ENDBRANCH  15  40
ENDBRANCH   9  10
ENDBRANCH   8   9
ENDBRANCH   3   8
BRANCH   3  42
ATOM     42  C   UNL     1      29.790  31.782  16.017  1.00  0.00     0.364 C 
ATOM     43  O   UNL     1      29.056  31.730  15.018  1.00  0.00    -0.246 OA
BRANCH  42  44
ATOM     44  O   UNL     1      30.736  30.765  16.159  1.00  0.00    -0.477 OA
ATOM     45  H   UNL     1      31.710  30.929  16.305  1.00  0.00     0.296 HD
ENDBRANCH  42  44
ENDBRANCH   3  42
BRANCH   6  46
ATOM     46  O   UNL     1      29.922  35.038  18.668  1.00  0.00    -0.391 OA
ATOM     47  H   UNL     1      29.735  34.757  19.596  1.00  0.00     0.211 HD
ENDBRANCH   6  46
BRANCH   7  48
ATOM     48  N   UNL     1      32.948  35.222  16.881  1.00  0.00    -0.348 N 
ATOM     49  C   UNL     1      33.770  36.376  16.664  1.00  0.00     0.217 C 
ATOM     50  H   UNL     1      33.491  34.314  16.995  1.00  0.00     0.163 HD
ATOM     51  C   UNL     1      35.253  36.297  16.601  1.00  0.00     0.114 C 
ATOM     52  O   UNL     1      33.237  37.495  16.521  1.00  0.00    -0.275 OA
ENDBRANCH   7  48
ENDBRANCH   1   2
BRANCH   1  53
ATOM     53  O   UNL     1      31.464  36.321  14.326  1.00  0.00    -0.388 OA
ATOM     54  H   UNL     1      31.110  37.183  14.646  1.00  0.00     0.211 HD
ENDBRANCH   1  53
BRANCH   1  55
ATOM     55  C   UNL     1      30.376  34.452  13.338  1.00  0.00     0.165 C 
BRANCH  55  56
ATOM     56  O   UNL     1      31.489  34.494  12.494  1.00  0.00    -0.388 OA
ATOM     57  H   UNL     1      32.276  34.090  12.943  1.00  0.00     0.211 HD
ENDBRANCH  55  56
BRANCH  55  58
ATOM     58  C   UNL     1      29.061  34.706  12.665  1.00  0.00     0.154 C 
BRANCH  58  59
ATOM     59  N   UNL     1      27.942  34.258  13.462  1.00  0.00    -0.319 N 
ATOM     60  C   UNL     1      26.980  35.167  13.957  1.00  0.00     0.407 C 
ATOM     61  H   UNL     1      27.821  33.223  13.690  1.00  0.00     0.167 HD
ATOM     62  O   UNL     1      26.986  36.403  13.762  1.00  0.00    -0.225 OA
BRANCH  60  63
ATOM     63  O   UNL     1      25.910  34.702  14.747  1.00  0.00    -0.443 OA
BRANCH  63  64
ATOM     64  C   UNL     1      24.634  35.264  14.771  1.00  0.00     0.294 C 
BRANCH  64  65
ATOM     65  C   UNL     1      23.812  35.048  13.573  1.00  0.00     0.121 A 
ATOM     66  C   UNL     1      23.672  35.928  12.505  1.00  0.00     0.144 A 
ATOM     67  N   UNL     1      23.059  33.994  13.284  1.00  0.00    -0.131 NA
ATOM     68  N   UNL     1      22.843  35.366  11.626  1.00  0.00    -0.220 N 
ATOM     69  N   UNL     1      22.478  34.198  12.103  1.00  0.00    -0.062 NA
BRANCH  68  70
ATOM     70  C   UNL     1      22.438  35.932  10.398  1.00  0.00     0.067 A 
ATOM     71  C   UNL     1      21.122  36.330  10.177  1.00  0.00     0.044 A 
ATOM     72  C   UNL     1      23.318  36.129   9.368  1.00  0.00     0.028 A 
ATOM     73  C   UNL     1      20.685  36.894   9.009  1.00  0.00     0.062 A 
ATOM     74  C   UNL     1      22.914  36.697   8.169  1.00  0.00     0.003 A 
ATOM     75  C   UNL     1      21.606  37.079   7.984  1.00  0.00     0.016 A 
BRANCH  73  76
ATOM     76  C   UNL     1      19.300  37.283   8.844  1.00  0.00     0.338 C 
ATOM     77  O   UNL     1      18.598  37.496   9.851  1.00  0.00    -0.246 OA
BRANCH  76  78
ATOM     78  O   UNL     1      18.767  37.418   7.588  1.00  0.00    -0.462 OA
BRANCH  78  79
ATOM     79  C   UNL     1      17.519  38.013   7.317  1.00  0.00     0.230 C 
ATOM     80  C   UNL     1      17.699  39.494   7.060  1.00  0.00     0.049 C 
ENDBRANCH  78  79
ENDBRANCH  76  78
ENDBRANCH  73  76
ENDBRANCH  68  70
ENDBRANCH  64  65
ENDBRANCH  63  64
ENDBRANCH  60  63
ENDBRANCH  58  59
ENDBRANCH  55  58
ENDBRANCH   1  55
TORSDOF 33
BEGIN_RES LYS A 131
REMARK  4 active torsions:
REMARK  status: ('A' for Active; 'I' for Inactive)
REMARK    1  A    between atoms: CA   and  CB  
REMARK    2  A    between atoms: CB   and  CG  
REMARK    3  A    between atoms: CG   and  CD  
REMARK    4  A    between atoms: CD   and  CE  
ROOT
ATOM      1  CA  LYS A 131      29.867  25.555  16.977  1.00 20.52     0.186 C 
ENDROOT
BRANCH   1   2
ATOM      2  CB  LYS A 131      28.345  25.722  17.026  1.00 20.94     0.034 C 
BRANCH   2   3
ATOM      3  CG  LYS A 131      27.602  24.398  16.929  1.00 22.96     0.005 C 
BRANCH   3   4
ATOM      4  CD  LYS A 131      26.513  24.283  17.959  1.00 24.33     0.041 C 
BRANCH   4   5
ATOM      5  CE  LYS A 131      25.277  23.654  17.325  1.00 26.91     0.338 C 
ATOM      6  NZ  LYS A 131      24.783  22.530  18.155  1.00 27.40     0.618 N 
ENDBRANCH   4   5
ENDBRANCH   3   4
ENDBRANCH   2   3
ENDBRANCH   1   2
END_RES LYS A 131
BEGIN_RES LYS A 135
REMARK  4 active torsions:
REMARK  status: ('A' for Active; 'I' for Inactive)
REMARK    5  A    between atoms: CA   and  CB  
REMARK    6  A    between atoms: CB   and  CG  
REMARK    7  A    between atoms: CG   and  CD  
REMARK    8  A    between atoms: CD   and  CE  
ROOT
ATOM      7  CA  LYS A 135      33.193  34.663   9.290  1.00 25.02     0.186 C 
ENDROOT
BRANCH   7   8
ATOM      8  CB  LYS A 135      32.060  35.360  10.034  1.00 26.63     0.034 C 
BRANCH   8   9
ATOM      9  CG  LYS A 135      30.815  35.538   9.205  1.00 29.45     0.005 C 
BRANCH   9  10
ATOM     10  CD  LYS A 135      30.070  34.220   9.065  1.00 32.00     0.041 C 
BRANCH  10  11
ATOM     11  CE  LYS A 135      28.642  34.460   8.611  1.00 34.25     0.338 C 
ATOM     12  NZ  LYS A 135      27.676  33.706   9.458  1.00 35.99     0.618 N 
ENDBRANCH  10  11
ENDBRANCH   9  10
ENDBRANCH   8   9
ENDBRANCH   7   8
END_RES LYS A 135
