REMARK VINA RESULT:    -4.458      2.438      6.377
REMARK INTER + INTRA:         -21.880
REMARK INTER:                 -10.018
REMARK INTRA:                 -11.862
REMARK UNBOUND:               -10.516
REMARK SMILES CC(=O)N[C@@H]1[C@@H](O)C[C@](OC[C@H]2O[C@@H](O[C@H]3[C@H](O)[C@@H](O)[C@H](OCCN=[N+]=[N-])O[C@@H]3CO)[C@H](O)[C@@H](O)[C@H]2O)(C(=O)O)O[C@H]1C(O)[C@H](O)CNC(=O)OCc1cn(C(C)(C)C(=O)O)nn1
REMARK SMILES IDX 9 1 8 2 6 3 5 4 42 5 41 6 10 7 11 8 12 9 14 10 13 11 32 12
REMARK SMILES IDX 34 13 36 14 15 15 16 16 29 17 28 18 21 19 17 20 19 21 30 22
REMARK SMILES IDX 31 23 22 25 23 26 24 27 25 28 26 29 27 30 18 31 20 33 33 35
REMARK SMILES IDX 35 37 37 39 38 41 39 42 40 43 7 45 43 47 44 48 45 50 46 51
REMARK SMILES IDX 47 53 48 54 49 55 50 57 51 58 52 59 53 60 54 61 63 62 55 63
REMARK SMILES IDX 62 64 56 65 57 66 58 67 59 68 60 69 61 70 4 72 2 73 1 75
REMARK SMILES IDX 3 76
REMARK H PARENT 31 24 18 32 20 34 33 36 35 38 37 40 40 44 7 46 44 49 46 52
REMARK H PARENT 48 56 61 71 4 74
REMARK Flexibility Score: inf
ROOT
ATOM      1  C   UNL     1      28.445  37.680  12.400  1.00  0.00     0.272 C 
ATOM      2  C   UNL     1      29.187  38.849  12.904  1.00  0.00     0.113 C 
ATOM      3  C   UNL     1      30.622  38.587  13.265  1.00  0.00     0.145 C 
ATOM      4  C   UNL     1      30.803  37.145  13.633  1.00  0.00     0.142 C 
ATOM      5  C   UNL     1      29.451  36.697  14.218  1.00  0.00     0.178 C 
ATOM      6  O   UNL     1      28.596  36.513  13.156  1.00  0.00    -0.332 OA
ENDROOT
BRANCH   1   7
ATOM      7  O   UNL     1      28.690  37.363  11.099  1.00  0.00    -0.338 OA
BRANCH   7   8
ATOM      8  C   UNL     1      29.079  38.350  10.249  1.00  0.00     0.199 C 
BRANCH   8   9
ATOM      9  C   UNL     1      28.274  38.326   8.969  1.00  0.00     0.179 C 
ATOM     10  C   UNL     1      26.363  37.392   8.072  1.00  0.00     0.282 C 
ATOM     11  O   UNL     1      27.069  37.705   9.290  1.00  0.00    -0.341 OA
ATOM     12  C   UNL     1      25.909  38.687   7.516  1.00  0.00     0.202 C 
ATOM     13  C   UNL     1      26.522  39.876   8.254  1.00  0.00     0.179 C 
ATOM     14  C   UNL     1      28.021  39.688   8.441  1.00  0.00     0.177 C 
BRANCH  10  15
ATOM     15  O   UNL     1      25.428  36.487   8.472  1.00  0.00    -0.341 OA
BRANCH  15  16
ATOM     16  C   UNL     1      25.192  36.446   9.835  1.00  0.00     0.184 C 
ATOM     17  C   UNL     1      25.227  35.027  10.311  1.00  0.00     0.178 C 
ATOM     18  O   UNL     1      24.536  34.874  11.522  1.00  0.00    -0.341 OA
ATOM     19  C   UNL     1      23.159  34.944  11.365  1.00  0.00     0.281 C 
ATOM     20  C   UNL     1      23.802  36.997  10.153  1.00  0.00     0.180 C 
ATOM     21  C   UNL     1      22.808  35.866  10.218  1.00  0.00     0.202 C 
BRANCH  17  22
ATOM     22  C   UNL     1      26.662  34.576  10.632  1.00  0.00     0.191 C 
BRANCH  22  23
ATOM     23  O   UNL     1      26.770  34.493  12.006  1.00  0.00    -0.394 OA
ATOM     24  H   UNL     1      26.805  33.524  12.263  1.00  0.00     0.210 HD
ENDBRANCH  22  23
ENDBRANCH  17  22
BRANCH  19  25
ATOM     25  O   UNL     1      22.654  35.424  12.573  1.00  0.00    -0.350 OA
BRANCH  25  26
ATOM     26  C   UNL     1      21.485  34.838  12.984  1.00  0.00     0.169 C 
BRANCH  26  27
ATOM     27  C   UNL     1      21.544  33.382  12.499  1.00  0.00     0.119 C 
BRANCH  27  28
ATOM     28  N   UNL     1      21.316  32.442  13.571  1.00  0.00    -0.092 NA
ATOM     29  N   UNL     1      20.223  32.477  14.158  1.00  0.00     0.001 N 
ATOM     30  N   UNL     1      19.253  32.688  14.873  1.00  0.00    -0.003 NA
ENDBRANCH  27  28
ENDBRANCH  26  27
ENDBRANCH  25  26
ENDBRANCH  19  25
BRANCH  20  31
ATOM     31  O   UNL     1      23.827  37.616  11.398  1.00  0.00    -0.387 OA
ATOM     32  H   UNL     1      24.272  37.072  12.093  1.00  0.00     0.211 HD
ENDBRANCH  20  31
BRANCH  21  33
ATOM     33  O   UNL     1      22.826  35.202   8.997  1.00  0.00    -0.385 OA
ATOM     34  H   UNL     1      22.972  35.800   8.226  1.00  0.00     0.211 HD
ENDBRANCH  21  33
ENDBRANCH  15  16
ENDBRANCH  10  15
BRANCH  12  35
ATOM     35  O   UNL     1      26.403  38.799   6.197  1.00  0.00    -0.385 OA
ATOM     36  H   UNL     1      27.354  38.977   6.146  1.00  0.00     0.211 HD
ENDBRANCH  12  35
BRANCH  13  37
ATOM     37  O   UNL     1      25.879  40.078   9.460  1.00  0.00    -0.387 OA
ATOM     38  H   UNL     1      26.531  40.073  10.208  1.00  0.00     0.211 HD
ENDBRANCH  13  37
BRANCH  14  39
ATOM     39  O   UNL     1      28.439  40.662   9.333  1.00  0.00    -0.387 OA
ATOM     40  H   UNL     1      29.381  40.903   9.099  1.00  0.00     0.211 HD
ENDBRANCH  14  39
ENDBRANCH   8   9
ENDBRANCH   7   8
ENDBRANCH   1   7
BRANCH   1  41
ATOM     41  C   UNL     1      26.956  38.002  12.578  1.00  0.00     0.364 C 
ATOM     42  O   UNL     1      26.506  39.112  12.223  1.00  0.00    -0.246 OA
BRANCH  41  43
ATOM     43  O   UNL     1      26.088  37.080  13.129  1.00  0.00    -0.477 OA
ATOM     44  H   UNL     1      25.571  37.231  13.980  1.00  0.00     0.296 HD
ENDBRANCH  41  43
ENDBRANCH   1  41
BRANCH   3  45
ATOM     45  O   UNL     1      31.423  38.882  12.182  1.00  0.00    -0.391 OA
ATOM     46  H   UNL     1      32.326  39.193  12.450  1.00  0.00     0.211 HD
ENDBRANCH   3  45
BRANCH   5  47
ATOM     47  C   UNL     1      29.590  35.434  15.020  1.00  0.00     0.176 C 
BRANCH  47  48
ATOM     48  O   UNL     1      28.620  35.408  16.019  1.00  0.00    -0.388 OA
ATOM     49  H   UNL     1      28.615  34.520  16.485  1.00  0.00     0.211 HD
ENDBRANCH  47  48
BRANCH  47  50
ATOM     50  C   UNL     1      29.376  34.232  14.129  1.00  0.00     0.165 C 
BRANCH  50  51
ATOM     51  O   UNL     1      28.111  33.668  14.345  1.00  0.00    -0.388 OA
ATOM     52  H   UNL     1      28.140  33.171  15.192  1.00  0.00     0.211 HD
ENDBRANCH  50  51
BRANCH  50  53
ATOM     53  C   UNL     1      30.414  33.161  14.331  1.00  0.00     0.154 C 
BRANCH  53  54
ATOM     54  N   UNL     1      29.898  32.064  15.114  1.00  0.00    -0.319 N 
ATOM     55  C   UNL     1      30.296  31.861  16.457  1.00  0.00     0.407 C 
ATOM     56  H   UNL     1      29.218  31.400  14.695  1.00  0.00     0.167 HD
ATOM     57  O   UNL     1      31.113  32.621  17.036  1.00  0.00    -0.225 OA
BRANCH  55  58
ATOM     58  O   UNL     1      29.791  30.789  17.208  1.00  0.00    -0.443 OA
BRANCH  58  59
ATOM     59  C   UNL     1      28.716  31.035  18.120  1.00  0.00     0.294 C 
BRANCH  59  60
ATOM     60  C   UNL     1      27.648  31.807  17.487  1.00  0.00     0.120 A 
ATOM     61  C   UNL     1      26.552  31.302  16.835  1.00  0.00     0.139 A 
ATOM     62  N   UNL     1      27.557  33.138  17.432  1.00  0.00    -0.132 NA
ATOM     63  N   UNL     1      25.811  32.337  16.393  1.00  0.00    -0.235 N 
ATOM     64  N   UNL     1      26.464  33.437  16.782  1.00  0.00    -0.066 NA
BRANCH  63  65
ATOM     65  C   UNL     1      24.567  32.330  15.652  1.00  0.00     0.155 C 
ATOM     66  C   UNL     1      23.491  33.026  16.432  1.00  0.00     0.049 C 
ATOM     67  C   UNL     1      24.106  30.901  15.387  1.00  0.00     0.049 C 
BRANCH  65  68
ATOM     68  C   UNL     1      24.814  32.974  14.343  1.00  0.00     0.331 C 
ATOM     69  O   UNL     1      24.804  32.281  13.314  1.00  0.00    -0.250 OA
BRANCH  68  70
ATOM     70  O   UNL     1      25.050  34.336  14.299  1.00  0.00    -0.479 OA
ATOM     71  H   UNL     1      25.844  34.770  14.756  1.00  0.00     0.296 HD
ENDBRANCH  68  70
ENDBRANCH  65  68
ENDBRANCH  63  65
ENDBRANCH  59  60
ENDBRANCH  58  59
ENDBRANCH  55  58
ENDBRANCH  53  54
ENDBRANCH  50  53
ENDBRANCH  47  50
ENDBRANCH   5  47
BRANCH   4  72
ATOM     72  N   UNL     1      31.771  36.955  14.681  1.00  0.00    -0.348 N 
ATOM     73  C   UNL     1      32.859  36.040  14.606  1.00  0.00     0.217 C 
ATOM     74  H   UNL     1      31.675  37.521  15.547  1.00  0.00     0.163 HD
ATOM     75  C   UNL     1      33.821  35.903  15.743  1.00  0.00     0.114 C 
ATOM     76  O   UNL     1      33.006  35.342  13.568  1.00  0.00    -0.275 OA
ENDBRANCH   4  72
TORSDOF 32
BEGIN_RES LYS A 131
REMARK  4 active torsions:
REMARK  status: ('A' for Active; 'I' for Inactive)
REMARK    1  A    between atoms: CA   and  CB  
REMARK    2  A    between atoms: CB   and  CG  
REMARK    3  A    between atoms: CG   and  CD  
REMARK    4  A    between atoms: CD   and  CE  
ROOT
ATOM      1  CA  LYS A 131      29.867  25.555  16.977  1.00 20.52     0.186 C 
ENDROOT
BRANCH   1   2
ATOM      2  CB  LYS A 131      28.345  25.722  17.026  1.00 20.94     0.034 C 
BRANCH   2   3
ATOM      3  CG  LYS A 131      27.826  25.997  18.429  1.00 22.96     0.005 C 
BRANCH   3   4
ATOM      4  CD  LYS A 131      26.385  25.598  18.588  1.00 24.33     0.041 C 
BRANCH   4   5
ATOM      5  CE  LYS A 131      26.258  24.084  18.458  1.00 26.91     0.338 C 
ATOM      6  NZ  LYS A 131      25.339  23.733  17.349  1.00 27.40     0.618 N 
ENDBRANCH   4   5
ENDBRANCH   3   4
ENDBRANCH   2   3
ENDBRANCH   1   2
END_RES LYS A 131
BEGIN_RES LYS A 135
REMARK  4 active torsions:
REMARK  status: ('A' for Active; 'I' for Inactive)
REMARK    5  A    between atoms: CA   and  CB  
REMARK    6  A    between atoms: CB   and  CG  
REMARK    7  A    between atoms: CG   and  CD  
REMARK    8  A    between atoms: CD   and  CE  
ROOT
ATOM      7  CA  LYS A 135      33.193  34.663   9.290  1.00 25.02     0.186 C 
ENDROOT
BRANCH   7   8
ATOM      8  CB  LYS A 135      32.060  35.360  10.034  1.00 26.63     0.034 C 
BRANCH   8   9
ATOM      9  CG  LYS A 135      30.709  34.735   9.797  1.00 29.45     0.005 C 
BRANCH   9  10
ATOM     10  CD  LYS A 135      30.486  34.486   8.314  1.00 32.00     0.041 C 
BRANCH  10  11
ATOM     11  CE  LYS A 135      29.062  34.835   7.923  1.00 34.25     0.338 C 
ATOM     12  NZ  LYS A 135      29.027  35.582   6.636  1.00 35.99     0.618 N 
ENDBRANCH  10  11
ENDBRANCH   9  10
ENDBRANCH   8   9
ENDBRANCH   7   8
END_RES LYS A 135
