REMARK VINA RESULT:    -4.671      6.081     12.172
REMARK INTER + INTRA:         -23.798
REMARK INTER:                 -10.047
REMARK INTRA:                 -13.751
REMARK UNBOUND:               -11.071
REMARK SMILES CC(=O)N[C@@H]1[C@@H](O)C[C@](OC[C@H]2O[C@@H](O[C@H]3[C@H](O)[C@@H](O)[C@H](OCCN=[N+]=[N-])O[C@@H]3CO)[C@H](O)[C@@H](O)[C@H]2O)(C(=O)O)O[C@H]1C(O)[C@H](O)CNC(=O)OCc1cn(CC(O)CCc2ccccc2)nn1
REMARK SMILES IDX 43 1 42 2 9 3 8 4 41 5 6 6 5 7 10 8 11 9 12 10 14 11 13 12
REMARK SMILES IDX 32 13 34 14 36 15 15 16 16 17 29 18 28 19 21 20 17 21 19 22
REMARK SMILES IDX 30 23 31 24 22 26 23 27 24 28 25 29 26 30 27 31 18 32 20 34
REMARK SMILES IDX 33 36 35 38 37 40 38 42 39 43 40 44 7 46 4 48 2 49 1 51 3 52
REMARK SMILES IDX 44 53 45 55 46 56 47 58 48 59 49 60 50 62 51 63 52 64 53 65
REMARK SMILES IDX 54 66 68 67 55 68 67 69 56 70 57 71 58 72 59 74 60 75 61 76
REMARK SMILES IDX 62 77 66 78 63 79 65 80 64 81
REMARK H PARENT 31 25 18 33 20 35 33 37 35 39 37 41 40 45 7 47 4 50 44 54
REMARK H PARENT 46 57 48 61 58 73
REMARK Flexibility Score: inf
ROOT
ATOM      1  C   UNL     1      25.454  30.549  20.193  1.00  0.00     0.176 C 
ENDROOT
BRANCH   1   2
ATOM      2  C   UNL     1      25.891  30.135  18.775  1.00  0.00     0.178 C 
ATOM      3  C   UNL     1      28.026  30.450  17.791  1.00  0.00     0.272 C 
ATOM      4  C   UNL     1      27.562  31.819  17.417  1.00  0.00     0.113 C 
ATOM      5  O   UNL     1      27.212  29.950  18.771  1.00  0.00    -0.332 OA
ATOM      6  C   UNL     1      26.164  31.795  16.913  1.00  0.00     0.145 C 
ATOM      7  C   UNL     1      25.227  31.032  17.801  1.00  0.00     0.142 C 
BRANCH   3   8
ATOM      8  O   UNL     1      29.376  30.475  18.195  1.00  0.00    -0.338 OA
BRANCH   8   9
ATOM      9  C   UNL     1      29.617  30.744  19.494  1.00  0.00     0.199 C 
BRANCH   9  10
ATOM     10  C   UNL     1      30.710  31.827  19.650  1.00  0.00     0.179 C 
ATOM     11  C   UNL     1      31.504  33.807  18.878  1.00  0.00     0.282 C 
ATOM     12  O   UNL     1      30.676  32.737  18.655  1.00  0.00    -0.341 OA
ATOM     13  C   UNL     1      30.948  34.476  20.166  1.00  0.00     0.202 C 
ATOM     14  C   UNL     1      31.461  33.537  21.262  1.00  0.00     0.179 C 
ATOM     15  C   UNL     1      30.667  32.274  21.065  1.00  0.00     0.177 C 
BRANCH  11  16
ATOM     16  O   UNL     1      31.421  34.715  17.883  1.00  0.00    -0.341 OA
BRANCH  16  17
ATOM     17  C   UNL     1      30.712  34.412  16.744  1.00  0.00     0.184 C 
ATOM     18  C   UNL     1      31.573  34.178  15.547  1.00  0.00     0.178 C 
ATOM     19  O   UNL     1      31.338  34.945  14.450  1.00  0.00    -0.341 OA
ATOM     20  C   UNL     1      30.065  35.372  14.217  1.00  0.00     0.281 C 
ATOM     21  C   UNL     1      29.640  35.453  16.602  1.00  0.00     0.180 C 
ATOM     22  C   UNL     1      29.669  36.272  15.363  1.00  0.00     0.202 C 
BRANCH  18  23
ATOM     23  C   UNL     1      31.456  32.729  15.125  1.00  0.00     0.191 C 
BRANCH  23  24
ATOM     24  O   UNL     1      30.362  32.110  15.726  1.00  0.00    -0.394 OA
ATOM     25  H   UNL     1      29.613  32.173  15.060  1.00  0.00     0.210 HD
ENDBRANCH  23  24
ENDBRANCH  18  23
BRANCH  20  26
ATOM     26  O   UNL     1      29.154  34.352  14.000  1.00  0.00    -0.350 OA
BRANCH  26  27
ATOM     27  C   UNL     1      27.984  34.880  13.451  1.00  0.00     0.169 C 
BRANCH  27  28
ATOM     28  C   UNL     1      28.194  34.931  11.939  1.00  0.00     0.119 C 
BRANCH  28  29
ATOM     29  N   UNL     1      26.995  34.574  11.231  1.00  0.00    -0.092 NA
ATOM     30  N   UNL     1      26.619  35.282  10.274  1.00  0.00     0.001 N 
ATOM     31  N   UNL     1      26.106  36.136   9.526  1.00  0.00    -0.003 NA
ENDBRANCH  28  29
ENDBRANCH  27  28
ENDBRANCH  26  27
ENDBRANCH  20  26
BRANCH  21  32
ATOM     32  O   UNL     1      28.347  34.864  16.646  1.00  0.00    -0.387 OA
ATOM     33  H   UNL     1      27.759  35.212  15.937  1.00  0.00     0.211 HD
ENDBRANCH  21  32
BRANCH  22  34
ATOM     34  O   UNL     1      30.627  37.287  15.454  1.00  0.00    -0.385 OA
ATOM     35  H   UNL     1      31.067  37.462  14.598  1.00  0.00     0.211 HD
ENDBRANCH  22  34
ENDBRANCH  16  17
ENDBRANCH  11  16
BRANCH  13  36
ATOM     36  O   UNL     1      31.337  35.765  20.323  1.00  0.00    -0.385 OA
ATOM     37  H   UNL     1      31.584  36.064  21.213  1.00  0.00     0.211 HD
ENDBRANCH  13  36
BRANCH  14  38
ATOM     38  O   UNL     1      31.271  34.091  22.525  1.00  0.00    -0.387 OA
ATOM     39  H   UNL     1      30.777  34.938  22.457  1.00  0.00     0.211 HD
ENDBRANCH  14  38
BRANCH  15  40
ATOM     40  O   UNL     1      29.352  32.577  21.432  1.00  0.00    -0.387 OA
ATOM     41  H   UNL     1      28.754  32.584  20.649  1.00  0.00     0.211 HD
ENDBRANCH  15  40
ENDBRANCH   9  10
ENDBRANCH   8   9
ENDBRANCH   3   8
BRANCH   3  42
ATOM     42  C   UNL     1      28.051  29.600  16.575  1.00  0.00     0.364 C 
ATOM     43  O   UNL     1      28.554  30.069  15.515  1.00  0.00    -0.246 OA
BRANCH  42  44
ATOM     44  O   UNL     1      27.556  28.326  16.535  1.00  0.00    -0.477 OA
ATOM     45  H   UNL     1      27.338  27.902  15.645  1.00  0.00     0.296 HD
ENDBRANCH  42  44
ENDBRANCH   3  42
BRANCH   6  46
ATOM     46  O   UNL     1      25.776  33.159  16.798  1.00  0.00    -0.391 OA
ATOM     47  H   UNL     1      25.340  33.485  17.610  1.00  0.00     0.211 HD
ENDBRANCH   6  46
BRANCH   7  48
ATOM     48  N   UNL     1      24.171  30.372  17.076  1.00  0.00    -0.348 N 
ATOM     49  C   UNL     1      22.845  30.875  16.979  1.00  0.00     0.217 C 
ATOM     50  H   UNL     1      24.355  29.451  16.576  1.00  0.00     0.163 HD
ATOM     51  C   UNL     1      21.851  30.106  16.199  1.00  0.00     0.114 C 
ATOM     52  O   UNL     1      22.527  31.933  17.532  1.00  0.00    -0.275 OA
ENDBRANCH   7  48
ENDBRANCH   1   2
BRANCH   1  53
ATOM     53  O   UNL     1      24.127  30.930  20.185  1.00  0.00    -0.388 OA
ATOM     54  H   UNL     1      24.004  31.910  20.177  1.00  0.00     0.211 HD
ENDBRANCH   1  53
BRANCH   1  55
ATOM     55  C   UNL     1      26.392  31.453  20.900  1.00  0.00     0.165 C 
BRANCH  55  56
ATOM     56  O   UNL     1      26.732  30.925  22.120  1.00  0.00    -0.388 OA
ATOM     57  H   UNL     1      27.279  31.521  22.668  1.00  0.00     0.211 HD
ENDBRANCH  55  56
BRANCH  55  58
ATOM     58  C   UNL     1      25.703  32.789  21.050  1.00  0.00     0.154 C 
BRANCH  58  59
ATOM     59  N   UNL     1      26.023  33.786  20.099  1.00  0.00    -0.319 N 
ATOM     60  C   UNL     1      26.978  34.829  20.222  1.00  0.00     0.407 C 
ATOM     61  H   UNL     1      25.511  33.799  19.149  1.00  0.00     0.167 HD
ATOM     62  O   UNL     1      27.662  34.934  21.247  1.00  0.00    -0.225 OA
BRANCH  60  63
ATOM     63  O   UNL     1      27.166  35.749  19.202  1.00  0.00    -0.443 OA
BRANCH  63  64
ATOM     64  C   UNL     1      26.278  36.701  18.746  1.00  0.00     0.294 C 
BRANCH  64  65
ATOM     65  C   UNL     1      25.227  36.255  17.819  1.00  0.00     0.120 A 
ATOM     66  C   UNL     1      25.113  36.560  16.468  1.00  0.00     0.138 A 
ATOM     67  N   UNL     1      24.160  35.490  18.130  1.00  0.00    -0.132 NA
ATOM     68  N   UNL     1      23.997  35.975  16.040  1.00  0.00    -0.250 N 
ATOM     69  N   UNL     1      23.439  35.339  17.039  1.00  0.00    -0.067 NA
BRANCH  68  70
ATOM     70  C   UNL     1      23.509  36.085  14.641  1.00  0.00     0.177 C 
BRANCH  70  71
ATOM     71  C   UNL     1      24.201  35.011  13.871  1.00  0.00     0.136 C 
BRANCH  71  72
ATOM     72  O   UNL     1      24.287  35.323  12.504  1.00  0.00    -0.391 OA
ATOM     73  H   UNL     1      25.198  35.568  12.236  1.00  0.00     0.211 HD
ENDBRANCH  71  72
BRANCH  71  74
ATOM     74  C   UNL     1      23.664  33.648  14.065  1.00  0.00     0.038 C 
BRANCH  74  75
ATOM     75  C   UNL     1      24.355  32.460  13.579  1.00  0.00     0.038 C 
BRANCH  75  76
ATOM     76  C   UNL     1      23.602  31.317  13.108  1.00  0.00    -0.048 A 
ATOM     77  C   UNL     1      22.266  31.445  12.739  1.00  0.00     0.004 A 
ATOM     78  C   UNL     1      24.156  30.037  13.079  1.00  0.00     0.004 A 
ATOM     79  C   UNL     1      21.538  30.354  12.366  1.00  0.00     0.000 A 
ATOM     80  C   UNL     1      23.395  28.959  12.699  1.00  0.00     0.000 A 
ATOM     81  C   UNL     1      22.062  29.085  12.332  1.00  0.00     0.000 A 
ENDBRANCH  75  76
ENDBRANCH  74  75
ENDBRANCH  71  74
ENDBRANCH  70  71
ENDBRANCH  68  70
ENDBRANCH  64  65
ENDBRANCH  63  64
ENDBRANCH  60  63
ENDBRANCH  58  59
ENDBRANCH  55  58
ENDBRANCH   1  55
TORSDOF 35
BEGIN_RES LYS A 131
REMARK  4 active torsions:
REMARK  status: ('A' for Active; 'I' for Inactive)
REMARK    1  A    between atoms: CA   and  CB  
REMARK    2  A    between atoms: CB   and  CG  
REMARK    3  A    between atoms: CG   and  CD  
REMARK    4  A    between atoms: CD   and  CE  
ROOT
ATOM      1  CA  LYS A 131      29.867  25.555  16.977  1.00 20.52     0.186 C 
ENDROOT
BRANCH   1   2
ATOM      2  CB  LYS A 131      28.345  25.722  17.026  1.00 20.94     0.034 C 
BRANCH   2   3
ATOM      3  CG  LYS A 131      27.602  24.398  16.930  1.00 22.96     0.005 C 
BRANCH   3   4
ATOM      4  CD  LYS A 131      26.519  24.280  17.966  1.00 24.33     0.041 C 
BRANCH   4   5
ATOM      5  CE  LYS A 131      26.387  25.601  18.718  1.00 26.91     0.338 C 
ATOM      6  NZ  LYS A 131      25.035  26.177  18.522  1.00 27.40     0.618 N 
ENDBRANCH   4   5
ENDBRANCH   3   4
ENDBRANCH   2   3
ENDBRANCH   1   2
END_RES LYS A 131
BEGIN_RES LYS A 135
REMARK  4 active torsions:
REMARK  status: ('A' for Active; 'I' for Inactive)
REMARK    5  A    between atoms: CA   and  CB  
REMARK    6  A    between atoms: CB   and  CG  
REMARK    7  A    between atoms: CG   and  CD  
REMARK    8  A    between atoms: CD   and  CE  
ROOT
ATOM      7  CA  LYS A 135      33.193  34.663   9.290  1.00 25.02     0.186 C 
ENDROOT
BRANCH   7   8
ATOM      8  CB  LYS A 135      32.060  35.360  10.034  1.00 26.63     0.034 C 
BRANCH   8   9
ATOM      9  CG  LYS A 135      30.888  35.712   9.154  1.00 29.45     0.005 C 
BRANCH   9  10
ATOM     10  CD  LYS A 135      30.436  34.501   8.353  1.00 32.00     0.041 C 
BRANCH  10  11
ATOM     11  CE  LYS A 135      28.991  34.658   7.921  1.00 34.25     0.338 C 
ATOM     12  NZ  LYS A 135      28.869  35.626   6.795  1.00 35.99     0.618 N 
ENDBRANCH  10  11
ENDBRANCH   9  10
ENDBRANCH   8   9
ENDBRANCH   7   8
END_RES LYS A 135
