REMARK VINA RESULT:    -4.756      3.565      7.127
REMARK INTER + INTRA:         -25.281
REMARK INTER:                 -11.105
REMARK INTRA:                 -14.176
REMARK UNBOUND:               -12.046
REMARK SMILES CC(=O)N[C@@H]1[C@@H](O)C[C@](OC[C@H]2O[C@@H](O[C@H]3[C@H](O)[C@@H](O)[C@H](OCCN=[N+]=[N-])O[C@@H]3CO)[C@H](O)[C@@H](O)[C@H]2O)(C(=O)O)O[C@H]1C(O)[C@H](O)CNC(=O)OCc1cn(C[C@@H](C(=O)O)C(c2ccccc2)c2ccccc2)nn1
REMARK SMILES IDX 43 1 42 2 9 3 8 4 41 5 6 6 5 7 10 8 11 9 12 10 14 11 13 12
REMARK SMILES IDX 32 13 34 14 36 15 15 16 16 17 29 18 28 19 21 20 17 21 19 22
REMARK SMILES IDX 30 23 31 24 22 26 23 27 24 28 25 29 26 30 27 31 18 32 20 34
REMARK SMILES IDX 33 36 35 38 37 40 38 42 39 43 40 44 7 46 4 48 2 49 1 51 3 52
REMARK SMILES IDX 44 53 45 55 46 56 47 58 48 59 49 60 50 62 51 63 52 64 53 65
REMARK SMILES IDX 54 66 75 67 55 68 74 69 56 70 57 71 58 72 59 73 60 74 61 76
REMARK SMILES IDX 62 77 63 78 67 79 64 80 66 81 65 82 68 83 69 84 73 85 70 86
REMARK SMILES IDX 72 87 71 88
REMARK H PARENT 31 25 18 33 20 35 33 37 35 39 37 41 40 45 7 47 4 50 44 54
REMARK H PARENT 46 57 48 61 60 75
REMARK Flexibility Score: inf
ROOT
ATOM      1  C   UNL     1      31.344  33.266  16.999  1.00  0.00     0.176 C 
ENDROOT
BRANCH   1   2
ATOM      2  C   UNL     1      30.204  32.383  17.549  1.00  0.00     0.178 C 
ATOM      3  C   UNL     1      28.142  31.395  17.212  1.00  0.00     0.272 C 
ATOM      4  C   UNL     1      28.624  30.818  18.584  1.00  0.00     0.113 C 
ATOM      5  O   UNL     1      29.134  32.272  16.739  1.00  0.00    -0.332 OA
ATOM      6  C   UNL     1      28.963  31.897  19.554  1.00  0.00     0.145 C 
ATOM      7  C   UNL     1      29.920  32.873  18.949  1.00  0.00     0.142 C 
BRANCH   3   8
ATOM      8  O   UNL     1      26.959  31.886  17.379  1.00  0.00    -0.338 OA
BRANCH   8   9
ATOM      9  C   UNL     1      25.733  31.623  17.154  1.00  0.00     0.199 C 
BRANCH   9  10
ATOM     10  C   UNL     1      24.845  32.374  16.197  1.00  0.00     0.179 C 
ATOM     11  C   UNL     1      24.491  34.682  15.780  1.00  0.00     0.282 C 
ATOM     12  O   UNL     1      24.654  33.652  16.624  1.00  0.00    -0.341 OA
ATOM     13  C   UNL     1      24.371  34.441  14.325  1.00  0.00     0.202 C 
ATOM     14  C   UNL     1      24.658  33.037  13.878  1.00  0.00     0.179 C 
ATOM     15  C   UNL     1      25.625  32.467  14.866  1.00  0.00     0.177 C 
BRANCH  11  16
ATOM     16  O   UNL     1      25.655  35.488  15.955  1.00  0.00    -0.341 OA
BRANCH  16  17
ATOM     17  C   UNL     1      25.409  36.669  16.596  1.00  0.00     0.184 C 
ATOM     18  C   UNL     1      26.363  37.707  16.077  1.00  0.00     0.178 C 
ATOM     19  O   UNL     1      27.582  37.696  16.745  1.00  0.00    -0.341 OA
ATOM     20  C   UNL     1      27.913  36.445  17.284  1.00  0.00     0.281 C 
ATOM     21  C   UNL     1      25.616  36.568  18.101  1.00  0.00     0.180 C 
ATOM     22  C   UNL     1      27.009  36.054  18.403  1.00  0.00     0.202 C 
BRANCH  18  23
ATOM     23  C   UNL     1      25.817  39.107  16.080  1.00  0.00     0.191 C 
BRANCH  23  24
ATOM     24  O   UNL     1      24.437  39.151  16.087  1.00  0.00    -0.394 OA
ATOM     25  H   UNL     1      24.152  39.139  17.049  1.00  0.00     0.210 HD
ENDBRANCH  23  24
ENDBRANCH  18  23
BRANCH  20  26
ATOM     26  O   UNL     1      29.199  36.514  17.772  1.00  0.00    -0.350 OA
BRANCH  26  27
ATOM     27  C   UNL     1      29.773  37.745  17.831  1.00  0.00     0.169 C 
BRANCH  27  28
ATOM     28  C   UNL     1      30.440  38.062  19.130  1.00  0.00     0.119 C 
BRANCH  28  29
ATOM     29  N   UNL     1      29.352  38.294  20.102  1.00  0.00    -0.092 NA
ATOM     30  N   UNL     1      28.469  39.087  19.767  1.00  0.00     0.001 N 
ATOM     31  N   UNL     1      27.662  39.979  19.511  1.00  0.00    -0.003 NA
ENDBRANCH  28  29
ENDBRANCH  27  28
ENDBRANCH  26  27
ENDBRANCH  20  26
BRANCH  21  32
ATOM     32  O   UNL     1      25.526  37.860  18.613  1.00  0.00    -0.387 OA
ATOM     33  H   UNL     1      24.895  38.429  18.116  1.00  0.00     0.211 HD
ENDBRANCH  21  32
BRANCH  22  34
ATOM     34  O   UNL     1      26.993  34.670  18.521  1.00  0.00    -0.385 OA
ATOM     35  H   UNL     1      27.687  34.431  19.214  1.00  0.00     0.211 HD
ENDBRANCH  22  34
ENDBRANCH  16  17
ENDBRANCH  11  16
BRANCH  13  36
ATOM     36  O   UNL     1      23.053  34.721  13.891  1.00  0.00    -0.385 OA
ATOM     37  H   UNL     1      22.751  34.027  13.239  1.00  0.00     0.211 HD
ENDBRANCH  13  36
BRANCH  14  38
ATOM     38  O   UNL     1      25.196  33.043  12.606  1.00  0.00    -0.387 OA
ATOM     39  H   UNL     1      25.600  32.154  12.422  1.00  0.00     0.211 HD
ENDBRANCH  14  38
BRANCH  15  40
ATOM     40  O   UNL     1      26.706  33.329  14.987  1.00  0.00    -0.387 OA
ATOM     41  H   UNL     1      26.556  33.895  15.773  1.00  0.00     0.211 HD
ENDBRANCH  15  40
ENDBRANCH   9  10
ENDBRANCH   8   9
ENDBRANCH   3   8
BRANCH   3  42
ATOM     42  C   UNL     1      28.236  30.212  16.332  1.00  0.00     0.364 C 
ATOM     43  O   UNL     1      27.736  29.094  16.571  1.00  0.00    -0.246 OA
BRANCH  42  44
ATOM     44  O   UNL     1      28.940  30.315  15.113  1.00  0.00    -0.477 OA
ATOM     45  H   UNL     1      28.851  31.170  14.605  1.00  0.00     0.296 HD
ENDBRANCH  42  44
ENDBRANCH   3  42
BRANCH   6  46
ATOM     46  O   UNL     1      27.823  32.548  20.048  1.00  0.00    -0.391 OA
ATOM     47  H   UNL     1      27.757  32.483  21.030  1.00  0.00     0.211 HD
ENDBRANCH   6  46
BRANCH   7  48
ATOM     48  N   UNL     1      31.159  32.850  19.692  1.00  0.00    -0.348 N 
ATOM     49  C   UNL     1      31.334  33.638  20.857  1.00  0.00     0.217 C 
ATOM     50  H   UNL     1      31.943  32.226  19.349  1.00  0.00     0.163 HD
ATOM     51  C   UNL     1      32.621  33.618  21.634  1.00  0.00     0.114 C 
ATOM     52  O   UNL     1      30.369  34.360  21.217  1.00  0.00    -0.275 OA
ENDBRANCH   7  48
ENDBRANCH   1   2
BRANCH   1  53
ATOM     53  O   UNL     1      31.196  34.565  17.401  1.00  0.00    -0.388 OA
ATOM     54  H   UNL     1      31.456  34.733  18.335  1.00  0.00     0.211 HD
ENDBRANCH   1  53
BRANCH   1  55
ATOM     55  C   UNL     1      31.402  33.185  15.524  1.00  0.00     0.165 C 
BRANCH  55  56
ATOM     56  O   UNL     1      31.517  31.866  15.040  1.00  0.00    -0.388 OA
ATOM     57  H   UNL     1      32.224  31.927  14.324  1.00  0.00     0.211 HD
ENDBRANCH  55  56
BRANCH  55  58
ATOM     58  C   UNL     1      32.309  34.066  14.750  1.00  0.00     0.154 C 
BRANCH  58  59
ATOM     59  N   UNL     1      31.727  35.193  14.118  1.00  0.00    -0.319 N 
ATOM     60  C   UNL     1      31.773  36.529  14.570  1.00  0.00     0.407 C 
ATOM     61  H   UNL     1      31.189  35.018  13.182  1.00  0.00     0.167 HD
ATOM     62  O   UNL     1      32.316  36.865  15.637  1.00  0.00    -0.225 OA
BRANCH  60  63
ATOM     63  O   UNL     1      31.190  37.499  13.783  1.00  0.00    -0.443 OA
BRANCH  63  64
ATOM     64  C   UNL     1      29.890  37.932  13.981  1.00  0.00     0.294 C 
BRANCH  64  65
ATOM     65  C   UNL     1      28.854  37.041  13.440  1.00  0.00     0.120 A 
ATOM     66  C   UNL     1      27.906  37.286  12.475  1.00  0.00     0.138 A 
ATOM     67  N   UNL     1      28.611  35.754  13.841  1.00  0.00    -0.132 NA
ATOM     68  N   UNL     1      27.143  36.200  12.316  1.00  0.00    -0.251 N 
ATOM     69  N   UNL     1      27.592  35.287  13.156  1.00  0.00    -0.067 NA
BRANCH  68  70
ATOM     70  C   UNL     1      26.007  36.006  11.393  1.00  0.00     0.162 C 
BRANCH  70  71
ATOM     71  C   UNL     1      26.503  35.944   9.986  1.00  0.00     0.132 C 
BRANCH  71  72
ATOM     72  C   UNL     1      26.823  34.538   9.596  1.00  0.00     0.309 C 
ATOM     73  O   UNL     1      27.328  33.717  10.380  1.00  0.00    -0.252 OA
BRANCH  72  74
ATOM     74  O   UNL     1      26.551  34.113   8.307  1.00  0.00    -0.481 OA
ATOM     75  H   UNL     1      27.291  34.142   7.600  1.00  0.00     0.296 HD
ENDBRANCH  72  74
ENDBRANCH  71  72
BRANCH  71  76
ATOM     76  C   UNL     1      25.740  36.670   8.941  1.00  0.00     0.065 C 
BRANCH  76  77
ATOM     77  C   UNL     1      24.328  36.955   9.202  1.00  0.00    -0.040 A 
ATOM     78  C   UNL     1      23.348  35.964   9.043  1.00  0.00     0.004 A 
ATOM     79  C   UNL     1      23.851  38.203   9.609  1.00  0.00     0.004 A 
ATOM     80  C   UNL     1      22.027  36.185   9.267  1.00  0.00     0.000 A 
ATOM     81  C   UNL     1      22.512  38.416   9.833  1.00  0.00     0.000 A 
ATOM     82  C   UNL     1      21.584  37.409   9.664  1.00  0.00     0.000 A 
ENDBRANCH  76  77
BRANCH  76  83
ATOM     83  C   UNL     1      26.498  37.783   8.312  1.00  0.00    -0.040 A 
ATOM     84  C   UNL     1      27.399  38.452   9.114  1.00  0.00     0.004 A 
ATOM     85  C   UNL     1      26.339  38.142   7.001  1.00  0.00     0.004 A 
ATOM     86  C   UNL     1      28.148  39.481   8.618  1.00  0.00     0.000 A 
ATOM     87  C   UNL     1      27.108  39.192   6.509  1.00  0.00     0.000 A 
ATOM     88  C   UNL     1      28.009  39.864   7.304  1.00  0.00     0.000 A 
ENDBRANCH  76  83
ENDBRANCH  71  76
ENDBRANCH  70  71
ENDBRANCH  68  70
ENDBRANCH  64  65
ENDBRANCH  63  64
ENDBRANCH  60  63
ENDBRANCH  58  59
ENDBRANCH  55  58
ENDBRANCH   1  55
TORSDOF 36
BEGIN_RES LYS A 131
REMARK  4 active torsions:
REMARK  status: ('A' for Active; 'I' for Inactive)
REMARK    1  A    between atoms: CA   and  CB  
REMARK    2  A    between atoms: CB   and  CG  
REMARK    3  A    between atoms: CG   and  CD  
REMARK    4  A    between atoms: CD   and  CE  
ROOT
ATOM      1  CA  LYS A 131      29.867  25.555  16.977  1.00 20.52     0.186 C 
ENDROOT
BRANCH   1   2
ATOM      2  CB  LYS A 131      28.345  25.722  17.026  1.00 20.94     0.034 C 
BRANCH   2   3
ATOM      3  CG  LYS A 131      27.684  24.819  18.057  1.00 22.96     0.005 C 
BRANCH   3   4
ATOM      4  CD  LYS A 131      26.946  23.676  17.418  1.00 24.33     0.041 C 
BRANCH   4   5
ATOM      5  CE  LYS A 131      25.462  24.017  17.325  1.00 26.91     0.338 C 
ATOM      6  NZ  LYS A 131      24.644  22.781  17.341  1.00 27.40     0.618 N 
ENDBRANCH   4   5
ENDBRANCH   3   4
ENDBRANCH   2   3
ENDBRANCH   1   2
END_RES LYS A 131
BEGIN_RES LYS A 135
REMARK  4 active torsions:
REMARK  status: ('A' for Active; 'I' for Inactive)
REMARK    5  A    between atoms: CA   and  CB  
REMARK    6  A    between atoms: CB   and  CG  
REMARK    7  A    between atoms: CG   and  CD  
REMARK    8  A    between atoms: CD   and  CE  
ROOT
ATOM      7  CA  LYS A 135      33.193  34.663   9.290  1.00 25.02     0.186 C 
ENDROOT
BRANCH   7   8
ATOM      8  CB  LYS A 135      32.060  35.360  10.034  1.00 26.63     0.034 C 
BRANCH   8   9
ATOM      9  CG  LYS A 135      30.715  34.713   9.826  1.00 29.45     0.005 C 
BRANCH   9  10
ATOM     10  CD  LYS A 135      30.385  34.628   8.343  1.00 32.00     0.041 C 
BRANCH  10  11
ATOM     11  CE  LYS A 135      29.681  35.889   7.881  1.00 34.25     0.338 C 
ATOM     12  NZ  LYS A 135      28.959  35.661   6.598  1.00 35.99     0.618 N 
ENDBRANCH  10  11
ENDBRANCH   9  10
ENDBRANCH   8   9
ENDBRANCH   7   8
END_RES LYS A 135
