REMARK VINA RESULT:    -4.229      3.651      7.800
REMARK INTER + INTRA:         -23.101
REMARK INTER:                 -12.952
REMARK INTRA:                 -10.148
REMARK UNBOUND:               -11.702
REMARK SMILES CC(=O)N[C@@H]1[C@@H](O)C[C@](OC[C@H]2O[C@@H](O[C@H]3[C@H](O)[C@@H](O)[C@H](OCCN=[N+]=[N-])O[C@@H]3CO)[C@H](O)[C@@H](O)[C@H]2O)(C(=O)O)O[C@H]1C(O)[C@H](O)CNC(=O)OCc1cn([C@@H](CC(=O)O)C(=O)O)nn1
REMARK SMILES IDX 43 1 42 2 9 3 8 4 41 5 6 6 5 7 10 8 11 9 12 10 14 11 13 12
REMARK SMILES IDX 32 13 34 14 36 15 15 16 16 17 29 18 28 19 21 20 17 21 19 22
REMARK SMILES IDX 30 23 31 24 22 26 23 27 24 28 25 29 26 30 27 31 18 32 20 34
REMARK SMILES IDX 33 36 35 38 37 40 38 42 39 43 40 44 7 46 4 48 2 49 1 51 3 52
REMARK SMILES IDX 44 53 45 55 46 56 47 58 48 59 49 60 50 62 51 63 52 64 53 65
REMARK SMILES IDX 54 66 65 67 55 68 64 69 56 70 57 71 58 72 59 73 60 74 61 76
REMARK SMILES IDX 62 77 63 78
REMARK H PARENT 31 25 18 33 20 35 33 37 35 39 37 41 40 45 7 47 4 50 44 54
REMARK H PARENT 46 57 48 61 60 75 63 79
REMARK Flexibility Score: inf
ROOT
ATOM      1  C   UNL     1      32.004  36.785  12.986  1.00  0.00     0.176 C 
ENDROOT
BRANCH   1   2
ATOM      2  C   UNL     1      30.586  37.090  13.437  1.00  0.00     0.178 C 
ATOM      3  C   UNL     1      28.379  36.337  13.138  1.00  0.00     0.272 C 
ATOM      4  C   UNL     1      28.201  37.745  13.722  1.00  0.00     0.113 C 
ATOM      5  O   UNL     1      29.743  36.250  12.779  1.00  0.00    -0.332 OA
ATOM      6  C   UNL     1      28.910  38.678  12.751  1.00  0.00     0.145 C 
ATOM      7  C   UNL     1      30.383  38.572  13.178  1.00  0.00     0.142 C 
BRANCH   3   8
ATOM      8  O   UNL     1      27.619  36.142  12.163  1.00  0.00    -0.338 OA
BRANCH   8   9
ATOM      9  C   UNL     1      26.855  35.951  11.199  1.00  0.00     0.199 C 
BRANCH   9  10
ATOM     10  C   UNL     1      25.725  36.956  10.977  1.00  0.00     0.179 C 
ATOM     11  C   UNL     1      26.293  37.916   8.964  1.00  0.00     0.282 C 
ATOM     12  O   UNL     1      26.063  38.078  10.300  1.00  0.00    -0.341 OA
ATOM     13  C   UNL     1      25.157  37.289   8.255  1.00  0.00     0.202 C 
ATOM     14  C   UNL     1      24.001  37.232   9.267  1.00  0.00     0.179 C 
ATOM     15  C   UNL     1      24.499  36.317  10.370  1.00  0.00     0.177 C 
BRANCH  11  16
ATOM     16  O   UNL     1      27.561  37.477   8.615  1.00  0.00    -0.341 OA
BRANCH  16  17
ATOM     17  C   UNL     1      28.150  38.222   7.621  1.00  0.00     0.184 C 
ATOM     18  C   UNL     1      28.959  37.384   6.696  1.00  0.00     0.178 C 
ATOM     19  O   UNL     1      29.499  38.143   5.666  1.00  0.00    -0.341 OA
ATOM     20  C   UNL     1      29.918  39.419   6.059  1.00  0.00     0.281 C 
ATOM     21  C   UNL     1      29.059  39.223   8.329  1.00  0.00     0.180 C 
ATOM     22  C   UNL     1      30.312  39.402   7.532  1.00  0.00     0.202 C 
BRANCH  18  23
ATOM     23  C   UNL     1      28.008  36.396   6.022  1.00  0.00     0.191 C 
BRANCH  23  24
ATOM     24  O   UNL     1      27.005  37.127   5.352  1.00  0.00    -0.394 OA
ATOM     25  H   UNL     1      27.132  36.898   4.385  1.00  0.00     0.210 HD
ENDBRANCH  23  24
ENDBRANCH  18  23
BRANCH  20  26
ATOM     26  O   UNL     1      28.835  40.269   5.928  1.00  0.00    -0.350 OA
BRANCH  26  27
ATOM     27  C   UNL     1      28.406  40.527   4.663  1.00  0.00     0.169 C 
BRANCH  27  28
ATOM     28  C   UNL     1      26.983  40.998   4.665  1.00  0.00     0.119 C 
BRANCH  28  29
ATOM     29  N   UNL     1      26.250  40.223   5.667  1.00  0.00    -0.092 NA
ATOM     30  N   UNL     1      25.676  40.853   6.578  1.00  0.00     0.001 N 
ATOM     31  N   UNL     1      25.370  41.122   7.755  1.00  0.00    -0.003 NA
ENDBRANCH  28  29
ENDBRANCH  27  28
ENDBRANCH  26  27
ENDBRANCH  20  26
BRANCH  21  32
ATOM     32  O   UNL     1      28.406  40.442   8.458  1.00  0.00    -0.387 OA
ATOM     33  H   UNL     1      27.758  40.569   7.706  1.00  0.00     0.211 HD
ENDBRANCH  21  32
BRANCH  22  34
ATOM     34  O   UNL     1      31.282  38.427   7.772  1.00  0.00    -0.385 OA
ATOM     35  H   UNL     1      30.809  37.735   8.334  1.00  0.00     0.211 HD
ENDBRANCH  22  34
ENDBRANCH  16  17
ENDBRANCH  11  16
BRANCH  13  36
ATOM     36  O   UNL     1      24.674  38.046   7.185  1.00  0.00    -0.385 OA
ATOM     37  H   UNL     1      25.370  38.732   6.969  1.00  0.00     0.211 HD
ENDBRANCH  13  36
BRANCH  14  38
ATOM     38  O   UNL     1      22.829  36.779   8.715  1.00  0.00    -0.387 OA
ATOM     39  H   UNL     1      22.568  35.883   9.067  1.00  0.00     0.211 HD
ENDBRANCH  14  38
BRANCH  15  40
ATOM     40  O   UNL     1      24.760  35.071   9.844  1.00  0.00    -0.387 OA
ATOM     41  H   UNL     1      24.268  34.865   9.031  1.00  0.00     0.211 HD
ENDBRANCH  15  40
ENDBRANCH   9  10
ENDBRANCH   8   9
ENDBRANCH   3   8
BRANCH   3  42
ATOM     42  C   UNL     1      28.176  35.422  14.343  1.00  0.00     0.364 C 
ATOM     43  O   UNL     1      28.681  34.290  14.350  1.00  0.00    -0.246 OA
BRANCH  42  44
ATOM     44  O   UNL     1      27.434  35.831  15.434  1.00  0.00    -0.477 OA
ATOM     45  H   UNL     1      27.429  36.806  15.764  1.00  0.00     0.296 HD
ENDBRANCH  42  44
ENDBRANCH   3  42
BRANCH   6  46
ATOM     46  O   UNL     1      28.911  38.110  11.458  1.00  0.00    -0.391 OA
ATOM     47  H   UNL     1      28.151  37.525  11.304  1.00  0.00     0.211 HD
ENDBRANCH   6  46
BRANCH   7  48
ATOM     48  N   UNL     1      30.514  39.386  14.363  1.00  0.00    -0.348 N 
ATOM     49  C   UNL     1      30.794  40.782  14.247  1.00  0.00     0.217 C 
ATOM     50  H   UNL     1      30.414  39.002  15.330  1.00  0.00     0.163 HD
ATOM     51  C   UNL     1      30.921  41.573  15.518  1.00  0.00     0.114 C 
ATOM     52  O   UNL     1      30.933  41.343  13.128  1.00  0.00    -0.275 OA
ENDBRANCH   7  48
ENDBRANCH   1   2
BRANCH   1  53
ATOM     53  O   UNL     1      32.255  37.282  11.712  1.00  0.00    -0.388 OA
ATOM     54  H   UNL     1      32.826  38.101  11.739  1.00  0.00     0.211 HD
ENDBRANCH   1  53
BRANCH   1  55
ATOM     55  C   UNL     1      32.423  35.367  13.090  1.00  0.00     0.165 C 
BRANCH  55  56
ATOM     56  O   UNL     1      31.879  34.502  12.167  1.00  0.00    -0.388 OA
ATOM     57  H   UNL     1      31.529  33.656  12.553  1.00  0.00     0.211 HD
ENDBRANCH  55  56
BRANCH  55  58
ATOM     58  C   UNL     1      32.361  34.879  14.497  1.00  0.00     0.154 C 
BRANCH  58  59
ATOM     59  N   UNL     1      31.905  33.537  14.684  1.00  0.00    -0.319 N 
ATOM     60  C   UNL     1      31.497  33.113  15.971  1.00  0.00     0.407 C 
ATOM     61  H   UNL     1      31.865  32.870  13.902  1.00  0.00     0.167 HD
ATOM     62  O   UNL     1      31.539  33.967  16.924  1.00  0.00    -0.225 OA
BRANCH  60  63
ATOM     63  O   UNL     1      31.054  31.846  16.309  1.00  0.00    -0.443 OA
BRANCH  63  64
ATOM     64  C   UNL     1      30.066  31.693  17.342  1.00  0.00     0.294 C 
BRANCH  64  65
ATOM     65  C   UNL     1      28.790  31.274  16.716  1.00  0.00     0.120 A 
ATOM     66  C   UNL     1      27.651  32.001  16.451  1.00  0.00     0.139 A 
ATOM     67  N   UNL     1      28.497  30.002  16.285  1.00  0.00    -0.132 NA
ATOM     68  N   UNL     1      26.723  31.176  15.883  1.00  0.00    -0.237 N 
ATOM     69  N   UNL     1      27.281  30.003  15.809  1.00  0.00    -0.066 NA
BRANCH  68  70
ATOM     70  C   UNL     1      25.389  31.545  15.469  1.00  0.00     0.229 C 
BRANCH  70  71
ATOM     71  C   UNL     1      25.506  32.516  14.307  1.00  0.00     0.161 C 
BRANCH  71  72
ATOM     72  C   UNL     1      24.850  33.803  14.608  1.00  0.00     0.306 C 
ATOM     73  O   UNL     1      24.276  34.465  13.706  1.00  0.00    -0.252 OA
BRANCH  72  74
ATOM     74  O   UNL     1      24.855  34.306  15.890  1.00  0.00    -0.481 OA
ATOM     75  H   UNL     1      25.184  35.267  16.040  1.00  0.00     0.296 HD
ENDBRANCH  72  74
ENDBRANCH  71  72
ENDBRANCH  70  71
BRANCH  70  76
ATOM     76  C   UNL     1      24.671  30.335  15.029  1.00  0.00     0.329 C 
ATOM     77  O   UNL     1      24.368  30.217  13.819  1.00  0.00    -0.250 OA
BRANCH  76  78
ATOM     78  O   UNL     1      24.311  29.311  15.894  1.00  0.00    -0.480 OA
ATOM     79  H   UNL     1      24.940  29.084  16.659  1.00  0.00     0.296 HD
ENDBRANCH  76  78
ENDBRANCH  70  76
ENDBRANCH  68  70
ENDBRANCH  64  65
ENDBRANCH  63  64
ENDBRANCH  60  63
ENDBRANCH  58  59
ENDBRANCH  55  58
ENDBRANCH   1  55
TORSDOF 35
BEGIN_RES LYS A 131
REMARK  4 active torsions:
REMARK  status: ('A' for Active; 'I' for Inactive)
REMARK    1  A    between atoms: CA   and  CB  
REMARK    2  A    between atoms: CB   and  CG  
REMARK    3  A    between atoms: CG   and  CD  
REMARK    4  A    between atoms: CD   and  CE  
ROOT
ATOM      1  CA  LYS A 131      29.867  25.555  16.977  1.00 20.52     0.186 C 
ENDROOT
BRANCH   1   2
ATOM      2  CB  LYS A 131      28.345  25.722  17.026  1.00 20.94     0.034 C 
BRANCH   2   3
ATOM      3  CG  LYS A 131      27.602  24.398  16.934  1.00 22.96     0.005 C 
BRANCH   3   4
ATOM      4  CD  LYS A 131      26.554  24.262  18.004  1.00 24.33     0.041 C 
BRANCH   4   5
ATOM      5  CE  LYS A 131      25.379  25.181  17.685  1.00 26.91     0.338 C 
ATOM      6  NZ  LYS A 131      24.130  24.396  17.541  1.00 27.40     0.618 N 
ENDBRANCH   4   5
ENDBRANCH   3   4
ENDBRANCH   2   3
ENDBRANCH   1   2
END_RES LYS A 131
BEGIN_RES LYS A 135
REMARK  4 active torsions:
REMARK  status: ('A' for Active; 'I' for Inactive)
REMARK    5  A    between atoms: CA   and  CB  
REMARK    6  A    between atoms: CB   and  CG  
REMARK    7  A    between atoms: CG   and  CD  
REMARK    8  A    between atoms: CD   and  CE  
ROOT
ATOM      7  CA  LYS A 135      33.193  34.663   9.290  1.00 25.02     0.186 C 
ENDROOT
BRANCH   7   8
ATOM      8  CB  LYS A 135      32.060  35.360  10.034  1.00 26.63     0.034 C 
BRANCH   8   9
ATOM      9  CG  LYS A 135      30.807  35.517   9.212  1.00 29.45     0.005 C 
BRANCH   9  10
ATOM     10  CD  LYS A 135      30.322  34.166   8.710  1.00 32.00     0.041 C 
BRANCH  10  11
ATOM     11  CE  LYS A 135      29.055  33.752   9.434  1.00 34.25     0.338 C 
ATOM     12  NZ  LYS A 135      27.843  34.126   8.654  1.00 35.99     0.618 N 
ENDBRANCH  10  11
ENDBRANCH   9  10
ENDBRANCH   8   9
ENDBRANCH   7   8
END_RES LYS A 135
