REMARK VINA RESULT:    -5.150      3.123      6.616
REMARK INTER + INTRA:         -24.604
REMARK INTER:                 -11.731
REMARK INTRA:                 -12.873
REMARK UNBOUND:               -11.174
REMARK SMILES CC(=O)N[C@@H]1[C@@H](O)C[C@](OC[C@H]2O[C@@H](O[C@H]3[C@H](O)[C@@H](O)[C@H](OCCN=[N+]=[N-])O[C@@H]3CO)[C@H](O)[C@@H](O)[C@H]2O)(C(=O)O)O[C@H]1C(O)[C@H](O)CNC(=O)OCc1cn(-c2cc(C(=O)O)nc(-c3ccccc3)c2)nn1
REMARK SMILES IDX 9 1 8 2 6 3 5 4 42 5 41 6 10 7 11 8 12 9 14 10 13 11 32 12
REMARK SMILES IDX 34 13 36 14 15 15 16 16 29 17 28 18 21 19 17 20 19 21 30 22
REMARK SMILES IDX 31 23 22 25 23 26 24 27 25 28 26 29 27 30 18 31 20 33 33 35
REMARK SMILES IDX 35 37 37 39 38 41 39 42 40 43 7 45 43 47 44 48 45 50 46 51
REMARK SMILES IDX 47 53 48 54 49 55 50 57 51 58 52 59 53 60 54 61 72 62 55 63
REMARK SMILES IDX 71 64 56 65 57 66 70 67 58 68 63 69 62 70 59 71 60 72 61 73
REMARK SMILES IDX 64 75 65 76 69 77 66 78 68 79 67 80 4 81 2 82 1 84 3 85
REMARK H PARENT 31 24 18 32 20 34 33 36 35 38 37 40 40 44 7 46 44 49 46 52
REMARK H PARENT 48 56 61 74 4 83
REMARK Flexibility Score: inf
ROOT
ATOM      1  C   UNL     1      28.413  32.789  20.301  1.00  0.00     0.272 C 
ATOM      2  C   UNL     1      28.892  32.225  21.654  1.00  0.00     0.113 C 
ATOM      3  C   UNL     1      28.338  30.886  21.983  1.00  0.00     0.145 C 
ATOM      4  C   UNL     1      26.866  30.736  21.618  1.00  0.00     0.142 C 
ATOM      5  C   UNL     1      26.439  32.143  21.186  1.00  0.00     0.178 C 
ATOM      6  O   UNL     1      27.111  32.385  20.009  1.00  0.00    -0.332 OA
ENDROOT
BRANCH   1   7
ATOM      7  O   UNL     1      29.265  32.275  19.378  1.00  0.00    -0.338 OA
BRANCH   7   8
ATOM      8  C   UNL     1      30.232  33.062  18.842  1.00  0.00     0.199 C 
BRANCH   8   9
ATOM      9  C   UNL     1      30.444  32.719  17.346  1.00  0.00     0.179 C 
ATOM     10  C   UNL     1      29.666  31.187  15.760  1.00  0.00     0.282 C 
ATOM     11  O   UNL     1      29.683  31.632  17.057  1.00  0.00    -0.341 OA
ATOM     12  C   UNL     1      30.292  32.245  14.871  1.00  0.00     0.202 C 
ATOM     13  C   UNL     1      29.774  33.635  15.147  1.00  0.00     0.179 C 
ATOM     14  C   UNL     1      29.901  33.926  16.599  1.00  0.00     0.177 C 
BRANCH  10  15
ATOM     15  O   UNL     1      28.349  30.949  15.412  1.00  0.00    -0.341 OA
BRANCH  15  16
ATOM     16  C   UNL     1      27.458  30.933  16.472  1.00  0.00     0.184 C 
ATOM     17  C   UNL     1      26.894  29.590  16.758  1.00  0.00     0.178 C 
ATOM     18  O   UNL     1      25.519  29.558  16.599  1.00  0.00    -0.341 OA
ATOM     19  C   UNL     1      25.117  30.057  15.362  1.00  0.00     0.281 C 
ATOM     20  C   UNL     1      26.429  31.996  16.211  1.00  0.00     0.180 C 
ATOM     21  C   UNL     1      25.226  31.563  15.452  1.00  0.00     0.202 C 
BRANCH  17  22
ATOM     22  C   UNL     1      27.178  29.219  18.199  1.00  0.00     0.191 C 
BRANCH  22  23
ATOM     23  O   UNL     1      28.403  29.694  18.630  1.00  0.00    -0.394 OA
ATOM     24  H   UNL     1      29.052  28.943  18.671  1.00  0.00     0.210 HD
ENDBRANCH  22  23
ENDBRANCH  17  22
BRANCH  19  25
ATOM     25  O   UNL     1      23.785  29.706  15.199  1.00  0.00    -0.350 OA
BRANCH  25  26
ATOM     26  C   UNL     1      23.612  28.777  14.171  1.00  0.00     0.169 C 
BRANCH  26  27
ATOM     27  C   UNL     1      22.631  29.296  13.150  1.00  0.00     0.119 C 
BRANCH  27  28
ATOM     28  N   UNL     1      23.038  30.616  12.724  1.00  0.00    -0.092 NA
ATOM     29  N   UNL     1      22.202  31.508  12.706  1.00  0.00     0.001 N 
ATOM     30  N   UNL     1      21.676  32.627  12.828  1.00  0.00    -0.003 NA
ENDBRANCH  27  28
ENDBRANCH  26  27
ENDBRANCH  25  26
ENDBRANCH  19  25
BRANCH  20  31
ATOM     31  O   UNL     1      25.976  32.446  17.473  1.00  0.00    -0.387 OA
ATOM     32  H   UNL     1      25.921  31.690  18.109  1.00  0.00     0.211 HD
ENDBRANCH  20  31
BRANCH  21  33
ATOM     33  O   UNL     1      25.275  32.152  14.170  1.00  0.00    -0.385 OA
ATOM     34  H   UNL     1      26.068  31.837  13.655  1.00  0.00     0.211 HD
ENDBRANCH  21  33
ENDBRANCH  15  16
ENDBRANCH  10  15
BRANCH  12  35
ATOM     35  O   UNL     1      31.679  32.276  14.947  1.00  0.00    -0.385 OA
ATOM     36  H   UNL     1      31.919  33.245  14.938  1.00  0.00     0.211 HD
ENDBRANCH  12  35
BRANCH  13  37
ATOM     37  O   UNL     1      28.454  33.668  14.696  1.00  0.00    -0.387 OA
ATOM     38  H   UNL     1      28.442  33.226  13.808  1.00  0.00     0.211 HD
ENDBRANCH  13  37
BRANCH  14  39
ATOM     39  O   UNL     1      28.599  34.182  17.079  1.00  0.00    -0.387 OA
ATOM     40  H   UNL     1      28.195  33.405  17.497  1.00  0.00     0.211 HD
ENDBRANCH  14  39
ENDBRANCH   8   9
ENDBRANCH   7   8
ENDBRANCH   1   7
BRANCH   1  41
ATOM     41  C   UNL     1      28.392  34.271  20.398  1.00  0.00     0.364 C 
ATOM     42  O   UNL     1      29.048  34.899  21.273  1.00  0.00    -0.246 OA
BRANCH  41  43
ATOM     43  O   UNL     1      27.644  35.017  19.515  1.00  0.00    -0.477 OA
ATOM     44  H   UNL     1      27.326  34.670  18.602  1.00  0.00     0.296 HD
ENDBRANCH  41  43
ENDBRANCH   1  41
BRANCH   3  45
ATOM     45  O   UNL     1      29.109  29.839  21.527  1.00  0.00    -0.391 OA
ATOM     46  H   UNL     1      30.046  30.009  21.750  1.00  0.00     0.211 HD
ENDBRANCH   3  45
BRANCH   5  47
ATOM     47  C   UNL     1      24.972  32.345  21.165  1.00  0.00     0.176 C 
BRANCH  47  48
ATOM     48  O   UNL     1      24.521  32.522  22.493  1.00  0.00    -0.388 OA
ATOM     49  H   UNL     1      24.794  31.727  23.051  1.00  0.00     0.211 HD
ENDBRANCH  47  48
BRANCH  47  50
ATOM     50  C   UNL     1      24.166  31.273  20.487  1.00  0.00     0.165 C 
BRANCH  50  51
ATOM     51  O   UNL     1      24.802  30.873  19.329  1.00  0.00    -0.388 OA
ATOM     52  H   UNL     1      24.178  30.786  18.561  1.00  0.00     0.211 HD
ENDBRANCH  50  51
BRANCH  50  53
ATOM     53  C   UNL     1      22.803  31.861  20.212  1.00  0.00     0.154 C 
BRANCH  53  54
ATOM     54  N   UNL     1      22.777  33.212  19.781  1.00  0.00    -0.319 N 
ATOM     55  C   UNL     1      22.845  33.562  18.408  1.00  0.00     0.407 C 
ATOM     56  H   UNL     1      22.707  33.998  20.473  1.00  0.00     0.167 HD
ATOM     57  O   UNL     1      22.949  32.662  17.553  1.00  0.00    -0.225 OA
BRANCH  55  58
ATOM     58  O   UNL     1      22.793  34.909  18.000  1.00  0.00    -0.443 OA
BRANCH  58  59
ATOM     59  C   UNL     1      23.971  35.673  18.053  1.00  0.00     0.294 C 
BRANCH  59  60
ATOM     60  C   UNL     1      24.715  35.606  16.773  1.00  0.00     0.121 A 
ATOM     61  C   UNL     1      24.250  35.536  15.481  1.00  0.00     0.144 A 
ATOM     62  N   UNL     1      26.072  35.568  16.629  1.00  0.00    -0.131 NA
ATOM     63  N   UNL     1      25.276  35.459  14.606  1.00  0.00    -0.220 N 
ATOM     64  N   UNL     1      26.380  35.482  15.352  1.00  0.00    -0.062 NA
BRANCH  63  65
ATOM     65  C   UNL     1      25.184  35.345  13.196  1.00  0.00     0.071 A 
ATOM     66  C   UNL     1      23.925  35.456  12.627  1.00  0.00     0.064 A 
ATOM     67  C   UNL     1      26.249  35.147  12.342  1.00  0.00     0.057 A 
ATOM     68  C   UNL     1      23.795  35.366  11.254  1.00  0.00     0.151 A 
ATOM     69  C   UNL     1      26.112  35.061  10.992  1.00  0.00     0.073 A 
ATOM     70  N   UNL     1      24.875  35.172  10.470  1.00  0.00    -0.241 NA
BRANCH  68  71
ATOM     71  C   UNL     1      22.486  35.482  10.626  1.00  0.00     0.354 C 
ATOM     72  O   UNL     1      22.245  36.513   9.949  1.00  0.00    -0.245 OA
BRANCH  71  73
ATOM     73  O   UNL     1      21.498  34.532  10.729  1.00  0.00    -0.477 OA
ATOM     74  H   UNL     1      21.697  33.535  10.878  1.00  0.00     0.297 HD
ENDBRANCH  71  73
ENDBRANCH  68  71
BRANCH  69  75
ATOM     75  C   UNL     1      27.253  34.858  10.106  1.00  0.00     0.000 A 
ATOM     76  C   UNL     1      27.059  35.051   8.740  1.00  0.00     0.010 A 
ATOM     77  C   UNL     1      28.495  34.492  10.535  1.00  0.00     0.010 A 
ATOM     78  C   UNL     1      28.073  34.885   7.834  1.00  0.00     0.001 A 
ATOM     79  C   UNL     1      29.513  34.327   9.611  1.00  0.00     0.001 A 
ATOM     80  C   UNL     1      29.332  34.514   8.272  1.00  0.00     0.000 A 
ENDBRANCH  69  75
ENDBRANCH  63  65
ENDBRANCH  59  60
ENDBRANCH  58  59
ENDBRANCH  55  58
ENDBRANCH  53  54
ENDBRANCH  50  53
ENDBRANCH  47  50
ENDBRANCH   5  47
BRANCH   4  81
ATOM     81  N   UNL     1      26.093  30.215  22.697  1.00  0.00    -0.348 N 
ATOM     82  C   UNL     1      25.992  28.814  22.889  1.00  0.00     0.217 C 
ATOM     83  H   UNL     1      25.605  30.883  23.339  1.00  0.00     0.163 HD
ATOM     84  C   UNL     1      25.202  28.214  23.996  1.00  0.00     0.114 C 
ATOM     85  O   UNL     1      26.590  28.005  22.102  1.00  0.00    -0.275 OA
ENDBRANCH   4  81
TORSDOF 33
BEGIN_RES LYS A 131
REMARK  4 active torsions:
REMARK  status: ('A' for Active; 'I' for Inactive)
REMARK    1  A    between atoms: CA   and  CB  
REMARK    2  A    between atoms: CB   and  CG  
REMARK    3  A    between atoms: CG   and  CD  
REMARK    4  A    between atoms: CD   and  CE  
ROOT
ATOM      1  CA  LYS A 131      29.867  25.555  16.977  1.00 20.52     0.186 C 
ENDROOT
BRANCH   1   2
ATOM      2  CB  LYS A 131      28.345  25.722  17.026  1.00 20.94     0.034 C 
BRANCH   2   3
ATOM      3  CG  LYS A 131      27.600  24.415  16.805  1.00 22.96     0.005 C 
BRANCH   3   4
ATOM      4  CD  LYS A 131      26.280  24.386  17.525  1.00 24.33     0.041 C 
BRANCH   4   5
ATOM      5  CE  LYS A 131      25.945  25.786  18.028  1.00 26.91     0.338 C 
ATOM      6  NZ  LYS A 131      25.817  25.790  19.505  1.00 27.40     0.618 N 
ENDBRANCH   4   5
ENDBRANCH   3   4
ENDBRANCH   2   3
ENDBRANCH   1   2
END_RES LYS A 131
BEGIN_RES LYS A 135
REMARK  4 active torsions:
REMARK  status: ('A' for Active; 'I' for Inactive)
REMARK    5  A    between atoms: CA   and  CB  
REMARK    6  A    between atoms: CB   and  CG  
REMARK    7  A    between atoms: CG   and  CD  
REMARK    8  A    between atoms: CD   and  CE  
ROOT
ATOM      7  CA  LYS A 135      33.193  34.663   9.290  1.00 25.02     0.186 C 
ENDROOT
BRANCH   7   8
ATOM      8  CB  LYS A 135      32.060  35.360  10.034  1.00 26.63     0.034 C 
BRANCH   8   9
ATOM      9  CG  LYS A 135      32.508  36.070  11.285  1.00 29.45     0.005 C 
BRANCH   9  10
ATOM     10  CD  LYS A 135      31.309  36.556  12.085  1.00 32.00     0.041 C 
BRANCH  10  11
ATOM     11  CE  LYS A 135      31.681  36.737  13.545  1.00 34.25     0.338 C 
ATOM     12  NZ  LYS A 135      31.142  38.017  14.081  1.00 35.99     0.618 N 
ENDBRANCH  10  11
ENDBRANCH   9  10
ENDBRANCH   8   9
ENDBRANCH   7   8
END_RES LYS A 135
