REMARK VINA RESULT:    -4.955      4.699      9.604
REMARK INTER + INTRA:         -22.663
REMARK INTER:                 -10.765
REMARK INTRA:                 -11.898
REMARK UNBOUND:                -9.598
REMARK SMILES CC(=O)N[C@@H]1[C@@H](O)C[C@](OC[C@H]2O[C@@H](O[C@H]3[C@H](O)[C@@H](O)[C@H](OCCN=[N+]=[N-])O[C@@H]3CO)[C@H](O)[C@@H](O)[C@H]2O)(C(=O)O)O[C@H]1C(O)[C@H](O)CNC(=O)OCc1cn(Cc2ccccc2OC(C)=O)nn1
REMARK SMILES IDX 43 1 42 2 9 3 8 4 41 5 6 6 5 7 10 8 11 9 12 10 14 11 13 12
REMARK SMILES IDX 32 13 34 14 36 15 15 16 16 17 29 18 28 19 21 20 17 21 19 22
REMARK SMILES IDX 30 23 31 24 22 26 23 27 24 28 25 29 26 30 27 31 18 32 20 34
REMARK SMILES IDX 33 36 35 38 37 40 38 42 39 43 40 44 7 46 4 48 2 49 1 51 3 52
REMARK SMILES IDX 44 53 45 55 46 56 47 58 48 59 49 60 50 62 51 63 52 64 53 65
REMARK SMILES IDX 54 66 68 67 55 68 67 69 56 70 57 71 62 72 58 73 61 74 59 75
REMARK SMILES IDX 60 76 63 77 64 78 66 79 65 80
REMARK H PARENT 31 25 18 33 20 35 33 37 35 39 37 41 40 45 7 47 4 50 44 54
REMARK H PARENT 46 57 48 61
REMARK Flexibility Score: inf
ROOT
ATOM      1  C   UNL     1      29.123  32.881  16.182  1.00  0.00     0.176 C 
ENDROOT
BRANCH   1   2
ATOM      2  C   UNL     1      28.088  32.084  16.961  1.00  0.00     0.178 C 
ATOM      3  C   UNL     1      26.311  30.611  16.630  1.00  0.00     0.272 C 
ATOM      4  C   UNL     1      26.072  31.051  18.070  1.00  0.00     0.113 C 
ATOM      5  O   UNL     1      27.245  31.498  16.044  1.00  0.00    -0.332 OA
ATOM      6  C   UNL     1      25.972  32.567  18.039  1.00  0.00     0.145 C 
ATOM      7  C   UNL     1      27.334  33.104  17.816  1.00  0.00     0.142 C 
BRANCH   3   8
ATOM      8  O   UNL     1      25.194  30.681  15.853  1.00  0.00    -0.338 OA
BRANCH   8   9
ATOM      9  C   UNL     1      24.288  29.671  15.915  1.00  0.00     0.199 C 
BRANCH   9  10
ATOM     10  C   UNL     1      23.006  30.149  15.211  1.00  0.00     0.179 C 
ATOM     11  C   UNL     1      22.276  31.631  13.613  1.00  0.00     0.282 C 
ATOM     12  O   UNL     1      23.436  31.050  14.231  1.00  0.00    -0.341 OA
ATOM     13  C   UNL     1      21.727  30.558  12.742  1.00  0.00     0.202 C 
ATOM     14  C   UNL     1      21.211  29.460  13.687  1.00  0.00     0.179 C 
ATOM     15  C   UNL     1      22.273  28.987  14.622  1.00  0.00     0.177 C 
BRANCH  11  16
ATOM     16  O   UNL     1      22.759  32.766  13.008  1.00  0.00    -0.341 OA
BRANCH  16  17
ATOM     17  C   UNL     1      22.597  33.894  13.833  1.00  0.00     0.184 C 
ATOM     18  C   UNL     1      21.835  35.000  13.203  1.00  0.00     0.178 C 
ATOM     19  O   UNL     1      22.430  36.251  13.389  1.00  0.00    -0.341 OA
ATOM     20  C   UNL     1      22.838  36.498  14.693  1.00  0.00     0.281 C 
ATOM     21  C   UNL     1      24.042  34.490  14.026  1.00  0.00     0.180 C 
ATOM     22  C   UNL     1      23.897  35.491  15.140  1.00  0.00     0.202 C 
BRANCH  18  23
ATOM     23  C   UNL     1      20.365  35.033  13.485  1.00  0.00     0.191 C 
BRANCH  23  24
ATOM     24  O   UNL     1      20.059  34.066  14.431  1.00  0.00    -0.394 OA
ATOM     25  H   UNL     1      19.155  33.718  14.285  1.00  0.00     0.210 HD
ENDBRANCH  23  24
ENDBRANCH  18  23
BRANCH  20  26
ATOM     26  O   UNL     1      21.806  36.421  15.560  1.00  0.00    -0.350 OA
BRANCH  26  27
ATOM     27  C   UNL     1      22.008  36.231  16.877  1.00  0.00     0.169 C 
BRANCH  27  28
ATOM     28  C   UNL     1      21.038  35.403  17.640  1.00  0.00     0.119 C 
BRANCH  28  29
ATOM     29  N   UNL     1      20.953  34.086  17.108  1.00  0.00    -0.092 NA
ATOM     30  N   UNL     1      21.735  33.206  17.393  1.00  0.00     0.001 N 
ATOM     31  N   UNL     1      22.416  32.341  17.952  1.00  0.00    -0.003 NA
ENDBRANCH  28  29
ENDBRANCH  27  28
ENDBRANCH  26  27
ENDBRANCH  20  26
BRANCH  21  32
ATOM     32  O   UNL     1      24.922  33.471  14.296  1.00  0.00    -0.387 OA
ATOM     33  H   UNL     1      25.625  33.423  13.572  1.00  0.00     0.211 HD
ENDBRANCH  21  32
BRANCH  22  34
ATOM     34  O   UNL     1      25.093  36.079  15.484  1.00  0.00    -0.385 OA
ATOM     35  H   UNL     1      25.776  35.351  15.534  1.00  0.00     0.211 HD
ENDBRANCH  22  34
ENDBRANCH  16  17
ENDBRANCH  11  16
BRANCH  13  36
ATOM     36  O   UNL     1      20.617  30.948  12.009  1.00  0.00    -0.385 OA
ATOM     37  H   UNL     1      20.823  31.434  11.184  1.00  0.00     0.211 HD
ENDBRANCH  13  36
BRANCH  14  38
ATOM     38  O   UNL     1      20.654  28.416  12.945  1.00  0.00    -0.387 OA
ATOM     39  H   UNL     1      21.378  28.092  12.336  1.00  0.00     0.211 HD
ENDBRANCH  14  38
BRANCH  15  40
ATOM     40  O   UNL     1      23.109  28.117  13.926  1.00  0.00    -0.387 OA
ATOM     41  H   UNL     1      23.055  27.193  14.236  1.00  0.00     0.211 HD
ENDBRANCH  15  40
ENDBRANCH   9  10
ENDBRANCH   8   9
ENDBRANCH   3   8
BRANCH   3  42
ATOM     42  C   UNL     1      26.921  29.266  16.713  1.00  0.00     0.364 C 
ATOM     43  O   UNL     1      27.770  28.875  15.915  1.00  0.00    -0.246 OA
BRANCH  42  44
ATOM     44  O   UNL     1      26.513  28.411  17.740  1.00  0.00    -0.477 OA
ATOM     45  H   UNL     1      26.445  27.393  17.597  1.00  0.00     0.296 HD
ENDBRANCH  42  44
ENDBRANCH   3  42
BRANCH   6  46
ATOM     46  O   UNL     1      25.194  32.872  16.918  1.00  0.00    -0.391 OA
ATOM     47  H   UNL     1      25.213  33.827  16.671  1.00  0.00     0.211 HD
ENDBRANCH   6  46
BRANCH   7  48
ATOM     48  N   UNL     1      28.092  33.466  18.940  1.00  0.00    -0.348 N 
ATOM     49  C   UNL     1      28.231  34.800  19.416  1.00  0.00     0.217 C 
ATOM     50  H   UNL     1      28.592  32.694  19.466  1.00  0.00     0.163 HD
ATOM     51  C   UNL     1      29.036  35.141  20.600  1.00  0.00     0.114 C 
ATOM     52  O   UNL     1      27.634  35.681  18.782  1.00  0.00    -0.275 OA
ENDBRANCH   7  48
ENDBRANCH   1   2
BRANCH   1  53
ATOM     53  O   UNL     1      28.730  34.205  16.244  1.00  0.00    -0.388 OA
ATOM     54  H   UNL     1      29.002  34.676  17.060  1.00  0.00     0.211 HD
ENDBRANCH   1  53
BRANCH   1  55
ATOM     55  C   UNL     1      30.529  32.617  16.605  1.00  0.00     0.165 C 
BRANCH  55  56
ATOM     56  O   UNL     1      30.889  33.603  17.527  1.00  0.00    -0.388 OA
ATOM     57  H   UNL     1      31.686  34.085  17.258  1.00  0.00     0.211 HD
ENDBRANCH  55  56
BRANCH  55  58
ATOM     58  C   UNL     1      31.498  32.578  15.447  1.00  0.00     0.154 C 
BRANCH  58  59
ATOM     59  N   UNL     1      31.232  33.529  14.418  1.00  0.00    -0.319 N 
ATOM     60  C   UNL     1      31.735  34.855  14.404  1.00  0.00     0.407 C 
ATOM     61  H   UNL     1      30.623  33.247  13.603  1.00  0.00     0.167 HD
ATOM     62  O   UNL     1      32.459  35.217  15.365  1.00  0.00    -0.225 OA
BRANCH  60  63
ATOM     63  O   UNL     1      31.472  35.761  13.405  1.00  0.00    -0.443 OA
BRANCH  63  64
ATOM     64  C   UNL     1      30.409  36.710  13.488  1.00  0.00     0.294 C 
BRANCH  64  65
ATOM     65  C   UNL     1      29.101  36.073  13.280  1.00  0.00     0.120 A 
ATOM     66  C   UNL     1      28.720  35.466  12.107  1.00  0.00     0.138 A 
ATOM     67  N   UNL     1      28.063  35.942  14.115  1.00  0.00    -0.132 NA
ATOM     68  N   UNL     1      27.483  34.988  12.250  1.00  0.00    -0.248 N 
ATOM     69  N   UNL     1      27.106  35.300  13.505  1.00  0.00    -0.067 NA
BRANCH  68  70
ATOM     70  C   UNL     1      26.637  34.280  11.308  1.00  0.00     0.185 C 
BRANCH  70  71
ATOM     71  C   UNL     1      26.692  34.879   9.970  1.00  0.00     0.016 A 
ATOM     72  C   UNL     1      25.920  35.932   9.620  1.00  0.00     0.135 A 
ATOM     73  C   UNL     1      27.596  34.318   9.064  1.00  0.00     0.009 A 
ATOM     74  C   UNL     1      26.039  36.457   8.332  1.00  0.00     0.047 A 
ATOM     75  C   UNL     1      27.704  34.841   7.802  1.00  0.00     0.001 A 
ATOM     76  C   UNL     1      26.928  35.913   7.425  1.00  0.00     0.004 A 
BRANCH  72  77
ATOM     77  O   UNL     1      25.011  36.518  10.477  1.00  0.00    -0.426 OA
BRANCH  77  78
ATOM     78  C   UNL     1      23.651  36.386  10.179  1.00  0.00     0.308 C 
ATOM     79  O   UNL     1      23.181  35.239  10.011  1.00  0.00    -0.252 OA
ATOM     80  C   UNL     1      22.808  37.580  10.068  1.00  0.00     0.139 C 
ENDBRANCH  77  78
ENDBRANCH  72  77
ENDBRANCH  70  71
ENDBRANCH  68  70
ENDBRANCH  64  65
ENDBRANCH  63  64
ENDBRANCH  60  63
ENDBRANCH  58  59
ENDBRANCH  55  58
ENDBRANCH   1  55
TORSDOF 33
BEGIN_RES LYS A 131
REMARK  4 active torsions:
REMARK  status: ('A' for Active; 'I' for Inactive)
REMARK    1  A    between atoms: CA   and  CB  
REMARK    2  A    between atoms: CB   and  CG  
REMARK    3  A    between atoms: CG   and  CD  
REMARK    4  A    between atoms: CD   and  CE  
ROOT
ATOM      1  CA  LYS A 131      29.867  25.555  16.977  1.00 20.52     0.186 C 
ENDROOT
BRANCH   1   2
ATOM      2  CB  LYS A 131      28.345  25.722  17.026  1.00 20.94     0.034 C 
BRANCH   2   3
ATOM      3  CG  LYS A 131      27.602  24.400  16.911  1.00 22.96     0.005 C 
BRANCH   3   4
ATOM      4  CD  LYS A 131      26.155  24.528  17.302  1.00 24.33     0.041 C 
BRANCH   4   5
ATOM      5  CE  LYS A 131      25.717  23.272  18.048  1.00 26.91     0.338 C 
ATOM      6  NZ  LYS A 131      25.522  23.566  19.488  1.00 27.40     0.618 N 
ENDBRANCH   4   5
ENDBRANCH   3   4
ENDBRANCH   2   3
ENDBRANCH   1   2
END_RES LYS A 131
BEGIN_RES LYS A 135
REMARK  4 active torsions:
REMARK  status: ('A' for Active; 'I' for Inactive)
REMARK    5  A    between atoms: CA   and  CB  
REMARK    6  A    between atoms: CB   and  CG  
REMARK    7  A    between atoms: CG   and  CD  
REMARK    8  A    between atoms: CD   and  CE  
ROOT
ATOM      7  CA  LYS A 135      33.193  34.663   9.290  1.00 25.02     0.186 C 
ENDROOT
BRANCH   7   8
ATOM      8  CB  LYS A 135      32.060  35.360  10.034  1.00 26.63     0.034 C 
BRANCH   8   9
ATOM      9  CG  LYS A 135      30.878  35.690   9.159  1.00 29.45     0.005 C 
BRANCH   9  10
ATOM     10  CD  LYS A 135      30.317  37.060   9.510  1.00 32.00     0.041 C 
BRANCH  10  11
ATOM     11  CE  LYS A 135      30.009  37.847   8.250  1.00 34.25     0.338 C 
ATOM     12  NZ  LYS A 135      28.926  38.840   8.490  1.00 35.99     0.618 N 
ENDBRANCH  10  11
ENDBRANCH   9  10
ENDBRANCH   8   9
ENDBRANCH   7   8
END_RES LYS A 135
