REMARK VINA RESULT:    -4.719      4.202      8.636
REMARK INTER + INTRA:         -23.927
REMARK INTER:                 -12.526
REMARK INTRA:                 -11.401
REMARK UNBOUND:               -11.071
REMARK SMILES CC(=O)N[C@@H]1[C@@H](O)C[C@](OC[C@H]2O[C@@H](O[C@H]3[C@H](O)[C@@H](O)[C@H](OCCN=[N+]=[N-])O[C@@H]3CO)[C@H](O)[C@@H](O)[C@H]2O)(C(=O)O)O[C@H]1C(O)[C@H](O)CNC(=O)OCc1cn(CC(O)CCc2ccccc2)nn1
REMARK SMILES IDX 43 1 42 2 9 3 8 4 41 5 6 6 5 7 10 8 11 9 12 10 14 11 13 12
REMARK SMILES IDX 32 13 34 14 36 15 15 16 16 17 29 18 28 19 21 20 17 21 19 22
REMARK SMILES IDX 30 23 31 24 22 26 23 27 24 28 25 29 26 30 27 31 18 32 20 34
REMARK SMILES IDX 33 36 35 38 37 40 38 42 39 43 40 44 7 46 4 48 2 49 1 51 3 52
REMARK SMILES IDX 44 53 45 55 46 56 47 58 48 59 49 60 50 62 51 63 52 64 53 65
REMARK SMILES IDX 54 66 68 67 55 68 67 69 56 70 57 71 58 72 59 74 60 75 61 76
REMARK SMILES IDX 62 77 66 78 63 79 65 80 64 81
REMARK H PARENT 31 25 18 33 20 35 33 37 35 39 37 41 40 45 7 47 4 50 44 54
REMARK H PARENT 46 57 48 61 58 73
REMARK Flexibility Score: inf
ROOT
ATOM      1  C   UNL     1      28.216  34.065  16.557  1.00  0.00     0.176 C 
ENDROOT
BRANCH   1   2
ATOM      2  C   UNL     1      29.694  34.256  16.946  1.00  0.00     0.178 C 
ATOM      3  C   UNL     1      31.348  35.445  15.730  1.00  0.00     0.272 C 
ATOM      4  C   UNL     1      31.555  34.192  14.945  1.00  0.00     0.113 C 
ATOM      5  O   UNL     1      30.144  35.376  16.380  1.00  0.00    -0.332 OA
ATOM      6  C   UNL     1      31.553  32.996  15.827  1.00  0.00     0.145 C 
ATOM      7  C   UNL     1      30.393  32.961  16.776  1.00  0.00     0.142 C 
BRANCH   3   8
ATOM      8  O   UNL     1      31.426  36.576  14.894  1.00  0.00    -0.338 OA
BRANCH   8   9
ATOM      9  C   UNL     1      31.764  36.358  13.606  1.00  0.00     0.199 C 
BRANCH   9  10
ATOM     10  C   UNL     1      30.646  36.828  12.646  1.00  0.00     0.179 C 
ATOM     11  C   UNL     1      28.432  37.273  12.428  1.00  0.00     0.282 C 
ATOM     12  O   UNL     1      29.417  36.685  13.181  1.00  0.00    -0.341 OA
ATOM     13  C   UNL     1      28.787  38.787  12.425  1.00  0.00     0.202 C 
ATOM     14  C   UNL     1      29.936  38.844  11.414  1.00  0.00     0.179 C 
ATOM     15  C   UNL     1      31.073  38.145  12.109  1.00  0.00     0.177 C 
BRANCH  11  16
ATOM     16  O   UNL     1      27.220  37.144  13.008  1.00  0.00    -0.341 OA
BRANCH  16  17
ATOM     17  C   UNL     1      26.206  36.509  12.330  1.00  0.00     0.184 C 
ATOM     18  C   UNL     1      26.601  36.031  10.972  1.00  0.00     0.178 C 
ATOM     19  O   UNL     1      25.865  36.470   9.917  1.00  0.00    -0.341 OA
ATOM     20  C   UNL     1      24.544  36.736  10.114  1.00  0.00     0.281 C 
ATOM     21  C   UNL     1      25.002  37.404  12.398  1.00  0.00     0.180 C 
ATOM     22  C   UNL     1      24.450  37.874  11.101  1.00  0.00     0.202 C 
BRANCH  18  23
ATOM     23  C   UNL     1      26.574  34.518  10.950  1.00  0.00     0.191 C 
BRANCH  23  24
ATOM     24  O   UNL     1      25.824  34.006  12.006  1.00  0.00    -0.394 OA
ATOM     25  H   UNL     1      24.935  33.755  11.613  1.00  0.00     0.210 HD
ENDBRANCH  23  24
ENDBRANCH  18  23
BRANCH  20  26
ATOM     26  O   UNL     1      23.793  35.636  10.493  1.00  0.00    -0.350 OA
BRANCH  26  27
ATOM     27  C   UNL     1      22.495  35.762   9.994  1.00  0.00     0.169 C 
BRANCH  27  28
ATOM     28  C   UNL     1      22.623  35.958   8.484  1.00  0.00     0.119 C 
BRANCH  28  29
ATOM     29  N   UNL     1      21.363  36.323   7.895  1.00  0.00    -0.092 NA
ATOM     30  N   UNL     1      20.418  35.507   7.926  1.00  0.00     0.001 N 
ATOM     31  N   UNL     1      19.592  34.601   7.707  1.00  0.00    -0.003 NA
ENDBRANCH  28  29
ENDBRANCH  27  28
ENDBRANCH  26  27
ENDBRANCH  20  26
BRANCH  21  32
ATOM     32  O   UNL     1      23.926  36.762  13.068  1.00  0.00    -0.387 OA
ATOM     33  H   UNL     1      23.145  37.354  13.161  1.00  0.00     0.211 HD
ENDBRANCH  21  32
BRANCH  22  34
ATOM     34  O   UNL     1      25.199  38.939  10.593  1.00  0.00    -0.385 OA
ATOM     35  H   UNL     1      24.753  39.384   9.844  1.00  0.00     0.211 HD
ENDBRANCH  22  34
ENDBRANCH  16  17
ENDBRANCH  11  16
BRANCH  13  36
ATOM     36  O   UNL     1      27.742  39.591  12.113  1.00  0.00    -0.385 OA
ATOM     37  H   UNL     1      27.642  39.875  11.190  1.00  0.00     0.211 HD
ENDBRANCH  13  36
BRANCH  14  38
ATOM     38  O   UNL     1      30.246  40.160  11.083  1.00  0.00    -0.387 OA
ATOM     39  H   UNL     1      29.462  40.610  10.696  1.00  0.00     0.211 HD
ENDBRANCH  14  38
BRANCH  15  40
ATOM     40  O   UNL     1      31.468  38.984  13.156  1.00  0.00    -0.387 OA
ATOM     41  H   UNL     1      30.707  39.502  13.507  1.00  0.00     0.211 HD
ENDBRANCH  15  40
ENDBRANCH   9  10
ENDBRANCH   8   9
ENDBRANCH   3   8
BRANCH   3  42
ATOM     42  C   UNL     1      32.492  35.627  16.658  1.00  0.00     0.364 C 
ATOM     43  O   UNL     1      33.665  35.599  16.189  1.00  0.00    -0.246 OA
BRANCH  42  44
ATOM     44  O   UNL     1      32.349  35.827  18.003  1.00  0.00    -0.477 OA
ATOM     45  H   UNL     1      33.149  35.730  18.610  1.00  0.00     0.296 HD
ENDBRANCH  42  44
ENDBRANCH   3  42
BRANCH   6  46
ATOM     46  O   UNL     1      31.543  31.875  14.951  1.00  0.00    -0.391 OA
ATOM     47  H   UNL     1      30.955  32.016  14.183  1.00  0.00     0.211 HD
ENDBRANCH   6  46
BRANCH   7  48
ATOM     48  N   UNL     1      30.711  32.337  18.035  1.00  0.00    -0.348 N 
ATOM     49  C   UNL     1      29.970  31.259  18.592  1.00  0.00     0.217 C 
ATOM     50  H   UNL     1      31.536  32.679  18.613  1.00  0.00     0.163 HD
ATOM     51  C   UNL     1      30.401  30.700  19.892  1.00  0.00     0.114 C 
ATOM     52  O   UNL     1      28.988  30.795  18.004  1.00  0.00    -0.275 OA
ENDBRANCH   7  48
ENDBRANCH   1   2
BRANCH   1  53
ATOM     53  O   UNL     1      27.511  33.542  17.623  1.00  0.00    -0.388 OA
ATOM     54  H   UNL     1      27.511  32.554  17.640  1.00  0.00     0.211 HD
ENDBRANCH   1  53
BRANCH   1  55
ATOM     55  C   UNL     1      27.992  33.419  15.242  1.00  0.00     0.165 C 
BRANCH  55  56
ATOM     56  O   UNL     1      27.859  34.371  14.263  1.00  0.00    -0.388 OA
ATOM     57  H   UNL     1      27.819  35.286  14.606  1.00  0.00     0.211 HD
ENDBRANCH  55  56
BRANCH  55  58
ATOM     58  C   UNL     1      26.745  32.574  15.361  1.00  0.00     0.154 C 
BRANCH  58  59
ATOM     59  N   UNL     1      25.551  33.115  14.831  1.00  0.00    -0.319 N 
ATOM     60  C   UNL     1      24.556  33.862  15.515  1.00  0.00     0.407 C 
ATOM     61  H   UNL     1      25.322  32.975  13.786  1.00  0.00     0.167 HD
ATOM     62  O   UNL     1      24.687  34.124  16.717  1.00  0.00    -0.225 OA
BRANCH  60  63
ATOM     63  O   UNL     1      23.422  34.311  14.858  1.00  0.00    -0.443 OA
BRANCH  63  64
ATOM     64  C   UNL     1      22.826  33.777  13.735  1.00  0.00     0.294 C 
BRANCH  64  65
ATOM     65  C   UNL     1      21.620  32.958  13.935  1.00  0.00     0.120 A 
ATOM     66  C   UNL     1      20.575  32.768  13.040  1.00  0.00     0.138 A 
ATOM     67  N   UNL     1      21.300  32.270  15.051  1.00  0.00    -0.132 NA
ATOM     68  N   UNL     1      19.688  31.988  13.653  1.00  0.00    -0.250 N 
ATOM     69  N   UNL     1      20.132  31.696  14.850  1.00  0.00    -0.067 NA
BRANCH  68  70
ATOM     70  C   UNL     1      18.406  31.569  13.028  1.00  0.00     0.177 C 
BRANCH  70  71
ATOM     71  C   UNL     1      18.518  30.101  12.791  1.00  0.00     0.136 C 
BRANCH  71  72
ATOM     72  O   UNL     1      18.551  29.380  13.998  1.00  0.00    -0.391 OA
ATOM     73  H   UNL     1      19.367  28.843  14.085  1.00  0.00     0.211 HD
ENDBRANCH  71  72
BRANCH  71  74
ATOM     74  C   UNL     1      19.622  29.686  11.903  1.00  0.00     0.038 C 
BRANCH  74  75
ATOM     75  C   UNL     1      20.585  28.657  12.280  1.00  0.00     0.038 C 
BRANCH  75  76
ATOM     76  C   UNL     1      21.804  29.016  12.974  1.00  0.00    -0.048 A 
ATOM     77  C   UNL     1      22.009  28.640  14.299  1.00  0.00     0.004 A 
ATOM     78  C   UNL     1      22.779  29.813  12.374  1.00  0.00     0.004 A 
ATOM     79  C   UNL     1      23.124  29.042  14.973  1.00  0.00     0.000 A 
ATOM     80  C   UNL     1      23.891  30.201  13.082  1.00  0.00     0.000 A 
ATOM     81  C   UNL     1      24.096  29.828  14.403  1.00  0.00     0.000 A 
ENDBRANCH  75  76
ENDBRANCH  74  75
ENDBRANCH  71  74
ENDBRANCH  70  71
ENDBRANCH  68  70
ENDBRANCH  64  65
ENDBRANCH  63  64
ENDBRANCH  60  63
ENDBRANCH  58  59
ENDBRANCH  55  58
ENDBRANCH   1  55
TORSDOF 35
BEGIN_RES LYS A 131
REMARK  4 active torsions:
REMARK  status: ('A' for Active; 'I' for Inactive)
REMARK    1  A    between atoms: CA   and  CB  
REMARK    2  A    between atoms: CB   and  CG  
REMARK    3  A    between atoms: CG   and  CD  
REMARK    4  A    between atoms: CD   and  CE  
ROOT
ATOM      1  CA  LYS A 131      29.867  25.555  16.977  1.00 20.52     0.186 C 
ENDROOT
BRANCH   1   2
ATOM      2  CB  LYS A 131      28.345  25.722  17.026  1.00 20.94     0.034 C 
BRANCH   2   3
ATOM      3  CG  LYS A 131      27.601  24.403  16.883  1.00 22.96     0.005 C 
BRANCH   3   4
ATOM      4  CD  LYS A 131      26.156  24.522  17.279  1.00 24.33     0.041 C 
BRANCH   4   5
ATOM      5  CE  LYS A 131      25.587  23.134  17.555  1.00 26.91     0.338 C 
ATOM      6  NZ  LYS A 131      24.174  23.056  17.116  1.00 27.40     0.618 N 
ENDBRANCH   4   5
ENDBRANCH   3   4
ENDBRANCH   2   3
ENDBRANCH   1   2
END_RES LYS A 131
BEGIN_RES LYS A 135
REMARK  4 active torsions:
REMARK  status: ('A' for Active; 'I' for Inactive)
REMARK    5  A    between atoms: CA   and  CB  
REMARK    6  A    between atoms: CB   and  CG  
REMARK    7  A    between atoms: CG   and  CD  
REMARK    8  A    between atoms: CD   and  CE  
ROOT
ATOM      7  CA  LYS A 135      33.193  34.663   9.290  1.00 25.02     0.186 C 
ENDROOT
BRANCH   7   8
ATOM      8  CB  LYS A 135      32.060  35.360  10.034  1.00 26.63     0.034 C 
BRANCH   8   9
ATOM      9  CG  LYS A 135      30.733  34.658   9.905  1.00 29.45     0.005 C 
BRANCH   9  10
ATOM     10  CD  LYS A 135      29.746  35.514   9.127  1.00 32.00     0.041 C 
BRANCH  10  11
ATOM     11  CE  LYS A 135      29.224  34.760   7.919  1.00 34.25     0.338 C 
ATOM     12  NZ  LYS A 135      28.037  35.443   7.333  1.00 35.99     0.618 N 
ENDBRANCH  10  11
ENDBRANCH   9  10
ENDBRANCH   8   9
ENDBRANCH   7   8
END_RES LYS A 135
