REMARK VINA RESULT:    -4.282      2.378      6.805
REMARK INTER + INTRA:         -22.041
REMARK INTER:                 -10.741
REMARK INTRA:                 -11.300
REMARK UNBOUND:               -11.125
REMARK SMILES CC(=O)N[C@@H]1[C@@H](O)C[C@](OC[C@H]2O[C@@H](O[C@H]3[C@H](O)[C@@H](O)[C@H](OCCN=[N+]=[N-])O[C@@H]3CO)[C@H](O)[C@@H](O)[C@H]2O)(C(=O)O)O[C@H]1C(O)[C@H](O)CNC(=O)OCc1cn([C@@H](C)C(=O)O)nn1
REMARK SMILES IDX 9 1 8 2 6 3 5 4 42 5 41 6 10 7 11 8 12 9 14 10 13 11 32 12
REMARK SMILES IDX 34 13 36 14 15 15 16 16 29 17 28 18 21 19 17 20 19 21 30 22
REMARK SMILES IDX 31 23 22 25 23 26 24 27 25 28 26 29 27 30 18 31 20 33 33 35
REMARK SMILES IDX 35 37 37 39 38 41 39 42 40 43 7 45 43 47 44 48 45 50 46 51
REMARK SMILES IDX 47 53 48 54 49 55 50 57 51 58 52 59 53 60 54 61 62 62 55 63
REMARK SMILES IDX 61 64 56 65 57 66 58 67 59 68 60 69 4 71 2 72 1 74 3 75
REMARK H PARENT 31 24 18 32 20 34 33 36 35 38 37 40 40 44 7 46 44 49 46 52
REMARK H PARENT 48 56 60 70 4 73
REMARK Flexibility Score: inf
ROOT
ATOM      1  C   UNL     1      28.941  32.366  16.473  1.00  0.00     0.272 C 
ATOM      2  C   UNL     1      29.133  31.110  17.232  1.00  0.00     0.113 C 
ATOM      3  C   UNL     1      28.558  29.992  16.393  1.00  0.00     0.145 C 
ATOM      4  C   UNL     1      27.010  30.224  16.529  1.00  0.00     0.142 C 
ATOM      5  C   UNL     1      26.690  31.635  16.405  1.00  0.00     0.178 C 
ATOM      6  O   UNL     1      27.659  32.475  15.924  1.00  0.00    -0.332 OA
ENDROOT
BRANCH   1   7
ATOM      7  O   UNL     1      29.897  32.563  15.525  1.00  0.00    -0.338 OA
BRANCH   7   8
ATOM      8  C   UNL     1      31.169  32.787  15.902  1.00  0.00     0.199 C 
BRANCH   8   9
ATOM      9  C   UNL     1      31.812  33.909  15.050  1.00  0.00     0.179 C 
ATOM     10  C   UNL     1      31.202  35.513  13.505  1.00  0.00     0.282 C 
ATOM     11  O   UNL     1      30.780  34.577  14.444  1.00  0.00    -0.341 OA
ATOM     12  C   UNL     1      32.685  35.739  13.537  1.00  0.00     0.202 C 
ATOM     13  C   UNL     1      33.174  35.906  14.963  1.00  0.00     0.179 C 
ATOM     14  C   UNL     1      32.635  34.826  15.886  1.00  0.00     0.177 C 
BRANCH  10  15
ATOM     15  O   UNL     1      30.591  36.763  13.672  1.00  0.00    -0.341 OA
BRANCH  15  16
ATOM     16  C   UNL     1      29.928  37.169  12.523  1.00  0.00     0.184 C 
ATOM     17  C   UNL     1      29.615  38.630  12.597  1.00  0.00     0.178 C 
ATOM     18  O   UNL     1      28.247  38.872  12.737  1.00  0.00    -0.341 OA
ATOM     19  C   UNL     1      27.709  38.135  13.796  1.00  0.00     0.281 C 
ATOM     20  C   UNL     1      28.659  36.358  12.412  1.00  0.00     0.180 C 
ATOM     21  C   UNL     1      27.650  36.667  13.483  1.00  0.00     0.202 C 
BRANCH  17  22
ATOM     22  C   UNL     1      30.092  39.375  11.372  1.00  0.00     0.191 C 
BRANCH  22  23
ATOM     23  O   UNL     1      30.783  38.546  10.492  1.00  0.00    -0.394 OA
ATOM     24  H   UNL     1      30.233  37.769  10.266  1.00  0.00     0.210 HD
ENDBRANCH  22  23
ENDBRANCH  17  22
BRANCH  19  25
ATOM     25  O   UNL     1      26.420  38.604  13.979  1.00  0.00    -0.350 OA
BRANCH  25  26
ATOM     26  C   UNL     1      26.287  39.087  15.264  1.00  0.00     0.169 C 
BRANCH  26  27
ATOM     27  C   UNL     1      25.491  38.121  16.117  1.00  0.00     0.119 C 
BRANCH  27  28
ATOM     28  N   UNL     1      26.406  37.476  17.056  1.00  0.00    -0.092 NA
ATOM     29  N   UNL     1      26.143  36.400  17.595  1.00  0.00     0.001 N 
ATOM     30  N   UNL     1      25.908  35.240  17.882  1.00  0.00    -0.003 NA
ENDBRANCH  27  28
ENDBRANCH  26  27
ENDBRANCH  25  26
ENDBRANCH  19  25
BRANCH  20  31
ATOM     31  O   UNL     1      28.060  36.491  11.160  1.00  0.00    -0.387 OA
ATOM     32  H   UNL     1      28.589  36.111  10.426  1.00  0.00     0.211 HD
ENDBRANCH  20  31
BRANCH  21  33
ATOM     33  O   UNL     1      27.951  35.959  14.645  1.00  0.00    -0.385 OA
ATOM     34  H   UNL     1      28.828  35.517  14.580  1.00  0.00     0.211 HD
ENDBRANCH  21  33
ENDBRANCH  15  16
ENDBRANCH  10  15
BRANCH  12  35
ATOM     35  O   UNL     1      33.416  34.824  12.816  1.00  0.00    -0.385 OA
ATOM     36  H   UNL     1      34.355  34.772  13.178  1.00  0.00     0.211 HD
ENDBRANCH  12  35
BRANCH  13  37
ATOM     37  O   UNL     1      32.698  37.159  15.407  1.00  0.00    -0.387 OA
ATOM     38  H   UNL     1      33.435  37.698  15.798  1.00  0.00     0.211 HD
ENDBRANCH  13  37
BRANCH  14  39
ATOM     39  O   UNL     1      31.886  35.385  16.921  1.00  0.00    -0.387 OA
ATOM     40  H   UNL     1      30.919  35.274  16.729  1.00  0.00     0.211 HD
ENDBRANCH  14  39
ENDBRANCH   8   9
ENDBRANCH   7   8
ENDBRANCH   1   7
BRANCH   1  41
ATOM     41  C   UNL     1      28.980  33.487  17.448  1.00  0.00     0.364 C 
ATOM     42  O   UNL     1      29.025  33.253  18.664  1.00  0.00    -0.246 OA
BRANCH  41  43
ATOM     43  O   UNL     1      28.967  34.809  17.027  1.00  0.00    -0.477 OA
ATOM     44  H   UNL     1      28.572  35.550  17.625  1.00  0.00     0.296 HD
ENDBRANCH  41  43
ENDBRANCH   1  41
BRANCH   3  45
ATOM     45  O   UNL     1      28.841  30.268  15.061  1.00  0.00    -0.391 OA
ATOM     46  H   UNL     1      29.725  29.975  14.782  1.00  0.00     0.211 HD
ENDBRANCH   3  45
BRANCH   5  47
ATOM     47  C   UNL     1      25.409  31.979  15.663  1.00  0.00     0.176 C 
BRANCH  47  48
ATOM     48  O   UNL     1      25.058  30.811  14.894  1.00  0.00    -0.388 OA
ATOM     49  H   UNL     1      25.412  30.021  15.335  1.00  0.00     0.211 HD
ENDBRANCH  47  48
BRANCH  47  50
ATOM     50  C   UNL     1      25.583  33.040  14.595  1.00  0.00     0.165 C 
BRANCH  50  51
ATOM     51  O   UNL     1      25.570  34.329  15.030  1.00  0.00    -0.388 OA
ATOM     52  H   UNL     1      25.447  35.033  14.355  1.00  0.00     0.211 HD
ENDBRANCH  50  51
BRANCH  50  53
ATOM     53  C   UNL     1      24.779  32.752  13.373  1.00  0.00     0.154 C 
BRANCH  53  54
ATOM     54  N   UNL     1      24.203  33.853  12.697  1.00  0.00    -0.319 N 
ATOM     55  C   UNL     1      24.801  34.655  11.690  1.00  0.00     0.407 C 
ATOM     56  H   UNL     1      23.205  34.108  12.977  1.00  0.00     0.167 HD
ATOM     57  O   UNL     1      25.953  34.399  11.319  1.00  0.00    -0.225 OA
BRANCH  55  58
ATOM     58  O   UNL     1      24.081  35.725  11.132  1.00  0.00    -0.443 OA
BRANCH  58  59
ATOM     59  C   UNL     1      24.660  36.999  11.022  1.00  0.00     0.294 C 
BRANCH  59  60
ATOM     60  C   UNL     1      25.086  37.332   9.658  1.00  0.00     0.120 A 
ATOM     61  C   UNL     1      25.640  38.497   9.177  1.00  0.00     0.139 A 
ATOM     62  N   UNL     1      24.984  36.468   8.614  1.00  0.00    -0.132 NA
ATOM     63  N   UNL     1      25.857  38.311   7.874  1.00  0.00    -0.238 N 
ATOM     64  N   UNL     1      25.464  37.091   7.529  1.00  0.00    -0.066 NA
BRANCH  63  65
ATOM     65  C   UNL     1      26.429  39.284   6.965  1.00  0.00     0.215 C 
ATOM     66  C   UNL     1      27.020  40.417   7.744  1.00  0.00     0.046 C 
BRANCH  65  67
ATOM     67  C   UNL     1      27.460  38.669   6.096  1.00  0.00     0.328 C 
ATOM     68  O   UNL     1      28.665  38.951   6.303  1.00  0.00    -0.250 OA
BRANCH  67  69
ATOM     69  O   UNL     1      27.140  37.795   5.067  1.00  0.00    -0.480 OA
ATOM     70  H   UNL     1      26.253  37.846   4.580  1.00  0.00     0.296 HD
ENDBRANCH  67  69
ENDBRANCH  65  67
ENDBRANCH  63  65
ENDBRANCH  59  60
ENDBRANCH  58  59
ENDBRANCH  55  58
ENDBRANCH  53  54
ENDBRANCH  50  53
ENDBRANCH  47  50
ENDBRANCH   5  47
BRANCH   4  71
ATOM     71  N   UNL     1      26.586  29.571  17.754  1.00  0.00    -0.348 N 
ATOM     72  C   UNL     1      25.466  28.761  17.929  1.00  0.00     0.217 C 
ATOM     73  H   UNL     1      27.205  29.739  18.599  1.00  0.00     0.163 HD
ATOM     74  C   UNL     1      25.136  28.151  19.240  1.00  0.00     0.114 C 
ATOM     75  O   UNL     1      24.718  28.543  16.958  1.00  0.00    -0.275 OA
ENDBRANCH   4  71
TORSDOF 32
BEGIN_RES LYS A 131
REMARK  4 active torsions:
REMARK  status: ('A' for Active; 'I' for Inactive)
REMARK    1  A    between atoms: CA   and  CB  
REMARK    2  A    between atoms: CB   and  CG  
REMARK    3  A    between atoms: CG   and  CD  
REMARK    4  A    between atoms: CD   and  CE  
ROOT
ATOM      1  CA  LYS A 131      29.867  25.555  16.977  1.00 20.52     0.186 C 
ENDROOT
BRANCH   1   2
ATOM      2  CB  LYS A 131      28.345  25.722  17.026  1.00 20.94     0.034 C 
BRANCH   2   3
ATOM      3  CG  LYS A 131      27.601  24.401  16.898  1.00 22.96     0.005 C 
BRANCH   3   4
ATOM      4  CD  LYS A 131      26.153  24.528  17.282  1.00 24.33     0.041 C 
BRANCH   4   5
ATOM      5  CE  LYS A 131      25.637  23.179  17.773  1.00 26.91     0.338 C 
ATOM      6  NZ  LYS A 131      25.518  23.175  19.250  1.00 27.40     0.618 N 
ENDBRANCH   4   5
ENDBRANCH   3   4
ENDBRANCH   2   3
ENDBRANCH   1   2
END_RES LYS A 131
BEGIN_RES LYS A 135
REMARK  4 active torsions:
REMARK  status: ('A' for Active; 'I' for Inactive)
REMARK    5  A    between atoms: CA   and  CB  
REMARK    6  A    between atoms: CB   and  CG  
REMARK    7  A    between atoms: CG   and  CD  
REMARK    8  A    between atoms: CD   and  CE  
ROOT
ATOM      7  CA  LYS A 135      33.193  34.663   9.290  1.00 25.02     0.186 C 
ENDROOT
BRANCH   7   8
ATOM      8  CB  LYS A 135      32.060  35.360  10.034  1.00 26.63     0.034 C 
BRANCH   8   9
ATOM      9  CG  LYS A 135      30.735  34.652   9.913  1.00 29.45     0.005 C 
BRANCH   9  10
ATOM     10  CD  LYS A 135      30.328  34.521   8.454  1.00 32.00     0.041 C 
BRANCH  10  11
ATOM     11  CE  LYS A 135      28.818  34.545   8.318  1.00 34.25     0.338 C 
ATOM     12  NZ  LYS A 135      28.400  35.326   7.121  1.00 35.99     0.618 N 
ENDBRANCH  10  11
ENDBRANCH   9  10
ENDBRANCH   8   9
ENDBRANCH   7   8
END_RES LYS A 135
