REMARK VINA RESULT:    -4.753      4.384      9.574
REMARK INTER + INTRA:         -21.412
REMARK INTER:                 -10.592
REMARK INTRA:                 -10.820
REMARK UNBOUND:                -9.712
REMARK SMILES CC(=O)N[C@@H]1[C@@H](O)C[C@](OC[C@H]2O[C@@H](O[C@H]3[C@H](O)[C@@H](O)[C@H](OCCN=[N+]=[N-])O[C@@H]3CO)[C@H](O)[C@@H](O)[C@H]2O)(C(=O)O)O[C@H]1C(O)[C@H](O)CNC(=O)OCc1cn(C2CCCCC2)nn1
REMARK SMILES IDX 9 1 8 2 6 3 5 4 42 5 41 6 10 7 11 8 12 9 14 10 13 11 32 12
REMARK SMILES IDX 34 13 36 14 15 15 16 16 29 17 28 18 21 19 17 20 19 21 30 22
REMARK SMILES IDX 31 23 22 25 23 26 24 27 25 28 26 29 27 30 18 31 20 33 33 35
REMARK SMILES IDX 35 37 37 39 38 41 39 42 40 43 7 45 43 47 44 48 45 50 46 51
REMARK SMILES IDX 47 53 48 54 49 55 50 57 51 58 52 59 53 60 54 61 63 62 55 63
REMARK SMILES IDX 62 64 56 65 57 66 61 67 58 68 60 69 59 70 4 71 2 72 1 74
REMARK SMILES IDX 3 75
REMARK H PARENT 31 24 18 32 20 34 33 36 35 38 37 40 40 44 7 46 44 49 46 52
REMARK H PARENT 48 56 4 73
REMARK Flexibility Score: inf
ROOT
ATOM      1  C   UNL     1      24.260  36.345  10.666  1.00  0.00     0.272 C 
ATOM      2  C   UNL     1      22.965  35.487  10.920  1.00  0.00     0.113 C 
ATOM      3  C   UNL     1      21.999  35.703   9.796  1.00  0.00     0.145 C 
ATOM      4  C   UNL     1      21.687  37.166   9.625  1.00  0.00     0.142 C 
ATOM      5  C   UNL     1      22.860  38.056   9.839  1.00  0.00     0.178 C 
ATOM      6  O   UNL     1      23.946  37.635  10.455  1.00  0.00    -0.332 OA
ENDROOT
BRANCH   1   7
ATOM      7  O   UNL     1      24.812  35.749   9.619  1.00  0.00    -0.338 OA
BRANCH   7   8
ATOM      8  C   UNL     1      26.003  35.680   9.127  1.00  0.00     0.199 C 
BRANCH   8   9
ATOM      9  C   UNL     1      26.352  36.202   7.743  1.00  0.00     0.179 C 
ATOM     10  C   UNL     1      27.761  38.043   7.389  1.00  0.00     0.282 C 
ATOM     11  O   UNL     1      26.500  37.551   7.711  1.00  0.00    -0.341 OA
ATOM     12  C   UNL     1      28.214  37.451   6.108  1.00  0.00     0.202 C 
ATOM     13  C   UNL     1      28.102  35.947   6.056  1.00  0.00     0.179 C 
ATOM     14  C   UNL     1      27.611  35.434   7.356  1.00  0.00     0.177 C 
BRANCH  10  15
ATOM     15  O   UNL     1      28.535  37.932   8.485  1.00  0.00    -0.341 OA
BRANCH  15  16
ATOM     16  C   UNL     1      28.704  38.989   9.318  1.00  0.00     0.184 C 
ATOM     17  C   UNL     1      30.155  39.014   9.749  1.00  0.00     0.178 C 
ATOM     18  O   UNL     1      30.503  40.202  10.364  1.00  0.00    -0.341 OA
ATOM     19  C   UNL     1      29.463  40.857  10.968  1.00  0.00     0.281 C 
ATOM     20  C   UNL     1      27.915  38.891  10.606  1.00  0.00     0.180 C 
ATOM     21  C   UNL     1      28.472  39.923  11.559  1.00  0.00     0.202 C 
BRANCH  17  22
ATOM     22  C   UNL     1      31.113  38.611   8.665  1.00  0.00     0.191 C 
BRANCH  22  23
ATOM     23  O   UNL     1      31.115  37.217   8.603  1.00  0.00    -0.394 OA
ATOM     24  H   UNL     1      30.431  36.871   7.982  1.00  0.00     0.210 HD
ENDBRANCH  22  23
ENDBRANCH  17  22
BRANCH  19  25
ATOM     25  O   UNL     1      28.972  41.816  10.123  1.00  0.00    -0.350 OA
BRANCH  25  26
ATOM     26  C   UNL     1      27.992  42.624  10.678  1.00  0.00     0.169 C 
BRANCH  26  27
ATOM     27  C   UNL     1      26.849  42.924   9.746  1.00  0.00     0.119 C 
BRANCH  27  28
ATOM     28  N   UNL     1      27.208  44.079   8.948  1.00  0.00    -0.092 NA
ATOM     29  N   UNL     1      26.547  44.256   7.916  1.00  0.00     0.001 N 
ATOM     30  N   UNL     1      26.367  44.249   6.685  1.00  0.00    -0.003 NA
ENDBRANCH  27  28
ENDBRANCH  26  27
ENDBRANCH  25  26
ENDBRANCH  19  25
BRANCH  20  31
ATOM     31  O   UNL     1      26.570  39.124  10.451  1.00  0.00    -0.387 OA
ATOM     32  H   UNL     1      26.052  38.307  10.250  1.00  0.00     0.211 HD
ENDBRANCH  20  31
BRANCH  21  33
ATOM     33  O   UNL     1      29.150  39.193  12.567  1.00  0.00    -0.385 OA
ATOM     34  H   UNL     1      29.180  38.232  12.337  1.00  0.00     0.211 HD
ENDBRANCH  21  33
ENDBRANCH  15  16
ENDBRANCH  10  15
BRANCH  12  35
ATOM     35  O   UNL     1      27.325  37.940   5.116  1.00  0.00    -0.385 OA
ATOM     36  H   UNL     1      27.501  37.531   4.240  1.00  0.00     0.211 HD
ENDBRANCH  12  35
BRANCH  13  37
ATOM     37  O   UNL     1      29.343  35.359   5.745  1.00  0.00    -0.387 OA
ATOM     38  H   UNL     1      29.255  34.875   4.908  1.00  0.00     0.211 HD
ENDBRANCH  13  37
BRANCH  14  39
ATOM     39  O   UNL     1      28.525  35.328   8.368  1.00  0.00    -0.387 OA
ATOM     40  H   UNL     1      29.374  35.726   8.060  1.00  0.00     0.211 HD
ENDBRANCH  14  39
ENDBRANCH   8   9
ENDBRANCH   7   8
ENDBRANCH   1   7
BRANCH   1  41
ATOM     41  C   UNL     1      24.966  36.267  11.992  1.00  0.00     0.364 C 
ATOM     42  O   UNL     1      25.224  35.226  12.584  1.00  0.00    -0.246 OA
BRANCH  41  43
ATOM     43  O   UNL     1      25.378  37.455  12.628  1.00  0.00    -0.477 OA
ATOM     44  H   UNL     1      25.987  37.418  13.429  1.00  0.00     0.296 HD
ENDBRANCH  41  43
ENDBRANCH   1  41
BRANCH   3  45
ATOM     45  O   UNL     1      22.446  35.119   8.617  1.00  0.00    -0.391 OA
ATOM     46  H   UNL     1      22.883  35.837   8.074  1.00  0.00     0.211 HD
ENDBRANCH   3  45
BRANCH   5  47
ATOM     47  C   UNL     1      23.319  38.661   8.476  1.00  0.00     0.176 C 
BRANCH  47  48
ATOM     48  O   UNL     1      22.727  37.917   7.438  1.00  0.00    -0.388 OA
ATOM     49  H   UNL     1      21.762  38.069   7.388  1.00  0.00     0.211 HD
ENDBRANCH  47  48
BRANCH  47  50
ATOM     50  C   UNL     1      22.999  40.113   8.381  1.00  0.00     0.165 C 
BRANCH  50  51
ATOM     51  O   UNL     1      22.185  40.268   7.234  1.00  0.00    -0.388 OA
ATOM     52  H   UNL     1      21.644  39.473   7.064  1.00  0.00     0.211 HD
ENDBRANCH  50  51
BRANCH  50  53
ATOM     53  C   UNL     1      24.140  41.045   8.218  1.00  0.00     0.154 C 
BRANCH  53  54
ATOM     54  N   UNL     1      25.213  40.584   7.377  1.00  0.00    -0.319 N 
ATOM     55  C   UNL     1      25.320  40.914   6.000  1.00  0.00     0.407 C 
ATOM     56  H   UNL     1      25.950  39.984   7.788  1.00  0.00     0.167 HD
ATOM     57  O   UNL     1      24.452  41.643   5.459  1.00  0.00    -0.225 OA
BRANCH  55  58
ATOM     58  O   UNL     1      26.350  40.461   5.223  1.00  0.00    -0.443 OA
BRANCH  58  59
ATOM     59  C   UNL     1      27.297  41.243   4.536  1.00  0.00     0.294 C 
BRANCH  59  60
ATOM     60  C   UNL     1      28.528  41.331   5.351  1.00  0.00     0.120 A 
ATOM     61  C   UNL     1      29.781  41.237   4.816  1.00  0.00     0.138 A 
ATOM     62  N   UNL     1      28.672  41.500   6.670  1.00  0.00    -0.132 NA
ATOM     63  N   UNL     1      30.680  41.351   5.821  1.00  0.00    -0.249 N 
ATOM     64  N   UNL     1      29.975  41.510   6.938  1.00  0.00    -0.067 NA
BRANCH  63  65
ATOM     65  C   UNL     1      32.122  41.302   5.685  1.00  0.00     0.109 C 
ATOM     66  C   UNL     1      32.459  39.845   5.381  1.00  0.00     0.027 C 
ATOM     67  C   UNL     1      32.788  41.682   6.989  1.00  0.00     0.027 C 
ATOM     68  C   UNL     1      33.963  39.725   5.132  1.00  0.00     0.002 C 
ATOM     69  C   UNL     1      33.802  40.653   7.446  1.00  0.00     0.002 C 
ATOM     70  C   UNL     1      34.703  40.265   6.314  1.00  0.00     0.000 C 
ENDBRANCH  63  65
ENDBRANCH  59  60
ENDBRANCH  58  59
ENDBRANCH  55  58
ENDBRANCH  53  54
ENDBRANCH  50  53
ENDBRANCH  47  50
ENDBRANCH   5  47
BRANCH   4  71
ATOM     71  N   UNL     1      20.513  37.554  10.363  1.00  0.00    -0.348 N 
ATOM     72  C   UNL     1      19.563  38.487   9.918  1.00  0.00     0.217 C 
ATOM     73  H   UNL     1      20.300  37.131  11.323  1.00  0.00     0.163 HD
ATOM     74  C   UNL     1      18.350  38.836  10.735  1.00  0.00     0.114 C 
ATOM     75  O   UNL     1      19.681  39.064   8.837  1.00  0.00    -0.275 OA
ENDBRANCH   4  71
TORSDOF 30
BEGIN_RES LYS A 131
REMARK  4 active torsions:
REMARK  status: ('A' for Active; 'I' for Inactive)
REMARK    1  A    between atoms: CA   and  CB  
REMARK    2  A    between atoms: CB   and  CG  
REMARK    3  A    between atoms: CG   and  CD  
REMARK    4  A    between atoms: CD   and  CE  
ROOT
ATOM      1  CA  LYS A 131      29.867  25.555  16.977  1.00 20.52     0.186 C 
ENDROOT
BRANCH   1   2
ATOM      2  CB  LYS A 131      28.345  25.722  17.026  1.00 20.94     0.034 C 
BRANCH   2   3
ATOM      3  CG  LYS A 131      27.600  24.407  16.852  1.00 22.96     0.005 C 
BRANCH   3   4
ATOM      4  CD  LYS A 131      26.202  24.472  17.399  1.00 24.33     0.041 C 
BRANCH   4   5
ATOM      5  CE  LYS A 131      26.169  25.407  18.603  1.00 26.91     0.338 C 
ATOM      6  NZ  LYS A 131      25.474  24.763  19.742  1.00 27.40     0.618 N 
ENDBRANCH   4   5
ENDBRANCH   3   4
ENDBRANCH   2   3
ENDBRANCH   1   2
END_RES LYS A 131
BEGIN_RES LYS A 135
REMARK  4 active torsions:
REMARK  status: ('A' for Active; 'I' for Inactive)
REMARK    5  A    between atoms: CA   and  CB  
REMARK    6  A    between atoms: CB   and  CG  
REMARK    7  A    between atoms: CG   and  CD  
REMARK    8  A    between atoms: CD   and  CE  
ROOT
ATOM      7  CA  LYS A 135      33.193  34.663   9.290  1.00 25.02     0.186 C 
ENDROOT
BRANCH   7   8
ATOM      8  CB  LYS A 135      32.060  35.360  10.034  1.00 26.63     0.034 C 
BRANCH   8   9
ATOM      9  CG  LYS A 135      30.956  34.427  10.461  1.00 29.45     0.005 C 
BRANCH   9  10
ATOM     10  CD  LYS A 135      30.271  34.945  11.716  1.00 32.00     0.041 C 
BRANCH  10  11
ATOM     11  CE  LYS A 135      31.025  36.134  12.282  1.00 34.25     0.338 C 
ATOM     12  NZ  LYS A 135      31.380  35.913  13.712  1.00 35.99     0.618 N 
ENDBRANCH  10  11
ENDBRANCH   9  10
ENDBRANCH   8   9
ENDBRANCH   7   8
END_RES LYS A 135
