REMARK VINA RESULT:    -3.511      3.007      7.304
REMARK INTER + INTRA:         -21.308
REMARK INTER:                  -8.963
REMARK INTRA:                 -12.346
REMARK UNBOUND:               -12.359
REMARK SMILES CC(=O)N[C@@H]1[C@@H](O)C[C@](OC[C@H]2O[C@@H](O[C@H]3[C@H](O)[C@@H](O)[C@H](OCCN=[N+]=[N-])O[C@@H]3CO)[C@H](O)[C@@H](O)[C@H]2O)(C(=O)O)O[C@H]1C(O)[C@H](O)CNC(=O)OCc1cn(CC(=O)O)nn1
REMARK SMILES IDX 9 1 8 2 6 3 5 4 42 5 41 6 10 7 11 8 12 9 14 10 13 11 32 12
REMARK SMILES IDX 34 13 36 14 15 15 16 16 29 17 28 18 21 19 17 20 19 21 30 22
REMARK SMILES IDX 31 23 22 25 23 26 24 27 25 28 26 29 27 30 18 31 20 33 33 35
REMARK SMILES IDX 35 37 37 39 38 41 39 42 40 43 7 45 43 47 44 48 45 50 46 51
REMARK SMILES IDX 47 53 48 54 49 55 50 57 51 58 52 59 53 60 54 61 61 62 55 63
REMARK SMILES IDX 60 64 56 65 57 66 58 67 59 68 4 70 2 71 1 73 3 74
REMARK H PARENT 31 24 18 32 20 34 33 36 35 38 37 40 40 44 7 46 44 49 46 52
REMARK H PARENT 48 56 59 69 4 72
REMARK Flexibility Score: inf
ROOT
ATOM      1  C   UNL     1      27.989  38.927   6.831  1.00  0.00     0.272 C 
ATOM      2  C   UNL     1      26.966  37.836   6.690  1.00  0.00     0.113 C 
ATOM      3  C   UNL     1      26.385  37.308   7.934  1.00  0.00     0.145 C 
ATOM      4  C   UNL     1      27.147  37.620   9.216  1.00  0.00     0.142 C 
ATOM      5  C   UNL     1      28.561  37.894   8.808  1.00  0.00     0.178 C 
ATOM      6  O   UNL     1      28.447  39.118   8.097  1.00  0.00    -0.332 OA
ENDROOT
BRANCH   1   7
ATOM      7  O   UNL     1      27.506  40.159   6.340  1.00  0.00    -0.338 OA
BRANCH   7   8
ATOM      8  C   UNL     1      26.696  40.063   5.250  1.00  0.00     0.199 C 
BRANCH   8   9
ATOM      9  C   UNL     1      25.390  40.830   5.514  1.00  0.00     0.179 C 
ATOM     10  C   UNL     1      24.813  42.328   7.171  1.00  0.00     0.282 C 
ATOM     11  O   UNL     1      25.119  40.967   6.851  1.00  0.00    -0.341 OA
ATOM     12  C   UNL     1      26.081  43.062   6.931  1.00  0.00     0.202 C 
ATOM     13  C   UNL     1      26.198  43.216   5.405  1.00  0.00     0.179 C 
ATOM     14  C   UNL     1      25.392  42.133   4.739  1.00  0.00     0.177 C 
BRANCH  10  15
ATOM     15  O   UNL     1      24.299  42.349   8.433  1.00  0.00    -0.341 OA
BRANCH  15  16
ATOM     16  C   UNL     1      23.538  41.224   8.753  1.00  0.00     0.184 C 
ATOM     17  C   UNL     1      22.136  41.671   9.046  1.00  0.00     0.178 C 
ATOM     18  O   UNL     1      21.528  40.840   9.947  1.00  0.00    -0.341 OA
ATOM     19  C   UNL     1      21.817  39.502   9.856  1.00  0.00     0.281 C 
ATOM     20  C   UNL     1      24.082  40.524   9.980  1.00  0.00     0.180 C 
ATOM     21  C   UNL     1      23.285  39.225  10.129  1.00  0.00     0.202 C 
BRANCH  17  22
ATOM     22  C   UNL     1      21.338  41.693   7.756  1.00  0.00     0.191 C 
BRANCH  22  23
ATOM     23  O   UNL     1      22.072  40.943   6.834  1.00  0.00    -0.394 OA
ATOM     24  H   UNL     1      21.483  40.360   6.307  1.00  0.00     0.210 HD
ENDBRANCH  22  23
ENDBRANCH  17  22
BRANCH  19  25
ATOM     25  O   UNL     1      21.397  38.988   8.659  1.00  0.00    -0.350 OA
BRANCH  25  26
ATOM     26  C   UNL     1      20.606  37.872   8.764  1.00  0.00     0.169 C 
BRANCH  26  27
ATOM     27  C   UNL     1      21.028  36.718   7.893  1.00  0.00     0.119 C 
BRANCH  27  28
ATOM     28  N   UNL     1      22.333  36.196   8.303  1.00  0.00    -0.092 NA
ATOM     29  N   UNL     1      22.400  35.779   9.476  1.00  0.00     0.001 N 
ATOM     30  N   UNL     1      22.903  35.638  10.607  1.00  0.00    -0.003 NA
ENDBRANCH  27  28
ENDBRANCH  26  27
ENDBRANCH  25  26
ENDBRANCH  19  25
BRANCH  20  31
ATOM     31  O   UNL     1      25.405  40.176   9.873  1.00  0.00    -0.387 OA
ATOM     32  H   UNL     1      25.839  39.911  10.700  1.00  0.00     0.211 HD
ENDBRANCH  20  31
BRANCH  21  33
ATOM     33  O   UNL     1      23.428  38.693  11.396  1.00  0.00    -0.385 OA
ATOM     34  H   UNL     1      22.550  38.527  11.827  1.00  0.00     0.211 HD
ENDBRANCH  21  33
ENDBRANCH  15  16
ENDBRANCH  10  15
BRANCH  12  35
ATOM     35  O   UNL     1      26.257  44.243   7.592  1.00  0.00    -0.385 OA
ATOM     36  H   UNL     1      26.718  44.099   8.434  1.00  0.00     0.211 HD
ENDBRANCH  12  35
BRANCH  13  37
ATOM     37  O   UNL     1      27.543  43.098   5.090  1.00  0.00    -0.387 OA
ATOM     38  H   UNL     1      27.911  42.194   5.298  1.00  0.00     0.211 HD
ENDBRANCH  13  37
BRANCH  14  39
ATOM     39  O   UNL     1      25.997  41.895   3.506  1.00  0.00    -0.387 OA
ATOM     40  H   UNL     1      25.404  42.106   2.747  1.00  0.00     0.211 HD
ENDBRANCH  14  39
ENDBRANCH   8   9
ENDBRANCH   7   8
ENDBRANCH   1   7
BRANCH   1  41
ATOM     41  C   UNL     1      29.138  38.594   5.958  1.00  0.00     0.364 C 
ATOM     42  O   UNL     1      29.147  37.568   5.252  1.00  0.00    -0.246 OA
BRANCH  41  43
ATOM     43  O   UNL     1      30.256  39.407   5.885  1.00  0.00    -0.477 OA
ATOM     44  H   UNL     1      30.694  39.673   4.994  1.00  0.00     0.296 HD
ENDBRANCH  41  43
ENDBRANCH   1  41
BRANCH   3  45
ATOM     45  O   UNL     1      25.014  37.546   8.077  1.00  0.00    -0.391 OA
ATOM     46  H   UNL     1      24.463  37.093   7.417  1.00  0.00     0.211 HD
ENDBRANCH   3  45
BRANCH   5  47
ATOM     47  C   UNL     1      29.569  38.063   9.893  1.00  0.00     0.176 C 
BRANCH  47  48
ATOM     48  O   UNL     1      29.035  39.113  10.712  1.00  0.00    -0.388 OA
ATOM     49  H   UNL     1      29.664  39.890  10.699  1.00  0.00     0.211 HD
ENDBRANCH  47  48
BRANCH  47  50
ATOM     50  C   UNL     1      30.934  38.504   9.412  1.00  0.00     0.165 C 
BRANCH  50  51
ATOM     51  O   UNL     1      31.241  37.810   8.213  1.00  0.00    -0.388 OA
ATOM     52  H   UNL     1      30.606  38.120   7.531  1.00  0.00     0.211 HD
ENDBRANCH  50  51
BRANCH  50  53
ATOM     53  C   UNL     1      32.012  38.274  10.398  1.00  0.00     0.154 C 
BRANCH  53  54
ATOM     54  N   UNL     1      31.510  37.993  11.712  1.00  0.00    -0.319 N 
ATOM     55  C   UNL     1      31.919  36.957  12.581  1.00  0.00     0.407 C 
ATOM     56  H   UNL     1      30.731  38.612  12.141  1.00  0.00     0.167 HD
ATOM     57  O   UNL     1      32.790  36.147  12.257  1.00  0.00    -0.225 OA
BRANCH  55  58
ATOM     58  O   UNL     1      31.359  36.789  13.853  1.00  0.00    -0.443 OA
BRANCH  58  59
ATOM     59  C   UNL     1      31.302  37.865  14.773  1.00  0.00     0.294 C 
BRANCH  59  60
ATOM     60  C   UNL     1      29.964  38.532  14.720  1.00  0.00     0.120 A 
ATOM     61  C   UNL     1      29.721  39.894  14.611  1.00  0.00     0.139 A 
ATOM     62  N   UNL     1      28.754  37.954  14.767  1.00  0.00    -0.132 NA
ATOM     63  N   UNL     1      28.389  40.081  14.597  1.00  0.00    -0.241 N 
ATOM     64  N   UNL     1      27.822  38.889  14.694  1.00  0.00    -0.066 NA
BRANCH  63  65
ATOM     65  C   UNL     1      27.664  41.352  14.494  1.00  0.00     0.268 C 
BRANCH  65  66
ATOM     66  C   UNL     1      27.505  41.671  13.064  1.00  0.00     0.325 C 
ATOM     67  O   UNL     1      27.649  42.834  12.662  1.00  0.00    -0.250 OA
BRANCH  66  68
ATOM     68  O   UNL     1      27.192  40.667  12.170  1.00  0.00    -0.480 OA
ATOM     69  H   UNL     1      27.401  40.718  11.195  1.00  0.00     0.296 HD
ENDBRANCH  66  68
ENDBRANCH  65  66
ENDBRANCH  63  65
ENDBRANCH  59  60
ENDBRANCH  58  59
ENDBRANCH  55  58
ENDBRANCH  53  54
ENDBRANCH  50  53
ENDBRANCH  47  50
ENDBRANCH   5  47
BRANCH   4  70
ATOM     70  N   UNL     1      26.923  36.625  10.207  1.00  0.00    -0.348 N 
ATOM     71  C   UNL     1      26.449  36.943  11.527  1.00  0.00     0.217 C 
ATOM     72  H   UNL     1      27.080  35.618  10.002  1.00  0.00     0.163 HD
ATOM     73  C   UNL     1      26.242  35.842  12.495  1.00  0.00     0.114 C 
ATOM     74  O   UNL     1      26.214  38.128  11.859  1.00  0.00    -0.275 OA
ENDBRANCH   4  70
TORSDOF 32
BEGIN_RES LYS A 131
REMARK  4 active torsions:
REMARK  status: ('A' for Active; 'I' for Inactive)
REMARK    1  A    between atoms: CA   and  CB  
REMARK    2  A    between atoms: CB   and  CG  
REMARK    3  A    between atoms: CG   and  CD  
REMARK    4  A    between atoms: CD   and  CE  
ROOT
ATOM      1  CA  LYS A 131      29.867  25.555  16.977  1.00 20.52     0.186 C 
ENDROOT
BRANCH   1   2
ATOM      2  CB  LYS A 131      28.345  25.722  17.026  1.00 20.94     0.034 C 
BRANCH   2   3
ATOM      3  CG  LYS A 131      27.601  24.406  16.858  1.00 22.96     0.005 C 
BRANCH   3   4
ATOM      4  CD  LYS A 131      26.158  24.516  17.266  1.00 24.33     0.041 C 
BRANCH   4   5
ATOM      5  CE  LYS A 131      25.739  23.247  18.002  1.00 26.91     0.338 C 
ATOM      6  NZ  LYS A 131      25.532  23.526  19.442  1.00 27.40     0.618 N 
ENDBRANCH   4   5
ENDBRANCH   3   4
ENDBRANCH   2   3
ENDBRANCH   1   2
END_RES LYS A 131
BEGIN_RES LYS A 135
REMARK  4 active torsions:
REMARK  status: ('A' for Active; 'I' for Inactive)
REMARK    5  A    between atoms: CA   and  CB  
REMARK    6  A    between atoms: CB   and  CG  
REMARK    7  A    between atoms: CG   and  CD  
REMARK    8  A    between atoms: CD   and  CE  
ROOT
ATOM      7  CA  LYS A 135      33.193  34.663   9.290  1.00 25.02     0.186 C 
ENDROOT
BRANCH   7   8
ATOM      8  CB  LYS A 135      32.060  35.360  10.034  1.00 26.63     0.034 C 
BRANCH   8   9
ATOM      9  CG  LYS A 135      30.738  34.646   9.924  1.00 29.45     0.005 C 
BRANCH   9  10
ATOM     10  CD  LYS A 135      30.361  34.436   8.465  1.00 32.00     0.041 C 
BRANCH  10  11
ATOM     11  CE  LYS A 135      28.854  34.389   8.305  1.00 34.25     0.338 C 
ATOM     12  NZ  LYS A 135      28.213  33.698   9.459  1.00 35.99     0.618 N 
ENDBRANCH  10  11
ENDBRANCH   9  10
ENDBRANCH   8   9
ENDBRANCH   7   8
END_RES LYS A 135
