REMARK VINA RESULT:    -3.438      2.465      5.630
REMARK INTER + INTRA:         -22.948
REMARK INTER:                  -9.486
REMARK INTRA:                 -13.462
REMARK UNBOUND:               -13.881
REMARK SMILES CCOC(=O)c1cccc(-n2cc(COC(=O)NC[C@@H](O)C(O)[C@@H]3O[C@@](OC[C@H]4O[C@@H](O[C@H]5[C@H](O)[C@@H](O)[C@H](OCCN=[N+]=[N-])O[C@@H]5CO)[C@H](O)[C@@H](O)[C@H]4O)(C(=O)O)C[C@H](O)[C@H]3NC(C)=O)nn2)c1
REMARK SMILES IDX 22 1 24 2 26 3 58 4 25 5 59 6 61 7 27 8 28 9 29 10 31 11
REMARK SMILES IDX 30 12 49 13 51 14 53 15 32 16 33 17 46 18 45 19 38 20 34 21
REMARK SMILES IDX 36 22 47 23 48 24 39 26 40 27 41 28 42 29 43 30 44 31 35 32
REMARK SMILES IDX 37 34 50 36 52 38 54 40 55 42 56 43 57 44 60 46 62 48 63 49
REMARK SMILES IDX 64 51 65 52 23 53 20 55 21 56 19 58 18 59 16 60 17 62 15 63
REMARK SMILES IDX 14 64 13 65 12 66 66 67 11 68 67 69 10 70 68 71 9 72 6 73
REMARK SMILES IDX 8 74 7 75 4 76 5 77 3 78 2 79 1 80
REMARK H PARENT 48 25 35 33 37 35 50 37 52 39 54 41 57 45 60 47 62 50 23 54
REMARK H PARENT 21 57 18 61
REMARK Flexibility Score: inf
ROOT
ATOM      1  C   UNL     1      27.158  32.422  19.786  1.00  0.00     0.176 C 
ENDROOT
BRANCH   1   2
ATOM      2  C   UNL     1      28.412  32.035  19.121  1.00  0.00     0.178 C 
ATOM      3  C   UNL     1      30.391  33.159  18.482  1.00  0.00     0.272 C 
ATOM      4  C   UNL     1      30.690  31.758  18.056  1.00  0.00     0.113 C 
ATOM      5  O   UNL     1      28.950  33.179  18.526  1.00  0.00    -0.332 OA
ATOM      6  C   UNL     1      29.606  31.145  17.185  1.00  0.00     0.145 C 
ATOM      7  C   UNL     1      28.340  30.967  18.087  1.00  0.00     0.142 C 
BRANCH   3   8
ATOM      8  O   UNL     1      30.727  34.039  17.500  1.00  0.00    -0.338 OA
BRANCH   8   9
ATOM      9  C   UNL     1      31.721  33.934  16.654  1.00  0.00     0.199 C 
BRANCH   9  10
ATOM     10  C   UNL     1      31.780  34.420  15.269  1.00  0.00     0.179 C 
ATOM     11  C   UNL     1      30.523  34.750  13.324  1.00  0.00     0.282 C 
ATOM     12  O   UNL     1      30.746  34.007  14.507  1.00  0.00    -0.341 OA
ATOM     13  C   UNL     1      31.716  35.582  12.969  1.00  0.00     0.202 C 
ATOM     14  C   UNL     1      32.154  36.497  14.066  1.00  0.00     0.179 C 
ATOM     15  C   UNL     1      31.674  35.975  15.377  1.00  0.00     0.177 C 
BRANCH  11  16
ATOM     16  O   UNL     1      29.355  35.421  13.539  1.00  0.00    -0.341 OA
BRANCH  16  17
ATOM     17  C   UNL     1      28.210  34.725  13.722  1.00  0.00     0.184 C 
ATOM     18  C   UNL     1      27.243  35.099  12.631  1.00  0.00     0.178 C 
ATOM     19  O   UNL     1      26.054  34.374  12.733  1.00  0.00    -0.341 OA
ATOM     20  C   UNL     1      25.377  34.827  13.899  1.00  0.00     0.281 C 
ATOM     21  C   UNL     1      27.519  35.064  15.054  1.00  0.00     0.180 C 
ATOM     22  C   UNL     1      26.192  34.310  15.053  1.00  0.00     0.202 C 
BRANCH  18  23
ATOM     23  C   UNL     1      27.833  34.847  11.273  1.00  0.00     0.191 C 
BRANCH  23  24
ATOM     24  O   UNL     1      27.013  33.948  10.541  1.00  0.00    -0.394 OA
ATOM     25  H   UNL     1      27.334  33.019  10.659  1.00  0.00     0.210 HD
ENDBRANCH  23  24
ENDBRANCH  18  23
BRANCH  20  26
ATOM     26  O   UNL     1      24.098  34.353  13.850  1.00  0.00    -0.350 OA
BRANCH  26  27
ATOM     27  C   UNL     1      23.813  33.716  12.651  1.00  0.00     0.169 C 
BRANCH  27  28
ATOM     28  C   UNL     1      22.590  34.247  11.963  1.00  0.00     0.119 C 
BRANCH  28  29
ATOM     29  N   UNL     1      22.950  35.458  11.215  1.00  0.00    -0.092 NA
ATOM     30  N   UNL     1      23.894  35.377  10.417  1.00  0.00     0.001 N 
ATOM     31  N   UNL     1      24.641  35.392   9.418  1.00  0.00    -0.003 NA
ENDBRANCH  28  29
ENDBRANCH  27  28
ENDBRANCH  26  27
ENDBRANCH  20  26
BRANCH  21  32
ATOM     32  O   UNL     1      28.228  34.552  16.130  1.00  0.00    -0.387 OA
ATOM     33  H   UNL     1      27.705  33.800  16.496  1.00  0.00     0.211 HD
ENDBRANCH  21  32
BRANCH  22  34
ATOM     34  O   UNL     1      25.534  34.460  16.270  1.00  0.00    -0.385 OA
ATOM     35  H   UNL     1      24.679  34.981  16.193  1.00  0.00     0.211 HD
ENDBRANCH  22  34
ENDBRANCH  16  17
ENDBRANCH  11  16
BRANCH  13  36
ATOM     36  O   UNL     1      32.752  34.734  12.530  1.00  0.00    -0.385 OA
ATOM     37  H   UNL     1      32.820  33.916  13.074  1.00  0.00     0.211 HD
ENDBRANCH  13  36
BRANCH  14  38
ATOM     38  O   UNL     1      31.890  37.825  13.821  1.00  0.00    -0.387 OA
ATOM     39  H   UNL     1      31.086  38.066  14.355  1.00  0.00     0.211 HD
ENDBRANCH  14  38
BRANCH  15  40
ATOM     40  O   UNL     1      30.414  36.379  15.687  1.00  0.00    -0.387 OA
ATOM     41  H   UNL     1      29.988  36.782  14.889  1.00  0.00     0.211 HD
ENDBRANCH  15  40
ENDBRANCH   9  10
ENDBRANCH   8   9
ENDBRANCH   3   8
BRANCH   3  42
ATOM     42  C   UNL     1      30.859  33.542  19.806  1.00  0.00     0.364 C 
ATOM     43  O   UNL     1      31.629  32.835  20.474  1.00  0.00    -0.246 OA
BRANCH  42  44
ATOM     44  O   UNL     1      30.447  34.745  20.381  1.00  0.00    -0.477 OA
ATOM     45  H   UNL     1      30.756  35.643  20.073  1.00  0.00     0.296 HD
ENDBRANCH  42  44
ENDBRANCH   3  42
BRANCH   6  46
ATOM     46  O   UNL     1      29.256  32.055  16.218  1.00  0.00    -0.391 OA
ATOM     47  H   UNL     1      29.720  31.834  15.375  1.00  0.00     0.211 HD
ENDBRANCH   6  46
BRANCH   7  48
ATOM     48  N   UNL     1      28.430  29.633  18.633  1.00  0.00    -0.348 N 
ATOM     49  C   UNL     1      27.351  28.690  18.616  1.00  0.00     0.217 C 
ATOM     50  H   UNL     1      29.322  29.269  19.085  1.00  0.00     0.163 HD
ATOM     51  C   UNL     1      27.479  27.324  19.189  1.00  0.00     0.114 C 
ATOM     52  O   UNL     1      26.258  29.011  18.108  1.00  0.00    -0.275 OA
ENDBRANCH   7  48
ENDBRANCH   1   2
BRANCH   1  53
ATOM     53  O   UNL     1      26.299  31.408  20.114  1.00  0.00    -0.388 OA
ATOM     54  H   UNL     1      25.876  30.996  19.325  1.00  0.00     0.211 HD
ENDBRANCH   1  53
BRANCH   1  55
ATOM     55  C   UNL     1      27.260  33.437  20.896  1.00  0.00     0.165 C 
BRANCH  55  56
ATOM     56  O   UNL     1      26.876  32.871  22.116  1.00  0.00    -0.388 OA
ATOM     57  H   UNL     1      26.399  33.542  22.670  1.00  0.00     0.211 HD
ENDBRANCH  55  56
BRANCH  55  58
ATOM     58  C   UNL     1      26.639  34.766  20.593  1.00  0.00     0.154 C 
BRANCH  58  59
ATOM     59  N   UNL     1      27.460  35.566  19.712  1.00  0.00    -0.319 N 
ATOM     60  C   UNL     1      26.889  36.364  18.696  1.00  0.00     0.407 C 
ATOM     61  H   UNL     1      28.521  35.568  19.818  1.00  0.00     0.167 HD
ATOM     62  O   UNL     1      25.664  36.468  18.461  1.00  0.00    -0.225 OA
BRANCH  60  63
ATOM     63  O   UNL     1      27.717  37.118  17.841  1.00  0.00    -0.443 OA
BRANCH  63  64
ATOM     64  C   UNL     1      27.325  38.275  17.168  1.00  0.00     0.294 C 
BRANCH  64  65
ATOM     65  C   UNL     1      27.996  38.533  15.887  1.00  0.00     0.121 A 
ATOM     66  C   UNL     1      27.439  38.375  14.623  1.00  0.00     0.144 A 
ATOM     67  N   UNL     1      29.238  38.959  15.693  1.00  0.00    -0.131 NA
ATOM     68  N   UNL     1      28.368  38.709  13.728  1.00  0.00    -0.220 N 
ATOM     69  N   UNL     1      29.452  39.062  14.382  1.00  0.00    -0.062 NA
BRANCH  68  70
ATOM     70  C   UNL     1      28.207  38.690  12.326  1.00  0.00     0.067 A 
ATOM     71  C   UNL     1      27.034  39.134  11.721  1.00  0.00     0.044 A 
ATOM     72  C   UNL     1      29.196  38.246  11.490  1.00  0.00     0.028 A 
ATOM     73  C   UNL     1      26.835  39.146  10.367  1.00  0.00     0.062 A 
ATOM     74  C   UNL     1      29.034  38.242  10.113  1.00  0.00     0.003 A 
ATOM     75  C   UNL     1      27.862  38.688   9.548  1.00  0.00     0.016 A 
BRANCH  73  76
ATOM     76  C   UNL     1      25.588  39.619   9.803  1.00  0.00     0.338 C 
ATOM     77  O   UNL     1      25.426  40.839   9.608  1.00  0.00    -0.246 OA
BRANCH  76  78
ATOM     78  O   UNL     1      24.596  38.729   9.483  1.00  0.00    -0.462 OA
BRANCH  78  79
ATOM     79  C   UNL     1      23.870  38.753   8.275  1.00  0.00     0.230 C 
ATOM     80  C   UNL     1      22.465  38.240   8.508  1.00  0.00     0.049 C 
ENDBRANCH  78  79
ENDBRANCH  76  78
ENDBRANCH  73  76
ENDBRANCH  68  70
ENDBRANCH  64  65
ENDBRANCH  63  64
ENDBRANCH  60  63
ENDBRANCH  58  59
ENDBRANCH  55  58
ENDBRANCH   1  55
TORSDOF 33
BEGIN_RES LYS A 131
REMARK  4 active torsions:
REMARK  status: ('A' for Active; 'I' for Inactive)
REMARK    1  A    between atoms: CA   and  CB  
REMARK    2  A    between atoms: CB   and  CG  
REMARK    3  A    between atoms: CG   and  CD  
REMARK    4  A    between atoms: CD   and  CE  
ROOT
ATOM      1  CA  LYS A 131      29.867  25.555  16.977  1.00 20.52     0.186 C 
ENDROOT
BRANCH   1   2
ATOM      2  CB  LYS A 131      28.345  25.722  17.026  1.00 20.94     0.034 C 
BRANCH   2   3
ATOM      3  CG  LYS A 131      27.599  24.442  16.682  1.00 22.96     0.005 C 
BRANCH   3   4
ATOM      4  CD  LYS A 131      27.026  23.775  17.902  1.00 24.33     0.041 C 
BRANCH   4   5
ATOM      5  CE  LYS A 131      25.627  24.320  18.171  1.00 26.91     0.338 C 
ATOM      6  NZ  LYS A 131      24.791  24.228  16.950  1.00 27.40     0.618 N 
ENDBRANCH   4   5
ENDBRANCH   3   4
ENDBRANCH   2   3
ENDBRANCH   1   2
END_RES LYS A 131
BEGIN_RES LYS A 135
REMARK  4 active torsions:
REMARK  status: ('A' for Active; 'I' for Inactive)
REMARK    5  A    between atoms: CA   and  CB  
REMARK    6  A    between atoms: CB   and  CG  
REMARK    7  A    between atoms: CG   and  CD  
REMARK    8  A    between atoms: CD   and  CE  
ROOT
ATOM      7  CA  LYS A 135      33.193  34.663   9.290  1.00 25.02     0.186 C 
ENDROOT
BRANCH   7   8
ATOM      8  CB  LYS A 135      32.060  35.360  10.034  1.00 26.63     0.034 C 
BRANCH   8   9
ATOM      9  CG  LYS A 135      30.689  34.899   9.612  1.00 29.45     0.005 C 
BRANCH   9  10
ATOM     10  CD  LYS A 135      30.672  34.552   8.131  1.00 32.00     0.041 C 
BRANCH  10  11
ATOM     11  CE  LYS A 135      29.619  35.368   7.405  1.00 34.25     0.338 C 
ATOM     12  NZ  LYS A 135      28.249  34.876   7.719  1.00 35.99     0.618 N 
ENDBRANCH  10  11
ENDBRANCH   9  10
ENDBRANCH   8   9
ENDBRANCH   7   8
END_RES LYS A 135
