REMARK VINA RESULT:    -3.974      4.787     11.306
REMARK INTER + INTRA:         -22.400
REMARK INTER:                 -10.130
REMARK INTRA:                 -12.270
REMARK UNBOUND:               -12.270
REMARK SMILES CC(=O)N[C@@H]1[C@@H](O)C[C@](OC[C@H]2O[C@@H](O[C@H]3[C@H](O)[C@@H](O)[C@H](OCCN=[N+]=[N-])O[C@@H]3CO)[C@H](O)[C@@H](O)[C@H]2O)(C(=O)O)O[C@H]1C(O)[C@H](O)CNC(=O)OCc1cn(-c2ccc(S(N)(=O)=O)cc2)nn1
REMARK SMILES IDX 9 1 8 2 6 3 5 4 42 5 41 6 10 7 11 8 12 9 14 10 13 11 32 12
REMARK SMILES IDX 34 13 36 14 15 15 16 16 29 17 28 18 21 19 17 20 19 21 30 22
REMARK SMILES IDX 31 23 22 25 23 26 24 27 25 28 26 29 27 30 18 31 20 33 33 35
REMARK SMILES IDX 35 37 37 39 38 41 39 42 40 43 7 45 43 47 44 48 45 50 46 51
REMARK SMILES IDX 47 53 48 54 49 55 50 57 51 58 52 59 53 60 54 61 67 62 55 63
REMARK SMILES IDX 66 64 56 65 57 66 65 67 58 68 64 69 59 70 60 71 62 72 63 73
REMARK SMILES IDX 61 74 4 77 2 78 1 80 3 81
REMARK H PARENT 31 24 18 32 20 34 33 36 35 38 37 40 40 44 7 46 44 49 46 52
REMARK H PARENT 48 56 61 75 61 76 4 79
REMARK Flexibility Score: inf
ROOT
ATOM      1  C   UNL     1      27.839  31.919  16.002  1.00  0.00     0.272 C 
ATOM      2  C   UNL     1      28.861  30.900  15.472  1.00  0.00     0.113 C 
ATOM      3  C   UNL     1      30.263  31.348  15.685  1.00  0.00     0.145 C 
ATOM      4  C   UNL     1      30.354  32.829  15.422  1.00  0.00     0.142 C 
ATOM      5  C   UNL     1      29.145  33.155  14.537  1.00  0.00     0.178 C 
ATOM      6  O   UNL     1      28.044  33.134  15.391  1.00  0.00    -0.332 OA
ENDROOT
BRANCH   1   7
ATOM      7  O   UNL     1      28.009  31.932  17.380  1.00  0.00    -0.338 OA
BRANCH   7   8
ATOM      8  C   UNL     1      27.494  33.032  18.006  1.00  0.00     0.199 C 
BRANCH   8   9
ATOM      9  C   UNL     1      28.128  33.105  19.407  1.00  0.00     0.179 C 
ATOM     10  C   UNL     1      29.219  31.623  20.850  1.00  0.00     0.282 C 
ATOM     11  O   UNL     1      28.201  31.829  19.868  1.00  0.00    -0.341 OA
ATOM     12  C   UNL     1      30.491  31.828  20.079  1.00  0.00     0.202 C 
ATOM     13  C   UNL     1      30.639  33.300  19.715  1.00  0.00     0.179 C 
ATOM     14  C   UNL     1      29.331  33.956  19.457  1.00  0.00     0.177 C 
BRANCH  10  15
ATOM     15  O   UNL     1      29.096  30.350  21.288  1.00  0.00    -0.341 OA
BRANCH  15  16
ATOM     16  C   UNL     1      27.894  29.698  20.907  1.00  0.00     0.184 C 
ATOM     17  C   UNL     1      27.366  28.999  22.075  1.00  0.00     0.178 C 
ATOM     18  O   UNL     1      26.829  27.745  21.868  1.00  0.00    -0.341 OA
ATOM     19  C   UNL     1      26.363  27.474  20.612  1.00  0.00     0.281 C 
ATOM     20  C   UNL     1      28.159  28.843  19.689  1.00  0.00     0.180 C 
ATOM     21  C   UNL     1      27.540  27.501  19.675  1.00  0.00     0.202 C 
BRANCH  17  22
ATOM     22  C   UNL     1      26.327  29.782  22.851  1.00  0.00     0.191 C 
BRANCH  22  23
ATOM     23  O   UNL     1      25.691  28.966  23.776  1.00  0.00    -0.394 OA
ATOM     24  H   UNL     1      26.108  28.070  23.831  1.00  0.00     0.210 HD
ENDBRANCH  22  23
ENDBRANCH  17  22
BRANCH  19  25
ATOM     25  O   UNL     1      25.315  28.248  20.175  1.00  0.00    -0.350 OA
BRANCH  25  26
ATOM     26  C   UNL     1      24.697  27.649  19.085  1.00  0.00     0.169 C 
BRANCH  26  27
ATOM     27  C   UNL     1      24.088  28.754  18.227  1.00  0.00     0.119 C 
BRANCH  27  28
ATOM     28  N   UNL     1      24.807  29.970  18.485  1.00  0.00    -0.092 NA
ATOM     29  N   UNL     1      24.231  31.079  18.562  1.00  0.00     0.001 N 
ATOM     30  N   UNL     1      23.876  32.173  18.093  1.00  0.00    -0.003 NA
ENDBRANCH  27  28
ENDBRANCH  26  27
ENDBRANCH  25  26
ENDBRANCH  19  25
BRANCH  20  31
ATOM     31  O   UNL     1      27.773  29.504  18.519  1.00  0.00    -0.387 OA
ATOM     32  H   UNL     1      28.140  30.418  18.528  1.00  0.00     0.211 HD
ENDBRANCH  20  31
BRANCH  21  33
ATOM     33  O   UNL     1      28.413  26.465  19.987  1.00  0.00    -0.385 OA
ATOM     34  H   UNL     1      27.843  25.631  19.933  1.00  0.00     0.211 HD
ENDBRANCH  21  33
ENDBRANCH  15  16
ENDBRANCH  10  15
BRANCH  12  35
ATOM     35  O   UNL     1      31.614  31.301  20.645  1.00  0.00    -0.385 OA
ATOM     36  H   UNL     1      31.476  30.803  21.473  1.00  0.00     0.211 HD
ENDBRANCH  12  35
BRANCH  13  37
ATOM     37  O   UNL     1      31.596  33.486  18.731  1.00  0.00    -0.387 OA
ATOM     38  H   UNL     1      31.267  33.440  17.810  1.00  0.00     0.211 HD
ENDBRANCH  13  37
BRANCH  14  39
ATOM     39  O   UNL     1      29.436  34.615  18.207  1.00  0.00    -0.387 OA
ATOM     40  H   UNL     1      28.831  34.102  17.596  1.00  0.00     0.211 HD
ENDBRANCH  14  39
ENDBRANCH   8   9
ENDBRANCH   7   8
ENDBRANCH   1   7
BRANCH   1  41
ATOM     41  C   UNL     1      26.504  31.313  15.639  1.00  0.00     0.364 C 
ATOM     42  O   UNL     1      25.603  32.004  15.106  1.00  0.00    -0.246 OA
BRANCH  41  43
ATOM     43  O   UNL     1      26.233  29.980  15.880  1.00  0.00    -0.477 OA
ATOM     44  H   UNL     1      25.845  29.728  16.776  1.00  0.00     0.296 HD
ENDBRANCH  41  43
ENDBRANCH   1  41
BRANCH   3  45
ATOM     45  O   UNL     1      30.655  30.992  16.974  1.00  0.00    -0.391 OA
ATOM     46  H   UNL     1      30.810  30.019  17.007  1.00  0.00     0.211 HD
ENDBRANCH   3  45
BRANCH   5  47
ATOM     47  C   UNL     1      29.273  34.528  13.935  1.00  0.00     0.176 C 
BRANCH  47  48
ATOM     48  O   UNL     1      29.682  34.532  12.617  1.00  0.00    -0.388 OA
ATOM     49  H   UNL     1      29.911  33.630  12.280  1.00  0.00     0.211 HD
ENDBRANCH  47  48
BRANCH  47  50
ATOM     50  C   UNL     1      27.971  35.284  14.068  1.00  0.00     0.165 C 
BRANCH  50  51
ATOM     51  O   UNL     1      27.646  35.914  12.848  1.00  0.00    -0.388 OA
ATOM     52  H   UNL     1      28.072  35.426  12.086  1.00  0.00     0.211 HD
ENDBRANCH  50  51
BRANCH  50  53
ATOM     53  C   UNL     1      28.023  36.309  15.173  1.00  0.00     0.154 C 
BRANCH  53  54
ATOM     54  N   UNL     1      29.380  36.610  15.565  1.00  0.00    -0.319 N 
ATOM     55  C   UNL     1      29.896  37.917  15.370  1.00  0.00     0.407 C 
ATOM     56  H   UNL     1      30.007  35.900  15.992  1.00  0.00     0.167 HD
ATOM     57  O   UNL     1      29.145  38.794  14.849  1.00  0.00    -0.225 OA
BRANCH  55  58
ATOM     58  O   UNL     1      31.178  38.308  15.716  1.00  0.00    -0.443 OA
BRANCH  58  59
ATOM     59  C   UNL     1      31.475  38.942  16.936  1.00  0.00     0.294 C 
BRANCH  59  60
ATOM     60  C   UNL     1      31.895  37.915  17.926  1.00  0.00     0.121 A 
ATOM     61  C   UNL     1      33.202  37.455  18.128  1.00  0.00     0.144 A 
ATOM     62  N   UNL     1      31.160  37.219  18.811  1.00  0.00    -0.131 NA
ATOM     63  N   UNL     1      33.196  36.519  19.109  1.00  0.00    -0.220 N 
ATOM     64  N   UNL     1      31.964  36.396  19.501  1.00  0.00    -0.062 NA
BRANCH  63  65
ATOM     65  C   UNL     1      34.329  35.801  19.612  1.00  0.00     0.066 A 
ATOM     66  C   UNL     1      34.203  34.908  20.651  1.00  0.00     0.030 A 
ATOM     67  C   UNL     1      35.582  35.982  19.070  1.00  0.00     0.030 A 
ATOM     68  C   UNL     1      35.307  34.210  21.137  1.00  0.00     0.024 A 
ATOM     69  C   UNL     1      36.692  35.289  19.547  1.00  0.00     0.024 A 
ATOM     70  C   UNL     1      36.561  34.394  20.590  1.00  0.00     0.082 A 
BRANCH  70  71
ATOM     71  S   UNL     1      37.938  33.494  21.227  1.00  0.00     0.238 S 
ATOM     72  O   UNL     1      39.033  34.430  21.675  1.00  0.00    -0.207 OA
ATOM     73  O   UNL     1      37.528  32.687  22.420  1.00  0.00    -0.207 OA
BRANCH  71  74
ATOM     74  N   UNL     1      38.577  32.412  20.029  1.00  0.00    -0.225 NA
ATOM     75  H   UNL     1      39.470  32.846  19.658  1.00  0.00     0.137 HD
ATOM     76  H   UNL     1      37.901  32.243  19.247  1.00  0.00     0.137 HD
ENDBRANCH  71  74
ENDBRANCH  70  71
ENDBRANCH  63  65
ENDBRANCH  59  60
ENDBRANCH  58  59
ENDBRANCH  55  58
ENDBRANCH  53  54
ENDBRANCH  50  53
ENDBRANCH  47  50
ENDBRANCH   5  47
BRANCH   4  77
ATOM     77  N   UNL     1      31.578  33.247  14.790  1.00  0.00    -0.348 N 
ATOM     78  C   UNL     1      32.301  34.347  15.299  1.00  0.00     0.217 C 
ATOM     79  H   UNL     1      31.946  32.749  13.959  1.00  0.00     0.163 HD
ATOM     80  C   UNL     1      33.557  34.747  14.620  1.00  0.00     0.114 C 
ATOM     81  O   UNL     1      31.928  35.001  16.300  1.00  0.00    -0.275 OA
ENDBRANCH   4  77
TORSDOF 32
BEGIN_RES LYS A 131
REMARK  4 active torsions:
REMARK  status: ('A' for Active; 'I' for Inactive)
REMARK    1  A    between atoms: CA   and  CB  
REMARK    2  A    between atoms: CB   and  CG  
REMARK    3  A    between atoms: CG   and  CD  
REMARK    4  A    between atoms: CD   and  CE  
ROOT
ATOM      1  CA  LYS A 131      29.867  25.555  16.977  1.00 20.52     0.186 C 
ENDROOT
BRANCH   1   2
ATOM      2  CB  LYS A 131      28.345  25.722  17.026  1.00 20.94     0.034 C 
BRANCH   2   3
ATOM      3  CG  LYS A 131      27.601  24.401  16.898  1.00 22.96     0.005 C 
BRANCH   3   4
ATOM      4  CD  LYS A 131      26.501  24.270  17.914  1.00 24.33     0.041 C 
BRANCH   4   5
ATOM      5  CE  LYS A 131      25.172  24.047  17.199  1.00 26.91     0.338 C 
ATOM      6  NZ  LYS A 131      24.559  22.769  17.631  1.00 27.40     0.618 N 
ENDBRANCH   4   5
ENDBRANCH   3   4
ENDBRANCH   2   3
ENDBRANCH   1   2
END_RES LYS A 131
BEGIN_RES LYS A 135
REMARK  4 active torsions:
REMARK  status: ('A' for Active; 'I' for Inactive)
REMARK    5  A    between atoms: CA   and  CB  
REMARK    6  A    between atoms: CB   and  CG  
REMARK    7  A    between atoms: CG   and  CD  
REMARK    8  A    between atoms: CD   and  CE  
ROOT
ATOM      7  CA  LYS A 135      33.193  34.663   9.290  1.00 25.02     0.186 C 
ENDROOT
BRANCH   7   8
ATOM      8  CB  LYS A 135      32.060  35.360  10.034  1.00 26.63     0.034 C 
BRANCH   8   9
ATOM      9  CG  LYS A 135      30.803  35.506   9.216  1.00 29.45     0.005 C 
BRANCH   9  10
ATOM     10  CD  LYS A 135      30.129  34.157   9.022  1.00 32.00     0.041 C 
BRANCH  10  11
ATOM     11  CE  LYS A 135      28.669  34.338   8.655  1.00 34.25     0.338 C 
ATOM     12  NZ  LYS A 135      27.779  33.715   9.674  1.00 35.99     0.618 N 
ENDBRANCH  10  11
ENDBRANCH   9  10
ENDBRANCH   8   9
ENDBRANCH   7   8
END_RES LYS A 135
