REMARK VINA RESULT:    -5.235      4.557      9.477
REMARK INTER + INTRA:         -23.382
REMARK INTER:                 -13.846
REMARK INTRA:                  -9.535
REMARK UNBOUND:                -9.883
REMARK SMILES CC(=O)N[C@@H]1[C@@H](O)C[C@](OC[C@H]2O[C@@H](O[C@H]3[C@H](O)[C@@H](O)[C@H](OCCN=[N+]=[N-])O[C@@H]3CO)[C@H](O)[C@@H](O)[C@H]2O)(C(=O)O)O[C@H]1C(O)[C@H](O)CNC(=O)OCc1cn(C(c2ccccc2)c2ccccc2)nn1
REMARK SMILES IDX 9 1 8 2 6 3 5 4 42 5 41 6 10 7 11 8 12 9 14 10 13 11 32 12
REMARK SMILES IDX 34 13 36 14 15 15 16 16 29 17 28 18 21 19 17 20 19 21 30 22
REMARK SMILES IDX 31 23 22 25 23 26 24 27 25 28 26 29 27 30 18 31 20 33 33 35
REMARK SMILES IDX 35 37 37 39 38 41 39 42 40 43 7 45 43 47 44 48 45 50 46 51
REMARK SMILES IDX 47 53 48 54 49 55 50 57 51 58 52 59 53 60 54 61 70 62 55 63
REMARK SMILES IDX 69 64 56 65 57 66 58 67 62 68 59 69 61 70 60 71 63 72 64 73
REMARK SMILES IDX 68 74 65 75 67 76 66 77 4 78 2 79 1 81 3 82
REMARK H PARENT 31 24 18 32 20 34 33 36 35 38 37 40 40 44 7 46 44 49 46 52
REMARK H PARENT 48 56 4 80
REMARK Flexibility Score: inf
ROOT
ATOM      1  C   UNL     1      30.040  33.015  18.305  1.00  0.00     0.272 C 
ATOM      2  C   UNL     1      30.869  32.235  17.262  1.00  0.00     0.113 C 
ATOM      3  C   UNL     1      30.445  32.612  15.902  1.00  0.00     0.145 C 
ATOM      4  C   UNL     1      30.615  34.097  15.703  1.00  0.00     0.142 C 
ATOM      5  C   UNL     1      30.646  34.863  16.975  1.00  0.00     0.178 C 
ATOM      6  O   UNL     1      29.965  34.324  18.018  1.00  0.00    -0.332 OA
ENDROOT
BRANCH   1   7
ATOM      7  O   UNL     1      30.668  32.844  19.550  1.00  0.00    -0.338 OA
BRANCH   7   8
ATOM      8  C   UNL     1      29.956  33.434  20.561  1.00  0.00     0.199 C 
BRANCH   8   9
ATOM      9  C   UNL     1      30.730  33.468  21.877  1.00  0.00     0.179 C 
ATOM     10  C   UNL     1      32.552  31.933  21.988  1.00  0.00     0.282 C 
ATOM     11  O   UNL     1      31.271  32.314  22.160  1.00  0.00    -0.341 OA
ATOM     12  C   UNL     1      33.415  32.904  21.336  1.00  0.00     0.202 C 
ATOM     13  C   UNL     1      33.076  34.329  21.600  1.00  0.00     0.179 C 
ATOM     14  C   UNL     1      31.671  34.650  21.932  1.00  0.00     0.177 C 
BRANCH  10  15
ATOM     15  O   UNL     1      32.431  30.680  21.310  1.00  0.00    -0.341 OA
BRANCH  15  16
ATOM     16  C   UNL     1      31.512  29.869  21.904  1.00  0.00     0.184 C 
ATOM     17  C   UNL     1      32.140  28.675  22.531  1.00  0.00     0.178 C 
ATOM     18  O   UNL     1      31.201  27.987  23.312  1.00  0.00    -0.341 OA
ATOM     19  C   UNL     1      30.297  27.355  22.502  1.00  0.00     0.281 C 
ATOM     20  C   UNL     1      30.501  29.337  20.895  1.00  0.00     0.180 C 
ATOM     21  C   UNL     1      30.200  27.911  21.139  1.00  0.00     0.202 C 
BRANCH  17  22
ATOM     22  C   UNL     1      33.398  28.959  23.327  1.00  0.00     0.191 C 
BRANCH  22  23
ATOM     23  O   UNL     1      34.495  28.922  22.473  1.00  0.00    -0.394 OA
ATOM     24  H   UNL     1      34.354  29.387  21.622  1.00  0.00     0.210 HD
ENDBRANCH  22  23
ENDBRANCH  17  22
BRANCH  19  25
ATOM     25  O   UNL     1      29.041  27.233  23.120  1.00  0.00    -0.350 OA
BRANCH  25  26
ATOM     26  C   UNL     1      27.985  27.111  22.264  1.00  0.00     0.169 C 
BRANCH  26  27
ATOM     27  C   UNL     1      26.833  27.952  22.762  1.00  0.00     0.119 C 
BRANCH  27  28
ATOM     28  N   UNL     1      26.658  29.160  21.959  1.00  0.00    -0.092 NA
ATOM     29  N   UNL     1      26.542  29.124  20.740  1.00  0.00     0.001 N 
ATOM     30  N   UNL     1      26.772  29.012  19.530  1.00  0.00    -0.003 NA
ENDBRANCH  27  28
ENDBRANCH  26  27
ENDBRANCH  25  26
ENDBRANCH  19  25
BRANCH  20  31
ATOM     31  O   UNL     1      29.394  30.185  20.943  1.00  0.00    -0.387 OA
ATOM     32  H   UNL     1      29.079  30.323  21.877  1.00  0.00     0.211 HD
ENDBRANCH  20  31
BRANCH  21  33
ATOM     33  O   UNL     1      31.010  27.143  20.252  1.00  0.00    -0.385 OA
ATOM     34  H   UNL     1      31.858  27.661  20.161  1.00  0.00     0.211 HD
ENDBRANCH  21  33
ENDBRANCH  15  16
ENDBRANCH  10  15
BRANCH  12  35
ATOM     35  O   UNL     1      34.781  32.772  21.693  1.00  0.00    -0.385 OA
ATOM     36  H   UNL     1      35.180  33.662  21.538  1.00  0.00     0.211 HD
ENDBRANCH  12  35
BRANCH  13  37
ATOM     37  O   UNL     1      33.478  35.157  20.520  1.00  0.00    -0.387 OA
ATOM     38  H   UNL     1      32.679  35.604  20.137  1.00  0.00     0.211 HD
ENDBRANCH  13  37
BRANCH  14  39
ATOM     39  O   UNL     1      31.174  35.573  20.997  1.00  0.00    -0.387 OA
ATOM     40  H   UNL     1      30.643  36.284  21.427  1.00  0.00     0.211 HD
ENDBRANCH  14  39
ENDBRANCH   8   9
ENDBRANCH   7   8
ENDBRANCH   1   7
BRANCH   1  41
ATOM     41  C   UNL     1      28.735  32.356  18.333  1.00  0.00     0.364 C 
ATOM     42  O   UNL     1      27.679  33.015  18.270  1.00  0.00    -0.246 OA
BRANCH  41  43
ATOM     43  O   UNL     1      28.599  30.968  18.432  1.00  0.00    -0.477 OA
ATOM     44  H   UNL     1      27.873  30.556  18.999  1.00  0.00     0.296 HD
ENDBRANCH  41  43
ENDBRANCH   1  41
BRANCH   3  45
ATOM     45  O   UNL     1      31.279  31.917  14.999  1.00  0.00    -0.391 OA
ATOM     46  H   UNL     1      31.823  31.240  15.474  1.00  0.00     0.211 HD
ENDBRANCH   3  45
BRANCH   5  47
ATOM     47  C   UNL     1      31.989  35.349  17.438  1.00  0.00     0.176 C 
BRANCH  47  48
ATOM     48  O   UNL     1      31.732  36.336  18.413  1.00  0.00    -0.388 OA
ATOM     49  H   UNL     1      31.406  37.172  18.037  1.00  0.00     0.211 HD
ENDBRANCH  47  48
BRANCH  47  50
ATOM     50  C   UNL     1      32.866  35.950  16.400  1.00  0.00     0.165 C 
BRANCH  50  51
ATOM     51  O   UNL     1      34.174  35.604  16.719  1.00  0.00    -0.388 OA
ATOM     52  H   UNL     1      34.583  34.983  16.063  1.00  0.00     0.211 HD
ENDBRANCH  50  51
BRANCH  50  53
ATOM     53  C   UNL     1      32.767  37.425  16.227  1.00  0.00     0.154 C 
BRANCH  53  54
ATOM     54  N   UNL     1      33.951  38.177  16.495  1.00  0.00    -0.319 N 
ATOM     55  C   UNL     1      34.343  38.761  17.703  1.00  0.00     0.407 C 
ATOM     56  H   UNL     1      34.627  38.316  15.677  1.00  0.00     0.167 HD
ATOM     57  O   UNL     1      33.623  38.669  18.704  1.00  0.00    -0.225 OA
BRANCH  55  58
ATOM     58  O   UNL     1      35.545  39.455  17.814  1.00  0.00    -0.443 OA
BRANCH  58  59
ATOM     59  C   UNL     1      36.413  39.564  16.675  1.00  0.00     0.294 C 
BRANCH  59  60
ATOM     60  C   UNL     1      37.550  38.627  16.861  1.00  0.00     0.120 A 
ATOM     61  C   UNL     1      37.498  37.305  16.526  1.00  0.00     0.139 A 
ATOM     62  N   UNL     1      38.745  38.931  17.359  1.00  0.00    -0.132 NA
ATOM     63  N   UNL     1      38.707  36.807  16.838  1.00  0.00    -0.240 N 
ATOM     64  N   UNL     1      39.451  37.800  17.339  1.00  0.00    -0.066 NA
BRANCH  63  65
ATOM     65  C   UNL     1      39.214  35.460  16.682  1.00  0.00     0.169 C 
BRANCH  65  66
ATOM     66  C   UNL     1      38.896  35.010  15.321  1.00  0.00    -0.019 A 
ATOM     67  C   UNL     1      37.817  34.180  15.090  1.00  0.00     0.006 A 
ATOM     68  C   UNL     1      39.646  35.365  14.220  1.00  0.00     0.006 A 
ATOM     69  C   UNL     1      37.508  33.731  13.814  1.00  0.00     0.000 A 
ATOM     70  C   UNL     1      39.345  34.920  12.936  1.00  0.00     0.000 A 
ATOM     71  C   UNL     1      38.261  34.091  12.724  1.00  0.00     0.000 A 
ENDBRANCH  65  66
BRANCH  65  72
ATOM     72  C   UNL     1      38.709  34.588  17.762  1.00  0.00    -0.019 A 
ATOM     73  C   UNL     1      37.742  35.123  18.605  1.00  0.00     0.006 A 
ATOM     74  C   UNL     1      39.139  33.316  18.005  1.00  0.00     0.006 A 
ATOM     75  C   UNL     1      37.241  34.388  19.646  1.00  0.00     0.000 A 
ATOM     76  C   UNL     1      38.637  32.567  19.055  1.00  0.00     0.000 A 
ATOM     77  C   UNL     1      37.684  33.102  19.882  1.00  0.00     0.000 A 
ENDBRANCH  65  72
ENDBRANCH  63  65
ENDBRANCH  59  60
ENDBRANCH  58  59
ENDBRANCH  55  58
ENDBRANCH  53  54
ENDBRANCH  50  53
ENDBRANCH  47  50
ENDBRANCH   5  47
BRANCH   4  78
ATOM     78  N   UNL     1      29.444  34.504  14.901  1.00  0.00    -0.348 N 
ATOM     79  C   UNL     1      29.489  34.589  13.482  1.00  0.00     0.217 C 
ATOM     80  H   UNL     1      28.529  34.746  15.356  1.00  0.00     0.163 HD
ATOM     81  C   UNL     1      28.279  35.003  12.693  1.00  0.00     0.114 C 
ATOM     82  O   UNL     1      30.532  34.321  12.850  1.00  0.00    -0.275 OA
ENDBRANCH   4  78
TORSDOF 32
BEGIN_RES LYS A 131
REMARK  4 active torsions:
REMARK  status: ('A' for Active; 'I' for Inactive)
REMARK    1  A    between atoms: CA   and  CB  
REMARK    2  A    between atoms: CB   and  CG  
REMARK    3  A    between atoms: CG   and  CD  
REMARK    4  A    between atoms: CD   and  CE  
ROOT
ATOM      1  CA  LYS A 131      29.867  25.555  16.977  1.00 20.52     0.186 C 
ENDROOT
BRANCH   1   2
ATOM      2  CB  LYS A 131      28.345  25.722  17.026  1.00 20.94     0.034 C 
BRANCH   2   3
ATOM      3  CG  LYS A 131      27.601  24.403  16.887  1.00 22.96     0.005 C 
BRANCH   3   4
ATOM      4  CD  LYS A 131      26.703  24.132  18.062  1.00 24.33     0.041 C 
BRANCH   4   5
ATOM      5  CE  LYS A 131      25.840  25.359  18.336  1.00 26.91     0.338 C 
ATOM      6  NZ  LYS A 131      25.752  25.617  19.793  1.00 27.40     0.618 N 
ENDBRANCH   4   5
ENDBRANCH   3   4
ENDBRANCH   2   3
ENDBRANCH   1   2
END_RES LYS A 131
BEGIN_RES LYS A 135
REMARK  4 active torsions:
REMARK  status: ('A' for Active; 'I' for Inactive)
REMARK    5  A    between atoms: CA   and  CB  
REMARK    6  A    between atoms: CB   and  CG  
REMARK    7  A    between atoms: CG   and  CD  
REMARK    8  A    between atoms: CD   and  CE  
ROOT
ATOM      7  CA  LYS A 135      33.193  34.663   9.290  1.00 25.02     0.186 C 
ENDROOT
BRANCH   7   8
ATOM      8  CB  LYS A 135      32.060  35.360  10.034  1.00 26.63     0.034 C 
BRANCH   8   9
ATOM      9  CG  LYS A 135      30.688  34.925   9.587  1.00 29.45     0.005 C 
BRANCH   9  10
ATOM     10  CD  LYS A 135      30.113  35.911   8.582  1.00 32.00     0.041 C 
BRANCH  10  11
ATOM     11  CE  LYS A 135      30.373  37.337   9.027  1.00 34.25     0.338 C 
ATOM     12  NZ  LYS A 135      29.327  37.800   9.981  1.00 35.99     0.618 N 
ENDBRANCH  10  11
ENDBRANCH   9  10
ENDBRANCH   8   9
ENDBRANCH   7   8
END_RES LYS A 135
