REMARK VINA RESULT:    -4.689      2.948      5.214
REMARK INTER + INTRA:         -22.739
REMARK INTER:                 -12.711
REMARK INTRA:                 -10.028
REMARK UNBOUND:               -11.198
REMARK SMILES CC(=O)N[C@@H]1[C@@H](O)C[C@](OC[C@H]2O[C@@H](O[C@H]3[C@H](O)[C@@H](O)[C@H](OCCN=[N+]=[N-])O[C@@H]3CO)[C@H](O)[C@@H](O)[C@H]2O)(C(=O)O)O[C@H]1C(O)[C@H](O)CNC(=O)OCc1cn(C23CC4CC(CC(C4)C2)C3)nn1
REMARK SMILES IDX 9 1 8 2 6 3 5 4 42 5 41 6 10 7 11 8 12 9 14 10 13 11 32 12
REMARK SMILES IDX 34 13 36 14 15 15 16 16 29 17 28 18 21 19 17 20 19 21 30 22
REMARK SMILES IDX 31 23 22 25 23 26 24 27 25 28 26 29 27 30 18 31 20 33 33 35
REMARK SMILES IDX 35 37 37 39 38 41 39 42 40 43 7 45 43 47 44 48 45 50 46 51
REMARK SMILES IDX 47 53 48 54 49 55 50 57 51 58 52 59 53 60 54 61 67 62 55 63
REMARK SMILES IDX 66 64 56 65 65 66 64 67 57 68 60 69 62 70 58 71 59 72 61 73
REMARK SMILES IDX 63 74 4 75 2 76 1 78 3 79
REMARK H PARENT 31 24 18 32 20 34 33 36 35 38 37 40 40 44 7 46 44 49 46 52
REMARK H PARENT 48 56 4 77
REMARK Flexibility Score: inf
ROOT
ATOM      1  C   UNL     1      23.271  36.288   8.704  1.00  0.00     0.272 C 
ATOM      2  C   UNL     1      22.760  37.101   7.564  1.00  0.00     0.113 C 
ATOM      3  C   UNL     1      23.392  38.478   7.562  1.00  0.00     0.145 C 
ATOM      4  C   UNL     1      22.722  39.225   8.724  1.00  0.00     0.142 C 
ATOM      5  C   UNL     1      22.742  38.268   9.878  1.00  0.00     0.178 C 
ATOM      6  O   UNL     1      23.612  37.213   9.756  1.00  0.00    -0.332 OA
ENDROOT
BRANCH   1   7
ATOM      7  O   UNL     1      24.384  35.591   8.518  1.00  0.00    -0.338 OA
BRANCH   7   8
ATOM      8  C   UNL     1      25.528  35.635   9.150  1.00  0.00     0.199 C 
BRANCH   8   9
ATOM      9  C   UNL     1      26.801  35.070   8.613  1.00  0.00     0.179 C 
ATOM     10  C   UNL     1      28.879  35.497   7.874  1.00  0.00     0.282 C 
ATOM     11  O   UNL     1      27.736  36.144   8.387  1.00  0.00    -0.341 OA
ATOM     12  C   UNL     1      29.699  35.124   9.066  1.00  0.00     0.202 C 
ATOM     13  C   UNL     1      28.739  34.707  10.165  1.00  0.00     0.179 C 
ATOM     14  C   UNL     1      27.468  34.118   9.601  1.00  0.00     0.177 C 
BRANCH  10  15
ATOM     15  O   UNL     1      29.534  36.301   6.948  1.00  0.00    -0.341 OA
BRANCH  15  16
ATOM     16  C   UNL     1      29.277  37.612   7.220  1.00  0.00     0.184 C 
ATOM     17  C   UNL     1      28.655  38.425   6.144  1.00  0.00     0.178 C 
ATOM     18  O   UNL     1      28.103  39.560   6.783  1.00  0.00    -0.341 OA
ATOM     19  C   UNL     1      29.124  40.435   7.220  1.00  0.00     0.281 C 
ATOM     20  C   UNL     1      30.545  38.377   7.617  1.00  0.00     0.180 C 
ATOM     21  C   UNL     1      30.130  39.734   8.069  1.00  0.00     0.202 C 
BRANCH  17  22
ATOM     22  C   UNL     1      27.657  37.747   5.283  1.00  0.00     0.191 C 
BRANCH  22  23
ATOM     23  O   UNL     1      26.588  37.352   6.104  1.00  0.00    -0.394 OA
ATOM     24  H   UNL     1      26.644  36.389   6.338  1.00  0.00     0.210 HD
ENDBRANCH  22  23
ENDBRANCH  17  22
BRANCH  19  25
ATOM     25  O   UNL     1      28.476  41.375   7.988  1.00  0.00    -0.350 OA
BRANCH  25  26
ATOM     26  C   UNL     1      27.443  40.946   8.738  1.00  0.00     0.169 C 
BRANCH  26  27
ATOM     27  C   UNL     1      26.365  41.972   8.889  1.00  0.00     0.119 C 
BRANCH  27  28
ATOM     28  N   UNL     1      25.167  41.568   8.144  1.00  0.00    -0.092 NA
ATOM     29  N   UNL     1      25.253  41.515   6.924  1.00  0.00     0.001 N 
ATOM     30  N   UNL     1      25.071  41.654   5.696  1.00  0.00    -0.003 NA
ENDBRANCH  27  28
ENDBRANCH  26  27
ENDBRANCH  25  26
ENDBRANCH  19  25
BRANCH  20  31
ATOM     31  O   UNL     1      31.214  37.742   8.662  1.00  0.00    -0.387 OA
ATOM     32  H   UNL     1      30.985  36.787   8.653  1.00  0.00     0.211 HD
ENDBRANCH  20  31
BRANCH  21  33
ATOM     33  O   UNL     1      31.284  40.511   8.140  1.00  0.00    -0.385 OA
ATOM     34  H   UNL     1      31.102  41.430   7.865  1.00  0.00     0.211 HD
ENDBRANCH  21  33
ENDBRANCH  15  16
ENDBRANCH  10  15
BRANCH  12  35
ATOM     35  O   UNL     1      30.673  34.182   8.848  1.00  0.00    -0.385 OA
ATOM     36  H   UNL     1      30.739  33.973   7.886  1.00  0.00     0.211 HD
ENDBRANCH  12  35
BRANCH  13  37
ATOM     37  O   UNL     1      28.470  35.737  11.057  1.00  0.00    -0.387 OA
ATOM     38  H   UNL     1      29.115  36.495  10.884  1.00  0.00     0.211 HD
ENDBRANCH  13  37
BRANCH  14  39
ATOM     39  O   UNL     1      26.587  33.919  10.654  1.00  0.00    -0.387 OA
ATOM     40  H   UNL     1      25.731  34.403  10.515  1.00  0.00     0.211 HD
ENDBRANCH  14  39
ENDBRANCH   8   9
ENDBRANCH   7   8
ENDBRANCH   1   7
BRANCH   1  41
ATOM     41  C   UNL     1      22.169  35.526   9.313  1.00  0.00     0.364 C 
ATOM     42  O   UNL     1      21.010  35.442   8.886  1.00  0.00    -0.246 OA
BRANCH  41  43
ATOM     43  O   UNL     1      22.508  34.833  10.512  1.00  0.00    -0.477 OA
ATOM     44  H   UNL     1      22.085  33.945  10.680  1.00  0.00     0.296 HD
ENDBRANCH  41  43
ENDBRANCH   1  41
BRANCH   3  45
ATOM     45  O   UNL     1      24.742  38.368   7.870  1.00  0.00    -0.391 OA
ATOM     46  H   UNL     1      25.211  38.098   7.039  1.00  0.00     0.211 HD
ENDBRANCH   3  45
BRANCH   5  47
ATOM     47  C   UNL     1      23.236  38.991  11.189  1.00  0.00     0.176 C 
BRANCH  47  48
ATOM     48  O   UNL     1      24.057  39.997  10.638  1.00  0.00    -0.388 OA
ATOM     49  H   UNL     1      23.458  40.772  10.500  1.00  0.00     0.211 HD
ENDBRANCH  47  48
BRANCH  47  50
ATOM     50  C   UNL     1      24.040  38.076  11.998  1.00  0.00     0.165 C 
BRANCH  50  51
ATOM     51  O   UNL     1      23.381  36.912  12.433  1.00  0.00    -0.388 OA
ATOM     52  H   UNL     1      24.064  36.194  12.592  1.00  0.00     0.211 HD
ENDBRANCH  50  51
BRANCH  50  53
ATOM     53  C   UNL     1      24.802  38.642  13.134  1.00  0.00     0.154 C 
BRANCH  53  54
ATOM     54  N   UNL     1      25.338  37.686  14.031  1.00  0.00    -0.319 N 
ATOM     55  C   UNL     1      26.633  37.150  14.055  1.00  0.00     0.407 C 
ATOM     56  H   UNL     1      24.641  37.328  14.798  1.00  0.00     0.167 HD
ATOM     57  O   UNL     1      27.481  37.483  13.212  1.00  0.00    -0.225 OA
BRANCH  55  58
ATOM     58  O   UNL     1      26.960  36.214  15.067  1.00  0.00    -0.443 OA
BRANCH  58  59
ATOM     59  C   UNL     1      27.267  34.901  14.673  1.00  0.00     0.294 C 
BRANCH  59  60
ATOM     60  C   UNL     1      26.093  34.291  14.030  1.00  0.00     0.120 A 
ATOM     61  C   UNL     1      25.540  33.083  14.368  1.00  0.00     0.138 A 
ATOM     62  N   UNL     1      25.349  34.776  13.018  1.00  0.00    -0.132 NA
ATOM     63  N   UNL     1      24.495  32.878  13.563  1.00  0.00    -0.246 N 
ATOM     64  N   UNL     1      24.404  33.918  12.757  1.00  0.00    -0.066 NA
BRANCH  63  65
ATOM     65  C   UNL     1      23.658  31.696  13.628  1.00  0.00     0.065 C 
ATOM     66  C   UNL     1      24.434  30.530  13.101  1.00  0.00     0.034 C 
ATOM     67  C   UNL     1      23.158  31.490  15.043  1.00  0.00     0.034 C 
ATOM     68  C   UNL     1      22.437  31.886  12.746  1.00  0.00     0.034 C 
ATOM     69  C   UNL     1      23.612  29.268  13.182  1.00  0.00    -0.008 C 
ATOM     70  C   UNL     1      22.399  30.198  15.114  1.00  0.00    -0.008 C 
ATOM     71  C   UNL     1      21.601  30.632  12.854  1.00  0.00    -0.008 C 
ATOM     72  C   UNL     1      22.368  29.443  12.347  1.00  0.00     0.007 C 
ATOM     73  C   UNL     1      23.236  29.054  14.630  1.00  0.00     0.007 C 
ATOM     74  C   UNL     1      21.149  30.347  14.259  1.00  0.00     0.007 C 
ENDBRANCH  63  65
ENDBRANCH  59  60
ENDBRANCH  58  59
ENDBRANCH  55  58
ENDBRANCH  53  54
ENDBRANCH  50  53
ENDBRANCH  47  50
ENDBRANCH   5  47
BRANCH   4  75
ATOM     75  N   UNL     1      21.338  39.511   8.331  1.00  0.00    -0.348 N 
ATOM     76  C   UNL     1      20.676  40.692   8.767  1.00  0.00     0.217 C 
ATOM     77  H   UNL     1      20.813  38.836   7.720  1.00  0.00     0.163 HD
ATOM     78  C   UNL     1      19.250  40.964   8.359  1.00  0.00     0.114 C 
ATOM     79  O   UNL     1      21.307  41.490   9.493  1.00  0.00    -0.275 OA
ENDBRANCH   4  75
TORSDOF 30
BEGIN_RES LYS A 131
REMARK  4 active torsions:
REMARK  status: ('A' for Active; 'I' for Inactive)
REMARK    1  A    between atoms: CA   and  CB  
REMARK    2  A    between atoms: CB   and  CG  
REMARK    3  A    between atoms: CG   and  CD  
REMARK    4  A    between atoms: CD   and  CE  
ROOT
ATOM      1  CA  LYS A 131      29.867  25.555  16.977  1.00 20.52     0.186 C 
ENDROOT
BRANCH   1   2
ATOM      2  CB  LYS A 131      28.345  25.722  17.026  1.00 20.94     0.034 C 
BRANCH   2   3
ATOM      3  CG  LYS A 131      27.601  24.403  16.887  1.00 22.96     0.005 C 
BRANCH   3   4
ATOM      4  CD  LYS A 131      26.572  24.216  17.967  1.00 24.33     0.041 C 
BRANCH   4   5
ATOM      5  CE  LYS A 131      25.621  23.089  17.575  1.00 26.91     0.338 C 
ATOM      6  NZ  LYS A 131      24.381  23.641  16.980  1.00 27.40     0.618 N 
ENDBRANCH   4   5
ENDBRANCH   3   4
ENDBRANCH   2   3
ENDBRANCH   1   2
END_RES LYS A 131
BEGIN_RES LYS A 135
REMARK  4 active torsions:
REMARK  status: ('A' for Active; 'I' for Inactive)
REMARK    5  A    between atoms: CA   and  CB  
REMARK    6  A    between atoms: CB   and  CG  
REMARK    7  A    between atoms: CG   and  CD  
REMARK    8  A    between atoms: CD   and  CE  
ROOT
ATOM      7  CA  LYS A 135      33.193  34.663   9.290  1.00 25.02     0.186 C 
ENDROOT
BRANCH   7   8
ATOM      8  CB  LYS A 135      32.060  35.360  10.034  1.00 26.63     0.034 C 
BRANCH   8   9
ATOM      9  CG  LYS A 135      32.497  36.018  11.317  1.00 29.45     0.005 C 
BRANCH   9  10
ATOM     10  CD  LYS A 135      31.753  35.427  12.504  1.00 32.00     0.041 C 
BRANCH  10  11
ATOM     11  CE  LYS A 135      31.085  36.522  13.313  1.00 34.25     0.338 C 
ATOM     12  NZ  LYS A 135      30.679  36.025  14.657  1.00 35.99     0.618 N 
ENDBRANCH  10  11
ENDBRANCH   9  10
ENDBRANCH   8   9
ENDBRANCH   7   8
END_RES LYS A 135
