REMARK VINA RESULT:    -6.652      2.698      8.189
REMARK INTER + INTRA:         -19.728
REMARK INTER:                  -9.511
REMARK INTRA:                 -10.217
REMARK UNBOUND:                -1.022
REMARK SMILES CC(=O)N[C@@H]1[C@@H](O)C[C@](OC[C@H]2O[C@@H](O[C@H]3[C@H](O)[C@@H](O)[C@H](OCCN=[N+]=[N-])O[C@@H]3CO)[C@H](O)[C@@H](O)[C@H]2O)(C(=O)O)O[C@H]1C(O)[C@H](O)CNC(=O)OCc1cn(C2CC(O)C=C[C@@H](O)C2)nn1
REMARK SMILES IDX 43 1 42 2 9 3 8 4 41 5 6 6 5 7 10 8 11 9 12 10 14 11 13 12
REMARK SMILES IDX 32 13 34 14 36 15 15 16 16 17 29 18 28 19 21 20 17 21 19 22
REMARK SMILES IDX 30 23 31 24 22 26 23 27 24 28 25 29 26 30 27 31 18 32 20 34
REMARK SMILES IDX 33 36 35 38 37 40 38 42 39 43 40 44 7 46 4 48 2 49 1 51 3 52
REMARK SMILES IDX 44 53 45 55 46 56 47 58 48 59 49 60 50 62 51 63 52 64 53 65
REMARK SMILES IDX 54 66 66 67 55 68 65 69 56 70 57 71 58 72 59 74 64 76 62 77
REMARK SMILES IDX 61 78 60 79 63 81
REMARK H PARENT 31 25 18 33 20 35 33 37 35 39 37 41 40 45 7 47 4 50 44 54
REMARK H PARENT 46 57 48 61 59 75 63 82
REMARK Flexibility Score: 90.00
ROOT
ATOM      1  C   UNL     1      30.413  31.396  18.773  1.00  0.00     0.176 C 
ENDROOT
BRANCH   1   2
ATOM      2  C   UNL     1      29.766  32.681  18.287  1.00  0.00     0.178 C 
ATOM      3  C   UNL     1      28.849  33.468  16.268  1.00  0.00     0.272 C 
ATOM      4  C   UNL     1      28.953  34.878  16.721  1.00  0.00     0.113 C 
ATOM      5  O   UNL     1      29.573  32.520  16.885  1.00  0.00    -0.332 OA
ATOM      6  C   UNL     1      29.481  35.055  18.098  1.00  0.00     0.145 C 
ATOM      7  C   UNL     1      30.515  33.934  18.429  1.00  0.00     0.142 C 
BRANCH   3   8
ATOM      8  O   UNL     1      29.045  33.446  14.872  1.00  0.00    -0.338 OA
BRANCH   8   9
ATOM      9  C   UNL     1      30.330  33.217  14.476  1.00  0.00     0.199 C 
BRANCH   9  10
ATOM     10  C   UNL     1      30.783  34.263  13.457  1.00  0.00     0.179 C 
ATOM     11  C   UNL     1      29.988  36.368  12.937  1.00  0.00     0.282 C 
ATOM     12  O   UNL     1      29.702  35.015  13.121  1.00  0.00    -0.341 OA
ATOM     13  C   UNL     1      30.398  36.858  14.313  1.00  0.00     0.202 C 
ATOM     14  C   UNL     1      31.782  36.301  14.559  1.00  0.00     0.179 C 
ATOM     15  C   UNL     1      32.012  34.981  13.896  1.00  0.00     0.177 C 
BRANCH  11  16
ATOM     16  O   UNL     1      28.876  36.997  12.431  1.00  0.00    -0.341 OA
BRANCH  16  17
ATOM     17  C   UNL     1      27.901  36.045  12.115  1.00  0.00     0.184 C 
ATOM     18  C   UNL     1      27.261  36.375  10.791  1.00  0.00     0.178 C 
ATOM     19  O   UNL     1      26.365  37.412  10.829  1.00  0.00    -0.341 OA
ATOM     20  C   UNL     1      26.093  37.883  12.111  1.00  0.00     0.281 C 
ATOM     21  C   UNL     1      26.891  35.861  13.215  1.00  0.00     0.180 C 
ATOM     22  C   UNL     1      25.676  36.723  13.008  1.00  0.00     0.202 C 
BRANCH  18  23
ATOM     23  C   UNL     1      26.602  35.140  10.189  1.00  0.00     0.191 C 
BRANCH  23  24
ATOM     24  O   UNL     1      27.223  33.971  10.586  1.00  0.00    -0.394 OA
ATOM     25  H   UNL     1      27.370  33.349   9.857  1.00  0.00     0.210 HD
ENDBRANCH  23  24
ENDBRANCH  18  23
BRANCH  20  26
ATOM     26  O   UNL     1      25.043  38.786  11.975  1.00  0.00    -0.350 OA
BRANCH  26  27
ATOM     27  C   UNL     1      24.252  38.387  10.903  1.00  0.00     0.169 C 
BRANCH  27  28
ATOM     28  C   UNL     1      22.780  38.636  11.181  1.00  0.00     0.119 C 
BRANCH  28  29
ATOM     29  N   UNL     1      22.150  37.450  11.724  1.00  0.00    -0.092 NA
ATOM     30  N   UNL     1      22.076  37.320  12.957  1.00  0.00     0.001 N 
ATOM     31  N   UNL     1      22.158  37.263  14.191  1.00  0.00    -0.003 NA
ENDBRANCH  28  29
ENDBRANCH  27  28
ENDBRANCH  26  27
ENDBRANCH  20  26
BRANCH  21  32
ATOM     32  O   UNL     1      26.511  34.522  13.303  1.00  0.00    -0.387 OA
ATOM     33  H   UNL     1      26.646  34.043  12.450  1.00  0.00     0.211 HD
ENDBRANCH  21  32
BRANCH  22  34
ATOM     34  O   UNL     1      25.202  37.219  14.217  1.00  0.00    -0.385 OA
ATOM     35  H   UNL     1      24.286  37.586  14.113  1.00  0.00     0.211 HD
ENDBRANCH  22  34
ENDBRANCH  16  17
ENDBRANCH  11  16
BRANCH  13  36
ATOM     36  O   UNL     1      30.400  38.220  14.451  1.00  0.00    -0.385 OA
ATOM     37  H   UNL     1      30.947  38.565  15.175  1.00  0.00     0.211 HD
ENDBRANCH  13  36
BRANCH  14  38
ATOM     38  O   UNL     1      31.954  36.251  15.942  1.00  0.00    -0.387 OA
ATOM     39  H   UNL     1      31.710  37.122  16.363  1.00  0.00     0.211 HD
ENDBRANCH  14  38
BRANCH  15  40
ATOM     40  O   UNL     1      32.703  34.118  14.770  1.00  0.00    -0.387 OA
ATOM     41  H   UNL     1      32.475  33.185  14.654  1.00  0.00     0.211 HD
ENDBRANCH  15  40
ENDBRANCH   9  10
ENDBRANCH   8   9
ENDBRANCH   3   8
BRANCH   3  42
ATOM     42  C   UNL     1      27.398  33.083  16.459  1.00  0.00     0.364 C 
ATOM     43  O   UNL     1      27.034  31.891  16.641  1.00  0.00    -0.246 OA
BRANCH  42  44
ATOM     44  O   UNL     1      26.456  34.098  16.429  1.00  0.00    -0.477 OA
ATOM     45  H   UNL     1      26.704  35.054  16.681  1.00  0.00     0.296 HD
ENDBRANCH  42  44
ENDBRANCH   3  42
BRANCH   6  46
ATOM     46  O   UNL     1      30.055  36.290  18.271  1.00  0.00    -0.391 OA
ATOM     47  H   UNL     1      29.391  36.997  18.122  1.00  0.00     0.211 HD
ENDBRANCH   6  46
BRANCH   7  48
ATOM     48  N   UNL     1      31.176  34.270  19.630  1.00  0.00    -0.348 N 
ATOM     49  C   UNL     1      32.451  34.889  19.594  1.00  0.00     0.217 C 
ATOM     50  H   UNL     1      30.735  34.101  20.552  1.00  0.00     0.163 HD
ATOM     51  C   UNL     1      33.166  35.252  20.846  1.00  0.00     0.114 C 
ATOM     52  O   UNL     1      32.989  35.136  18.489  1.00  0.00    -0.275 OA
ENDBRANCH   7  48
ENDBRANCH   1   2
BRANCH   1  53
ATOM     53  O   UNL     1      30.139  30.518  17.633  1.00  0.00    -0.388 OA
ATOM     54  H   UNL     1      29.807  31.104  16.883  1.00  0.00     0.211 HD
ENDBRANCH   1  53
BRANCH   1  55
ATOM     55  C   UNL     1      29.656  30.699  19.867  1.00  0.00     0.165 C 
BRANCH  55  56
ATOM     56  O   UNL     1      29.870  29.342  19.867  1.00  0.00    -0.388 OA
ATOM     57  H   UNL     1      29.495  28.877  19.088  1.00  0.00     0.211 HD
ENDBRANCH  55  56
BRANCH  55  58
ATOM     58  C   UNL     1      28.154  30.901  19.697  1.00  0.00     0.154 C 
BRANCH  58  59
ATOM     59  N   UNL     1      27.500  29.850  18.986  1.00  0.00    -0.319 N 
ATOM     60  C   UNL     1      26.482  29.042  19.563  1.00  0.00     0.407 C 
ATOM     61  H   UNL     1      27.774  29.646  17.979  1.00  0.00     0.167 HD
ATOM     62  O   UNL     1      26.167  29.290  20.762  1.00  0.00    -0.225 OA
BRANCH  60  63
ATOM     63  O   UNL     1      25.884  28.043  18.828  1.00  0.00    -0.443 OA
BRANCH  63  64
ATOM     64  C   UNL     1      25.929  28.065  17.404  1.00  0.00     0.294 C 
BRANCH  64  65
ATOM     65  C   UNL     1      24.747  28.816  16.924  1.00  0.00     0.120 A 
ATOM     66  C   UNL     1      24.702  29.850  16.026  1.00  0.00     0.138 A 
ATOM     67  N   UNL     1      23.478  28.599  17.313  1.00  0.00    -0.132 NA
ATOM     68  N   UNL     1      23.405  30.228  15.903  1.00  0.00    -0.249 N 
ATOM     69  N   UNL     1      22.692  29.452  16.693  1.00  0.00    -0.067 NA
BRANCH  68  70
ATOM     70  C   UNL     1      22.885  31.306  15.050  1.00  0.00     0.115 C 
BRANCH  70  71
ATOM     71  C   UNL     1      23.887  32.411  15.018  1.00  0.00     0.063 C 
BRANCH  71  72
ATOM     72  C   UNL     1      23.165  33.726  14.708  1.00  0.00     0.139 CG0
ATOM     73  G   UNL     1      22.845  33.772  13.272  1.00  0.00     0.000 G0
BRANCH  72  74
ATOM     74  O   UNL     1      23.962  34.805  15.085  1.00  0.00    -0.389 OA
ATOM     75  H   UNL     1      23.978  34.837  16.084  1.00  0.00     0.211 HD
ENDBRANCH  72  74
ENDBRANCH  71  72
ENDBRANCH  70  71
BRANCH  70  76
ATOM     76  C   UNL     1      22.639  30.751  13.682  1.00  0.00     0.063 C 
BRANCH  76  77
ATOM     77  C   UNL     1      21.548  31.620  13.047  1.00  0.00     0.139 C 
BRANCH  77  78
ATOM     78  C   UNL     1      22.148  32.884  12.542  1.00  0.00     0.002 C 
ATOM     79  C   UNL     1      22.834  33.764  13.258  1.00  0.00     0.002 CG0
ATOM     80  G   UNL     1      23.183  33.746  14.687  1.00  0.00     0.000 G0
ENDBRANCH  77  78
BRANCH  77  81
ATOM     81  O   UNL     1      20.872  30.942  12.044  1.00  0.00    -0.389 OA
ATOM     82  H   UNL     1      21.317  31.168  11.179  1.00  0.00     0.211 HD
ENDBRANCH  77  81
ENDBRANCH  76  77
ENDBRANCH  70  76
ENDBRANCH  68  70
ENDBRANCH  64  65
ENDBRANCH  63  64
ENDBRANCH  60  63
ENDBRANCH  58  59
ENDBRANCH  55  58
ENDBRANCH   1  55
TORSDOF 32
BEGIN_RES LYS A 131
REMARK  4 active torsions:
REMARK  status: ('A' for Active; 'I' for Inactive)
REMARK    1  A    between atoms: CA   and  CB  
REMARK    2  A    between atoms: CB   and  CG  
REMARK    3  A    between atoms: CG   and  CD  
REMARK    4  A    between atoms: CD   and  CE  
ROOT
ATOM      1  CA  LYS A 131      29.867  25.555  16.977  1.00 20.52     0.186 C 
ENDROOT
BRANCH   1   2
ATOM      2  CB  LYS A 131      28.345  25.722  17.026  1.00 20.94     0.034 C 
BRANCH   2   3
ATOM      3  CG  LYS A 131      27.604  24.394  17.007  1.00 22.96     0.005 C 
BRANCH   3   4
ATOM      4  CD  LYS A 131      26.486  24.355  18.011  1.00 24.33     0.041 C 
BRANCH   4   5
ATOM      5  CE  LYS A 131      25.846  22.970  18.007  1.00 26.91     0.338 C 
ATOM      6  NZ  LYS A 131      24.909  22.828  19.146  1.00 27.40     0.618 N 
ENDBRANCH   4   5
ENDBRANCH   3   4
ENDBRANCH   2   3
ENDBRANCH   1   2
END_RES LYS A 131
BEGIN_RES LYS A 135
REMARK  4 active torsions:
REMARK  status: ('A' for Active; 'I' for Inactive)
REMARK    5  A    between atoms: CA   and  CB  
REMARK    6  A    between atoms: CB   and  CG  
REMARK    7  A    between atoms: CG   and  CD  
REMARK    8  A    between atoms: CD   and  CE  
ROOT
ATOM      7  CA  LYS A 135      33.193  34.663   9.290  1.00 25.02     0.186 C 
ENDROOT
BRANCH   7   8
ATOM      8  CB  LYS A 135      32.060  35.360  10.034  1.00 26.63     0.034 C 
BRANCH   8   9
ATOM      9  CG  LYS A 135      30.706  34.751   9.777  1.00 29.45     0.005 C 
BRANCH   9  10
ATOM     10  CD  LYS A 135      30.413  34.704   8.285  1.00 32.00     0.041 C 
BRANCH  10  11
ATOM     11  CE  LYS A 135      29.528  35.867   7.880  1.00 34.25     0.338 C 
ATOM     12  NZ  LYS A 135      28.805  35.575   6.611  1.00 35.99     0.618 N 
ENDBRANCH  10  11
ENDBRANCH   9  10
ENDBRANCH   8   9
ENDBRANCH   7   8
END_RES LYS A 135
