REMARK VINA RESULT:    -4.798      3.776      8.118
REMARK INTER + INTRA:         -21.953
REMARK INTER:                 -10.938
REMARK INTRA:                 -11.015
REMARK UNBOUND:                -9.861
REMARK SMILES CC(=O)N[C@@H]1[C@@H](O)C[C@](OC[C@H]2O[C@@H](O[C@H]3[C@H](O)[C@@H](O)[C@H](OCCN=[N+]=[N-])O[C@@H]3CO)[C@H](O)[C@@H](O)[C@H]2O)(C(=O)O)O[C@H]1C(O)[C@H](O)CNC(=O)OCc1cn(-c2ccc([N+](=O)[O-])cc2)nn1
REMARK SMILES IDX 9 1 8 2 6 3 5 4 42 5 41 6 10 7 11 8 12 9 14 10 13 11 32 12
REMARK SMILES IDX 34 13 36 14 15 15 16 16 29 17 28 18 21 19 17 20 19 21 30 22
REMARK SMILES IDX 31 23 22 25 23 26 24 27 25 28 26 29 27 30 18 31 20 33 33 35
REMARK SMILES IDX 35 37 37 39 38 41 39 42 40 43 7 45 43 47 44 48 45 50 46 51
REMARK SMILES IDX 47 53 48 54 49 55 50 57 51 58 52 59 53 60 54 61 66 62 55 63
REMARK SMILES IDX 65 64 56 65 57 66 64 67 58 68 63 69 59 70 60 71 61 72 62 73
REMARK SMILES IDX 4 74 2 75 1 77 3 78
REMARK H PARENT 31 24 18 32 20 34 33 36 35 38 37 40 40 44 7 46 44 49 46 52
REMARK H PARENT 48 56 4 76
REMARK Flexibility Score: inf
ROOT
ATOM      1  C   UNL     1      28.083  35.777  12.954  1.00  0.00     0.272 C 
ATOM      2  C   UNL     1      29.513  35.996  13.327  1.00  0.00     0.113 C 
ATOM      3  C   UNL     1      30.071  34.785  13.941  1.00  0.00     0.145 C 
ATOM      4  C   UNL     1      29.047  33.714  14.359  1.00  0.00     0.142 C 
ATOM      5  C   UNL     1      27.838  34.373  14.833  1.00  0.00     0.178 C 
ATOM      6  O   UNL     1      27.380  35.466  14.105  1.00  0.00    -0.332 OA
ENDROOT
BRANCH   1   7
ATOM      7  O   UNL     1      27.866  34.919  11.921  1.00  0.00    -0.338 OA
BRANCH   7   8
ATOM      8  C   UNL     1      28.172  35.363  10.676  1.00  0.00     0.199 C 
BRANCH   8   9
ATOM      9  C   UNL     1      28.208  34.226   9.662  1.00  0.00     0.179 C 
ATOM     10  C   UNL     1      27.531  35.058   7.583  1.00  0.00     0.282 C 
ATOM     11  O   UNL     1      27.243  34.331   8.695  1.00  0.00    -0.341 OA
ATOM     12  C   UNL     1      28.877  35.645   7.449  1.00  0.00     0.202 C 
ATOM     13  C   UNL     1      29.942  34.707   7.952  1.00  0.00     0.179 C 
ATOM     14  C   UNL     1      29.561  33.898   9.140  1.00  0.00     0.177 C 
BRANCH  10  15
ATOM     15  O   UNL     1      26.492  35.965   7.397  1.00  0.00    -0.341 OA
BRANCH  15  16
ATOM     16  C   UNL     1      26.240  36.837   8.402  1.00  0.00     0.184 C 
ATOM     17  C   UNL     1      24.793  36.878   8.843  1.00  0.00     0.178 C 
ATOM     18  O   UNL     1      24.666  37.863   9.843  1.00  0.00    -0.341 OA
ATOM     19  C   UNL     1      24.755  39.123   9.252  1.00  0.00     0.281 C 
ATOM     20  C   UNL     1      26.496  38.243   7.825  1.00  0.00     0.180 C 
ATOM     21  C   UNL     1      26.242  39.279   8.903  1.00  0.00     0.202 C 
BRANCH  17  22
ATOM     22  C   UNL     1      24.297  35.596   9.459  1.00  0.00     0.191 C 
BRANCH  22  23
ATOM     23  O   UNL     1      25.022  35.462  10.669  1.00  0.00    -0.394 OA
ATOM     24  H   UNL     1      25.939  35.124  10.488  1.00  0.00     0.210 HD
ENDBRANCH  22  23
ENDBRANCH  17  22
BRANCH  19  25
ATOM     25  O   UNL     1      24.418  40.100  10.151  1.00  0.00    -0.350 OA
BRANCH  25  26
ATOM     26  C   UNL     1      24.140  39.676  11.426  1.00  0.00     0.169 C 
BRANCH  26  27
ATOM     27  C   UNL     1      24.917  40.367  12.510  1.00  0.00     0.119 C 
BRANCH  27  28
ATOM     28  N   UNL     1      25.716  41.431  11.896  1.00  0.00    -0.092 NA
ATOM     29  N   UNL     1      26.933  41.325  11.861  1.00  0.00     0.001 N 
ATOM     30  N   UNL     1      28.107  41.085  11.631  1.00  0.00    -0.003 NA
ENDBRANCH  27  28
ENDBRANCH  26  27
ENDBRANCH  25  26
ENDBRANCH  19  25
BRANCH  20  31
ATOM     31  O   UNL     1      27.733  38.349   7.254  1.00  0.00    -0.387 OA
ATOM     32  H   UNL     1      27.863  39.117   6.664  1.00  0.00     0.211 HD
ENDBRANCH  20  31
BRANCH  21  33
ATOM     33  O   UNL     1      26.537  40.528   8.430  1.00  0.00    -0.385 OA
ATOM     34  H   UNL     1      26.188  41.203   9.061  1.00  0.00     0.211 HD
ENDBRANCH  21  33
ENDBRANCH  15  16
ENDBRANCH  10  15
BRANCH  12  35
ATOM     35  O   UNL     1      29.167  35.803   6.079  1.00  0.00    -0.385 OA
ATOM     36  H   UNL     1      28.359  35.811   5.534  1.00  0.00     0.211 HD
ENDBRANCH  12  35
BRANCH  13  37
ATOM     37  O   UNL     1      31.126  35.448   8.186  1.00  0.00    -0.387 OA
ATOM     38  H   UNL     1      31.727  35.275   7.443  1.00  0.00     0.211 HD
ENDBRANCH  13  37
BRANCH  14  39
ATOM     39  O   UNL     1      30.484  33.911  10.177  1.00  0.00    -0.387 OA
ATOM     40  H   UNL     1      31.091  33.134  10.036  1.00  0.00     0.211 HD
ENDBRANCH  14  39
ENDBRANCH   8   9
ENDBRANCH   7   8
ENDBRANCH   1   7
BRANCH   1  41
ATOM     41  C   UNL     1      27.499  37.123  12.579  1.00  0.00     0.364 C 
ATOM     42  O   UNL     1      26.265  37.268  12.489  1.00  0.00    -0.246 OA
BRANCH  41  43
ATOM     43  O   UNL     1      28.334  38.177  12.333  1.00  0.00    -0.477 OA
ATOM     44  H   UNL     1      29.315  38.097  12.080  1.00  0.00     0.296 HD
ENDBRANCH  41  43
ENDBRANCH   1  41
BRANCH   3  45
ATOM     45  O   UNL     1      30.962  34.148  13.081  1.00  0.00    -0.391 OA
ATOM     46  H   UNL     1      31.067  34.649  12.248  1.00  0.00     0.211 HD
ENDBRANCH   3  45
BRANCH   5  47
ATOM     47  C   UNL     1      26.618  33.639  15.180  1.00  0.00     0.176 C 
BRANCH  47  48
ATOM     48  O   UNL     1      26.095  33.871  16.456  1.00  0.00    -0.388 OA
ATOM     49  H   UNL     1      26.676  34.373  17.053  1.00  0.00     0.211 HD
ENDBRANCH  47  48
BRANCH  47  50
ATOM     50  C   UNL     1      25.443  33.625  14.258  1.00  0.00     0.165 C 
BRANCH  50  51
ATOM     51  O   UNL     1      25.710  33.653  12.924  1.00  0.00    -0.388 OA
ATOM     52  H   UNL     1      24.972  33.280  12.374  1.00  0.00     0.211 HD
ENDBRANCH  50  51
BRANCH  50  53
ATOM     53  C   UNL     1      24.293  34.463  14.748  1.00  0.00     0.154 C 
BRANCH  53  54
ATOM     54  N   UNL     1      24.444  35.880  14.547  1.00  0.00    -0.319 N 
ATOM     55  C   UNL     1      24.569  36.829  15.589  1.00  0.00     0.407 C 
ATOM     56  H   UNL     1      24.468  36.278  13.570  1.00  0.00     0.167 HD
ATOM     57  O   UNL     1      24.543  36.455  16.766  1.00  0.00    -0.225 OA
BRANCH  55  58
ATOM     58  O   UNL     1      24.720  38.192  15.328  1.00  0.00    -0.443 OA
BRANCH  58  59
ATOM     59  C   UNL     1      25.412  39.084  16.162  1.00  0.00     0.294 C 
BRANCH  59  60
ATOM     60  C   UNL     1      26.863  39.032  15.887  1.00  0.00     0.121 A 
ATOM     61  C   UNL     1      27.838  38.269  16.527  1.00  0.00     0.144 A 
ATOM     62  N   UNL     1      27.555  39.715  14.927  1.00  0.00    -0.131 NA
ATOM     63  N   UNL     1      29.037  38.502  15.960  1.00  0.00    -0.220 N 
ATOM     64  N   UNL     1      28.829  39.377  15.002  1.00  0.00    -0.062 NA
BRANCH  63  65
ATOM     65  C   UNL     1      30.292  37.911  16.313  1.00  0.00     0.067 A 
ATOM     66  C   UNL     1      31.511  38.480  16.031  1.00  0.00     0.035 A 
ATOM     67  C   UNL     1      30.304  36.688  16.969  1.00  0.00     0.035 A 
ATOM     68  C   UNL     1      32.705  37.856  16.388  1.00  0.00     0.088 A 
ATOM     69  C   UNL     1      31.483  36.067  17.323  1.00  0.00     0.088 A 
ATOM     70  C   UNL     1      32.707  36.637  17.042  1.00  0.00     0.269 A 
BRANCH  70  71
ATOM     71  N   UNL     1      33.932  36.007  17.399  1.00  0.00     0.062 N 
ATOM     72  O   UNL     1      34.191  35.580  18.535  1.00  0.00    -0.258 OA
ATOM     73  O   UNL     1      34.887  35.868  16.423  1.00  0.00    -0.258 OA
ENDBRANCH  70  71
ENDBRANCH  63  65
ENDBRANCH  59  60
ENDBRANCH  58  59
ENDBRANCH  55  58
ENDBRANCH  53  54
ENDBRANCH  50  53
ENDBRANCH  47  50
ENDBRANCH   5  47
BRANCH   4  74
ATOM     74  N   UNL     1      29.753  33.098  15.495  1.00  0.00    -0.348 N 
ATOM     75  C   UNL     1      29.597  31.745  15.840  1.00  0.00     0.217 C 
ATOM     76  H   UNL     1      30.391  33.702  16.042  1.00  0.00     0.163 HD
ATOM     77  C   UNL     1      30.356  31.220  17.016  1.00  0.00     0.114 C 
ATOM     78  O   UNL     1      28.857  30.975  15.210  1.00  0.00    -0.275 OA
ENDBRANCH   4  74
TORSDOF 31
BEGIN_RES LYS A 131
REMARK  4 active torsions:
REMARK  status: ('A' for Active; 'I' for Inactive)
REMARK    1  A    between atoms: CA   and  CB  
REMARK    2  A    between atoms: CB   and  CG  
REMARK    3  A    between atoms: CG   and  CD  
REMARK    4  A    between atoms: CD   and  CE  
ROOT
ATOM      1  CA  LYS A 131      29.867  25.555  16.977  1.00 20.52     0.186 C 
ENDROOT
BRANCH   1   2
ATOM      2  CB  LYS A 131      28.345  25.722  17.026  1.00 20.94     0.034 C 
BRANCH   2   3
ATOM      3  CG  LYS A 131      27.601  24.403  16.888  1.00 22.96     0.005 C 
BRANCH   3   4
ATOM      4  CD  LYS A 131      26.201  24.482  17.429  1.00 24.33     0.041 C 
BRANCH   4   5
ATOM      5  CE  LYS A 131      25.642  23.074  17.607  1.00 26.91     0.338 C 
ATOM      6  NZ  LYS A 131      25.149  22.882  18.991  1.00 27.40     0.618 N 
ENDBRANCH   4   5
ENDBRANCH   3   4
ENDBRANCH   2   3
ENDBRANCH   1   2
END_RES LYS A 131
BEGIN_RES LYS A 135
REMARK  4 active torsions:
REMARK  status: ('A' for Active; 'I' for Inactive)
REMARK    5  A    between atoms: CA   and  CB  
REMARK    6  A    between atoms: CB   and  CG  
REMARK    7  A    between atoms: CG   and  CD  
REMARK    8  A    between atoms: CD   and  CE  
ROOT
ATOM      7  CA  LYS A 135      33.193  34.663   9.290  1.00 25.02     0.186 C 
ENDROOT
BRANCH   7   8
ATOM      8  CB  LYS A 135      32.060  35.360  10.034  1.00 26.63     0.034 C 
BRANCH   8   9
ATOM      9  CG  LYS A 135      32.534  36.406  11.010  1.00 29.45     0.005 C 
BRANCH   9  10
ATOM     10  CD  LYS A 135      31.568  37.580  11.050  1.00 32.00     0.041 C 
BRANCH  10  11
ATOM     11  CE  LYS A 135      31.935  38.607   9.997  1.00 34.25     0.338 C 
ATOM     12  NZ  LYS A 135      30.908  38.662   8.920  1.00 35.99     0.618 N 
ENDBRANCH  10  11
ENDBRANCH   9  10
ENDBRANCH   8   9
ENDBRANCH   7   8
END_RES LYS A 135
