REMARK VINA RESULT:    -4.145      3.558      6.857
REMARK INTER + INTRA:         -22.048
REMARK INTER:                 -11.133
REMARK INTRA:                 -10.915
REMARK UNBOUND:               -11.119
REMARK SMILES CC(=O)N[C@@H]1[C@@H](O)C[C@](OC[C@H]2O[C@@H](O[C@H]3[C@H](O)[C@@H](O)[C@H](OCCN=[N+]=[N-])O[C@@H]3CO)[C@H](O)[C@@H](O)[C@H]2O)(C(=O)O)O[C@H]1C(O)[C@H](O)CNC(=O)OCc1cn(CC(O)CO)nn1
REMARK SMILES IDX 43 1 42 2 9 3 8 4 41 5 6 6 5 7 10 8 11 9 12 10 14 11 13 12
REMARK SMILES IDX 32 13 34 14 36 15 15 16 16 17 29 18 28 19 21 20 17 21 19 22
REMARK SMILES IDX 30 23 31 24 22 26 23 27 24 28 25 29 26 30 27 31 18 32 20 34
REMARK SMILES IDX 33 36 35 38 37 40 38 42 39 43 40 44 7 46 4 48 2 49 1 51 3 52
REMARK SMILES IDX 44 53 45 55 46 56 47 58 48 59 49 60 50 62 51 63 52 64 53 65
REMARK SMILES IDX 54 66 62 67 55 68 61 69 56 70 57 71 58 72 59 74 60 75
REMARK H PARENT 31 25 18 33 20 35 33 37 35 39 37 41 40 45 7 47 4 50 44 54
REMARK H PARENT 46 57 48 61 58 73 60 76
REMARK Flexibility Score: inf
ROOT
ATOM      1  C   UNL     1      28.129  37.908  10.695  1.00  0.00     0.176 C 
ENDROOT
BRANCH   1   2
ATOM      2  C   UNL     1      28.461  36.479  10.224  1.00  0.00     0.178 C 
ATOM      3  C   UNL     1      28.629  35.133   8.290  1.00  0.00     0.272 C 
ATOM      4  C   UNL     1      27.772  34.076   8.928  1.00  0.00     0.113 C 
ATOM      5  O   UNL     1      28.363  36.367   8.902  1.00  0.00    -0.332 OA
ATOM      6  C   UNL     1      27.029  34.454  10.153  1.00  0.00     0.145 C 
ATOM      7  C   UNL     1      27.626  35.523  10.990  1.00  0.00     0.142 C 
BRANCH   3   8
ATOM      8  O   UNL     1      28.352  35.254   7.008  1.00  0.00    -0.338 OA
BRANCH   8   9
ATOM      9  C   UNL     1      27.654  35.868   6.150  1.00  0.00     0.199 C 
BRANCH   9  10
ATOM     10  C   UNL     1      27.733  37.332   5.861  1.00  0.00     0.179 C 
ATOM     11  C   UNL     1      26.870  39.332   6.559  1.00  0.00     0.282 C 
ATOM     12  O   UNL     1      27.205  38.056   6.998  1.00  0.00    -0.341 OA
ATOM     13  C   UNL     1      27.626  39.816   5.370  1.00  0.00     0.202 C 
ATOM     14  C   UNL     1      29.020  39.283   5.231  1.00  0.00     0.179 C 
ATOM     15  C   UNL     1      29.157  37.887   5.817  1.00  0.00     0.177 C 
BRANCH  11  16
ATOM     16  O   UNL     1      26.894  40.301   7.541  1.00  0.00    -0.341 OA
BRANCH  16  17
ATOM     17  C   UNL     1      25.925  41.290   7.387  1.00  0.00     0.184 C 
ATOM     18  C   UNL     1      25.675  41.953   8.707  1.00  0.00     0.178 C 
ATOM     19  O   UNL     1      24.386  41.765   9.182  1.00  0.00    -0.341 OA
ATOM     20  C   UNL     1      23.972  40.435   9.000  1.00  0.00     0.281 C 
ATOM     21  C   UNL     1      24.742  40.742   6.704  1.00  0.00     0.180 C 
ATOM     22  C   UNL     1      23.581  40.336   7.545  1.00  0.00     0.202 C 
BRANCH  18  23
ATOM     23  C   UNL     1      25.928  43.446   8.652  1.00  0.00     0.191 C 
BRANCH  23  24
ATOM     24  O   UNL     1      26.352  43.851   7.394  1.00  0.00    -0.394 OA
ATOM     25  H   UNL     1      26.489  44.851   7.445  1.00  0.00     0.210 HD
ENDBRANCH  23  24
ENDBRANCH  18  23
BRANCH  20  26
ATOM     26  O   UNL     1      22.875  40.256   9.827  1.00  0.00    -0.350 OA
BRANCH  26  27
ATOM     27  C   UNL     1      21.924  41.260   9.740  1.00  0.00     0.169 C 
BRANCH  27  28
ATOM     28  C   UNL     1      20.508  40.730   9.702  1.00  0.00     0.119 C 
BRANCH  28  29
ATOM     29  N   UNL     1      20.323  39.724   8.690  1.00  0.00    -0.092 NA
ATOM     30  N   UNL     1      19.467  38.848   8.706  1.00  0.00     0.001 N 
ATOM     31  N   UNL     1      18.628  37.967   8.896  1.00  0.00    -0.003 NA
ENDBRANCH  28  29
ENDBRANCH  27  28
ENDBRANCH  26  27
ENDBRANCH  20  26
BRANCH  21  32
ATOM     32  O   UNL     1      24.259  41.619   5.701  1.00  0.00    -0.387 OA
ATOM     33  H   UNL     1      25.100  41.946   5.245  1.00  0.00     0.211 HD
ENDBRANCH  21  32
BRANCH  22  34
ATOM     34  O   UNL     1      23.069  39.080   7.227  1.00  0.00    -0.385 OA
ATOM     35  H   UNL     1      22.100  39.061   7.174  1.00  0.00     0.211 HD
ENDBRANCH  22  34
ENDBRANCH  16  17
ENDBRANCH  11  16
BRANCH  13  36
ATOM     36  O   UNL     1      26.874  39.698   4.178  1.00  0.00    -0.385 OA
ATOM     37  H   UNL     1      26.971  40.468   3.588  1.00  0.00     0.211 HD
ENDBRANCH  13  36
BRANCH  14  38
ATOM     38  O   UNL     1      29.995  40.136   5.744  1.00  0.00    -0.387 OA
ATOM     39  H   UNL     1      30.799  40.087   5.174  1.00  0.00     0.211 HD
ENDBRANCH  14  38
BRANCH  15  40
ATOM     40  O   UNL     1      29.547  38.061   7.172  1.00  0.00    -0.387 OA
ATOM     41  H   UNL     1      29.544  37.195   7.647  1.00  0.00     0.211 HD
ENDBRANCH  15  40
ENDBRANCH   9  10
ENDBRANCH   8   9
ENDBRANCH   3   8
BRANCH   3  42
ATOM     42  C   UNL     1      30.086  34.844   8.500  1.00  0.00     0.364 C 
ATOM     43  O   UNL     1      30.367  33.721   9.023  1.00  0.00    -0.246 OA
BRANCH  42  44
ATOM     44  O   UNL     1      31.091  35.713   8.164  1.00  0.00    -0.477 OA
ATOM     45  H   UNL     1      31.720  36.115   8.869  1.00  0.00     0.296 HD
ENDBRANCH  42  44
ENDBRANCH   3  42
BRANCH   6  46
ATOM     46  O   UNL     1      25.744  34.882   9.742  1.00  0.00    -0.391 OA
ATOM     47  H   UNL     1      25.092  34.671  10.440  1.00  0.00     0.211 HD
ENDBRANCH   6  46
BRANCH   7  48
ATOM     48  N   UNL     1      28.323  34.915  12.120  1.00  0.00    -0.348 N 
ATOM     49  C   UNL     1      28.130  35.361  13.451  1.00  0.00     0.217 C 
ATOM     50  H   UNL     1      28.991  34.129  11.987  1.00  0.00     0.163 HD
ATOM     51  C   UNL     1      28.837  34.746  14.604  1.00  0.00     0.114 C 
ATOM     52  O   UNL     1      27.328  36.310  13.636  1.00  0.00    -0.275 OA
ENDBRANCH   7  48
ENDBRANCH   1   2
BRANCH   1  53
ATOM     53  O   UNL     1      28.587  38.813   9.758  1.00  0.00    -0.388 OA
ATOM     54  H   UNL     1      28.291  38.555   8.849  1.00  0.00     0.211 HD
ENDBRANCH   1  53
BRANCH   1  55
ATOM     55  C   UNL     1      26.626  38.060  10.865  1.00  0.00     0.165 C 
BRANCH  55  56
ATOM     56  O   UNL     1      26.109  37.999   9.547  1.00  0.00    -0.388 OA
ATOM     57  H   UNL     1      25.401  38.680   9.440  1.00  0.00     0.211 HD
ENDBRANCH  55  56
BRANCH  55  58
ATOM     58  C   UNL     1      26.213  39.356  11.472  1.00  0.00     0.154 C 
BRANCH  58  59
ATOM     59  N   UNL     1      24.972  39.246  12.210  1.00  0.00    -0.319 N 
ATOM     60  C   UNL     1      24.970  39.237  13.623  1.00  0.00     0.407 C 
ATOM     61  H   UNL     1      24.036  39.172  11.723  1.00  0.00     0.167 HD
ATOM     62  O   UNL     1      26.027  39.308  14.291  1.00  0.00    -0.225 OA
BRANCH  60  63
ATOM     63  O   UNL     1      23.789  39.153  14.334  1.00  0.00    -0.443 OA
BRANCH  63  64
ATOM     64  C   UNL     1      22.879  38.110  14.346  1.00  0.00     0.294 C 
BRANCH  64  65
ATOM     65  C   UNL     1      23.045  37.100  13.277  1.00  0.00     0.120 A 
ATOM     66  C   UNL     1      22.159  36.885  12.259  1.00  0.00     0.138 A 
ATOM     67  N   UNL     1      24.088  36.227  13.143  1.00  0.00    -0.132 NA
ATOM     68  N   UNL     1      22.677  35.884  11.524  1.00  0.00    -0.249 N 
ATOM     69  N   UNL     1      23.813  35.510  12.061  1.00  0.00    -0.067 NA
BRANCH  68  70
ATOM     70  C   UNL     1      22.096  35.290  10.340  1.00  0.00     0.180 C 
BRANCH  70  71
ATOM     71  C   UNL     1      22.134  36.362   9.241  1.00  0.00     0.161 C 
BRANCH  71  72
ATOM     72  O   UNL     1      23.454  36.654   9.003  1.00  0.00    -0.389 OA
ATOM     73  H   UNL     1      23.672  37.600   9.191  1.00  0.00     0.211 HD
ENDBRANCH  71  72
BRANCH  71  74
ATOM     74  C   UNL     1      21.441  35.842   8.004  1.00  0.00     0.189 C 
BRANCH  74  75
ATOM     75  O   UNL     1      21.704  36.666   6.932  1.00  0.00    -0.394 OA
ATOM     76  H   UNL     1      21.155  36.384   6.156  1.00  0.00     0.210 HD
ENDBRANCH  74  75
ENDBRANCH  71  74
ENDBRANCH  70  71
ENDBRANCH  68  70
ENDBRANCH  64  65
ENDBRANCH  63  64
ENDBRANCH  60  63
ENDBRANCH  58  59
ENDBRANCH  55  58
ENDBRANCH   1  55
TORSDOF 34
BEGIN_RES LYS A 131
REMARK  4 active torsions:
REMARK  status: ('A' for Active; 'I' for Inactive)
REMARK    1  A    between atoms: CA   and  CB  
REMARK    2  A    between atoms: CB   and  CG  
REMARK    3  A    between atoms: CG   and  CD  
REMARK    4  A    between atoms: CD   and  CE  
ROOT
ATOM      1  CA  LYS A 131      29.867  25.555  16.977  1.00 20.52     0.186 C 
ENDROOT
BRANCH   1   2
ATOM      2  CB  LYS A 131      28.345  25.722  17.026  1.00 20.94     0.034 C 
BRANCH   2   3
ATOM      3  CG  LYS A 131      27.601  24.402  16.890  1.00 22.96     0.005 C 
BRANCH   3   4
ATOM      4  CD  LYS A 131      26.158  24.522  17.293  1.00 24.33     0.041 C 
BRANCH   4   5
ATOM      5  CE  LYS A 131      26.071  24.976  18.747  1.00 26.91     0.338 C 
ATOM      6  NZ  LYS A 131      25.147  26.127  18.876  1.00 27.40     0.618 N 
ENDBRANCH   4   5
ENDBRANCH   3   4
ENDBRANCH   2   3
ENDBRANCH   1   2
END_RES LYS A 131
BEGIN_RES LYS A 135
REMARK  4 active torsions:
REMARK  status: ('A' for Active; 'I' for Inactive)
REMARK    5  A    between atoms: CA   and  CB  
REMARK    6  A    between atoms: CB   and  CG  
REMARK    7  A    between atoms: CG   and  CD  
REMARK    8  A    between atoms: CD   and  CE  
ROOT
ATOM      7  CA  LYS A 135      33.193  34.663   9.290  1.00 25.02     0.186 C 
ENDROOT
BRANCH   7   8
ATOM      8  CB  LYS A 135      32.060  35.360  10.034  1.00 26.63     0.034 C 
BRANCH   8   9
ATOM      9  CG  LYS A 135      32.434  35.799  11.426  1.00 29.45     0.005 C 
BRANCH   9  10
ATOM     10  CD  LYS A 135      31.616  37.012  11.844  1.00 32.00     0.041 C 
BRANCH  10  11
ATOM     11  CE  LYS A 135      31.704  37.222  13.343  1.00 34.25     0.338 C 
ATOM     12  NZ  LYS A 135      32.228  36.007  14.026  1.00 35.99     0.618 N 
ENDBRANCH  10  11
ENDBRANCH   9  10
ENDBRANCH   8   9
ENDBRANCH   7   8
END_RES LYS A 135
