REMARK VINA RESULT:    -4.979      3.113      8.965
REMARK INTER + INTRA:         -22.722
REMARK INTER:                 -11.734
REMARK INTRA:                 -10.988
REMARK UNBOUND:                -9.883
REMARK SMILES CC(=O)N[C@@H]1[C@@H](O)C[C@](OC[C@H]2O[C@@H](O[C@H]3[C@H](O)[C@@H](O)[C@H](OCCN=[N+]=[N-])O[C@@H]3CO)[C@H](O)[C@@H](O)[C@H]2O)(C(=O)O)O[C@H]1C(O)[C@H](O)CNC(=O)OCc1cn(C(c2ccccc2)c2ccccc2)nn1
REMARK SMILES IDX 9 1 8 2 6 3 5 4 42 5 41 6 10 7 11 8 12 9 14 10 13 11 32 12
REMARK SMILES IDX 34 13 36 14 15 15 16 16 29 17 28 18 21 19 17 20 19 21 30 22
REMARK SMILES IDX 31 23 22 25 23 26 24 27 25 28 26 29 27 30 18 31 20 33 33 35
REMARK SMILES IDX 35 37 37 39 38 41 39 42 40 43 7 45 43 47 44 48 45 50 46 51
REMARK SMILES IDX 47 53 48 54 49 55 50 57 51 58 52 59 53 60 54 61 70 62 55 63
REMARK SMILES IDX 69 64 56 65 57 66 58 67 62 68 59 69 61 70 60 71 63 72 64 73
REMARK SMILES IDX 68 74 65 75 67 76 66 77 4 78 2 79 1 81 3 82
REMARK H PARENT 31 24 18 32 20 34 33 36 35 38 37 40 40 44 7 46 44 49 46 52
REMARK H PARENT 48 56 4 80
REMARK Flexibility Score: inf
ROOT
ATOM      1  C   UNL     1      23.241  33.037  13.258  1.00  0.00     0.272 C 
ATOM      2  C   UNL     1      21.985  33.011  14.155  1.00  0.00     0.113 C 
ATOM      3  C   UNL     1      22.362  32.656  15.535  1.00  0.00     0.145 C 
ATOM      4  C   UNL     1      23.365  33.650  16.065  1.00  0.00     0.142 C 
ATOM      5  C   UNL     1      24.098  34.375  14.998  1.00  0.00     0.178 C 
ATOM      6  O   UNL     1      24.252  33.718  13.820  1.00  0.00    -0.332 OA
ENDROOT
BRANCH   1   7
ATOM      7  O   UNL     1      22.878  33.653  12.049  1.00  0.00    -0.338 OA
BRANCH   7   8
ATOM      8  C   UNL     1      21.580  34.090  12.074  1.00  0.00     0.199 C 
BRANCH   8   9
ATOM      9  C   UNL     1      21.434  35.514  11.539  1.00  0.00     0.179 C 
ATOM     10  C   UNL     1      22.581  35.917   9.487  1.00  0.00     0.282 C 
ATOM     11  O   UNL     1      22.467  35.881  10.829  1.00  0.00    -0.341 OA
ATOM     12  C   UNL     1      21.439  35.410   8.745  1.00  0.00     0.202 C 
ATOM     13  C   UNL     1      20.117  35.616   9.400  1.00  0.00     0.179 C 
ATOM     14  C   UNL     1      20.092  35.718  10.875  1.00  0.00     0.177 C 
BRANCH  10  15
ATOM     15  O   UNL     1      23.811  35.229   9.246  1.00  0.00    -0.341 OA
BRANCH  15  16
ATOM     16  C   UNL     1      24.789  36.075   8.819  1.00  0.00     0.184 C 
ATOM     17  C   UNL     1      25.882  36.219   9.818  1.00  0.00     0.178 C 
ATOM     18  O   UNL     1      26.962  36.915   9.259  1.00  0.00    -0.341 OA
ATOM     19  C   UNL     1      26.635  38.235   9.104  1.00  0.00     0.281 C 
ATOM     20  C   UNL     1      24.248  37.478   8.576  1.00  0.00     0.180 C 
ATOM     21  C   UNL     1      25.186  38.508   9.069  1.00  0.00     0.202 C 
BRANCH  17  22
ATOM     22  C   UNL     1      26.346  34.922  10.450  1.00  0.00     0.191 C 
BRANCH  22  23
ATOM     23  O   UNL     1      25.791  34.811  11.721  1.00  0.00    -0.394 OA
ATOM     24  H   UNL     1      26.452  34.711  12.437  1.00  0.00     0.210 HD
ENDBRANCH  22  23
ENDBRANCH  17  22
BRANCH  19  25
ATOM     25  O   UNL     1      27.316  38.816   8.022  1.00  0.00    -0.350 OA
BRANCH  25  26
ATOM     26  C   UNL     1      28.064  39.915   8.333  1.00  0.00     0.169 C 
BRANCH  26  27
ATOM     27  C   UNL     1      29.295  39.488   9.097  1.00  0.00     0.119 C 
BRANCH  27  28
ATOM     28  N   UNL     1      30.175  38.653   8.284  1.00  0.00    -0.092 NA
ATOM     29  N   UNL     1      31.321  38.984   8.009  1.00  0.00     0.001 N 
ATOM     30  N   UNL     1      32.308  39.546   7.518  1.00  0.00    -0.003 NA
ENDBRANCH  27  28
ENDBRANCH  26  27
ENDBRANCH  25  26
ENDBRANCH  19  25
BRANCH  20  31
ATOM     31  O   UNL     1      23.944  37.567   7.216  1.00  0.00    -0.387 OA
ATOM     32  H   UNL     1      23.255  36.900   6.950  1.00  0.00     0.211 HD
ENDBRANCH  20  31
BRANCH  21  33
ATOM     33  O   UNL     1      24.744  38.908  10.364  1.00  0.00    -0.385 OA
ATOM     34  H   UNL     1      25.232  39.757  10.553  1.00  0.00     0.211 HD
ENDBRANCH  21  33
ENDBRANCH  15  16
ENDBRANCH  10  15
BRANCH  12  35
ATOM     35  O   UNL     1      21.309  35.983   7.453  1.00  0.00    -0.385 OA
ATOM     36  H   UNL     1      20.529  36.586   7.511  1.00  0.00     0.211 HD
ENDBRANCH  12  35
BRANCH  13  37
ATOM     37  O   UNL     1      19.193  34.613   9.007  1.00  0.00    -0.387 OA
ATOM     38  H   UNL     1      19.122  33.935   9.728  1.00  0.00     0.211 HD
ENDBRANCH  13  37
BRANCH  14  39
ATOM     39  O   UNL     1      19.257  34.715  11.394  1.00  0.00    -0.387 OA
ATOM     40  H   UNL     1      18.654  35.062  12.092  1.00  0.00     0.211 HD
ENDBRANCH  14  39
ENDBRANCH   8   9
ENDBRANCH   7   8
ENDBRANCH   1   7
BRANCH   1  41
ATOM     41  C   UNL     1      23.563  31.633  13.003  1.00  0.00     0.364 C 
ATOM     42  O   UNL     1      24.704  31.183  13.229  1.00  0.00    -0.246 OA
BRANCH  41  43
ATOM     43  O   UNL     1      22.625  30.730  12.498  1.00  0.00    -0.477 OA
ATOM     44  H   UNL     1      22.250  29.993  13.076  1.00  0.00     0.296 HD
ENDBRANCH  41  43
ENDBRANCH   1  41
BRANCH   3  45
ATOM     45  O   UNL     1      21.186  32.712  16.314  1.00  0.00    -0.391 OA
ATOM     46  H   UNL     1      21.015  33.635  16.627  1.00  0.00     0.211 HD
ENDBRANCH   3  45
BRANCH   5  47
ATOM     47  C   UNL     1      23.684  35.796  14.739  1.00  0.00     0.176 C 
BRANCH  47  48
ATOM     48  O   UNL     1      24.158  36.111  13.448  1.00  0.00    -0.388 OA
ATOM     49  H   UNL     1      24.822  35.482  13.119  1.00  0.00     0.211 HD
ENDBRANCH  47  48
BRANCH  47  50
ATOM     50  C   UNL     1      24.210  36.817  15.682  1.00  0.00     0.165 C 
BRANCH  50  51
ATOM     51  O   UNL     1      23.185  37.120  16.571  1.00  0.00    -0.388 OA
ATOM     52  H   UNL     1      22.369  36.576  16.422  1.00  0.00     0.211 HD
ENDBRANCH  50  51
BRANCH  50  53
ATOM     53  C   UNL     1      24.729  38.072  15.071  1.00  0.00     0.154 C 
BRANCH  53  54
ATOM     54  N   UNL     1      26.146  38.167  14.922  1.00  0.00    -0.319 N 
ATOM     55  C   UNL     1      26.897  38.047  13.749  1.00  0.00     0.407 C 
ATOM     56  H   UNL     1      26.711  38.352  15.812  1.00  0.00     0.167 HD
ATOM     57  O   UNL     1      26.337  37.817  12.670  1.00  0.00    -0.225 OA
BRANCH  55  58
ATOM     58  O   UNL     1      28.283  38.181  13.760  1.00  0.00    -0.443 OA
BRANCH  58  59
ATOM     59  C   UNL     1      29.069  37.544  12.741  1.00  0.00     0.294 C 
BRANCH  59  60
ATOM     60  C   UNL     1      29.413  36.175  13.203  1.00  0.00     0.120 A 
ATOM     61  C   UNL     1      30.395  35.912  14.113  1.00  0.00     0.139 A 
ATOM     62  N   UNL     1      28.831  35.045  12.813  1.00  0.00    -0.132 NA
ATOM     63  N   UNL     1      30.395  34.576  14.269  1.00  0.00    -0.240 N 
ATOM     64  N   UNL     1      29.444  34.065  13.478  1.00  0.00    -0.066 NA
BRANCH  63  65
ATOM     65  C   UNL     1      31.221  33.750  15.123  1.00  0.00     0.169 C 
BRANCH  65  66
ATOM     66  C   UNL     1      30.333  32.952  15.978  1.00  0.00    -0.019 A 
ATOM     67  C   UNL     1      30.552  31.599  16.149  1.00  0.00     0.006 A 
ATOM     68  C   UNL     1      29.244  33.486  16.632  1.00  0.00     0.006 A 
ATOM     69  C   UNL     1      29.715  30.824  16.940  1.00  0.00     0.000 A 
ATOM     70  C   UNL     1      28.398  32.718  17.427  1.00  0.00     0.000 A 
ATOM     71  C   UNL     1      28.633  31.367  17.587  1.00  0.00     0.000 A 
ENDBRANCH  65  66
BRANCH  65  72
ATOM     72  C   UNL     1      32.207  34.576  15.847  1.00  0.00    -0.019 A 
ATOM     73  C   UNL     1      33.327  34.992  15.136  1.00  0.00     0.006 A 
ATOM     74  C   UNL     1      32.112  34.936  17.160  1.00  0.00     0.006 A 
ATOM     75  C   UNL     1      34.301  35.740  15.743  1.00  0.00     0.000 A 
ATOM     76  C   UNL     1      33.091  35.692  17.780  1.00  0.00     0.000 A 
ATOM     77  C   UNL     1      34.193  36.097  17.072  1.00  0.00     0.000 A 
ENDBRANCH  65  72
ENDBRANCH  63  65
ENDBRANCH  59  60
ENDBRANCH  58  59
ENDBRANCH  55  58
ENDBRANCH  53  54
ENDBRANCH  50  53
ENDBRANCH  47  50
ENDBRANCH   5  47
BRANCH   4  78
ATOM     78  N   UNL     1      24.308  32.840  16.861  1.00  0.00    -0.348 N 
ATOM     79  C   UNL     1      24.097  32.567  18.241  1.00  0.00     0.217 C 
ATOM     80  H   UNL     1      25.177  32.435  16.431  1.00  0.00     0.163 HD
ATOM     81  C   UNL     1      25.075  31.736  19.024  1.00  0.00     0.114 C 
ATOM     82  O   UNL     1      23.094  33.005  18.842  1.00  0.00    -0.275 OA
ENDBRANCH   4  78
TORSDOF 32
BEGIN_RES LYS A 131
REMARK  4 active torsions:
REMARK  status: ('A' for Active; 'I' for Inactive)
REMARK    1  A    between atoms: CA   and  CB  
REMARK    2  A    between atoms: CB   and  CG  
REMARK    3  A    between atoms: CG   and  CD  
REMARK    4  A    between atoms: CD   and  CE  
ROOT
ATOM      1  CA  LYS A 131      29.867  25.555  16.977  1.00 20.52     0.186 C 
ENDROOT
BRANCH   1   2
ATOM      2  CB  LYS A 131      28.345  25.722  17.026  1.00 20.94     0.034 C 
BRANCH   2   3
ATOM      3  CG  LYS A 131      27.601  24.400  16.907  1.00 22.96     0.005 C 
BRANCH   3   4
ATOM      4  CD  LYS A 131      26.148  24.534  17.266  1.00 24.33     0.041 C 
BRANCH   4   5
ATOM      5  CE  LYS A 131      26.002  24.602  18.783  1.00 26.91     0.338 C 
ATOM      6  NZ  LYS A 131      25.159  25.757  19.173  1.00 27.40     0.618 N 
ENDBRANCH   4   5
ENDBRANCH   3   4
ENDBRANCH   2   3
ENDBRANCH   1   2
END_RES LYS A 131
BEGIN_RES LYS A 135
REMARK  4 active torsions:
REMARK  status: ('A' for Active; 'I' for Inactive)
REMARK    5  A    between atoms: CA   and  CB  
REMARK    6  A    between atoms: CB   and  CG  
REMARK    7  A    between atoms: CG   and  CD  
REMARK    8  A    between atoms: CD   and  CE  
ROOT
ATOM      7  CA  LYS A 135      33.193  34.663   9.290  1.00 25.02     0.186 C 
ENDROOT
BRANCH   7   8
ATOM      8  CB  LYS A 135      32.060  35.360  10.034  1.00 26.63     0.034 C 
BRANCH   8   9
ATOM      9  CG  LYS A 135      30.702  34.770   9.754  1.00 29.45     0.005 C 
BRANCH   9  10
ATOM     10  CD  LYS A 135      30.520  34.526   8.263  1.00 32.00     0.041 C 
BRANCH  10  11
ATOM     11  CE  LYS A 135      29.074  34.744   7.860  1.00 34.25     0.338 C 
ATOM     12  NZ  LYS A 135      28.974  35.687   6.712  1.00 35.99     0.618 N 
ENDBRANCH  10  11
ENDBRANCH   9  10
ENDBRANCH   8   9
ENDBRANCH   7   8
END_RES LYS A 135
