REMARK VINA RESULT:    -4.821      0.000      0.000
REMARK INTER + INTRA:         -22.407
REMARK INTER:                 -12.236
REMARK INTRA:                 -10.172
REMARK UNBOUND:               -10.541
REMARK SMILES CC(=O)N[C@@H]1[C@@H](O)C[C@](OC[C@H]2O[C@@H](O[C@H]3[C@H](O)[C@@H](O)[C@H](OCCN=[N+]=[N-])O[C@@H]3CO)[C@H](O)[C@@H](O)[C@H]2O)(C(=O)O)O[C@H]1C(O)[C@H](O)CNC(=O)OCc1cn(-c2ccccc2)nn1
REMARK SMILES IDX 9 1 8 2 6 3 5 4 42 5 41 6 10 7 11 8 12 9 14 10 13 11 32 12
REMARK SMILES IDX 34 13 36 14 15 15 16 16 29 17 28 18 21 19 17 20 19 21 30 22
REMARK SMILES IDX 31 23 22 25 23 26 24 27 25 28 26 29 27 30 18 31 20 33 33 35
REMARK SMILES IDX 35 37 37 39 38 41 39 42 40 43 7 45 43 47 44 48 45 50 46 51
REMARK SMILES IDX 47 53 48 54 49 55 50 57 51 58 52 59 53 60 54 61 63 62 55 63
REMARK SMILES IDX 62 64 56 65 57 66 61 67 58 68 60 69 59 70 4 71 2 72 1 74
REMARK SMILES IDX 3 75
REMARK H PARENT 31 24 18 32 20 34 33 36 35 38 37 40 40 44 7 46 44 49 46 52
REMARK H PARENT 48 56 4 73
REMARK Flexibility Score: inf
ROOT
ATOM      1  C   UNL     1      30.057  31.941  17.909  1.00  0.00     0.272 C 
ATOM      2  C   UNL     1      30.375  30.857  18.870  1.00  0.00     0.113 C 
ATOM      3  C   UNL     1      29.203  30.245  19.544  1.00  0.00     0.145 C 
ATOM      4  C   UNL     1      28.067  30.046  18.558  1.00  0.00     0.142 C 
ATOM      5  C   UNL     1      27.756  31.414  17.995  1.00  0.00     0.178 C 
ATOM      6  O   UNL     1      28.829  31.741  17.208  1.00  0.00    -0.332 OA
ENDROOT
BRANCH   1   7
ATOM      7  O   UNL     1      30.943  32.090  16.882  1.00  0.00    -0.338 OA
BRANCH   7   8
ATOM      8  C   UNL     1      30.616  32.102  15.603  1.00  0.00     0.199 C 
BRANCH   8   9
ATOM      9  C   UNL     1      30.998  33.187  14.674  1.00  0.00     0.179 C 
ATOM     10  C   UNL     1      30.256  35.311  14.053  1.00  0.00     0.282 C 
ATOM     11  O   UNL     1      29.916  34.123  14.736  1.00  0.00    -0.341 OA
ATOM     12  C   UNL     1      31.539  35.237  13.293  1.00  0.00     0.202 C 
ATOM     13  C   UNL     1      32.698  34.892  14.203  1.00  0.00     0.179 C 
ATOM     14  C   UNL     1      32.205  33.937  15.251  1.00  0.00     0.177 C 
BRANCH  10  15
ATOM     15  O   UNL     1      30.338  36.299  14.964  1.00  0.00    -0.341 OA
BRANCH  15  16
ATOM     16  C   UNL     1      29.655  37.451  14.839  1.00  0.00     0.184 C 
ATOM     17  C   UNL     1      29.596  38.307  16.083  1.00  0.00     0.178 C 
ATOM     18  O   UNL     1      28.444  39.104  15.940  1.00  0.00    -0.341 OA
ATOM     19  C   UNL     1      27.377  38.286  16.371  1.00  0.00     0.281 C 
ATOM     20  C   UNL     1      28.226  37.247  14.334  1.00  0.00     0.180 C 
ATOM     21  C   UNL     1      27.286  37.047  15.504  1.00  0.00     0.202 C 
BRANCH  17  22
ATOM     22  C   UNL     1      30.772  39.253  16.190  1.00  0.00     0.191 C 
BRANCH  22  23
ATOM     23  O   UNL     1      31.875  38.657  15.573  1.00  0.00    -0.394 OA
ATOM     24  H   UNL     1      31.590  37.921  14.946  1.00  0.00     0.210 HD
ENDBRANCH  22  23
ENDBRANCH  17  22
BRANCH  19  25
ATOM     25  O   UNL     1      26.181  38.935  16.337  1.00  0.00    -0.350 OA
BRANCH  25  26
ATOM     26  C   UNL     1      25.647  39.352  17.525  1.00  0.00     0.169 C 
BRANCH  26  27
ATOM     27  C   UNL     1      25.211  38.260  18.448  1.00  0.00     0.119 C 
BRANCH  27  28
ATOM     28  N   UNL     1      24.419  37.287  17.789  1.00  0.00    -0.092 NA
ATOM     29  N   UNL     1      24.665  36.070  17.870  1.00  0.00     0.001 N 
ATOM     30  N   UNL     1      25.240  34.973  17.785  1.00  0.00    -0.003 NA
ENDBRANCH  27  28
ENDBRANCH  26  27
ENDBRANCH  25  26
ENDBRANCH  19  25
BRANCH  20  31
ATOM     31  O   UNL     1      27.748  38.328  13.606  1.00  0.00    -0.387 OA
ATOM     32  H   UNL     1      26.806  38.197  13.337  1.00  0.00     0.211 HD
ENDBRANCH  20  31
BRANCH  21  33
ATOM     33  O   UNL     1      27.579  35.912  16.233  1.00  0.00    -0.385 OA
ATOM     34  H   UNL     1      27.286  35.078  15.800  1.00  0.00     0.211 HD
ENDBRANCH  21  33
ENDBRANCH  15  16
ENDBRANCH  10  15
BRANCH  12  35
ATOM     35  O   UNL     1      31.488  34.468  12.138  1.00  0.00    -0.385 OA
ATOM     36  H   UNL     1      32.421  34.342  11.824  1.00  0.00     0.211 HD
ENDBRANCH  12  35
BRANCH  13  37
ATOM     37  O   UNL     1      33.132  36.048  14.825  1.00  0.00    -0.387 OA
ATOM     38  H   UNL     1      32.517  36.818  14.728  1.00  0.00     0.211 HD
ENDBRANCH  13  37
BRANCH  14  39
ATOM     39  O   UNL     1      31.713  34.633  16.379  1.00  0.00    -0.387 OA
ATOM     40  H   UNL     1      32.395  35.225  16.758  1.00  0.00     0.211 HD
ENDBRANCH  14  39
ENDBRANCH   8   9
ENDBRANCH   7   8
ENDBRANCH   1   7
BRANCH   1  41
ATOM     41  C   UNL     1      29.787  33.199  18.641  1.00  0.00     0.364 C 
ATOM     42  O   UNL     1      29.959  33.295  19.856  1.00  0.00    -0.246 OA
BRANCH  41  43
ATOM     43  O   UNL     1      29.316  34.333  17.948  1.00  0.00    -0.477 OA
ATOM     44  H   UNL     1      29.406  34.347  16.934  1.00  0.00     0.296 HD
ENDBRANCH  41  43
ENDBRANCH   1  41
BRANCH   3  45
ATOM     45  O   UNL     1      29.580  29.043  20.139  1.00  0.00    -0.391 OA
ATOM     46  H   UNL     1      30.330  29.237  20.728  1.00  0.00     0.211 HD
ENDBRANCH   3  45
BRANCH   5  47
ATOM     47  C   UNL     1      26.542  31.367  17.073  1.00  0.00     0.176 C 
BRANCH  47  48
ATOM     48  O   UNL     1      25.452  31.776  17.794  1.00  0.00    -0.388 OA
ATOM     49  H   UNL     1      24.708  31.136  17.810  1.00  0.00     0.211 HD
ENDBRANCH  47  48
BRANCH  47  50
ATOM     50  C   UNL     1      26.680  32.078  15.793  1.00  0.00     0.165 C 
BRANCH  50  51
ATOM     51  O   UNL     1      27.333  33.315  16.094  1.00  0.00    -0.388 OA
ATOM     52  H   UNL     1      27.042  33.946  15.410  1.00  0.00     0.211 HD
ENDBRANCH  50  51
BRANCH  50  53
ATOM     53  C   UNL     1      25.320  32.527  15.234  1.00  0.00     0.154 C 
BRANCH  53  54
ATOM     54  N   UNL     1      25.344  33.899  14.793  1.00  0.00    -0.319 N 
ATOM     55  C   UNL     1      25.339  34.243  13.397  1.00  0.00     0.407 C 
ATOM     56  H   UNL     1      25.365  34.709  15.447  1.00  0.00     0.167 HD
ATOM     57  O   UNL     1      25.300  33.353  12.517  1.00  0.00    -0.225 OA
BRANCH  55  58
ATOM     58  O   UNL     1      25.373  35.564  12.990  1.00  0.00    -0.443 OA
BRANCH  58  59
ATOM     59  C   UNL     1      24.205  36.222  12.513  1.00  0.00     0.294 C 
BRANCH  59  60
ATOM     60  C   UNL     1      24.362  36.293  11.031  1.00  0.00     0.121 A 
ATOM     61  C   UNL     1      25.592  36.245  10.390  1.00  0.00     0.144 A 
ATOM     62  N   UNL     1      23.454  36.409  10.057  1.00  0.00    -0.131 NA
ATOM     63  N   UNL     1      25.396  36.332   9.049  1.00  0.00    -0.220 N 
ATOM     64  N   UNL     1      24.096  36.430   8.885  1.00  0.00    -0.062 NA
BRANCH  63  65
ATOM     65  C   UNL     1      26.395  36.324   8.041  1.00  0.00     0.066 A 
ATOM     66  C   UNL     1      26.631  37.422   7.246  1.00  0.00     0.028 A 
ATOM     67  C   UNL     1      27.164  35.199   7.844  1.00  0.00     0.028 A 
ATOM     68  C   UNL     1      27.604  37.424   6.269  1.00  0.00     0.002 A 
ATOM     69  C   UNL     1      28.142  35.206   6.861  1.00  0.00     0.002 A 
ATOM     70  C   UNL     1      28.391  36.291   6.057  1.00  0.00     0.000 A 
ENDBRANCH  63  65
ENDBRANCH  59  60
ENDBRANCH  58  59
ENDBRANCH  55  58
ENDBRANCH  53  54
ENDBRANCH  50  53
ENDBRANCH  47  50
ENDBRANCH   5  47
BRANCH   4  71
ATOM     71  N   UNL     1      26.980  29.337  19.133  1.00  0.00    -0.348 N 
ATOM     72  C   UNL     1      26.496  28.169  18.487  1.00  0.00     0.217 C 
ATOM     73  H   UNL     1      26.529  29.630  20.019  1.00  0.00     0.163 HD
ATOM     74  C   UNL     1      25.354  27.403  19.070  1.00  0.00     0.114 C 
ATOM     75  O   UNL     1      27.000  27.730  17.408  1.00  0.00    -0.275 OA
ENDBRANCH   4  71
TORSDOF 30
BEGIN_RES LYS A 131
REMARK  4 active torsions:
REMARK  status: ('A' for Active; 'I' for Inactive)
REMARK    1  A    between atoms: CA   and  CB  
REMARK    2  A    between atoms: CB   and  CG  
REMARK    3  A    between atoms: CG   and  CD  
REMARK    4  A    between atoms: CD   and  CE  
ROOT
ATOM      1  CA  LYS A 131      29.867  25.555  16.977  1.00 20.52     0.186 C 
ENDROOT
BRANCH   1   2
ATOM      2  CB  LYS A 131      28.345  25.722  17.026  1.00 20.94     0.034 C 
BRANCH   2   3
ATOM      3  CG  LYS A 131      27.601  24.403  16.887  1.00 22.96     0.005 C 
BRANCH   3   4
ATOM      4  CD  LYS A 131      26.651  24.165  18.028  1.00 24.33     0.041 C 
BRANCH   4   5
ATOM      5  CE  LYS A 131      25.367  23.535  17.498  1.00 26.91     0.338 C 
ATOM      6  NZ  LYS A 131      24.486  24.570  16.907  1.00 27.40     0.618 N 
ENDBRANCH   4   5
ENDBRANCH   3   4
ENDBRANCH   2   3
ENDBRANCH   1   2
END_RES LYS A 131
BEGIN_RES LYS A 135
REMARK  4 active torsions:
REMARK  status: ('A' for Active; 'I' for Inactive)
REMARK    5  A    between atoms: CA   and  CB  
REMARK    6  A    between atoms: CB   and  CG  
REMARK    7  A    between atoms: CG   and  CD  
REMARK    8  A    between atoms: CD   and  CE  
ROOT
ATOM      7  CA  LYS A 135      33.193  34.663   9.290  1.00 25.02     0.186 C 
ENDROOT
BRANCH   7   8
ATOM      8  CB  LYS A 135      32.060  35.360  10.034  1.00 26.63     0.034 C 
BRANCH   8   9
ATOM      9  CG  LYS A 135      30.814  35.537   9.205  1.00 29.45     0.005 C 
BRANCH   9  10
ATOM     10  CD  LYS A 135      30.321  36.974   9.277  1.00 32.00     0.041 C 
BRANCH  10  11
ATOM     11  CE  LYS A 135      29.294  37.129  10.383  1.00 34.25     0.338 C 
ATOM     12  NZ  LYS A 135      28.531  38.399  10.231  1.00 35.99     0.618 N 
ENDBRANCH  10  11
ENDBRANCH   9  10
ENDBRANCH   8   9
ENDBRANCH   7   8
END_RES LYS A 135
