REMARK VINA RESULT:    -4.203      2.729      8.498
REMARK INTER + INTRA:         -22.985
REMARK INTER:                 -10.661
REMARK INTRA:                 -12.324
REMARK UNBOUND:               -12.270
REMARK SMILES CC(=O)N[C@@H]1[C@@H](O)C[C@](OC[C@H]2O[C@@H](O[C@H]3[C@H](O)[C@@H](O)[C@H](OCCN=[N+]=[N-])O[C@@H]3CO)[C@H](O)[C@@H](O)[C@H]2O)(C(=O)O)O[C@H]1C(O)[C@H](O)CNC(=O)OCc1cn(-c2ccc(S(N)(=O)=O)cc2)nn1
REMARK SMILES IDX 9 1 8 2 6 3 5 4 42 5 41 6 10 7 11 8 12 9 14 10 13 11 32 12
REMARK SMILES IDX 34 13 36 14 15 15 16 16 29 17 28 18 21 19 17 20 19 21 30 22
REMARK SMILES IDX 31 23 22 25 23 26 24 27 25 28 26 29 27 30 18 31 20 33 33 35
REMARK SMILES IDX 35 37 37 39 38 41 39 42 40 43 7 45 43 47 44 48 45 50 46 51
REMARK SMILES IDX 47 53 48 54 49 55 50 57 51 58 52 59 53 60 54 61 67 62 55 63
REMARK SMILES IDX 66 64 56 65 57 66 65 67 58 68 64 69 59 70 60 71 62 72 63 73
REMARK SMILES IDX 61 74 4 77 2 78 1 80 3 81
REMARK H PARENT 31 24 18 32 20 34 33 36 35 38 37 40 40 44 7 46 44 49 46 52
REMARK H PARENT 48 56 61 75 61 76 4 79
REMARK Flexibility Score: inf
ROOT
ATOM      1  C   UNL     1      26.374  36.841   8.898  1.00  0.00     0.272 C 
ATOM      2  C   UNL     1      27.034  37.472  10.135  1.00  0.00     0.113 C 
ATOM      3  C   UNL     1      26.961  38.958  10.112  1.00  0.00     0.145 C 
ATOM      4  C   UNL     1      27.198  39.443   8.705  1.00  0.00     0.142 C 
ATOM      5  C   UNL     1      27.941  38.299   8.005  1.00  0.00     0.178 C 
ATOM      6  O   UNL     1      26.975  37.325   7.760  1.00  0.00    -0.332 OA
ENDROOT
BRANCH   1   7
ATOM      7  O   UNL     1      25.022  37.138   9.006  1.00  0.00    -0.338 OA
BRANCH   7   8
ATOM      8  C   UNL     1      24.296  36.907   7.872  1.00  0.00     0.199 C 
BRANCH   8   9
ATOM      9  C   UNL     1      22.988  37.708   7.990  1.00  0.00     0.179 C 
ATOM     10  C   UNL     1      21.615  38.462   9.728  1.00  0.00     0.282 C 
ATOM     11  O   UNL     1      22.476  37.440   9.220  1.00  0.00    -0.341 OA
ATOM     12  C   UNL     1      22.543  39.623   9.940  1.00  0.00     0.202 C 
ATOM     13  C   UNL     1      22.995  40.172   8.592  1.00  0.00     0.179 C 
ATOM     14  C   UNL     1      23.124  39.112   7.561  1.00  0.00     0.177 C 
BRANCH  10  15
ATOM     15  O   UNL     1      21.104  38.007  10.893  1.00  0.00    -0.341 OA
BRANCH  15  16
ATOM     16  C   UNL     1      21.645  36.775  11.346  1.00  0.00     0.184 C 
ATOM     17  C   UNL     1      20.537  35.909  11.738  1.00  0.00     0.178 C 
ATOM     18  O   UNL     1      20.705  35.150  12.878  1.00  0.00    -0.341 OA
ATOM     19  C   UNL     1      21.990  34.861  13.242  1.00  0.00     0.281 C 
ATOM     20  C   UNL     1      22.678  37.051  12.413  1.00  0.00     0.180 C 
ATOM     21  C   UNL     1      22.665  36.160  13.593  1.00  0.00     0.202 C 
BRANCH  17  22
ATOM     22  C   UNL     1      20.082  34.952  10.655  1.00  0.00     0.191 C 
BRANCH  22  23
ATOM     23  O   UNL     1      21.022  34.886   9.635  1.00  0.00    -0.394 OA
ATOM     24  H   UNL     1      20.729  34.293   8.898  1.00  0.00     0.210 HD
ENDBRANCH  22  23
ENDBRANCH  17  22
BRANCH  19  25
ATOM     25  O   UNL     1      22.716  34.105  12.353  1.00  0.00    -0.350 OA
BRANCH  25  26
ATOM     26  C   UNL     1      22.822  32.797  12.809  1.00  0.00     0.169 C 
BRANCH  26  27
ATOM     27  C   UNL     1      23.818  32.784  13.964  1.00  0.00     0.119 C 
BRANCH  27  28
ATOM     28  N   UNL     1      25.132  33.005  13.427  1.00  0.00    -0.092 NA
ATOM     29  N   UNL     1      25.738  34.089  13.580  1.00  0.00     0.001 N 
ATOM     30  N   UNL     1      26.117  35.206  13.190  1.00  0.00    -0.003 NA
ENDBRANCH  27  28
ENDBRANCH  26  27
ENDBRANCH  25  26
ENDBRANCH  19  25
BRANCH  20  31
ATOM     31  O   UNL     1      23.970  37.032  11.879  1.00  0.00    -0.387 OA
ATOM     32  H   UNL     1      24.437  36.223  12.191  1.00  0.00     0.211 HD
ENDBRANCH  20  31
BRANCH  21  33
ATOM     33  O   UNL     1      22.066  36.710  14.720  1.00  0.00    -0.385 OA
ATOM     34  H   UNL     1      22.762  36.616  15.447  1.00  0.00     0.211 HD
ENDBRANCH  21  33
ENDBRANCH  15  16
ENDBRANCH  10  15
BRANCH  12  35
ATOM     35  O   UNL     1      22.092  40.590  10.789  1.00  0.00    -0.385 OA
ATOM     36  H   UNL     1      22.304  40.457  11.732  1.00  0.00     0.211 HD
ENDBRANCH  12  35
BRANCH  13  37
ATOM     37  O   UNL     1      24.094  41.003   8.726  1.00  0.00    -0.387 OA
ATOM     38  H   UNL     1      24.833  40.826   8.109  1.00  0.00     0.211 HD
ENDBRANCH  13  37
BRANCH  14  39
ATOM     39  O   UNL     1      24.409  39.253   6.980  1.00  0.00    -0.387 OA
ATOM     40  H   UNL     1      24.686  38.321   6.742  1.00  0.00     0.211 HD
ENDBRANCH  14  39
ENDBRANCH   8   9
ENDBRANCH   7   8
ENDBRANCH   1   7
BRANCH   1  41
ATOM     41  C   UNL     1      26.606  35.360   9.083  1.00  0.00     0.364 C 
ATOM     42  O   UNL     1      27.140  34.671   8.180  1.00  0.00    -0.246 OA
BRANCH  41  43
ATOM     43  O   UNL     1      26.242  34.718  10.250  1.00  0.00    -0.477 OA
ATOM     44  H   UNL     1      26.964  34.267  10.790  1.00  0.00     0.296 HD
ENDBRANCH  41  43
ENDBRANCH   1  41
BRANCH   3  45
ATOM     45  O   UNL     1      25.731  39.353  10.632  1.00  0.00    -0.391 OA
ATOM     46  H   UNL     1      25.138  38.568  10.692  1.00  0.00     0.211 HD
ENDBRANCH   3  45
BRANCH   5  47
ATOM     47  C   UNL     1      28.521  38.757   6.694  1.00  0.00     0.176 C 
BRANCH  47  48
ATOM     48  O   UNL     1      29.619  38.033   6.278  1.00  0.00    -0.388 OA
ATOM     49  H   UNL     1      30.472  38.380   6.641  1.00  0.00     0.211 HD
ENDBRANCH  47  48
BRANCH  47  50
ATOM     50  C   UNL     1      27.461  38.741   5.617  1.00  0.00     0.165 C 
BRANCH  50  51
ATOM     51  O   UNL     1      27.499  37.519   4.912  1.00  0.00    -0.388 OA
ATOM     52  H   UNL     1      26.999  36.816   5.418  1.00  0.00     0.211 HD
ENDBRANCH  50  51
BRANCH  50  53
ATOM     53  C   UNL     1      27.618  39.890   4.653  1.00  0.00     0.154 C 
BRANCH  53  54
ATOM     54  N   UNL     1      28.999  40.279   4.499  1.00  0.00    -0.319 N 
ATOM     55  C   UNL     1      29.326  41.643   4.283  1.00  0.00     0.407 C 
ATOM     56  H   UNL     1      29.779  39.594   4.538  1.00  0.00     0.167 HD
ATOM     57  O   UNL     1      28.387  42.491   4.229  1.00  0.00    -0.225 OA
BRANCH  55  58
ATOM     58  O   UNL     1      30.617  42.119   4.127  1.00  0.00    -0.443 OA
BRANCH  58  59
ATOM     59  C   UNL     1      31.402  42.552   5.212  1.00  0.00     0.294 C 
BRANCH  59  60
ATOM     60  C   UNL     1      31.576  41.423   6.164  1.00  0.00     0.121 A 
ATOM     61  C   UNL     1      31.269  41.446   7.530  1.00  0.00     0.144 A 
ATOM     62  N   UNL     1      32.047  40.182   5.954  1.00  0.00    -0.131 NA
ATOM     63  N   UNL     1      31.564  40.239   8.072  1.00  0.00    -0.220 N 
ATOM     64  N   UNL     1      32.028  39.501   7.109  1.00  0.00    -0.062 NA
BRANCH  63  65
ATOM     65  C   UNL     1      31.399  39.854   9.441  1.00  0.00     0.066 A 
ATOM     66  C   UNL     1      31.276  40.796  10.437  1.00  0.00     0.030 A 
ATOM     67  C   UNL     1      31.357  38.526   9.805  1.00  0.00     0.030 A 
ATOM     68  C   UNL     1      31.114  40.417  11.768  1.00  0.00     0.024 A 
ATOM     69  C   UNL     1      31.195  38.137  11.133  1.00  0.00     0.024 A 
ATOM     70  C   UNL     1      31.072  39.085  12.129  1.00  0.00     0.082 A 
BRANCH  70  71
ATOM     71  S   UNL     1      30.864  38.639  13.822  1.00  0.00     0.238 S 
ATOM     72  O   UNL     1      29.448  38.193  14.093  1.00  0.00    -0.207 OA
ATOM     73  O   UNL     1      31.764  37.495  14.175  1.00  0.00    -0.207 OA
BRANCH  71  74
ATOM     74  N   UNL     1      31.243  39.974  14.864  1.00  0.00    -0.225 NA
ATOM     75  H   UNL     1      30.415  40.635  14.842  1.00  0.00     0.137 HD
ATOM     76  H   UNL     1      32.116  40.472  14.569  1.00  0.00     0.137 HD
ENDBRANCH  71  74
ENDBRANCH  70  71
ENDBRANCH  63  65
ENDBRANCH  59  60
ENDBRANCH  58  59
ENDBRANCH  55  58
ENDBRANCH  53  54
ENDBRANCH  50  53
ENDBRANCH  47  50
ENDBRANCH   5  47
BRANCH   4  77
ATOM     77  N   UNL     1      27.947  40.669   8.617  1.00  0.00    -0.348 N 
ATOM     78  C   UNL     1      27.421  41.774   7.914  1.00  0.00     0.217 C 
ATOM     79  H   UNL     1      28.876  40.760   9.066  1.00  0.00     0.163 HD
ATOM     80  C   UNL     1      28.224  43.020   7.845  1.00  0.00     0.114 C 
ATOM     81  O   UNL     1      26.305  41.750   7.345  1.00  0.00    -0.275 OA
ENDBRANCH   4  77
TORSDOF 32
BEGIN_RES LYS A 131
REMARK  4 active torsions:
REMARK  status: ('A' for Active; 'I' for Inactive)
REMARK    1  A    between atoms: CA   and  CB  
REMARK    2  A    between atoms: CB   and  CG  
REMARK    3  A    between atoms: CG   and  CD  
REMARK    4  A    between atoms: CD   and  CE  
ROOT
ATOM      1  CA  LYS A 131      29.867  25.555  16.977  1.00 20.52     0.186 C 
ENDROOT
BRANCH   1   2
ATOM      2  CB  LYS A 131      28.345  25.722  17.026  1.00 20.94     0.034 C 
BRANCH   2   3
ATOM      3  CG  LYS A 131      27.602  24.398  16.934  1.00 22.96     0.005 C 
BRANCH   3   4
ATOM      4  CD  LYS A 131      26.629  24.214  18.065  1.00 24.33     0.041 C 
BRANCH   4   5
ATOM      5  CE  LYS A 131      26.285  25.573  18.666  1.00 26.91     0.338 C 
ATOM      6  NZ  LYS A 131      24.912  25.977  18.283  1.00 27.40     0.618 N 
ENDBRANCH   4   5
ENDBRANCH   3   4
ENDBRANCH   2   3
ENDBRANCH   1   2
END_RES LYS A 131
BEGIN_RES LYS A 135
REMARK  4 active torsions:
REMARK  status: ('A' for Active; 'I' for Inactive)
REMARK    5  A    between atoms: CA   and  CB  
REMARK    6  A    between atoms: CB   and  CG  
REMARK    7  A    between atoms: CG   and  CD  
REMARK    8  A    between atoms: CD   and  CE  
ROOT
ATOM      7  CA  LYS A 135      33.193  34.663   9.290  1.00 25.02     0.186 C 
ENDROOT
BRANCH   7   8
ATOM      8  CB  LYS A 135      32.060  35.360  10.034  1.00 26.63     0.034 C 
BRANCH   8   9
ATOM      9  CG  LYS A 135      30.689  34.889   9.622  1.00 29.45     0.005 C 
BRANCH   9  10
ATOM     10  CD  LYS A 135      29.760  34.826  10.824  1.00 32.00     0.041 C 
BRANCH  10  11
ATOM     11  CE  LYS A 135      30.558  34.787  12.113  1.00 34.25     0.338 C 
ATOM     12  NZ  LYS A 135      29.676  34.511  13.281  1.00 35.99     0.618 N 
ENDBRANCH  10  11
ENDBRANCH   9  10
ENDBRANCH   8   9
ENDBRANCH   7   8
END_RES LYS A 135
