REMARK VINA RESULT:    -5.000      2.776      6.326
REMARK INTER + INTRA:         -24.212
REMARK INTER:                 -11.894
REMARK INTRA:                 -12.318
REMARK UNBOUND:               -11.174
REMARK SMILES CC(=O)N[C@@H]1[C@@H](O)C[C@](OC[C@H]2O[C@@H](O[C@H]3[C@H](O)[C@@H](O)[C@H](OCCN=[N+]=[N-])O[C@@H]3CO)[C@H](O)[C@@H](O)[C@H]2O)(C(=O)O)O[C@H]1C(O)[C@H](O)CNC(=O)OCc1cn(-c2cc(C(=O)O)nc(-c3ccccc3)c2)nn1
REMARK SMILES IDX 9 1 8 2 6 3 5 4 42 5 41 6 10 7 11 8 12 9 14 10 13 11 32 12
REMARK SMILES IDX 34 13 36 14 15 15 16 16 29 17 28 18 21 19 17 20 19 21 30 22
REMARK SMILES IDX 31 23 22 25 23 26 24 27 25 28 26 29 27 30 18 31 20 33 33 35
REMARK SMILES IDX 35 37 37 39 38 41 39 42 40 43 7 45 43 47 44 48 45 50 46 51
REMARK SMILES IDX 47 53 48 54 49 55 50 57 51 58 52 59 53 60 54 61 72 62 55 63
REMARK SMILES IDX 71 64 56 65 57 66 70 67 58 68 63 69 62 70 59 71 60 72 61 73
REMARK SMILES IDX 64 75 65 76 69 77 66 78 68 79 67 80 4 81 2 82 1 84 3 85
REMARK H PARENT 31 24 18 32 20 34 33 36 35 38 37 40 40 44 7 46 44 49 46 52
REMARK H PARENT 48 56 61 74 4 83
REMARK Flexibility Score: inf
ROOT
ATOM      1  C   UNL     1      27.065  35.918  13.917  1.00  0.00     0.272 C 
ATOM      2  C   UNL     1      26.218  37.203  14.012  1.00  0.00     0.113 C 
ATOM      3  C   UNL     1      25.340  37.263  15.208  1.00  0.00     0.145 C 
ATOM      4  C   UNL     1      24.672  35.932  15.534  1.00  0.00     0.142 C 
ATOM      5  C   UNL     1      25.037  35.028  14.353  1.00  0.00     0.178 C 
ATOM      6  O   UNL     1      26.395  34.820  14.454  1.00  0.00    -0.332 OA
ENDROOT
BRANCH   1   7
ATOM      7  O   UNL     1      28.180  36.170  14.651  1.00  0.00    -0.338 OA
BRANCH   7   8
ATOM      8  C   UNL     1      29.317  36.576  14.030  1.00  0.00     0.199 C 
BRANCH   8   9
ATOM      9  C   UNL     1      30.564  36.101  14.817  1.00  0.00     0.179 C 
ATOM     10  C   UNL     1      31.074  34.985  16.808  1.00  0.00     0.282 C 
ATOM     11  O   UNL     1      30.134  35.537  15.976  1.00  0.00    -0.341 OA
ATOM     12  C   UNL     1      32.386  34.869  16.056  1.00  0.00     0.202 C 
ATOM     13  C   UNL     1      32.230  34.275  14.677  1.00  0.00     0.179 C 
ATOM     14  C   UNL     1      31.183  35.028  13.936  1.00  0.00     0.177 C 
BRANCH  10  15
ATOM     15  O   UNL     1      30.608  33.747  17.209  1.00  0.00    -0.341 OA
BRANCH  15  16
ATOM     16  C   UNL     1      29.249  33.548  17.035  1.00  0.00     0.184 C 
ATOM     17  C   UNL     1      28.513  33.309  18.302  1.00  0.00     0.178 C 
ATOM     18  O   UNL     1      27.914  32.061  18.327  1.00  0.00    -0.341 OA
ATOM     19  C   UNL     1      28.809  31.037  18.024  1.00  0.00     0.281 C 
ATOM     20  C   UNL     1      29.080  32.469  16.005  1.00  0.00     0.180 C 
ATOM     21  C   UNL     1      29.014  31.077  16.526  1.00  0.00     0.202 C 
BRANCH  17  22
ATOM     22  C   UNL     1      27.405  34.332  18.443  1.00  0.00     0.191 C 
BRANCH  22  23
ATOM     23  O   UNL     1      27.357  35.204  17.371  1.00  0.00    -0.394 OA
ATOM     24  H   UNL     1      26.605  35.841  17.498  1.00  0.00     0.210 HD
ENDBRANCH  22  23
ENDBRANCH  17  22
BRANCH  19  25
ATOM     25  O   UNL     1      28.188  29.845  18.367  1.00  0.00    -0.350 OA
BRANCH  25  26
ATOM     26  C   UNL     1      27.268  29.439  17.398  1.00  0.00     0.169 C 
BRANCH  26  27
ATOM     27  C   UNL     1      25.998  28.950  18.048  1.00  0.00     0.119 C 
BRANCH  27  28
ATOM     28  N   UNL     1      25.019  28.661  17.025  1.00  0.00    -0.092 NA
ATOM     29  N   UNL     1      24.886  29.452  16.101  1.00  0.00     0.001 N 
ATOM     30  N   UNL     1      24.714  29.903  14.957  1.00  0.00    -0.003 NA
ENDBRANCH  27  28
ENDBRANCH  26  27
ENDBRANCH  25  26
ENDBRANCH  19  25
BRANCH  20  31
ATOM     31  O   UNL     1      27.852  32.718  15.348  1.00  0.00    -0.387 OA
ATOM     32  H   UNL     1      27.412  31.865  15.104  1.00  0.00     0.211 HD
ENDBRANCH  20  31
BRANCH  21  33
ATOM     33  O   UNL     1      30.197  30.407  16.152  1.00  0.00    -0.385 OA
ATOM     34  H   UNL     1      30.423  29.680  16.795  1.00  0.00     0.211 HD
ENDBRANCH  21  33
ENDBRANCH  15  16
ENDBRANCH  10  15
BRANCH  12  35
ATOM     35  O   UNL     1      33.059  36.078  15.934  1.00  0.00    -0.385 OA
ATOM     36  H   UNL     1      33.823  35.890  15.319  1.00  0.00     0.211 HD
ENDBRANCH  12  35
BRANCH  13  37
ATOM     37  O   UNL     1      31.912  32.928  14.854  1.00  0.00    -0.387 OA
ATOM     38  H   UNL     1      32.356  32.635  15.691  1.00  0.00     0.211 HD
ENDBRANCH  13  37
BRANCH  14  39
ATOM     39  O   UNL     1      30.172  34.102  13.607  1.00  0.00    -0.387 OA
ATOM     40  H   UNL     1      29.283  34.423  13.828  1.00  0.00     0.211 HD
ENDBRANCH  14  39
ENDBRANCH   8   9
ENDBRANCH   7   8
ENDBRANCH   1   7
BRANCH   1  41
ATOM     41  C   UNL     1      27.298  35.620  12.482  1.00  0.00     0.364 C 
ATOM     42  O   UNL     1      27.884  34.571  12.097  1.00  0.00    -0.246 OA
BRANCH  41  43
ATOM     43  O   UNL     1      26.871  36.495  11.509  1.00  0.00    -0.477 OA
ATOM     44  H   UNL     1      26.533  37.445  11.706  1.00  0.00     0.296 HD
ENDBRANCH  41  43
ENDBRANCH   1  41
BRANCH   3  45
ATOM     45  O   UNL     1      25.936  37.843  16.306  1.00  0.00    -0.391 OA
ATOM     46  H   UNL     1      26.239  38.743  16.070  1.00  0.00     0.211 HD
ENDBRANCH   3  45
BRANCH   5  47
ATOM     47  C   UNL     1      24.189  33.819  14.238  1.00  0.00     0.176 C 
BRANCH  47  48
ATOM     48  O   UNL     1      24.750  32.796  15.035  1.00  0.00    -0.388 OA
ATOM     49  H   UNL     1      24.317  32.802  15.946  1.00  0.00     0.211 HD
ENDBRANCH  47  48
BRANCH  47  50
ATOM     50  C   UNL     1      23.948  33.310  12.844  1.00  0.00     0.165 C 
BRANCH  50  51
ATOM     51  O   UNL     1      24.623  34.101  11.936  1.00  0.00    -0.388 OA
ATOM     52  H   UNL     1      24.066  34.848  11.592  1.00  0.00     0.211 HD
ENDBRANCH  50  51
BRANCH  50  53
ATOM     53  C   UNL     1      22.456  33.338  12.622  1.00  0.00     0.154 C 
BRANCH  53  54
ATOM     54  N   UNL     1      21.985  34.227  11.623  1.00  0.00    -0.319 N 
ATOM     55  C   UNL     1      21.574  35.550  11.931  1.00  0.00     0.407 C 
ATOM     56  H   UNL     1      21.928  33.929  10.619  1.00  0.00     0.167 HD
ATOM     57  O   UNL     1      21.606  35.940  13.113  1.00  0.00    -0.225 OA
BRANCH  55  58
ATOM     58  O   UNL     1      21.133  36.425  10.919  1.00  0.00    -0.443 OA
BRANCH  58  59
ATOM     59  C   UNL     1      21.437  36.115   9.583  1.00  0.00     0.294 C 
BRANCH  59  60
ATOM     60  C   UNL     1      22.890  36.239   9.319  1.00  0.00     0.121 A 
ATOM     61  C   UNL     1      23.625  37.323   8.899  1.00  0.00     0.144 A 
ATOM     62  N   UNL     1      23.817  35.242   9.419  1.00  0.00    -0.131 NA
ATOM     63  N   UNL     1      24.926  36.991   8.753  1.00  0.00    -0.220 N 
ATOM     64  N   UNL     1      25.003  35.702   9.083  1.00  0.00    -0.062 NA
BRANCH  63  65
ATOM     65  C   UNL     1      25.974  37.836   8.309  1.00  0.00     0.071 A 
ATOM     66  C   UNL     1      25.681  38.742   7.302  1.00  0.00     0.064 A 
ATOM     67  C   UNL     1      27.260  37.842   8.810  1.00  0.00     0.057 A 
ATOM     68  C   UNL     1      26.671  39.595   6.852  1.00  0.00     0.151 A 
ATOM     69  C   UNL     1      28.228  38.685   8.363  1.00  0.00     0.073 A 
ATOM     70  N   UNL     1      27.911  39.553   7.382  1.00  0.00    -0.241 NA
BRANCH  68  71
ATOM     71  C   UNL     1      26.393  40.560   5.797  1.00  0.00     0.354 C 
ATOM     72  O   UNL     1      27.236  41.468   5.590  1.00  0.00    -0.245 OA
BRANCH  71  73
ATOM     73  O   UNL     1      25.264  40.536   5.013  1.00  0.00    -0.477 OA
ATOM     74  H   UNL     1      24.327  40.749   5.378  1.00  0.00     0.297 HD
ENDBRANCH  71  73
ENDBRANCH  68  71
BRANCH  69  75
ATOM     75  C   UNL     1      29.579  38.679   8.911  1.00  0.00     0.000 A 
ATOM     76  C   UNL     1      29.740  38.306  10.244  1.00  0.00     0.010 A 
ATOM     77  C   UNL     1      30.692  39.017   8.198  1.00  0.00     0.010 A 
ATOM     78  C   UNL     1      30.971  38.270  10.842  1.00  0.00     0.001 A 
ATOM     79  C   UNL     1      31.932  38.977   8.813  1.00  0.00     0.001 A 
ATOM     80  C   UNL     1      32.098  38.612  10.117  1.00  0.00     0.000 A 
ENDBRANCH  69  75
ENDBRANCH  63  65
ENDBRANCH  59  60
ENDBRANCH  58  59
ENDBRANCH  55  58
ENDBRANCH  53  54
ENDBRANCH  50  53
ENDBRANCH  47  50
ENDBRANCH   5  47
BRANCH   4  81
ATOM     81  N   UNL     1      23.266  36.068  15.732  1.00  0.00    -0.348 N 
ATOM     82  C   UNL     1      22.710  35.898  17.026  1.00  0.00     0.217 C 
ATOM     83  H   UNL     1      22.659  36.292  14.911  1.00  0.00     0.163 HD
ATOM     84  C   UNL     1      21.254  36.028  17.292  1.00  0.00     0.114 C 
ATOM     85  O   UNL     1      23.458  35.624  18.024  1.00  0.00    -0.275 OA
ENDBRANCH   4  81
TORSDOF 33
BEGIN_RES LYS A 131
REMARK  4 active torsions:
REMARK  status: ('A' for Active; 'I' for Inactive)
REMARK    1  A    between atoms: CA   and  CB  
REMARK    2  A    between atoms: CB   and  CG  
REMARK    3  A    between atoms: CG   and  CD  
REMARK    4  A    between atoms: CD   and  CE  
ROOT
ATOM      1  CA  LYS A 131      29.867  25.555  16.977  1.00 20.52     0.186 C 
ENDROOT
BRANCH   1   2
ATOM      2  CB  LYS A 131      28.345  25.722  17.026  1.00 20.94     0.034 C 
BRANCH   2   3
ATOM      3  CG  LYS A 131      27.602  24.399  16.923  1.00 22.96     0.005 C 
BRANCH   3   4
ATOM      4  CD  LYS A 131      26.155  24.530  17.312  1.00 24.33     0.041 C 
BRANCH   4   5
ATOM      5  CE  LYS A 131      25.894  23.724  18.581  1.00 26.91     0.338 C 
ATOM      6  NZ  LYS A 131      25.516  24.623  19.697  1.00 27.40     0.618 N 
ENDBRANCH   4   5
ENDBRANCH   3   4
ENDBRANCH   2   3
ENDBRANCH   1   2
END_RES LYS A 131
BEGIN_RES LYS A 135
REMARK  4 active torsions:
REMARK  status: ('A' for Active; 'I' for Inactive)
REMARK    5  A    between atoms: CA   and  CB  
REMARK    6  A    between atoms: CB   and  CG  
REMARK    7  A    between atoms: CG   and  CD  
REMARK    8  A    between atoms: CD   and  CE  
ROOT
ATOM      7  CA  LYS A 135      33.193  34.663   9.290  1.00 25.02     0.186 C 
ENDROOT
BRANCH   7   8
ATOM      8  CB  LYS A 135      32.060  35.360  10.034  1.00 26.63     0.034 C 
BRANCH   8   9
ATOM      9  CG  LYS A 135      30.695  34.817   9.698  1.00 29.45     0.005 C 
BRANCH   9  10
ATOM     10  CD  LYS A 135      30.591  34.506   8.213  1.00 32.00     0.041 C 
BRANCH  10  11
ATOM     11  CE  LYS A 135      29.290  35.040   7.647  1.00 34.25     0.338 C 
ATOM     12  NZ  LYS A 135      28.118  34.472   8.369  1.00 35.99     0.618 N 
ENDBRANCH  10  11
ENDBRANCH   9  10
ENDBRANCH   8   9
ENDBRANCH   7   8
END_RES LYS A 135
