REMARK VINA RESULT:    -5.111      3.726      9.243
REMARK INTER + INTRA:         -22.732
REMARK INTER:                 -12.880
REMARK INTRA:                  -9.852
REMARK UNBOUND:                -9.852
REMARK SMILES CC(=O)N[C@@H]1[C@@H](O)C[C@](OC[C@H]2O[C@@H](O[C@H]3[C@H](O)[C@@H](O)[C@H](OCCN=[N+]=[N-])O[C@@H]3CO)[C@H](O)[C@@H](O)[C@H]2O)(C(=O)O)O[C@H]1C(O)[C@H](O)CNC(=O)OCc1cn(Cc2ccc3c(c2)OCO3)nn1
REMARK SMILES IDX 9 1 8 2 6 3 5 4 42 5 41 6 10 7 11 8 12 9 14 10 13 11 32 12
REMARK SMILES IDX 34 13 36 14 15 15 16 16 29 17 28 18 21 19 17 20 19 21 30 22
REMARK SMILES IDX 31 23 22 25 23 26 24 27 25 28 26 29 27 30 18 31 20 33 33 35
REMARK SMILES IDX 35 37 37 39 38 41 39 42 40 43 7 45 43 47 44 48 45 50 46 51
REMARK SMILES IDX 47 53 48 54 49 55 50 57 51 58 52 59 53 60 54 61 67 62 55 63
REMARK SMILES IDX 66 64 56 65 57 66 58 67 62 68 59 69 61 70 60 71 63 72 65 73
REMARK SMILES IDX 64 74 4 75 2 76 1 78 3 79
REMARK H PARENT 31 24 18 32 20 34 33 36 35 38 37 40 40 44 7 46 44 49 46 52
REMARK H PARENT 48 56 4 77
REMARK Flexibility Score: inf
ROOT
ATOM      1  C   UNL     1      27.225  38.185   7.366  1.00  0.00     0.272 C 
ATOM      2  C   UNL     1      27.892  39.397   7.985  1.00  0.00     0.113 C 
ATOM      3  C   UNL     1      26.920  40.092   8.891  1.00  0.00     0.145 C 
ATOM      4  C   UNL     1      25.754  40.572   7.987  1.00  0.00     0.142 C 
ATOM      5  C   UNL     1      25.248  39.384   7.252  1.00  0.00     0.178 C 
ATOM      6  O   UNL     1      25.871  38.186   7.595  1.00  0.00    -0.332 OA
ENDROOT
BRANCH   1   7
ATOM      7  O   UNL     1      27.825  37.003   7.830  1.00  0.00    -0.338 OA
BRANCH   7   8
ATOM      8  C   UNL     1      27.000  35.970   8.122  1.00  0.00     0.199 C 
BRANCH   8   9
ATOM      9  C   UNL     1      27.160  35.623   9.611  1.00  0.00     0.179 C 
ATOM     10  C   UNL     1      27.763  36.515  11.643  1.00  0.00     0.282 C 
ATOM     11  O   UNL     1      27.783  36.657  10.256  1.00  0.00    -0.341 OA
ATOM     12  C   UNL     1      26.311  36.633  12.115  1.00  0.00     0.202 C 
ATOM     13  C   UNL     1      25.314  36.166  11.118  1.00  0.00     0.179 C 
ATOM     14  C   UNL     1      25.892  35.132  10.212  1.00  0.00     0.177 C 
BRANCH  10  15
ATOM     15  O   UNL     1      28.439  37.526  12.202  1.00  0.00    -0.341 OA
BRANCH  15  16
ATOM     16  C   UNL     1      29.534  37.302  12.982  1.00  0.00     0.184 C 
ATOM     17  C   UNL     1      29.805  35.852  13.270  1.00  0.00     0.178 C 
ATOM     18  O   UNL     1      29.665  35.531  14.580  1.00  0.00    -0.341 OA
ATOM     19  C   UNL     1      30.524  36.201  15.475  1.00  0.00     0.281 C 
ATOM     20  C   UNL     1      29.390  38.075  14.266  1.00  0.00     0.180 C 
ATOM     21  C   UNL     1      30.533  37.684  15.180  1.00  0.00     0.202 C 
BRANCH  17  22
ATOM     22  C   UNL     1      31.197  35.510  12.799  1.00  0.00     0.191 C 
BRANCH  22  23
ATOM     23  O   UNL     1      31.210  34.228  12.188  1.00  0.00    -0.394 OA
ATOM     24  H   UNL     1      31.895  34.157  11.484  1.00  0.00     0.210 HD
ENDBRANCH  22  23
ENDBRANCH  17  22
BRANCH  19  25
ATOM     25  O   UNL     1      31.750  35.619  15.522  1.00  0.00    -0.350 OA
BRANCH  25  26
ATOM     26  C   UNL     1      32.207  34.938  16.571  1.00  0.00     0.169 C 
BRANCH  26  27
ATOM     27  C   UNL     1      31.619  33.582  16.801  1.00  0.00     0.119 C 
BRANCH  27  28
ATOM     28  N   UNL     1      31.454  32.764  15.652  1.00  0.00    -0.092 NA
ATOM     29  N   UNL     1      30.398  32.229  15.326  1.00  0.00     0.001 N 
ATOM     30  N   UNL     1      29.416  31.467  15.376  1.00  0.00    -0.003 NA
ENDBRANCH  27  28
ENDBRANCH  26  27
ENDBRANCH  25  26
ENDBRANCH  19  25
BRANCH  20  31
ATOM     31  O   UNL     1      29.500  39.431  13.967  1.00  0.00    -0.387 OA
ATOM     32  H   UNL     1      30.335  39.819  14.337  1.00  0.00     0.211 HD
ENDBRANCH  20  31
BRANCH  21  33
ATOM     33  O   UNL     1      30.360  38.416  16.351  1.00  0.00    -0.385 OA
ATOM     34  H   UNL     1      31.127  39.034  16.485  1.00  0.00     0.211 HD
ENDBRANCH  21  33
ENDBRANCH  15  16
ENDBRANCH  10  15
BRANCH  12  35
ATOM     35  O   UNL     1      26.147  35.972  13.331  1.00  0.00    -0.385 OA
ATOM     36  H   UNL     1      25.979  35.026  13.190  1.00  0.00     0.211 HD
ENDBRANCH  12  35
BRANCH  13  37
ATOM     37  O   UNL     1      24.708  37.195  10.414  1.00  0.00    -0.387 OA
ATOM     38  H   UNL     1      23.787  37.317  10.761  1.00  0.00     0.211 HD
ENDBRANCH  13  37
BRANCH  14  39
ATOM     39  O   UNL     1      24.935  34.843   9.229  1.00  0.00    -0.387 OA
ATOM     40  H   UNL     1      24.570  33.955   9.409  1.00  0.00     0.211 HD
ENDBRANCH  14  39
ENDBRANCH   8   9
ENDBRANCH   7   8
ENDBRANCH   1   7
BRANCH   1  41
ATOM     41  C   UNL     1      27.481  38.183   5.914  1.00  0.00     0.364 C 
ATOM     42  O   UNL     1      28.096  39.085   5.332  1.00  0.00    -0.246 OA
BRANCH  41  43
ATOM     43  O   UNL     1      27.031  37.137   5.103  1.00  0.00    -0.477 OA
ATOM     44  H   UNL     1      26.513  36.345   5.519  1.00  0.00     0.296 HD
ENDBRANCH  41  43
ENDBRANCH   1  41
BRANCH   3  45
ATOM     45  O   UNL     1      26.342  39.333   9.866  1.00  0.00    -0.391 OA
ATOM     46  H   UNL     1      26.901  38.580  10.182  1.00  0.00     0.211 HD
ENDBRANCH   3  45
BRANCH   5  47
ATOM     47  C   UNL     1      23.767  39.121   7.617  1.00  0.00     0.176 C 
BRANCH  47  48
ATOM     48  O   UNL     1      23.497  37.801   7.814  1.00  0.00    -0.388 OA
ATOM     49  H   UNL     1      23.764  37.533   8.724  1.00  0.00     0.211 HD
ENDBRANCH  47  48
BRANCH  47  50
ATOM     50  C   UNL     1      23.192  40.018   8.623  1.00  0.00     0.165 C 
BRANCH  50  51
ATOM     51  O   UNL     1      23.225  39.542   9.941  1.00  0.00    -0.388 OA
ATOM     52  H   UNL     1      24.159  39.362  10.224  1.00  0.00     0.211 HD
ENDBRANCH  50  51
BRANCH  50  53
ATOM     53  C   UNL     1      21.799  40.523   8.366  1.00  0.00     0.154 C 
BRANCH  53  54
ATOM     54  N   UNL     1      20.980  39.365   7.969  1.00  0.00    -0.319 N 
ATOM     55  C   UNL     1      20.099  38.720   8.884  1.00  0.00     0.407 C 
ATOM     56  H   UNL     1      21.061  39.028   7.003  1.00  0.00     0.167 HD
ATOM     57  O   UNL     1      20.046  39.184  10.053  1.00  0.00    -0.225 OA
BRANCH  55  58
ATOM     58  O   UNL     1      19.323  37.638   8.543  1.00  0.00    -0.443 OA
BRANCH  58  59
ATOM     59  C   UNL     1      19.909  36.421   8.147  1.00  0.00     0.294 C 
BRANCH  59  60
ATOM     60  C   UNL     1      20.641  35.851   9.302  1.00  0.00     0.120 A 
ATOM     61  C   UNL     1      20.115  35.298  10.465  1.00  0.00     0.138 A 
ATOM     62  N   UNL     1      21.977  35.765   9.460  1.00  0.00    -0.132 NA
ATOM     63  N   UNL     1      21.128  34.906  11.260  1.00  0.00    -0.248 N 
ATOM     64  N   UNL     1      22.238  35.200  10.632  1.00  0.00    -0.067 NA
BRANCH  63  65
ATOM     65  C   UNL     1      20.990  34.285  12.544  1.00  0.00     0.181 C 
BRANCH  65  66
ATOM     66  C   UNL     1      21.211  32.820  12.538  1.00  0.00    -0.023 A 
ATOM     67  C   UNL     1      20.172  31.973  12.309  1.00  0.00     0.010 A 
ATOM     68  C   UNL     1      22.490  32.302  12.772  1.00  0.00     0.056 A 
ATOM     69  C   UNL     1      20.398  30.620  12.311  1.00  0.00     0.051 A 
ATOM     70  C   UNL     1      22.729  30.955  12.777  1.00  0.00     0.166 A 
ATOM     71  C   UNL     1      21.651  30.121  12.541  1.00  0.00     0.165 A 
ATOM     72  O   UNL     1      23.825  30.135  12.966  1.00  0.00    -0.454 OA
ATOM     73  O   UNL     1      22.089  28.790  12.586  1.00  0.00    -0.454 OA
ATOM     74  C   UNL     1      23.496  28.835  12.482  1.00  0.00     0.468 C 
ENDBRANCH  65  66
ENDBRANCH  63  65
ENDBRANCH  59  60
ENDBRANCH  58  59
ENDBRANCH  55  58
ENDBRANCH  53  54
ENDBRANCH  50  53
ENDBRANCH  47  50
ENDBRANCH   5  47
BRANCH   4  75
ATOM     75  N   UNL     1      26.334  41.608   7.181  1.00  0.00    -0.348 N 
ATOM     76  C   UNL     1      26.025  42.972   7.505  1.00  0.00     0.217 C 
ATOM     77  H   UNL     1      26.969  41.492   6.371  1.00  0.00     0.163 HD
ATOM     78  C   UNL     1      26.615  44.077   6.675  1.00  0.00     0.114 C 
ATOM     79  O   UNL     1      25.271  43.239   8.470  1.00  0.00    -0.275 OA
ENDBRANCH   4  75
TORSDOF 31
BEGIN_RES LYS A 131
REMARK  4 active torsions:
REMARK  status: ('A' for Active; 'I' for Inactive)
REMARK    1  A    between atoms: CA   and  CB  
REMARK    2  A    between atoms: CB   and  CG  
REMARK    3  A    between atoms: CG   and  CD  
REMARK    4  A    between atoms: CD   and  CE  
ROOT
ATOM      1  CA  LYS A 131      29.867  25.555  16.977  1.00 20.52     0.186 C 
ENDROOT
BRANCH   1   2
ATOM      2  CB  LYS A 131      28.345  25.722  17.026  1.00 20.94     0.034 C 
BRANCH   2   3
ATOM      3  CG  LYS A 131      27.602  24.399  16.928  1.00 22.96     0.005 C 
BRANCH   3   4
ATOM      4  CD  LYS A 131      26.226  24.475  17.530  1.00 24.33     0.041 C 
BRANCH   4   5
ATOM      5  CE  LYS A 131      26.014  25.857  18.141  1.00 26.91     0.338 C 
ATOM      6  NZ  LYS A 131      24.710  26.418  17.715  1.00 27.40     0.618 N 
ENDBRANCH   4   5
ENDBRANCH   3   4
ENDBRANCH   2   3
ENDBRANCH   1   2
END_RES LYS A 131
BEGIN_RES LYS A 135
REMARK  4 active torsions:
REMARK  status: ('A' for Active; 'I' for Inactive)
REMARK    5  A    between atoms: CA   and  CB  
REMARK    6  A    between atoms: CB   and  CG  
REMARK    7  A    between atoms: CG   and  CD  
REMARK    8  A    between atoms: CD   and  CE  
ROOT
ATOM      7  CA  LYS A 135      33.193  34.663   9.290  1.00 25.02     0.186 C 
ENDROOT
BRANCH   7   8
ATOM      8  CB  LYS A 135      32.060  35.360  10.034  1.00 26.63     0.034 C 
BRANCH   8   9
ATOM      9  CG  LYS A 135      30.883  35.702   9.157  1.00 29.45     0.005 C 
BRANCH   9  10
ATOM     10  CD  LYS A 135      30.767  37.207   8.977  1.00 32.00     0.041 C 
BRANCH  10  11
ATOM     11  CE  LYS A 135      31.524  37.934  10.072  1.00 34.25     0.338 C 
ATOM     12  NZ  LYS A 135      30.944  39.284  10.320  1.00 35.99     0.618 N 
ENDBRANCH  10  11
ENDBRANCH   9  10
ENDBRANCH   8   9
ENDBRANCH   7   8
END_RES LYS A 135
