REMARK VINA RESULT:    -4.289      2.402      7.942
REMARK INTER + INTRA:         -21.988
REMARK INTER:                 -10.436
REMARK INTRA:                 -11.551
REMARK UNBOUND:               -10.427
REMARK SMILES CCN(CC)CCn1cc(COC(=O)NC[C@@H](O)C(O)[C@@H]2O[C@@](OC[C@H]3O[C@@H](O[C@H]4[C@H](O)[C@@H](O)[C@H](OCCN=[N+]=[N-])O[C@@H]4CO)[C@H](O)[C@@H](O)[C@H]3O)(C(=O)O)C[C@H](O)[C@H]2NC(C)=O)nn1
REMARK SMILES IDX 19 1 21 2 23 3 55 4 22 5 56 6 58 7 24 8 25 9 26 10 28 11
REMARK SMILES IDX 27 12 46 13 48 14 50 15 29 16 30 17 43 18 42 19 35 20 31 21
REMARK SMILES IDX 33 22 44 23 45 24 36 26 37 27 38 28 39 29 40 30 41 31 32 32
REMARK SMILES IDX 34 34 47 36 49 38 51 40 52 42 53 43 54 44 57 46 59 48 60 49
REMARK SMILES IDX 61 51 62 52 20 53 17 55 18 56 16 58 15 59 13 60 14 62 12 63
REMARK SMILES IDX 11 64 10 65 9 66 63 67 8 68 64 69 7 70 6 71 3 72 2 73 1 74
REMARK SMILES IDX 4 75 5 76
REMARK H PARENT 45 25 32 33 34 35 47 37 49 39 51 41 54 45 57 47 59 50 20 54
REMARK H PARENT 18 57 15 61
REMARK Flexibility Score: inf
ROOT
ATOM      1  C   UNL     1      26.465  29.995  22.783  1.00  0.00     0.176 C 
ENDROOT
BRANCH   1   2
ATOM      2  C   UNL     1      27.606  29.170  22.248  1.00  0.00     0.178 C 
ATOM      3  C   UNL     1      29.793  29.263  21.538  1.00  0.00     0.272 C 
ATOM      4  C   UNL     1      29.537  27.748  21.557  1.00  0.00     0.113 C 
ATOM      5  O   UNL     1      28.725  29.949  22.072  1.00  0.00    -0.332 OA
ATOM      6  C   UNL     1      28.296  27.343  20.831  1.00  0.00     0.145 C 
ATOM      7  C   UNL     1      27.310  28.518  20.915  1.00  0.00     0.142 C 
BRANCH   3   8
ATOM      8  O   UNL     1      30.094  29.591  20.238  1.00  0.00    -0.338 OA
BRANCH   8   9
ATOM      9  C   UNL     1      29.904  30.905  19.884  1.00  0.00     0.199 C 
BRANCH   9  10
ATOM     10  C   UNL     1      28.799  31.040  18.822  1.00  0.00     0.179 C 
ATOM     11  C   UNL     1      28.288  32.799  17.346  1.00  0.00     0.282 C 
ATOM     12  O   UNL     1      28.633  32.363  18.616  1.00  0.00    -0.341 OA
ATOM     13  C   UNL     1      27.564  31.771  16.571  1.00  0.00     0.202 C 
ATOM     14  C   UNL     1      28.291  30.460  16.463  1.00  0.00     0.179 C 
ATOM     15  C   UNL     1      29.291  30.339  17.592  1.00  0.00     0.177 C 
BRANCH  11  16
ATOM     16  O   UNL     1      29.464  33.309  16.815  1.00  0.00    -0.341 OA
BRANCH  16  17
ATOM     17  C   UNL     1      29.317  33.987  15.656  1.00  0.00     0.184 C 
ATOM     18  C   UNL     1      30.625  34.474  15.088  1.00  0.00     0.178 C 
ATOM     19  O   UNL     1      30.353  35.070  13.822  1.00  0.00    -0.341 OA
ATOM     20  C   UNL     1      29.884  36.346  14.046  1.00  0.00     0.281 C 
ATOM     21  C   UNL     1      28.416  35.211  15.779  1.00  0.00     0.180 C 
ATOM     22  C   UNL     1      29.041  36.458  15.240  1.00  0.00     0.202 C 
BRANCH  18  23
ATOM     23  C   UNL     1      31.707  33.461  14.989  1.00  0.00     0.191 C 
BRANCH  23  24
ATOM     24  O   UNL     1      31.121  32.230  14.720  1.00  0.00    -0.394 OA
ATOM     25  H   UNL     1      30.154  32.196  14.926  1.00  0.00     0.210 HD
ENDBRANCH  23  24
ENDBRANCH  18  23
BRANCH  20  26
ATOM     26  O   UNL     1      29.342  36.909  12.894  1.00  0.00    -0.350 OA
BRANCH  26  27
ATOM     27  C   UNL     1      28.758  36.022  12.040  1.00  0.00     0.169 C 
BRANCH  27  28
ATOM     28  C   UNL     1      27.287  36.308  11.804  1.00  0.00     0.119 C 
BRANCH  28  29
ATOM     29  N   UNL     1      26.456  35.225  12.293  1.00  0.00    -0.092 NA
ATOM     30  N   UNL     1      25.365  34.936  11.787  1.00  0.00     0.001 N 
ATOM     31  N   UNL     1      24.146  34.961  11.604  1.00  0.00    -0.003 NA
ENDBRANCH  28  29
ENDBRANCH  27  28
ENDBRANCH  26  27
ENDBRANCH  20  26
BRANCH  21  32
ATOM     32  O   UNL     1      27.240  34.956  15.099  1.00  0.00    -0.387 OA
ATOM     33  H   UNL     1      27.234  35.270  14.172  1.00  0.00     0.211 HD
ENDBRANCH  21  32
BRANCH  22  34
ATOM     34  O   UNL     1      29.750  37.153  16.252  1.00  0.00    -0.385 OA
ATOM     35  H   UNL     1      29.610  38.117  16.064  1.00  0.00     0.211 HD
ENDBRANCH  22  34
ENDBRANCH  16  17
ENDBRANCH  11  16
BRANCH  13  36
ATOM     36  O   UNL     1      26.335  31.496  17.239  1.00  0.00    -0.385 OA
ATOM     37  H   UNL     1      25.775  30.901  16.709  1.00  0.00     0.211 HD
ENDBRANCH  13  36
BRANCH  14  38
ATOM     38  O   UNL     1      28.880  30.240  15.228  1.00  0.00    -0.387 OA
ATOM     39  H   UNL     1      28.744  29.341  14.889  1.00  0.00     0.211 HD
ENDBRANCH  14  38
BRANCH  15  40
ATOM     40  O   UNL     1      30.473  30.939  17.179  1.00  0.00    -0.387 OA
ATOM     41  H   UNL     1      31.258  30.465  17.579  1.00  0.00     0.211 HD
ENDBRANCH  15  40
ENDBRANCH   9  10
ENDBRANCH   8   9
ENDBRANCH   3   8
BRANCH   3  42
ATOM     42  C   UNL     1      30.972  29.446  22.420  1.00  0.00     0.364 C 
ATOM     43  O   UNL     1      30.832  29.895  23.609  1.00  0.00    -0.246 OA
BRANCH  42  44
ATOM     44  O   UNL     1      32.274  29.162  22.057  1.00  0.00    -0.477 OA
ATOM     45  H   UNL     1      32.971  29.899  22.056  1.00  0.00     0.296 HD
ENDBRANCH  42  44
ENDBRANCH   3  42
BRANCH   6  46
ATOM     46  O   UNL     1      28.486  26.894  19.548  1.00  0.00    -0.391 OA
ATOM     47  H   UNL     1      29.419  27.113  19.293  1.00  0.00     0.211 HD
ENDBRANCH   6  46
BRANCH   7  48
ATOM     48  N   UNL     1      25.963  28.088  20.746  1.00  0.00    -0.348 N 
ATOM     49  C   UNL     1      25.266  28.486  19.548  1.00  0.00     0.217 C 
ATOM     50  H   UNL     1      25.425  27.501  21.408  1.00  0.00     0.163 HD
ATOM     51  C   UNL     1      23.861  28.076  19.304  1.00  0.00     0.114 C 
ATOM     52  O   UNL     1      25.825  29.195  18.669  1.00  0.00    -0.275 OA
ENDBRANCH   7  48
ENDBRANCH   1   2
BRANCH   1  53
ATOM     53  O   UNL     1      26.622  30.119  24.157  1.00  0.00    -0.388 OA
ATOM     54  H   UNL     1      26.276  31.020  24.449  1.00  0.00     0.211 HD
ENDBRANCH   1  53
BRANCH   1  55
ATOM     55  C   UNL     1      26.579  31.358  22.151  1.00  0.00     0.165 C 
BRANCH  55  56
ATOM     56  O   UNL     1      27.220  32.225  23.044  1.00  0.00    -0.388 OA
ATOM     57  H   UNL     1      26.525  32.684  23.575  1.00  0.00     0.211 HD
ENDBRANCH  55  56
BRANCH  55  58
ATOM     58  C   UNL     1      25.302  31.964  21.699  1.00  0.00     0.154 C 
BRANCH  58  59
ATOM     59  N   UNL     1      25.003  31.750  20.324  1.00  0.00    -0.319 N 
ATOM     60  C   UNL     1      23.709  32.116  19.822  1.00  0.00     0.407 C 
ATOM     61  H   UNL     1      25.681  31.336  19.683  1.00  0.00     0.167 HD
ATOM     62  O   UNL     1      22.844  32.610  20.572  1.00  0.00    -0.225 OA
BRANCH  60  63
ATOM     63  O   UNL     1      23.443  31.903  18.479  1.00  0.00    -0.443 OA
BRANCH  63  64
ATOM     64  C   UNL     1      23.094  33.035  17.665  1.00  0.00     0.294 C 
BRANCH  64  65
ATOM     65  C   UNL     1      23.710  32.839  16.346  1.00  0.00     0.120 A 
ATOM     66  C   UNL     1      23.412  31.764  15.502  1.00  0.00     0.138 A 
ATOM     67  N   UNL     1      24.615  33.559  15.687  1.00  0.00    -0.132 NA
ATOM     68  N   UNL     1      24.142  31.883  14.379  1.00  0.00    -0.251 N 
ATOM     69  N   UNL     1      24.856  32.968  14.515  1.00  0.00    -0.067 NA
BRANCH  68  70
ATOM     70  C   UNL     1      24.150  30.992  13.234  1.00  0.00     0.161 C 
BRANCH  70  71
ATOM     71  C   UNL     1      23.960  29.581  13.747  1.00  0.00     0.108 C 
BRANCH  71  72
ATOM     72  N   UNL     1      22.745  28.968  13.294  1.00  0.00    -0.302 NA
BRANCH  72  73
ATOM     73  C   UNL     1      21.976  29.841  12.450  1.00  0.00     0.081 C 
ATOM     74  C   UNL     1      20.658  29.151  12.116  1.00  0.00     0.021 C 
ENDBRANCH  72  73
BRANCH  72  75
ATOM     75  C   UNL     1      21.981  28.380  14.351  1.00  0.00     0.081 C 
ATOM     76  C   UNL     1      22.867  28.026  15.529  1.00  0.00     0.021 C 
ENDBRANCH  72  75
ENDBRANCH  71  72
ENDBRANCH  70  71
ENDBRANCH  68  70
ENDBRANCH  64  65
ENDBRANCH  63  64
ENDBRANCH  60  63
ENDBRANCH  58  59
ENDBRANCH  55  58
ENDBRANCH   1  55
TORSDOF 34
BEGIN_RES LYS A 131
REMARK  4 active torsions:
REMARK  status: ('A' for Active; 'I' for Inactive)
REMARK    1  A    between atoms: CA   and  CB  
REMARK    2  A    between atoms: CB   and  CG  
REMARK    3  A    between atoms: CG   and  CD  
REMARK    4  A    between atoms: CD   and  CE  
ROOT
ATOM      1  CA  LYS A 131      29.867  25.555  16.977  1.00 20.52     0.186 C 
ENDROOT
BRANCH   1   2
ATOM      2  CB  LYS A 131      28.345  25.722  17.026  1.00 20.94     0.034 C 
BRANCH   2   3
ATOM      3  CG  LYS A 131      27.604  24.394  16.994  1.00 22.96     0.005 C 
BRANCH   3   4
ATOM      4  CD  LYS A 131      26.140  24.556  17.296  1.00 24.33     0.041 C 
BRANCH   4   5
ATOM      5  CE  LYS A 131      25.795  23.788  18.568  1.00 26.91     0.338 C 
ATOM      6  NZ  LYS A 131      25.515  24.725  19.681  1.00 27.40     0.618 N 
ENDBRANCH   4   5
ENDBRANCH   3   4
ENDBRANCH   2   3
ENDBRANCH   1   2
END_RES LYS A 131
BEGIN_RES LYS A 135
REMARK  4 active torsions:
REMARK  status: ('A' for Active; 'I' for Inactive)
REMARK    5  A    between atoms: CA   and  CB  
REMARK    6  A    between atoms: CB   and  CG  
REMARK    7  A    between atoms: CG   and  CD  
REMARK    8  A    between atoms: CD   and  CE  
ROOT
ATOM      7  CA  LYS A 135      33.193  34.663   9.290  1.00 25.02     0.186 C 
ENDROOT
BRANCH   7   8
ATOM      8  CB  LYS A 135      32.060  35.360  10.034  1.00 26.63     0.034 C 
BRANCH   8   9
ATOM      9  CG  LYS A 135      30.825  35.565   9.196  1.00 29.45     0.005 C 
BRANCH   9  10
ATOM     10  CD  LYS A 135      30.143  34.235   8.911  1.00 32.00     0.041 C 
BRANCH  10  11
ATOM     11  CE  LYS A 135      28.687  34.451   8.543  1.00 34.25     0.338 C 
ATOM     12  NZ  LYS A 135      27.789  33.643   9.414  1.00 35.99     0.618 N 
ENDBRANCH  10  11
ENDBRANCH   9  10
ENDBRANCH   8   9
ENDBRANCH   7   8
END_RES LYS A 135
