REMARK VINA RESULT:    -4.167      3.642      8.382
REMARK INTER + INTRA:         -21.441
REMARK INTER:                  -9.875
REMARK INTRA:                 -11.566
REMARK UNBOUND:               -10.939
REMARK SMILES CC(=O)N[C@@H]1[C@@H](O)C[C@](OC[C@H]2O[C@@H](O[C@H]3[C@H](O)[C@@H](O)[C@H](OCCN=[N+]=[N-])O[C@@H]3CO)[C@H](O)[C@@H](O)[C@H]2O)(C(=O)O)O[C@H]1C(O)[C@H](O)CNC(=O)OCc1cn(Cc2ccsc2)nn1
REMARK SMILES IDX 9 1 8 2 6 3 5 4 42 5 41 6 10 7 11 8 12 9 14 10 13 11 32 12
REMARK SMILES IDX 34 13 36 14 15 15 16 16 29 17 28 18 21 19 17 20 19 21 30 22
REMARK SMILES IDX 31 23 22 25 23 26 24 27 25 28 26 29 27 30 18 31 20 33 33 35
REMARK SMILES IDX 35 37 37 39 38 41 39 42 40 43 7 45 43 47 44 48 45 50 46 51
REMARK SMILES IDX 47 53 48 54 49 55 50 57 51 58 52 59 53 60 54 61 63 62 55 63
REMARK SMILES IDX 62 64 56 65 57 66 58 67 61 68 59 69 60 70 4 71 2 72 1 74
REMARK SMILES IDX 3 75
REMARK H PARENT 31 24 18 32 20 34 33 36 35 38 37 40 40 44 7 46 44 49 46 52
REMARK H PARENT 48 56 4 73
REMARK Flexibility Score: inf
ROOT
ATOM      1  C   UNL     1      24.282  32.242  18.302  1.00  0.00     0.272 C 
ATOM      2  C   UNL     1      23.541  32.466  19.586  1.00  0.00     0.113 C 
ATOM      3  C   UNL     1      22.262  31.685  19.724  1.00  0.00     0.145 C 
ATOM      4  C   UNL     1      22.381  30.284  19.264  1.00  0.00     0.142 C 
ATOM      5  C   UNL     1      23.430  30.055  18.194  1.00  0.00     0.178 C 
ATOM      6  O   UNL     1      24.542  30.815  18.276  1.00  0.00    -0.332 OA
ENDROOT
BRANCH   1   7
ATOM      7  O   UNL     1      25.533  32.740  18.402  1.00  0.00    -0.338 OA
BRANCH   7   8
ATOM      8  C   UNL     1      26.302  33.105  17.394  1.00  0.00     0.199 C 
BRANCH   8   9
ATOM      9  C   UNL     1      27.569  32.458  17.016  1.00  0.00     0.179 C 
ATOM     10  C   UNL     1      29.398  31.630  18.086  1.00  0.00     0.282 C 
ATOM     11  O   UNL     1      27.990  31.719  18.185  1.00  0.00    -0.341 OA
ATOM     12  C   UNL     1      29.855  31.154  16.751  1.00  0.00     0.202 C 
ATOM     13  C   UNL     1      28.798  30.714  15.803  1.00  0.00     0.179 C 
ATOM     14  C   UNL     1      27.449  31.348  15.986  1.00  0.00     0.177 C 
BRANCH  10  15
ATOM     15  O   UNL     1      29.842  30.859  19.130  1.00  0.00    -0.341 OA
BRANCH  15  16
ATOM     16  C   UNL     1      28.825  30.132  19.772  1.00  0.00     0.184 C 
ATOM     17  C   UNL     1      28.646  30.552  21.188  1.00  0.00     0.178 C 
ATOM     18  O   UNL     1      29.282  29.824  22.145  1.00  0.00    -0.341 OA
ATOM     19  C   UNL     1      30.118  28.805  21.658  1.00  0.00     0.281 C 
ATOM     20  C   UNL     1      28.959  28.660  19.543  1.00  0.00     0.180 C 
ATOM     21  C   UNL     1      29.226  27.902  20.851  1.00  0.00     0.202 C 
BRANCH  17  22
ATOM     22  C   UNL     1      27.182  30.680  21.578  1.00  0.00     0.191 C 
BRANCH  22  23
ATOM     23  O   UNL     1      26.442  30.580  20.400  1.00  0.00    -0.394 OA
ATOM     24  H   UNL     1      25.846  31.375  20.271  1.00  0.00     0.210 HD
ENDBRANCH  22  23
ENDBRANCH  17  22
BRANCH  19  25
ATOM     25  O   UNL     1      30.724  28.223  22.739  1.00  0.00    -0.350 OA
BRANCH  25  26
ATOM     26  C   UNL     1      32.086  28.437  22.808  1.00  0.00     0.169 C 
BRANCH  26  27
ATOM     27  C   UNL     1      32.685  29.188  21.664  1.00  0.00     0.119 C 
BRANCH  27  28
ATOM     28  N   UNL     1      33.884  29.874  22.064  1.00  0.00    -0.092 NA
ATOM     29  N   UNL     1      34.736  29.238  22.703  1.00  0.00     0.001 N 
ATOM     30  N   UNL     1      35.772  28.848  23.243  1.00  0.00    -0.003 NA
ENDBRANCH  27  28
ENDBRANCH  26  27
ENDBRANCH  25  26
ENDBRANCH  19  25
BRANCH  20  31
ATOM     31  O   UNL     1      27.909  28.093  18.852  1.00  0.00    -0.387 OA
ATOM     32  H   UNL     1      27.357  28.775  18.417  1.00  0.00     0.211 HD
ENDBRANCH  20  31
BRANCH  21  33
ATOM     33  O   UNL     1      29.774  26.664  20.640  1.00  0.00    -0.385 OA
ATOM     34  H   UNL     1      29.113  25.927  20.757  1.00  0.00     0.211 HD
ENDBRANCH  21  33
ENDBRANCH  15  16
ENDBRANCH  10  15
BRANCH  12  35
ATOM     35  O   UNL     1      30.744  32.082  16.147  1.00  0.00    -0.385 OA
ATOM     36  H   UNL     1      30.763  31.934  15.165  1.00  0.00     0.211 HD
ENDBRANCH  12  35
BRANCH  13  37
ATOM     37  O   UNL     1      28.617  29.323  15.942  1.00  0.00    -0.387 OA
ATOM     38  H   UNL     1      28.556  29.116  16.903  1.00  0.00     0.211 HD
ENDBRANCH  13  37
BRANCH  14  39
ATOM     39  O   UNL     1      26.543  30.422  16.561  1.00  0.00    -0.387 OA
ATOM     40  H   UNL     1      25.687  30.944  16.663  1.00  0.00     0.211 HD
ENDBRANCH  14  39
ENDBRANCH   8   9
ENDBRANCH   7   8
ENDBRANCH   1   7
BRANCH   1  41
ATOM     41  C   UNL     1      23.505  32.481  17.086  1.00  0.00     0.364 C 
ATOM     42  O   UNL     1      22.789  33.487  16.920  1.00  0.00    -0.246 OA
BRANCH  41  43
ATOM     43  O   UNL     1      23.512  31.578  16.007  1.00  0.00    -0.477 OA
ATOM     44  H   UNL     1      23.194  31.861  15.090  1.00  0.00     0.296 HD
ENDBRANCH  41  43
ENDBRANCH   1  41
BRANCH   3  45
ATOM     45  O   UNL     1      22.012  31.667  21.123  1.00  0.00    -0.391 OA
ATOM     46  H   UNL     1      21.755  30.747  21.409  1.00  0.00     0.211 HD
ENDBRANCH   3  45
BRANCH   5  47
ATOM     47  C   UNL     1      23.930  28.595  18.330  1.00  0.00     0.176 C 
BRANCH  47  48
ATOM     48  O   UNL     1      25.229  28.609  18.832  1.00  0.00    -0.388 OA
ATOM     49  H   UNL     1      25.238  29.007  19.732  1.00  0.00     0.211 HD
ENDBRANCH  47  48
BRANCH  47  50
ATOM     50  C   UNL     1      23.960  27.995  16.971  1.00  0.00     0.165 C 
BRANCH  50  51
ATOM     51  O   UNL     1      24.303  28.980  16.046  1.00  0.00    -0.388 OA
ATOM     52  H   UNL     1      23.863  28.819  15.176  1.00  0.00     0.211 HD
ENDBRANCH  50  51
BRANCH  50  53
ATOM     53  C   UNL     1      22.658  27.381  16.526  1.00  0.00     0.154 C 
BRANCH  53  54
ATOM     54  N   UNL     1      22.311  27.704  15.175  1.00  0.00    -0.319 N 
ATOM     55  C   UNL     1      21.574  28.823  14.771  1.00  0.00     0.407 C 
ATOM     56  H   UNL     1      22.641  27.035  14.416  1.00  0.00     0.167 HD
ATOM     57  O   UNL     1      21.170  29.631  15.635  1.00  0.00    -0.225 OA
BRANCH  55  58
ATOM     58  O   UNL     1      21.308  29.014  13.432  1.00  0.00    -0.443 OA
BRANCH  58  59
ATOM     59  C   UNL     1      22.286  29.258  12.462  1.00  0.00     0.294 C 
BRANCH  59  60
ATOM     60  C   UNL     1      22.981  30.521  12.779  1.00  0.00     0.120 A 
ATOM     61  C   UNL     1      22.447  31.772  12.766  1.00  0.00     0.138 A 
ATOM     62  N   UNL     1      24.269  30.625  13.137  1.00  0.00    -0.132 NA
ATOM     63  N   UNL     1      23.429  32.621  13.118  1.00  0.00    -0.248 N 
ATOM     64  N   UNL     1      24.522  31.921  13.340  1.00  0.00    -0.067 NA
BRANCH  63  65
ATOM     65  C   UNL     1      23.289  34.050  13.230  1.00  0.00     0.182 C 
BRANCH  65  66
ATOM     66  C   UNL     1      23.564  34.674  11.855  1.00  0.00    -0.016 A 
ATOM     67  C   UNL     1      24.771  34.961  11.411  1.00  0.00     0.017 A 
ATOM     68  C   UNL     1      22.462  34.944  11.046  1.00  0.00     0.070 A 
ATOM     69  C   UNL     1      24.962  35.523  10.162  1.00  0.00     0.065 A 
ATOM     70  S   UNL     1      23.231  35.649   9.576  1.00  0.00    -0.152 S 
ENDBRANCH  65  66
ENDBRANCH  63  65
ENDBRANCH  59  60
ENDBRANCH  58  59
ENDBRANCH  55  58
ENDBRANCH  53  54
ENDBRANCH  50  53
ENDBRANCH  47  50
ENDBRANCH   5  47
BRANCH   4  71
ATOM     71  N   UNL     1      21.160  29.697  18.802  1.00  0.00    -0.348 N 
ATOM     72  C   UNL     1      20.308  28.932  19.642  1.00  0.00     0.217 C 
ATOM     73  H   UNL     1      20.862  29.823  17.810  1.00  0.00     0.163 HD
ATOM     74  C   UNL     1      19.031  28.316  19.170  1.00  0.00     0.114 C 
ATOM     75  O   UNL     1      20.700  28.800  20.838  1.00  0.00    -0.275 OA
ENDBRANCH   4  71
TORSDOF 31
BEGIN_RES LYS A 131
REMARK  4 active torsions:
REMARK  status: ('A' for Active; 'I' for Inactive)
REMARK    1  A    between atoms: CA   and  CB  
REMARK    2  A    between atoms: CB   and  CG  
REMARK    3  A    between atoms: CG   and  CD  
REMARK    4  A    between atoms: CD   and  CE  
ROOT
ATOM      1  CA  LYS A 131      29.867  25.555  16.977  1.00 20.52     0.186 C 
ENDROOT
BRANCH   1   2
ATOM      2  CB  LYS A 131      28.345  25.722  17.026  1.00 20.94     0.034 C 
BRANCH   2   3
ATOM      3  CG  LYS A 131      27.602  24.400  16.915  1.00 22.96     0.005 C 
BRANCH   3   4
ATOM      4  CD  LYS A 131      26.151  24.532  17.289  1.00 24.33     0.041 C 
BRANCH   4   5
ATOM      5  CE  LYS A 131      25.954  24.081  18.733  1.00 26.91     0.338 C 
ATOM      6  NZ  LYS A 131      25.523  25.219  19.578  1.00 27.40     0.618 N 
ENDBRANCH   4   5
ENDBRANCH   3   4
ENDBRANCH   2   3
ENDBRANCH   1   2
END_RES LYS A 131
BEGIN_RES LYS A 135
REMARK  4 active torsions:
REMARK  status: ('A' for Active; 'I' for Inactive)
REMARK    5  A    between atoms: CA   and  CB  
REMARK    6  A    between atoms: CB   and  CG  
REMARK    7  A    between atoms: CG   and  CD  
REMARK    8  A    between atoms: CD   and  CE  
ROOT
ATOM      7  CA  LYS A 135      33.193  34.663   9.290  1.00 25.02     0.186 C 
ENDROOT
BRANCH   7   8
ATOM      8  CB  LYS A 135      32.060  35.360  10.034  1.00 26.63     0.034 C 
BRANCH   8   9
ATOM      9  CG  LYS A 135      30.692  34.848   9.665  1.00 29.45     0.005 C 
BRANCH   9  10
ATOM     10  CD  LYS A 135      30.620  34.533   8.178  1.00 32.00     0.041 C 
BRANCH  10  11
ATOM     11  CE  LYS A 135      29.263  34.915   7.618  1.00 34.25     0.338 C 
ATOM     12  NZ  LYS A 135      28.267  35.104   8.708  1.00 35.99     0.618 N 
ENDBRANCH  10  11
ENDBRANCH   9  10
ENDBRANCH   8   9
ENDBRANCH   7   8
END_RES LYS A 135
