REMARK VINA RESULT:    -4.921      5.916     11.165
REMARK INTER + INTRA:         -23.949
REMARK INTER:                 -11.141
REMARK INTRA:                 -12.809
REMARK UNBOUND:               -10.398
REMARK SMILES CC(=O)N[C@@H]1[C@@H](O)C[C@](OC[C@H]2O[C@@H](O[C@H]3[C@H](O)[C@@H](O)[C@H](OCCN=[N+]=[N-])O[C@@H]3CO)[C@H](O)[C@@H](O)[C@H]2O)(C(=O)O)O[C@H]1C(O)[C@H](O)CNC(=O)OCc1cn([C@@H](CCC(=O)O)C(=O)O)nn1
REMARK SMILES IDX 43 1 42 2 9 3 8 4 41 5 6 6 5 7 10 8 11 9 12 10 14 11 13 12
REMARK SMILES IDX 32 13 34 14 36 15 15 16 16 17 29 18 28 19 21 20 17 21 19 22
REMARK SMILES IDX 30 23 31 24 22 26 23 27 24 28 25 29 26 30 27 31 18 32 20 34
REMARK SMILES IDX 33 36 35 38 37 40 38 42 39 43 40 44 7 46 4 48 2 49 1 51 3 52
REMARK SMILES IDX 44 53 45 55 46 56 47 58 48 59 49 60 50 62 51 63 52 64 53 65
REMARK SMILES IDX 54 66 66 67 55 68 65 69 56 70 57 71 58 72 59 73 60 74 61 75
REMARK SMILES IDX 62 77 63 78 64 79
REMARK H PARENT 31 25 18 33 20 35 33 37 35 39 37 41 40 45 7 47 4 50 44 54
REMARK H PARENT 46 57 48 61 61 76 64 80
REMARK Flexibility Score: inf
ROOT
ATOM      1  C   UNL     1      28.625  37.747   8.055  1.00  0.00     0.176 C 
ENDROOT
BRANCH   1   2
ATOM      2  C   UNL     1      27.511  38.359   8.905  1.00  0.00     0.178 C 
ATOM      3  C   UNL     1      27.451  39.892  10.691  1.00  0.00     0.272 C 
ATOM      4  C   UNL     1      26.816  38.955  11.638  1.00  0.00     0.113 C 
ATOM      5  O   UNL     1      28.241  39.079   9.850  1.00  0.00    -0.332 OA
ATOM      6  C   UNL     1      26.844  37.534  11.142  1.00  0.00     0.145 C 
ATOM      7  C   UNL     1      26.733  37.330   9.674  1.00  0.00     0.142 C 
BRANCH   3   8
ATOM      8  O   UNL     1      28.332  40.744  11.326  1.00  0.00    -0.338 OA
BRANCH   8   9
ATOM      9  C   UNL     1      28.608  40.739  12.604  1.00  0.00     0.199 C 
BRANCH   9  10
ATOM     10  C   UNL     1      29.907  40.249  13.182  1.00  0.00     0.179 C 
ATOM     11  C   UNL     1      31.052  38.229  12.954  1.00  0.00     0.282 C 
ATOM     12  O   UNL     1      29.927  38.896  13.365  1.00  0.00    -0.341 OA
ATOM     13  C   UNL     1      31.239  38.470  11.472  1.00  0.00     0.202 C 
ATOM     14  C   UNL     1      31.516  39.923  11.255  1.00  0.00     0.179 C 
ATOM     15  C   UNL     1      31.088  40.788  12.386  1.00  0.00     0.177 C 
BRANCH  11  16
ATOM     16  O   UNL     1      30.855  36.862  13.158  1.00  0.00    -0.341 OA
BRANCH  16  17
ATOM     17  C   UNL     1      30.210  36.532  14.323  1.00  0.00     0.184 C 
ATOM     18  C   UNL     1      31.186  36.394  15.487  1.00  0.00     0.178 C 
ATOM     19  O   UNL     1      31.127  35.092  15.978  1.00  0.00    -0.341 OA
ATOM     20  C   UNL     1      31.688  34.194  15.027  1.00  0.00     0.281 C 
ATOM     21  C   UNL     1      29.573  35.172  14.114  1.00  0.00     0.180 C 
ATOM     22  C   UNL     1      30.730  34.179  13.875  1.00  0.00     0.202 C 
BRANCH  18  23
ATOM     23  C   UNL     1      30.760  37.320  16.613  1.00  0.00     0.191 C 
BRANCH  23  24
ATOM     24  O   UNL     1      30.808  38.649  16.238  1.00  0.00    -0.394 OA
ATOM     25  H   UNL     1      31.704  39.048  16.391  1.00  0.00     0.210 HD
ENDBRANCH  23  24
ENDBRANCH  18  23
BRANCH  20  26
ATOM     26  O   UNL     1      31.882  33.005  15.667  1.00  0.00    -0.350 OA
BRANCH  26  27
ATOM     27  C   UNL     1      31.037  31.991  15.309  1.00  0.00     0.169 C 
BRANCH  27  28
ATOM     28  C   UNL     1      30.325  31.337  16.474  1.00  0.00     0.119 C 
BRANCH  28  29
ATOM     29  N   UNL     1      29.159  30.585  16.053  1.00  0.00    -0.092 NA
ATOM     30  N   UNL     1      28.035  31.065  15.951  1.00  0.00     0.001 N 
ATOM     31  N   UNL     1      27.013  31.668  15.707  1.00  0.00    -0.003 NA
ENDBRANCH  28  29
ENDBRANCH  27  28
ENDBRANCH  26  27
ENDBRANCH  20  26
BRANCH  21  32
ATOM     32  O   UNL     1      28.803  34.768  15.197  1.00  0.00    -0.387 OA
ATOM     33  H   UNL     1      27.941  35.284  15.272  1.00  0.00     0.211 HD
ENDBRANCH  21  32
BRANCH  22  34
ATOM     34  O   UNL     1      31.418  34.727  12.764  1.00  0.00    -0.385 OA
ATOM     35  H   UNL     1      32.058  34.040  12.446  1.00  0.00     0.211 HD
ENDBRANCH  22  34
ENDBRANCH  16  17
ENDBRANCH  11  16
BRANCH  13  36
ATOM     36  O   UNL     1      32.285  37.689  10.976  1.00  0.00    -0.385 OA
ATOM     37  H   UNL     1      32.308  36.864  11.557  1.00  0.00     0.211 HD
ENDBRANCH  13  36
BRANCH  14  38
ATOM     38  O   UNL     1      30.976  40.391  10.053  1.00  0.00    -0.387 OA
ATOM     39  H   UNL     1      30.553  41.286  10.214  1.00  0.00     0.211 HD
ENDBRANCH  14  38
BRANCH  15  40
ATOM     40  O   UNL     1      30.720  42.018  11.835  1.00  0.00    -0.387 OA
ATOM     41  H   UNL     1      30.413  42.639  12.533  1.00  0.00     0.211 HD
ENDBRANCH  15  40
ENDBRANCH   9  10
ENDBRANCH   8   9
ENDBRANCH   3   8
BRANCH   3  42
ATOM     42  C   UNL     1      26.591  40.710   9.846  1.00  0.00     0.364 C 
ATOM     43  O   UNL     1      25.323  40.512   9.909  1.00  0.00    -0.246 OA
BRANCH  42  44
ATOM     44  O   UNL     1      26.950  41.701   8.952  1.00  0.00    -0.477 OA
ATOM     45  H   UNL     1      27.658  41.569   8.268  1.00  0.00     0.296 HD
ENDBRANCH  42  44
ENDBRANCH   3  42
BRANCH   6  46
ATOM     46  O   UNL     1      28.110  37.001  11.515  1.00  0.00    -0.391 OA
ATOM     47  H   UNL     1      28.060  36.018  11.628  1.00  0.00     0.211 HD
ENDBRANCH   6  46
BRANCH   7  48
ATOM     48  N   UNL     1      25.355  37.168   9.365  1.00  0.00    -0.348 N 
ATOM     49  C   UNL     1      24.649  35.947   9.494  1.00  0.00     0.217 C 
ATOM     50  H   UNL     1      24.776  37.967   9.040  1.00  0.00     0.163 HD
ATOM     51  C   UNL     1      23.187  35.846   9.143  1.00  0.00     0.114 C 
ATOM     52  O   UNL     1      25.218  34.936   9.897  1.00  0.00    -0.275 OA
ENDBRANCH   7  48
ENDBRANCH   1   2
BRANCH   1  53
ATOM     53  O   UNL     1      29.554  38.731   7.739  1.00  0.00    -0.388 OA
ATOM     54  H   UNL     1      30.329  38.326   7.265  1.00  0.00     0.211 HD
ENDBRANCH   1  53
BRANCH   1  55
ATOM     55  C   UNL     1      28.224  36.996   6.873  1.00  0.00     0.165 C 
BRANCH  55  56
ATOM     56  O   UNL     1      29.291  37.053   5.927  1.00  0.00    -0.388 OA
ATOM     57  H   UNL     1      29.510  38.004   5.783  1.00  0.00     0.211 HD
ENDBRANCH  55  56
BRANCH  55  58
ATOM     58  C   UNL     1      27.016  37.458   6.114  1.00  0.00     0.154 C 
BRANCH  58  59
ATOM     59  N   UNL     1      26.921  38.894   6.008  1.00  0.00    -0.319 N 
ATOM     60  C   UNL     1      27.315  39.630   4.851  1.00  0.00     0.407 C 
ATOM     61  H   UNL     1      26.561  39.434   6.810  1.00  0.00     0.167 HD
ATOM     62  O   UNL     1      27.767  39.055   3.862  1.00  0.00    -0.225 OA
BRANCH  60  63
ATOM     63  O   UNL     1      27.178  40.995   4.876  1.00  0.00    -0.443 OA
BRANCH  63  64
ATOM     64  C   UNL     1      28.219  41.887   4.600  1.00  0.00     0.294 C 
BRANCH  64  65
ATOM     65  C   UNL     1      29.306  41.706   5.593  1.00  0.00     0.120 A 
ATOM     66  C   UNL     1      30.659  41.541   5.385  1.00  0.00     0.139 A 
ATOM     67  N   UNL     1      29.140  41.648   6.942  1.00  0.00    -0.132 NA
ATOM     68  N   UNL     1      31.275  41.390   6.593  1.00  0.00    -0.238 N 
ATOM     69  N   UNL     1      30.312  41.461   7.513  1.00  0.00    -0.066 NA
BRANCH  68  70
ATOM     70  C   UNL     1      32.664  41.218   6.817  1.00  0.00     0.219 C 
BRANCH  70  71
ATOM     71  C   UNL     1      33.290  41.817   8.022  1.00  0.00     0.051 C 
BRANCH  71  72
ATOM     72  C   UNL     1      33.199  43.267   8.255  1.00  0.00     0.125 C 
BRANCH  72  73
ATOM     73  C   UNL     1      32.471  43.768   9.401  1.00  0.00     0.303 C 
ATOM     74  O   UNL     1      32.890  44.453  10.351  1.00  0.00    -0.252 OA
BRANCH  73  75
ATOM     75  O   UNL     1      31.077  43.466   9.510  1.00  0.00    -0.481 OA
ATOM     76  H   UNL     1      30.407  44.106   9.112  1.00  0.00     0.296 HD
ENDBRANCH  73  75
ENDBRANCH  72  73
ENDBRANCH  71  72
ENDBRANCH  70  71
BRANCH  70  77
ATOM     77  C   UNL     1      32.968  39.752   6.814  1.00  0.00     0.328 C 
ATOM     78  O   UNL     1      33.851  39.292   6.065  1.00  0.00    -0.250 OA
BRANCH  77  79
ATOM     79  O   UNL     1      32.291  38.864   7.629  1.00  0.00    -0.480 OA
ATOM     80  H   UNL     1      31.408  38.438   7.343  1.00  0.00     0.296 HD
ENDBRANCH  77  79
ENDBRANCH  70  77
ENDBRANCH  68  70
ENDBRANCH  64  65
ENDBRANCH  63  64
ENDBRANCH  60  63
ENDBRANCH  58  59
ENDBRANCH  55  58
ENDBRANCH   1  55
TORSDOF 36
BEGIN_RES LYS A 131
REMARK  4 active torsions:
REMARK  status: ('A' for Active; 'I' for Inactive)
REMARK    1  A    between atoms: CA   and  CB  
REMARK    2  A    between atoms: CB   and  CG  
REMARK    3  A    between atoms: CG   and  CD  
REMARK    4  A    between atoms: CD   and  CE  
ROOT
ATOM      1  CA  LYS A 131      29.867  25.555  16.977  1.00 20.52     0.186 C 
ENDROOT
BRANCH   1   2
ATOM      2  CB  LYS A 131      28.345  25.722  17.026  1.00 20.94     0.034 C 
BRANCH   2   3
ATOM      3  CG  LYS A 131      27.601  24.406  16.861  1.00 22.96     0.005 C 
BRANCH   3   4
ATOM      4  CD  LYS A 131      26.674  24.131  18.012  1.00 24.33     0.041 C 
BRANCH   4   5
ATOM      5  CE  LYS A 131      25.542  23.220  17.548  1.00 26.91     0.338 C 
ATOM      6  NZ  LYS A 131      24.458  24.016  16.926  1.00 27.40     0.618 N 
ENDBRANCH   4   5
ENDBRANCH   3   4
ENDBRANCH   2   3
ENDBRANCH   1   2
END_RES LYS A 131
BEGIN_RES LYS A 135
REMARK  4 active torsions:
REMARK  status: ('A' for Active; 'I' for Inactive)
REMARK    5  A    between atoms: CA   and  CB  
REMARK    6  A    between atoms: CB   and  CG  
REMARK    7  A    between atoms: CG   and  CD  
REMARK    8  A    between atoms: CD   and  CE  
ROOT
ATOM      7  CA  LYS A 135      33.193  34.663   9.290  1.00 25.02     0.186 C 
ENDROOT
BRANCH   7   8
ATOM      8  CB  LYS A 135      32.060  35.360  10.034  1.00 26.63     0.034 C 
BRANCH   8   9
ATOM      9  CG  LYS A 135      30.790  35.470   9.231  1.00 29.45     0.005 C 
BRANCH   9  10
ATOM     10  CD  LYS A 135      30.272  34.091   8.854  1.00 32.00     0.041 C 
BRANCH  10  11
ATOM     11  CE  LYS A 135      28.760  34.105   8.731  1.00 34.25     0.338 C 
ATOM     12  NZ  LYS A 135      28.113  33.893  10.056  1.00 35.99     0.618 N 
ENDBRANCH  10  11
ENDBRANCH   9  10
ENDBRANCH   8   9
ENDBRANCH   7   8
END_RES LYS A 135
