REMARK VINA RESULT:    -4.042      4.952      8.850
REMARK INTER + INTRA:         -22.020
REMARK INTER:                 -12.371
REMARK INTRA:                  -9.649
REMARK UNBOUND:               -12.070
REMARK SMILES CC(=O)N[C@@H]1[C@@H](O)C[C@](OC[C@H]2O[C@@H](O[C@H]3[C@H](O)[C@@H](O)[C@H](OCCN=[N+]=[N-])O[C@@H]3CO)[C@H](O)[C@@H](O)[C@H]2O)(C(=O)O)O[C@H]1C(O)[C@H](O)CNC(=O)OCc1cn(-c2ccccc2I)nn1
REMARK SMILES IDX 9 1 8 2 6 3 5 4 42 5 41 6 10 7 11 8 12 9 14 10 13 11 32 12
REMARK SMILES IDX 34 13 36 14 15 15 16 16 29 17 28 18 21 19 17 20 19 21 30 22
REMARK SMILES IDX 31 23 22 25 23 26 24 27 25 28 26 29 27 30 18 31 20 33 33 35
REMARK SMILES IDX 35 37 37 39 38 41 39 42 40 43 7 45 43 47 44 48 45 50 46 51
REMARK SMILES IDX 47 53 48 54 49 55 50 57 51 58 52 59 53 60 54 61 64 62 55 63
REMARK SMILES IDX 63 64 56 65 57 66 61 67 58 68 60 69 62 70 59 71 4 72 2 73
REMARK SMILES IDX 1 75 3 76
REMARK H PARENT 31 24 18 32 20 34 33 36 35 38 37 40 40 44 7 46 44 49 46 52
REMARK H PARENT 48 56 4 74
REMARK Flexibility Score: inf
ROOT
ATOM      1  C   UNL     1      22.275  30.406  15.503  1.00  0.00     0.272 C 
ATOM      2  C   UNL     1      22.489  28.998  15.025  1.00  0.00     0.113 C 
ATOM      3  C   UNL     1      22.765  28.959  13.512  1.00  0.00     0.145 C 
ATOM      4  C   UNL     1      21.451  29.475  12.857  1.00  0.00     0.142 C 
ATOM      5  C   UNL     1      21.075  30.777  13.508  1.00  0.00     0.178 C 
ATOM      6  O   UNL     1      22.152  31.187  14.304  1.00  0.00    -0.332 OA
ENDROOT
BRANCH   1   7
ATOM      7  O   UNL     1      23.293  31.020  16.161  1.00  0.00    -0.338 OA
BRANCH   7   8
ATOM      8  C   UNL     1      24.071  30.540  17.086  1.00  0.00     0.199 C 
BRANCH   8   9
ATOM      9  C   UNL     1      25.302  29.792  16.758  1.00  0.00     0.179 C 
ATOM     10  C   UNL     1      26.752  31.085  15.558  1.00  0.00     0.282 C 
ATOM     11  O   UNL     1      25.896  30.018  15.562  1.00  0.00    -0.341 OA
ATOM     12  C   UNL     1      28.062  30.730  16.250  1.00  0.00     0.202 C 
ATOM     13  C   UNL     1      27.746  29.687  17.348  1.00  0.00     0.179 C 
ATOM     14  C   UNL     1      26.361  29.995  17.883  1.00  0.00     0.177 C 
BRANCH  10  15
ATOM     15  O   UNL     1      26.251  32.318  15.829  1.00  0.00    -0.341 OA
BRANCH  15  16
ATOM     16  C   UNL     1      26.519  33.298  14.901  1.00  0.00     0.184 C 
ATOM     17  C   UNL     1      26.754  34.679  15.454  1.00  0.00     0.178 C 
ATOM     18  O   UNL     1      26.480  35.642  14.486  1.00  0.00    -0.341 OA
ATOM     19  C   UNL     1      26.686  35.196  13.175  1.00  0.00     0.281 C 
ATOM     20  C   UNL     1      25.227  33.468  14.071  1.00  0.00     0.180 C 
ATOM     21  C   UNL     1      25.688  34.137  12.784  1.00  0.00     0.202 C 
BRANCH  17  22
ATOM     22  C   UNL     1      28.081  34.883  16.110  1.00  0.00     0.191 C 
BRANCH  22  23
ATOM     23  O   UNL     1      28.935  33.887  15.620  1.00  0.00    -0.394 OA
ATOM     24  H   UNL     1      29.854  34.090  15.943  1.00  0.00     0.210 HD
ENDBRANCH  22  23
ENDBRANCH  17  22
BRANCH  19  25
ATOM     25  O   UNL     1      27.982  34.865  12.924  1.00  0.00    -0.350 OA
BRANCH  25  26
ATOM     26  C   UNL     1      28.691  35.879  12.360  1.00  0.00     0.169 C 
BRANCH  26  27
ATOM     27  C   UNL     1      30.023  36.199  12.961  1.00  0.00     0.119 C 
BRANCH  27  28
ATOM     28  N   UNL     1      31.027  35.177  12.868  1.00  0.00    -0.092 NA
ATOM     29  N   UNL     1      31.439  34.702  13.942  1.00  0.00     0.001 N 
ATOM     30  N   UNL     1      32.036  34.153  14.870  1.00  0.00    -0.003 NA
ENDBRANCH  27  28
ENDBRANCH  26  27
ENDBRANCH  25  26
ENDBRANCH  19  25
BRANCH  20  31
ATOM     31  O   UNL     1      24.640  32.241  13.823  1.00  0.00    -0.387 OA
ATOM     32  H   UNL     1      24.122  32.001  14.637  1.00  0.00     0.211 HD
ENDBRANCH  20  31
BRANCH  21  33
ATOM     33  O   UNL     1      24.605  34.639  12.065  1.00  0.00    -0.385 OA
ATOM     34  H   UNL     1      24.955  34.997  11.186  1.00  0.00     0.211 HD
ENDBRANCH  21  33
ENDBRANCH  15  16
ENDBRANCH  10  15
BRANCH  12  35
ATOM     35  O   UNL     1      28.969  30.109  15.402  1.00  0.00    -0.385 OA
ATOM     36  H   UNL     1      28.437  29.666  14.691  1.00  0.00     0.211 HD
ENDBRANCH  12  35
BRANCH  13  37
ATOM     37  O   UNL     1      28.679  29.632  18.335  1.00  0.00    -0.387 OA
ATOM     38  H   UNL     1      29.635  29.581  18.029  1.00  0.00     0.211 HD
ENDBRANCH  13  37
BRANCH  14  39
ATOM     39  O   UNL     1      26.298  31.335  18.225  1.00  0.00    -0.387 OA
ATOM     40  H   UNL     1      25.992  31.425  19.181  1.00  0.00     0.211 HD
ENDBRANCH  14  39
ENDBRANCH   8   9
ENDBRANCH   7   8
ENDBRANCH   1   7
BRANCH   1  41
ATOM     41  C   UNL     1      20.996  30.504  16.230  1.00  0.00     0.364 C 
ATOM     42  O   UNL     1      20.608  31.503  16.861  1.00  0.00    -0.246 OA
BRANCH  41  43
ATOM     43  O   UNL     1      20.099  29.414  16.252  1.00  0.00    -0.477 OA
ATOM     44  H   UNL     1      19.946  28.913  17.139  1.00  0.00     0.296 HD
ENDBRANCH  41  43
ENDBRANCH   1  41
BRANCH   3  45
ATOM     45  O   UNL     1      23.833  29.752  13.152  1.00  0.00    -0.391 OA
ATOM     46  H   UNL     1      24.468  29.242  12.594  1.00  0.00     0.211 HD
ENDBRANCH   3  45
BRANCH   5  47
ATOM     47  C   UNL     1      21.010  31.889  12.428  1.00  0.00     0.176 C 
BRANCH  47  48
ATOM     48  O   UNL     1      22.374  32.354  12.288  1.00  0.00    -0.388 OA
ATOM     49  H   UNL     1      22.875  31.561  11.928  1.00  0.00     0.211 HD
ENDBRANCH  47  48
BRANCH  47  50
ATOM     50  C   UNL     1      20.312  33.117  12.931  1.00  0.00     0.165 C 
BRANCH  50  51
ATOM     51  O   UNL     1      19.339  32.732  13.891  1.00  0.00    -0.388 OA
ATOM     52  H   UNL     1      19.676  31.995  14.459  1.00  0.00     0.211 HD
ENDBRANCH  50  51
BRANCH  50  53
ATOM     53  C   UNL     1      19.675  34.018  11.962  1.00  0.00     0.154 C 
BRANCH  53  54
ATOM     54  N   UNL     1      20.531  34.508  10.899  1.00  0.00    -0.319 N 
ATOM     55  C   UNL     1      19.939  34.901   9.661  1.00  0.00     0.407 C 
ATOM     56  H   UNL     1      21.564  34.594  10.975  1.00  0.00     0.167 HD
ATOM     57  O   UNL     1      18.676  34.802   9.520  1.00  0.00    -0.225 OA
BRANCH  55  58
ATOM     58  O   UNL     1      20.632  35.392   8.574  1.00  0.00    -0.443 OA
BRANCH  58  59
ATOM     59  C   UNL     1      21.236  36.677   8.608  1.00  0.00     0.294 C 
BRANCH  59  60
ATOM     60  C   UNL     1      22.729  36.482   8.679  1.00  0.00     0.121 A 
ATOM     61  C   UNL     1      23.714  37.231   8.077  1.00  0.00     0.144 A 
ATOM     62  N   UNL     1      23.359  35.508   9.359  1.00  0.00    -0.131 NA
ATOM     63  N   UNL     1      24.880  36.659   8.434  1.00  0.00    -0.219 N 
ATOM     64  N   UNL     1      24.658  35.616   9.211  1.00  0.00    -0.062 NA
BRANCH  63  65
ATOM     65  C   UNL     1      26.184  37.077   8.047  1.00  0.00     0.080 A 
ATOM     66  C   UNL     1      26.716  36.701   6.819  1.00  0.00     0.029 A 
ATOM     67  C   UNL     1      26.954  37.857   8.877  1.00  0.00     0.039 A 
ATOM     68  C   UNL     1      28.005  37.130   6.483  1.00  0.00     0.002 A 
ATOM     69  C   UNL     1      28.243  38.278   8.524  1.00  0.00     0.017 A 
ATOM     70  I   UNL     1      26.173  38.443  10.752  1.00  0.00    -0.042 I 
ATOM     71  C   UNL     1      28.774  37.911   7.314  1.00  0.00     0.001 A 
ENDBRANCH  63  65
ENDBRANCH  59  60
ENDBRANCH  58  59
ENDBRANCH  55  58
ENDBRANCH  53  54
ENDBRANCH  50  53
ENDBRANCH  47  50
ENDBRANCH   5  47
BRANCH   4  72
ATOM     72  N   UNL     1      20.519  28.415  12.986  1.00  0.00    -0.348 N 
ATOM     73  C   UNL     1      19.345  28.302  12.161  1.00  0.00     0.217 C 
ATOM     74  H   UNL     1      20.623  27.653  13.680  1.00  0.00     0.163 HD
ATOM     75  C   UNL     1      18.369  27.203  12.287  1.00  0.00     0.114 C 
ATOM     76  O   UNL     1      19.182  29.210  11.303  1.00  0.00    -0.275 OA
ENDBRANCH   4  72
TORSDOF 30
BEGIN_RES LYS A 131
REMARK  4 active torsions:
REMARK  status: ('A' for Active; 'I' for Inactive)
REMARK    1  A    between atoms: CA   and  CB  
REMARK    2  A    between atoms: CB   and  CG  
REMARK    3  A    between atoms: CG   and  CD  
REMARK    4  A    between atoms: CD   and  CE  
ROOT
ATOM      1  CA  LYS A 131      29.867  25.555  16.977  1.00 20.52     0.186 C 
ENDROOT
BRANCH   1   2
ATOM      2  CB  LYS A 131      28.345  25.722  17.026  1.00 20.94     0.034 C 
BRANCH   2   3
ATOM      3  CG  LYS A 131      27.833  26.071  18.415  1.00 22.96     0.005 C 
BRANCH   3   4
ATOM      4  CD  LYS A 131      26.539  25.375  18.733  1.00 24.33     0.041 C 
BRANCH   4   5
ATOM      5  CE  LYS A 131      26.503  24.021  18.033  1.00 26.91     0.338 C 
ATOM      6  NZ  LYS A 131      25.225  23.847  17.303  1.00 27.40     0.618 N 
ENDBRANCH   4   5
ENDBRANCH   3   4
ENDBRANCH   2   3
ENDBRANCH   1   2
END_RES LYS A 131
BEGIN_RES LYS A 135
REMARK  4 active torsions:
REMARK  status: ('A' for Active; 'I' for Inactive)
REMARK    5  A    between atoms: CA   and  CB  
REMARK    6  A    between atoms: CB   and  CG  
REMARK    7  A    between atoms: CG   and  CD  
REMARK    8  A    between atoms: CD   and  CE  
ROOT
ATOM      7  CA  LYS A 135      33.193  34.663   9.290  1.00 25.02     0.186 C 
ENDROOT
BRANCH   7   8
ATOM      8  CB  LYS A 135      32.060  35.360  10.034  1.00 26.63     0.034 C 
BRANCH   8   9
ATOM      9  CG  LYS A 135      30.793  35.479   9.227  1.00 29.45     0.005 C 
BRANCH   9  10
ATOM     10  CD  LYS A 135      30.125  34.121   9.075  1.00 32.00     0.041 C 
BRANCH  10  11
ATOM     11  CE  LYS A 135      28.678  34.284   8.650  1.00 34.25     0.338 C 
ATOM     12  NZ  LYS A 135      27.754  33.669   9.643  1.00 35.99     0.618 N 
ENDBRANCH  10  11
ENDBRANCH   9  10
ENDBRANCH   8   9
ENDBRANCH   7   8
END_RES LYS A 135
