REMARK VINA RESULT:    -7.439      3.788      8.693
REMARK INTER + INTRA:         -21.255
REMARK INTER:                 -10.081
REMARK INTRA:                 -11.174
REMARK UNBOUND:                -1.206
REMARK SMILES CC(=O)N[C@@H]1[C@@H](O)C[C@](OC[C@H]2O[C@@H](O[C@H]3[C@H](O)[C@@H](O)[C@H](OCCN=[N+]=[N-])O[C@@H]3CO)[C@H](O)[C@@H](O)[C@H]2O)(C(=O)O)O[C@H]1C(O)[C@H](O)CNC(=O)OCc1cn(C2CCc3ccccc3NC2=O)nn1
REMARK SMILES IDX 43 1 42 2 9 3 8 4 41 5 6 6 5 7 10 8 11 9 12 10 14 11 13 12
REMARK SMILES IDX 32 13 34 14 36 15 15 16 16 17 29 18 28 19 21 20 17 21 19 22
REMARK SMILES IDX 30 23 31 24 22 26 23 27 24 28 25 29 26 30 27 31 18 32 20 34
REMARK SMILES IDX 33 36 35 38 37 40 38 42 39 43 40 44 7 46 4 48 2 49 1 51 3 52
REMARK SMILES IDX 44 53 45 55 46 56 47 58 48 59 49 60 50 62 51 63 52 64 53 65
REMARK SMILES IDX 54 66 69 67 55 68 68 69 56 70 57 71 66 73 65 74 67 75 64 77
REMARK SMILES IDX 59 78 63 79 60 80 62 81 61 82 58 83
REMARK H PARENT 31 25 18 33 20 35 33 37 35 39 37 41 40 45 7 47 4 50 44 54
REMARK H PARENT 46 57 48 61 65 76
REMARK Flexibility Score: 90.00
ROOT
ATOM      1  C   UNL     1      25.106  36.306  10.021  1.00  0.00     0.176 C 
ENDROOT
BRANCH   1   2
ATOM      2  C   UNL     1      25.305  37.249  11.225  1.00  0.00     0.178 C 
ATOM      3  C   UNL     1      24.292  36.860  13.348  1.00  0.00     0.272 C 
ATOM      4  C   UNL     1      23.435  38.048  13.178  1.00  0.00     0.113 C 
ATOM      5  O   UNL     1      25.290  36.641  12.396  1.00  0.00    -0.332 OA
ATOM      6  C   UNL     1      23.131  38.344  11.749  1.00  0.00     0.145 C 
ATOM      7  C   UNL     1      24.460  38.476  11.019  1.00  0.00     0.142 C 
BRANCH   3   8
ATOM      8  O   UNL     1      23.651  35.678  13.463  1.00  0.00    -0.338 OA
BRANCH   8   9
ATOM      9  C   UNL     1      22.531  35.474  14.137  1.00  0.00     0.199 C 
BRANCH   9  10
ATOM     10  C   UNL     1      21.472  34.523  13.787  1.00  0.00     0.179 C 
ATOM     11  C   UNL     1      19.483  34.477  12.606  1.00  0.00     0.282 C 
ATOM     12  O   UNL     1      20.669  35.184  12.797  1.00  0.00    -0.341 OA
ATOM     13  C   UNL     1      19.473  33.078  13.081  1.00  0.00     0.202 C 
ATOM     14  C   UNL     1      20.765  32.336  13.060  1.00  0.00     0.179 C 
ATOM     15  C   UNL     1      21.935  33.287  13.017  1.00  0.00     0.177 C 
BRANCH  11  16
ATOM     16  O   UNL     1      19.088  34.634  11.261  1.00  0.00    -0.341 OA
BRANCH  16  17
ATOM     17  C   UNL     1      19.743  35.664  10.639  1.00  0.00     0.184 C 
ATOM     18  C   UNL     1      18.936  36.919  10.437  1.00  0.00     0.178 C 
ATOM     19  O   UNL     1      19.826  37.869   9.931  1.00  0.00    -0.341 OA
ATOM     20  C   UNL     1      20.090  37.657   8.586  1.00  0.00     0.281 C 
ATOM     21  C   UNL     1      20.245  35.247   9.264  1.00  0.00     0.180 C 
ATOM     22  C   UNL     1      19.945  36.219   8.182  1.00  0.00     0.202 C 
BRANCH  18  23
ATOM     23  C   UNL     1      18.413  37.473  11.748  1.00  0.00     0.191 C 
BRANCH  23  24
ATOM     24  O   UNL     1      19.446  37.885  12.586  1.00  0.00    -0.394 OA
ATOM     25  H   UNL     1      20.337  37.669  12.235  1.00  0.00     0.210 HD
ENDBRANCH  23  24
ENDBRANCH  18  23
BRANCH  20  26
ATOM     26  O   UNL     1      21.344  38.163   8.300  1.00  0.00    -0.350 OA
BRANCH  26  27
ATOM     27  C   UNL     1      21.466  39.487   8.685  1.00  0.00     0.169 C 
BRANCH  27  28
ATOM     28  C   UNL     1      22.557  40.246   8.002  1.00  0.00     0.119 C 
BRANCH  28  29
ATOM     29  N   UNL     1      22.300  41.671   8.135  1.00  0.00    -0.092 NA
ATOM     30  N   UNL     1      23.205  42.478   8.413  1.00  0.00     0.001 N 
ATOM     31  N   UNL     1      24.218  43.161   8.202  1.00  0.00    -0.003 NA
ENDBRANCH  28  29
ENDBRANCH  27  28
ENDBRANCH  26  27
ENDBRANCH  20  26
BRANCH  21  32
ATOM     32  O   UNL     1      21.600  34.883   9.305  1.00  0.00    -0.387 OA
ATOM     33  H   UNL     1      22.073  35.355   8.571  1.00  0.00     0.211 HD
ENDBRANCH  21  32
BRANCH  22  34
ATOM     34  O   UNL     1      18.663  36.024   7.617  1.00  0.00    -0.385 OA
ATOM     35  H   UNL     1      18.338  36.820   7.156  1.00  0.00     0.211 HD
ENDBRANCH  22  34
ENDBRANCH  16  17
ENDBRANCH  11  16
BRANCH  13  36
ATOM     36  O   UNL     1      18.823  33.000  14.317  1.00  0.00    -0.385 OA
ATOM     37  H   UNL     1      19.082  32.159  14.776  1.00  0.00     0.211 HD
ENDBRANCH  13  36
BRANCH  14  38
ATOM     38  O   UNL     1      20.827  31.368  12.060  1.00  0.00    -0.387 OA
ATOM     39  H   UNL     1      20.574  30.510  12.492  1.00  0.00     0.211 HD
ENDBRANCH  14  38
BRANCH  15  40
ATOM     40  O   UNL     1      22.200  33.657  11.675  1.00  0.00    -0.387 OA
ATOM     41  H   UNL     1      21.763  32.974  11.122  1.00  0.00     0.211 HD
ENDBRANCH  15  40
ENDBRANCH   9  10
ENDBRANCH   8   9
ENDBRANCH   3   8
BRANCH   3  42
ATOM     42  C   UNL     1      25.146  37.136  14.567  1.00  0.00     0.364 C 
ATOM     43  O   UNL     1      25.441  36.266  15.354  1.00  0.00    -0.246 OA
BRANCH  42  44
ATOM     44  O   UNL     1      25.614  38.433  14.801  1.00  0.00    -0.477 OA
ATOM     45  H   UNL     1      26.372  38.627  15.435  1.00  0.00     0.296 HD
ENDBRANCH  42  44
ENDBRANCH   3  42
BRANCH   6  46
ATOM     46  O   UNL     1      22.414  37.249  11.238  1.00  0.00    -0.391 OA
ATOM     47  H   UNL     1      21.511  37.479  10.963  1.00  0.00     0.211 HD
ENDBRANCH   6  46
BRANCH   7  48
ATOM     48  N   UNL     1      25.064  39.703  11.417  1.00  0.00    -0.348 N 
ATOM     49  C   UNL     1      25.715  40.535  10.463  1.00  0.00     0.217 C 
ATOM     50  H   UNL     1      25.048  40.021  12.415  1.00  0.00     0.163 HD
ATOM     51  C   UNL     1      26.362  41.824  10.829  1.00  0.00     0.114 C 
ATOM     52  O   UNL     1      25.733  40.155   9.286  1.00  0.00    -0.275 OA
ENDBRANCH   7  48
ENDBRANCH   1   2
BRANCH   1  53
ATOM     53  O   UNL     1      24.125  35.360  10.332  1.00  0.00    -0.388 OA
ATOM     54  H   UNL     1      23.208  35.696  10.219  1.00  0.00     0.211 HD
ENDBRANCH   1  53
BRANCH   1  55
ATOM     55  C   UNL     1      24.691  37.015   8.784  1.00  0.00     0.165 C 
BRANCH  55  56
ATOM     56  O   UNL     1      23.519  36.548   8.202  1.00  0.00    -0.388 OA
ATOM     57  H   UNL     1      22.757  36.963   8.688  1.00  0.00     0.211 HD
ENDBRANCH  55  56
BRANCH  55  58
ATOM     58  C   UNL     1      25.718  37.121   7.704  1.00  0.00     0.154 C 
BRANCH  58  59
ATOM     59  N   UNL     1      26.989  37.640   8.109  1.00  0.00    -0.319 N 
ATOM     60  C   UNL     1      27.942  38.195   7.224  1.00  0.00     0.407 C 
ATOM     61  H   UNL     1      27.230  37.608   9.121  1.00  0.00     0.167 HD
ATOM     62  O   UNL     1      27.717  38.266   5.992  1.00  0.00    -0.225 OA
BRANCH  60  63
ATOM     63  O   UNL     1      29.131  38.663   7.731  1.00  0.00    -0.443 OA
BRANCH  63  64
ATOM     64  C   UNL     1      29.227  39.513   8.820  1.00  0.00     0.294 C 
BRANCH  64  65
ATOM     65  C   UNL     1      29.478  38.757  10.049  1.00  0.00     0.120 A 
ATOM     66  C   UNL     1      28.532  38.229  10.892  1.00  0.00     0.139 A 
ATOM     67  N   UNL     1      30.669  38.428  10.605  1.00  0.00    -0.132 NA
ATOM     68  N   UNL     1      29.150  37.602  11.924  1.00  0.00    -0.240 N 
ATOM     69  N   UNL     1      30.442  37.745  11.715  1.00  0.00    -0.066 NA
BRANCH  68  70
ATOM     70  C   UNL     1      28.503  36.903  13.047  1.00  0.00     0.198 C 
BRANCH  70  71
ATOM     71  C   UNL     1      28.653  35.452  12.778  1.00  0.00     0.042 CG0
ATOM     72  G   UNL     1      28.479  34.529  13.933  1.00  0.00     0.000 G0
ENDBRANCH  70  71
BRANCH  70  73
ATOM     73  C   UNL     1      29.150  37.413  14.259  1.00  0.00     0.249 C 
ATOM     74  N   UNL     1      30.204  36.865  15.036  1.00  0.00    -0.324 N 
ATOM     75  O   UNL     1      28.695  38.513  14.675  1.00  0.00    -0.272 OA
ATOM     76  H   UNL     1      30.779  37.506  15.624  1.00  0.00     0.170 HD
BRANCH  74  77
ATOM     77  C   UNL     1      30.536  35.460  15.062  1.00  0.00     0.044 A 
ATOM     78  C   UNL     1      29.807  34.378  14.585  1.00  0.00    -0.024 A 
ATOM     79  C   UNL     1      31.760  35.239  15.657  1.00  0.00     0.026 A 
ATOM     80  C   UNL     1      30.275  33.089  14.691  1.00  0.00     0.006 A 
ATOM     81  C   UNL     1      32.253  33.954  15.777  1.00  0.00     0.002 A 
ATOM     82  C   UNL     1      31.495  32.886  15.287  1.00  0.00     0.000 A 
BRANCH  78  83
ATOM     83  C   UNL     1      28.476  34.512  13.927  1.00  0.00     0.040 CG0
ATOM     84  G   UNL     1      28.653  35.444  12.779  1.00  0.00     0.000 G0
ENDBRANCH  78  83
ENDBRANCH  74  77
ENDBRANCH  70  73
ENDBRANCH  68  70
ENDBRANCH  64  65
ENDBRANCH  63  64
ENDBRANCH  60  63
ENDBRANCH  58  59
ENDBRANCH  55  58
ENDBRANCH   1  55
TORSDOF 30
BEGIN_RES LYS A 131
REMARK  4 active torsions:
REMARK  status: ('A' for Active; 'I' for Inactive)
REMARK    1  A    between atoms: CA   and  CB  
REMARK    2  A    between atoms: CB   and  CG  
REMARK    3  A    between atoms: CG   and  CD  
REMARK    4  A    between atoms: CD   and  CE  
ROOT
ATOM      1  CA  LYS A 131      29.867  25.555  16.977  1.00 20.52     0.186 C 
ENDROOT
BRANCH   1   2
ATOM      2  CB  LYS A 131      28.345  25.722  17.026  1.00 20.94     0.034 C 
BRANCH   2   3
ATOM      3  CG  LYS A 131      27.602  24.398  16.935  1.00 22.96     0.005 C 
BRANCH   3   4
ATOM      4  CD  LYS A 131      26.485  24.305  17.937  1.00 24.33     0.041 C 
BRANCH   4   5
ATOM      5  CE  LYS A 131      25.297  23.583  17.309  1.00 26.91     0.338 C 
ATOM      6  NZ  LYS A 131      24.085  24.434  17.364  1.00 27.40     0.618 N 
ENDBRANCH   4   5
ENDBRANCH   3   4
ENDBRANCH   2   3
ENDBRANCH   1   2
END_RES LYS A 131
BEGIN_RES LYS A 135
REMARK  4 active torsions:
REMARK  status: ('A' for Active; 'I' for Inactive)
REMARK    5  A    between atoms: CA   and  CB  
REMARK    6  A    between atoms: CB   and  CG  
REMARK    7  A    between atoms: CG   and  CD  
REMARK    8  A    between atoms: CD   and  CE  
ROOT
ATOM      7  CA  LYS A 135      33.193  34.663   9.290  1.00 25.02     0.186 C 
ENDROOT
BRANCH   7   8
ATOM      8  CB  LYS A 135      32.060  35.360  10.034  1.00 26.63     0.034 C 
BRANCH   8   9
ATOM      9  CG  LYS A 135      30.723  34.685   9.865  1.00 29.45     0.005 C 
BRANCH   9  10
ATOM     10  CD  LYS A 135      29.889  35.403   8.814  1.00 32.00     0.041 C 
BRANCH  10  11
ATOM     11  CE  LYS A 135      28.778  34.502   8.310  1.00 34.25     0.338 C 
ATOM     12  NZ  LYS A 135      27.857  34.116   9.416  1.00 35.99     0.618 N 
ENDBRANCH  10  11
ENDBRANCH   9  10
ENDBRANCH   8   9
ENDBRANCH   7   8
END_RES LYS A 135
