REMARK VINA RESULT:    -5.658      3.728      6.096
REMARK INTER + INTRA:         -22.034
REMARK INTER:                 -10.676
REMARK INTRA:                 -11.357
REMARK UNBOUND:                -8.107
REMARK SMILES CC(=O)N[C@@H]1[C@@H](O)C[C@](OC[C@H]2O[C@@H](O[C@H]3[C@H](O)[C@@H](O)[C@H](OCCN=[N+]=[N-])O[C@@H]3CO)[C@H](O)[C@@H](O)[C@H]2O)(C(=O)O)O[C@H]1C(O)[C@H](O)CNC(=O)OCc1cn(C2CCN(C)CC2)nn1
REMARK SMILES IDX 9 1 8 2 6 3 5 4 42 5 41 6 10 7 11 8 12 9 14 10 13 11 32 12
REMARK SMILES IDX 34 13 36 14 15 15 16 16 29 17 28 18 21 19 17 20 19 21 30 22
REMARK SMILES IDX 31 23 22 25 23 26 24 27 25 28 26 29 27 30 18 31 20 33 33 35
REMARK SMILES IDX 35 37 37 39 38 41 39 42 40 43 7 45 43 47 44 48 45 50 46 51
REMARK SMILES IDX 47 53 48 54 49 55 50 57 51 58 52 59 53 60 54 61 64 62 55 63
REMARK SMILES IDX 63 64 56 65 57 66 62 67 58 68 61 69 59 70 60 71 4 72 2 73
REMARK SMILES IDX 1 75 3 76
REMARK H PARENT 31 24 18 32 20 34 33 36 35 38 37 40 40 44 7 46 44 49 46 52
REMARK H PARENT 48 56 4 74
REMARK Flexibility Score: inf
ROOT
ATOM      1  C   UNL     1      27.192  35.982  12.444  1.00  0.00     0.272 C 
ATOM      2  C   UNL     1      26.489  37.003  13.320  1.00  0.00     0.113 C 
ATOM      3  C   UNL     1      27.351  37.972  14.015  1.00  0.00     0.145 C 
ATOM      4  C   UNL     1      28.528  38.471  13.206  1.00  0.00     0.142 C 
ATOM      5  C   UNL     1      28.907  37.568  12.096  1.00  0.00     0.178 C 
ATOM      6  O   UNL     1      28.019  36.742  11.555  1.00  0.00    -0.332 OA
ENDROOT
BRANCH   1   7
ATOM      7  O   UNL     1      26.289  35.447  11.608  1.00  0.00    -0.338 OA
BRANCH   7   8
ATOM      8  C   UNL     1      25.347  35.947  10.883  1.00  0.00     0.199 C 
BRANCH   8   9
ATOM      9  C   UNL     1      25.031  35.505   9.487  1.00  0.00     0.179 C 
ATOM     10  C   UNL     1      22.927  36.453   8.874  1.00  0.00     0.282 C 
ATOM     11  O   UNL     1      23.668  35.446   9.394  1.00  0.00    -0.341 OA
ATOM     12  C   UNL     1      23.692  37.640   8.478  1.00  0.00     0.202 C 
ATOM     13  C   UNL     1      24.813  37.125   7.560  1.00  0.00     0.179 C 
ATOM     14  C   UNL     1      25.704  36.308   8.424  1.00  0.00     0.177 C 
BRANCH  10  15
ATOM     15  O   UNL     1      21.888  36.616   9.781  1.00  0.00    -0.341 OA
BRANCH  15  16
ATOM     16  C   UNL     1      20.713  36.057   9.489  1.00  0.00     0.184 C 
ATOM     17  C   UNL     1      20.495  34.805  10.267  1.00  0.00     0.178 C 
ATOM     18  O   UNL     1      19.129  34.504  10.251  1.00  0.00    -0.341 OA
ATOM     19  C   UNL     1      18.741  34.155   8.979  1.00  0.00     0.281 C 
ATOM     20  C   UNL     1      20.583  35.607   8.025  1.00  0.00     0.180 C 
ATOM     21  C   UNL     1      19.139  35.129   7.903  1.00  0.00     0.202 C 
BRANCH  17  22
ATOM     22  C   UNL     1      21.065  34.802  11.643  1.00  0.00     0.191 C 
BRANCH  22  23
ATOM     23  O   UNL     1      22.300  34.170  11.615  1.00  0.00    -0.394 OA
ATOM     24  H   UNL     1      22.234  33.238  11.286  1.00  0.00     0.210 HD
ENDBRANCH  22  23
ENDBRANCH  17  22
BRANCH  19  25
ATOM     25  O   UNL     1      17.340  34.138   8.982  1.00  0.00    -0.350 OA
BRANCH  25  26
ATOM     26  C   UNL     1      16.793  32.882   8.921  1.00  0.00     0.169 C 
BRANCH  26  27
ATOM     27  C   UNL     1      15.742  32.729   7.840  1.00  0.00     0.119 C 
BRANCH  27  28
ATOM     28  N   UNL     1      16.207  33.275   6.580  1.00  0.00    -0.092 NA
ATOM     29  N   UNL     1      16.219  32.591   5.558  1.00  0.00     0.001 N 
ATOM     30  N   UNL     1      16.707  31.943   4.630  1.00  0.00    -0.003 NA
ENDBRANCH  27  28
ENDBRANCH  26  27
ENDBRANCH  25  26
ENDBRANCH  19  25
BRANCH  20  31
ATOM     31  O   UNL     1      20.735  36.631   7.129  1.00  0.00    -0.387 OA
ATOM     32  H   UNL     1      19.918  37.175   7.122  1.00  0.00     0.211 HD
ENDBRANCH  20  31
BRANCH  21  33
ATOM     33  O   UNL     1      18.948  34.575   6.662  1.00  0.00    -0.385 OA
ATOM     34  H   UNL     1      19.741  34.138   6.312  1.00  0.00     0.211 HD
ENDBRANCH  21  33
ENDBRANCH  15  16
ENDBRANCH  10  15
BRANCH  12  35
ATOM     35  O   UNL     1      23.007  38.542   7.667  1.00  0.00    -0.385 OA
ATOM     36  H   UNL     1      22.387  39.088   8.211  1.00  0.00     0.211 HD
ENDBRANCH  12  35
BRANCH  13  37
ATOM     37  O   UNL     1      25.476  38.140   6.916  1.00  0.00    -0.387 OA
ATOM     38  H   UNL     1      26.413  38.141   7.238  1.00  0.00     0.211 HD
ENDBRANCH  13  37
BRANCH  14  39
ATOM     39  O   UNL     1      26.635  37.153   9.021  1.00  0.00    -0.387 OA
ATOM     40  H   UNL     1      26.332  38.089   9.074  1.00  0.00     0.211 HD
ENDBRANCH  14  39
ENDBRANCH   8   9
ENDBRANCH   7   8
ENDBRANCH   1   7
BRANCH   1  41
ATOM     41  C   UNL     1      28.053  35.154  13.277  1.00  0.00     0.364 C 
ATOM     42  O   UNL     1      27.595  34.824  14.445  1.00  0.00    -0.246 OA
BRANCH  41  43
ATOM     43  O   UNL     1      29.304  34.647  13.046  1.00  0.00    -0.477 OA
ATOM     44  H   UNL     1      29.520  33.952  12.332  1.00  0.00     0.296 HD
ENDBRANCH  41  43
ENDBRANCH   1  41
BRANCH   3  45
ATOM     45  O   UNL     1      26.559  39.097  14.396  1.00  0.00    -0.391 OA
ATOM     46  H   UNL     1      26.881  39.915  13.964  1.00  0.00     0.211 HD
ENDBRANCH   3  45
BRANCH   5  47
ATOM     47  C   UNL     1      29.548  38.370  10.930  1.00  0.00     0.176 C 
BRANCH  47  48
ATOM     48  O   UNL     1      29.150  37.810   9.723  1.00  0.00    -0.388 OA
ATOM     49  H   UNL     1      29.028  38.474   9.013  1.00  0.00     0.211 HD
ENDBRANCH  47  48
BRANCH  47  50
ATOM     50  C   UNL     1      31.001  38.405  11.063  1.00  0.00     0.165 C 
BRANCH  50  51
ATOM     51  O   UNL     1      31.338  39.775  11.393  1.00  0.00    -0.388 OA
ATOM     52  H   UNL     1      31.863  39.782  12.229  1.00  0.00     0.211 HD
ENDBRANCH  50  51
BRANCH  50  53
ATOM     53  C   UNL     1      31.874  38.004   9.953  1.00  0.00     0.154 C 
BRANCH  53  54
ATOM     54  N   UNL     1      31.614  38.326   8.614  1.00  0.00    -0.319 N 
ATOM     55  C   UNL     1      31.920  39.538   7.946  1.00  0.00     0.407 C 
ATOM     56  H   UNL     1      31.125  37.576   8.015  1.00  0.00     0.167 HD
ATOM     57  O   UNL     1      32.520  40.465   8.523  1.00  0.00    -0.225 OA
BRANCH  55  58
ATOM     58  O   UNL     1      31.527  39.677   6.596  1.00  0.00    -0.443 OA
BRANCH  58  59
ATOM     59  C   UNL     1      30.566  40.648   6.267  1.00  0.00     0.294 C 
BRANCH  59  60
ATOM     60  C   UNL     1      29.358  40.419   7.095  1.00  0.00     0.120 A 
ATOM     61  C   UNL     1      28.792  41.339   7.995  1.00  0.00     0.138 A 
ATOM     62  N   UNL     1      28.551  39.352   7.182  1.00  0.00    -0.132 NA
ATOM     63  N   UNL     1      27.700  40.802   8.566  1.00  0.00    -0.249 N 
ATOM     64  N   UNL     1      27.578  39.604   8.058  1.00  0.00    -0.067 NA
BRANCH  63  65
ATOM     65  C   UNL     1      26.844  41.435   9.542  1.00  0.00     0.111 C 
ATOM     66  C   UNL     1      25.620  40.577   9.698  1.00  0.00     0.043 C 
ATOM     67  C   UNL     1      27.517  41.588  10.877  1.00  0.00     0.043 C 
ATOM     68  C   UNL     1      25.725  39.788  10.983  1.00  0.00     0.086 C 
ATOM     69  C   UNL     1      26.547  41.793  12.010  1.00  0.00     0.086 C 
ATOM     70  N   UNL     1      25.569  40.728  12.093  1.00  0.00    -0.306 NA
ATOM     71  C   UNL     1      24.237  41.299  12.001  1.00  0.00     0.105 C 
ENDBRANCH  63  65
ENDBRANCH  59  60
ENDBRANCH  58  59
ENDBRANCH  55  58
ENDBRANCH  53  54
ENDBRANCH  50  53
ENDBRANCH  47  50
ENDBRANCH   5  47
BRANCH   4  72
ATOM     72  N   UNL     1      29.666  38.777  14.052  1.00  0.00    -0.348 N 
ATOM     73  C   UNL     1      29.842  40.098  14.522  1.00  0.00     0.217 C 
ATOM     74  H   UNL     1      30.368  38.049  14.330  1.00  0.00     0.163 HD
ATOM     75  C   UNL     1      31.002  40.467  15.396  1.00  0.00     0.114 C 
ATOM     76  O   UNL     1      29.005  41.002  14.203  1.00  0.00    -0.275 OA
ENDBRANCH   4  72
TORSDOF 30
BEGIN_RES LYS A 131
REMARK  4 active torsions:
REMARK  status: ('A' for Active; 'I' for Inactive)
REMARK    1  A    between atoms: CA   and  CB  
REMARK    2  A    between atoms: CB   and  CG  
REMARK    3  A    between atoms: CG   and  CD  
REMARK    4  A    between atoms: CD   and  CE  
ROOT
ATOM      1  CA  LYS A 131      29.867  25.555  16.977  1.00 20.52     0.186 C 
ENDROOT
BRANCH   1   2
ATOM      2  CB  LYS A 131      28.345  25.722  17.026  1.00 20.94     0.034 C 
BRANCH   2   3
ATOM      3  CG  LYS A 131      27.601  24.401  16.906  1.00 22.96     0.005 C 
BRANCH   3   4
ATOM      4  CD  LYS A 131      26.156  24.526  17.298  1.00 24.33     0.041 C 
BRANCH   4   5
ATOM      5  CE  LYS A 131      25.618  23.159  17.707  1.00 26.91     0.338 C 
ATOM      6  NZ  LYS A 131      25.422  23.096  19.175  1.00 27.40     0.618 N 
ENDBRANCH   4   5
ENDBRANCH   3   4
ENDBRANCH   2   3
ENDBRANCH   1   2
END_RES LYS A 131
BEGIN_RES LYS A 135
REMARK  4 active torsions:
REMARK  status: ('A' for Active; 'I' for Inactive)
REMARK    5  A    between atoms: CA   and  CB  
REMARK    6  A    between atoms: CB   and  CG  
REMARK    7  A    between atoms: CG   and  CD  
REMARK    8  A    between atoms: CD   and  CE  
ROOT
ATOM      7  CA  LYS A 135      33.193  34.663   9.290  1.00 25.02     0.186 C 
ENDROOT
BRANCH   7   8
ATOM      8  CB  LYS A 135      32.060  35.360  10.034  1.00 26.63     0.034 C 
BRANCH   8   9
ATOM      9  CG  LYS A 135      30.736  34.650   9.918  1.00 29.45     0.005 C 
BRANCH   9  10
ATOM     10  CD  LYS A 135      30.331  34.505   8.459  1.00 32.00     0.041 C 
BRANCH  10  11
ATOM     11  CE  LYS A 135      28.821  34.474   8.326  1.00 34.25     0.338 C 
ATOM     12  NZ  LYS A 135      28.195  33.760   9.474  1.00 35.99     0.618 N 
ENDBRANCH  10  11
ENDBRANCH   9  10
ENDBRANCH   8   9
ENDBRANCH   7   8
END_RES LYS A 135
