REMARK VINA RESULT:    -5.390      2.194      6.395
REMARK INTER + INTRA:         -23.718
REMARK INTER:                 -13.068
REMARK INTRA:                 -10.650
REMARK UNBOUND:                -9.504
REMARK SMILES CC(=O)N[C@@H]1[C@@H](O)C[C@](OC[C@H]2O[C@@H](O[C@H]3[C@H](O)[C@@H](O)[C@H](OCCN=[N+]=[N-])O[C@@H]3CO)[C@H](O)[C@@H](O)[C@H]2O)(C(=O)O)O[C@H]1C(O)[C@H](O)CNC(=O)OCc1cn(COCc2ccccc2)nn1
REMARK SMILES IDX 43 1 42 2 9 3 8 4 41 5 6 6 5 7 10 8 11 9 12 10 14 11 13 12
REMARK SMILES IDX 32 13 34 14 36 15 15 16 16 17 29 18 28 19 21 20 17 21 19 22
REMARK SMILES IDX 30 23 31 24 22 26 23 27 24 28 25 29 26 30 27 31 18 32 20 34
REMARK SMILES IDX 33 36 35 38 37 40 38 42 39 43 40 44 7 46 4 48 2 49 1 51 3 52
REMARK SMILES IDX 44 53 45 55 46 56 47 58 48 59 49 60 50 62 51 63 52 64 53 65
REMARK SMILES IDX 54 66 66 67 55 68 65 69 56 70 57 71 58 72 59 73 60 74 64 75
REMARK SMILES IDX 61 76 63 77 62 78
REMARK H PARENT 31 25 18 33 20 35 33 37 35 39 37 41 40 45 7 47 4 50 44 54
REMARK H PARENT 46 57 48 61
REMARK Flexibility Score: inf
ROOT
ATOM      1  C   UNL     1      27.311  38.515   5.643  1.00  0.00     0.176 C 
ENDROOT
BRANCH   1   2
ATOM      2  C   UNL     1      26.767  39.716   6.449  1.00  0.00     0.178 C 
ATOM      3  C   UNL     1      26.400  40.216   8.689  1.00  0.00     0.272 C 
ATOM      4  C   UNL     1      25.079  40.880   8.312  1.00  0.00     0.113 C 
ATOM      5  O   UNL     1      26.608  39.249   7.755  1.00  0.00    -0.332 OA
ATOM      6  C   UNL     1      24.454  40.143   7.151  1.00  0.00     0.145 C 
ATOM      7  C   UNL     1      25.438  40.181   5.943  1.00  0.00     0.142 C 
BRANCH   3   8
ATOM      8  O   UNL     1      26.302  39.661   9.980  1.00  0.00    -0.338 OA
BRANCH   8   9
ATOM      9  C   UNL     1      25.082  39.596  10.533  1.00  0.00     0.199 C 
BRANCH   9  10
ATOM     10  C   UNL     1      24.714  38.164  10.842  1.00  0.00     0.179 C 
ATOM     11  C   UNL     1      24.070  36.147  10.033  1.00  0.00     0.282 C 
ATOM     12  O   UNL     1      24.444  37.457   9.652  1.00  0.00    -0.341 OA
ATOM     13  C   UNL     1      25.297  35.352  10.465  1.00  0.00     0.202 C 
ATOM     14  C   UNL     1      26.390  36.396  10.733  1.00  0.00     0.179 C 
ATOM     15  C   UNL     1      25.741  37.433  11.626  1.00  0.00     0.177 C 
BRANCH  11  16
ATOM     16  O   UNL     1      23.534  35.531   8.936  1.00  0.00    -0.341 OA
BRANCH  16  17
ATOM     17  C   UNL     1      22.153  35.407   8.975  1.00  0.00     0.184 C 
ATOM     18  C   UNL     1      21.450  36.271   7.990  1.00  0.00     0.178 C 
ATOM     19  O   UNL     1      21.515  37.573   8.386  1.00  0.00    -0.341 OA
ATOM     20  C   UNL     1      20.802  37.875   9.522  1.00  0.00     0.281 C 
ATOM     21  C   UNL     1      21.682  35.653  10.367  1.00  0.00     0.180 C 
ATOM     22  C   UNL     1      20.853  36.862  10.597  1.00  0.00     0.202 C 
BRANCH  18  23
ATOM     23  C   UNL     1      20.045  35.759   7.772  1.00  0.00     0.191 C 
BRANCH  23  24
ATOM     24  O   UNL     1      19.437  36.394   6.682  1.00  0.00    -0.394 OA
ATOM     25  H   UNL     1      20.022  36.313   5.887  1.00  0.00     0.210 HD
ENDBRANCH  23  24
ENDBRANCH  18  23
BRANCH  20  26
ATOM     26  O   UNL     1      19.471  38.057   9.130  1.00  0.00    -0.350 OA
BRANCH  26  27
ATOM     27  C   UNL     1      19.212  39.278   8.563  1.00  0.00     0.169 C 
BRANCH  27  28
ATOM     28  C   UNL     1      19.155  40.285   9.699  1.00  0.00     0.119 C 
BRANCH  28  29
ATOM     29  N   UNL     1      18.219  39.894  10.729  1.00  0.00    -0.092 NA
ATOM     30  N   UNL     1      18.604  39.754  11.904  1.00  0.00     0.001 N 
ATOM     31  N   UNL     1      19.091  39.118  12.858  1.00  0.00    -0.003 NA
ENDBRANCH  28  29
ENDBRANCH  27  28
ENDBRANCH  26  27
ENDBRANCH  20  26
BRANCH  21  32
ATOM     32  O   UNL     1      20.913  34.544  10.814  1.00  0.00    -0.387 OA
ATOM     33  H   UNL     1      20.618  34.651  11.732  1.00  0.00     0.211 HD
ENDBRANCH  21  32
BRANCH  22  34
ATOM     34  O   UNL     1      21.365  37.521  11.746  1.00  0.00    -0.385 OA
ATOM     35  H   UNL     1      20.572  37.881  12.223  1.00  0.00     0.211 HD
ENDBRANCH  22  34
ENDBRANCH  16  17
ENDBRANCH  11  16
BRANCH  13  36
ATOM     36  O   UNL     1      25.094  34.701  11.682  1.00  0.00    -0.385 OA
ATOM     37  H   UNL     1      24.162  34.884  11.960  1.00  0.00     0.211 HD
ENDBRANCH  13  36
BRANCH  14  38
ATOM     38  O   UNL     1      26.649  36.977   9.499  1.00  0.00    -0.387 OA
ATOM     39  H   UNL     1      26.005  36.714   8.794  1.00  0.00     0.211 HD
ENDBRANCH  14  38
BRANCH  15  40
ATOM     40  O   UNL     1      26.673  38.253  12.243  1.00  0.00    -0.387 OA
ATOM     41  H   UNL     1      26.882  39.071  11.723  1.00  0.00     0.211 HD
ENDBRANCH  15  40
ENDBRANCH   9  10
ENDBRANCH   8   9
ENDBRANCH   3   8
BRANCH   3  42
ATOM     42  C   UNL     1      27.515  41.160   8.754  1.00  0.00     0.364 C 
ATOM     43  O   UNL     1      28.582  41.041   9.413  1.00  0.00    -0.246 OA
BRANCH  42  44
ATOM     44  O   UNL     1      27.435  42.360   8.007  1.00  0.00    -0.477 OA
ATOM     45  H   UNL     1      28.091  43.121   8.178  1.00  0.00     0.296 HD
ENDBRANCH  42  44
ENDBRANCH   3  42
BRANCH   6  46
ATOM     46  O   UNL     1      24.118  38.850   7.346  1.00  0.00    -0.391 OA
ATOM     47  H   UNL     1      24.672  38.212   6.799  1.00  0.00     0.211 HD
ENDBRANCH   6  46
BRANCH   7  48
ATOM     48  N   UNL     1      25.441  41.568   5.545  1.00  0.00    -0.348 N 
ATOM     49  C   UNL     1      25.697  41.887   4.195  1.00  0.00     0.217 C 
ATOM     50  H   UNL     1      25.264  42.309   6.226  1.00  0.00     0.163 HD
ATOM     51  C   UNL     1      25.691  43.309   3.757  1.00  0.00     0.114 C 
ATOM     52  O   UNL     1      25.929  40.975   3.340  1.00  0.00    -0.275 OA
ENDBRANCH   7  48
ENDBRANCH   1   2
BRANCH   1  53
ATOM     53  O   UNL     1      26.787  37.342   6.310  1.00  0.00    -0.388 OA
ATOM     54  H   UNL     1      26.494  37.664   7.214  1.00  0.00     0.211 HD
ENDBRANCH   1  53
BRANCH   1  55
ATOM     55  C   UNL     1      28.791  38.361   5.665  1.00  0.00     0.165 C 
BRANCH  55  56
ATOM     56  O   UNL     1      29.302  37.119   5.418  1.00  0.00    -0.388 OA
ATOM     57  H   UNL     1      29.633  36.642   6.211  1.00  0.00     0.211 HD
ENDBRANCH  55  56
BRANCH  55  58
ATOM     58  C   UNL     1      29.598  39.122   6.644  1.00  0.00     0.154 C 
BRANCH  58  59
ATOM     59  N   UNL     1      29.713  38.598   7.976  1.00  0.00    -0.319 N 
ATOM     60  C   UNL     1      30.902  38.621   8.752  1.00  0.00     0.407 C 
ATOM     61  H   UNL     1      28.881  38.174   8.442  1.00  0.00     0.167 HD
ATOM     62  O   UNL     1      31.932  39.127   8.294  1.00  0.00    -0.225 OA
BRANCH  60  63
ATOM     63  O   UNL     1      30.997  38.096  10.046  1.00  0.00    -0.443 OA
BRANCH  63  64
ATOM     64  C   UNL     1      29.848  38.091  10.895  1.00  0.00     0.294 C 
BRANCH  64  65
ATOM     65  C   UNL     1      30.138  37.534  12.236  1.00  0.00     0.120 A 
ATOM     66  C   UNL     1      31.302  37.785  12.933  1.00  0.00     0.141 A 
ATOM     67  N   UNL     1      29.405  36.721  13.007  1.00  0.00    -0.132 NA
ATOM     68  N   UNL     1      31.233  37.111  14.107  1.00  0.00    -0.226 N 
ATOM     69  N   UNL     1      30.071  36.477  14.119  1.00  0.00    -0.065 NA
BRANCH  68  70
ATOM     70  C   UNL     1      32.210  37.067  15.172  1.00  0.00     0.307 C 
BRANCH  70  71
ATOM     71  O   UNL     1      32.796  35.836  15.286  1.00  0.00    -0.355 OA
BRANCH  71  72
ATOM     72  C   UNL     1      32.658  35.362  16.581  1.00  0.00     0.198 C 
BRANCH  72  73
ATOM     73  C   UNL     1      31.898  34.062  16.543  1.00  0.00    -0.022 A 
ATOM     74  C   UNL     1      31.314  33.623  17.713  1.00  0.00     0.006 A 
ATOM     75  C   UNL     1      31.796  33.342  15.381  1.00  0.00     0.006 A 
ATOM     76  C   UNL     1      30.611  32.437  17.720  1.00  0.00     0.000 A 
ATOM     77  C   UNL     1      31.096  32.171  15.411  1.00  0.00     0.000 A 
ATOM     78  C   UNL     1      30.493  31.694  16.565  1.00  0.00     0.000 A 
ENDBRANCH  72  73
ENDBRANCH  71  72
ENDBRANCH  70  71
ENDBRANCH  68  70
ENDBRANCH  64  65
ENDBRANCH  63  64
ENDBRANCH  60  63
ENDBRANCH  58  59
ENDBRANCH  55  58
ENDBRANCH   1  55
TORSDOF 33
BEGIN_RES LYS A 131
REMARK  4 active torsions:
REMARK  status: ('A' for Active; 'I' for Inactive)
REMARK    1  A    between atoms: CA   and  CB  
REMARK    2  A    between atoms: CB   and  CG  
REMARK    3  A    between atoms: CG   and  CD  
REMARK    4  A    between atoms: CD   and  CE  
ROOT
ATOM      1  CA  LYS A 131      29.867  25.555  16.977  1.00 20.52     0.186 C 
ENDROOT
BRANCH   1   2
ATOM      2  CB  LYS A 131      28.345  25.722  17.026  1.00 20.94     0.034 C 
BRANCH   2   3
ATOM      3  CG  LYS A 131      27.601  24.402  16.890  1.00 22.96     0.005 C 
BRANCH   3   4
ATOM      4  CD  LYS A 131      26.152  24.527  17.269  1.00 24.33     0.041 C 
BRANCH   4   5
ATOM      5  CE  LYS A 131      26.037  24.751  18.773  1.00 26.91     0.338 C 
ATOM      6  NZ  LYS A 131      25.514  23.535  19.440  1.00 27.40     0.618 N 
ENDBRANCH   4   5
ENDBRANCH   3   4
ENDBRANCH   2   3
ENDBRANCH   1   2
END_RES LYS A 131
BEGIN_RES LYS A 135
REMARK  4 active torsions:
REMARK  status: ('A' for Active; 'I' for Inactive)
REMARK    5  A    between atoms: CA   and  CB  
REMARK    6  A    between atoms: CB   and  CG  
REMARK    7  A    between atoms: CG   and  CD  
REMARK    8  A    between atoms: CD   and  CE  
ROOT
ATOM      7  CA  LYS A 135      33.193  34.663   9.290  1.00 25.02     0.186 C 
ENDROOT
BRANCH   7   8
ATOM      8  CB  LYS A 135      32.060  35.360  10.034  1.00 26.63     0.034 C 
BRANCH   8   9
ATOM      9  CG  LYS A 135      30.726  34.676   9.878  1.00 29.45     0.005 C 
BRANCH   9  10
ATOM     10  CD  LYS A 135      30.319  34.621   8.414  1.00 32.00     0.041 C 
BRANCH  10  11
ATOM     11  CE  LYS A 135      28.810  34.551   8.283  1.00 34.25     0.338 C 
ATOM     12  NZ  LYS A 135      28.215  33.723   9.368  1.00 35.99     0.618 N 
ENDBRANCH  10  11
ENDBRANCH   9  10
ENDBRANCH   8   9
ENDBRANCH   7   8
END_RES LYS A 135
