REMARK VINA RESULT:    -5.626      2.880      5.611
REMARK INTER + INTRA:         -25.846
REMARK INTER:                 -12.387
REMARK INTRA:                 -13.459
REMARK UNBOUND:               -11.174
REMARK SMILES CC(=O)N[C@@H]1[C@@H](O)C[C@](OC[C@H]2O[C@@H](O[C@H]3[C@H](O)[C@@H](O)[C@H](OCCN=[N+]=[N-])O[C@@H]3CO)[C@H](O)[C@@H](O)[C@H]2O)(C(=O)O)O[C@H]1C(O)[C@H](O)CNC(=O)OCc1cn(-c2cc(C(=O)O)nc(-c3ccccc3)c2)nn1
REMARK SMILES IDX 9 1 8 2 6 3 5 4 42 5 41 6 10 7 11 8 12 9 14 10 13 11 32 12
REMARK SMILES IDX 34 13 36 14 15 15 16 16 29 17 28 18 21 19 17 20 19 21 30 22
REMARK SMILES IDX 31 23 22 25 23 26 24 27 25 28 26 29 27 30 18 31 20 33 33 35
REMARK SMILES IDX 35 37 37 39 38 41 39 42 40 43 7 45 43 47 44 48 45 50 46 51
REMARK SMILES IDX 47 53 48 54 49 55 50 57 51 58 52 59 53 60 54 61 72 62 55 63
REMARK SMILES IDX 71 64 56 65 57 66 70 67 58 68 63 69 62 70 59 71 60 72 61 73
REMARK SMILES IDX 64 75 65 76 69 77 66 78 68 79 67 80 4 81 2 82 1 84 3 85
REMARK H PARENT 31 24 18 32 20 34 33 36 35 38 37 40 40 44 7 46 44 49 46 52
REMARK H PARENT 48 56 61 74 4 83
REMARK Flexibility Score: inf
ROOT
ATOM      1  C   UNL     1      31.850  34.491  16.129  1.00  0.00     0.272 C 
ATOM      2  C   UNL     1      32.021  34.791  17.632  1.00  0.00     0.113 C 
ATOM      3  C   UNL     1      30.741  34.988  18.360  1.00  0.00     0.145 C 
ATOM      4  C   UNL     1      29.718  35.798  17.573  1.00  0.00     0.142 C 
ATOM      5  C   UNL     1      30.486  36.277  16.338  1.00  0.00     0.178 C 
ATOM      6  O   UNL     1      30.739  35.143  15.598  1.00  0.00    -0.332 OA
ENDROOT
BRANCH   1   7
ATOM      7  O   UNL     1      31.667  33.148  16.051  1.00  0.00    -0.338 OA
BRANCH   7   8
ATOM      8  C   UNL     1      30.900  32.629  15.059  1.00  0.00     0.199 C 
BRANCH   8   9
ATOM      9  C   UNL     1      29.921  31.571  15.628  1.00  0.00     0.179 C 
ATOM     10  C   UNL     1      29.238  30.735  17.702  1.00  0.00     0.282 C 
ATOM     11  O   UNL     1      30.061  31.559  16.979  1.00  0.00    -0.341 OA
ATOM     12  C   UNL     1      28.123  30.242  16.800  1.00  0.00     0.202 C 
ATOM     13  C   UNL     1      27.483  31.343  15.991  1.00  0.00     0.179 C 
ATOM     14  C   UNL     1      28.541  32.100  15.271  1.00  0.00     0.177 C 
BRANCH  10  15
ATOM     15  O   UNL     1      28.742  31.462  18.769  1.00  0.00    -0.341 OA
BRANCH  15  16
ATOM     16  C   UNL     1      28.590  30.746  19.944  1.00  0.00     0.184 C 
ATOM     17  C   UNL     1      28.499  29.278  19.742  1.00  0.00     0.178 C 
ATOM     18  O   UNL     1      27.287  28.769  20.174  1.00  0.00    -0.341 OA
ATOM     19  C   UNL     1      26.200  29.453  19.634  1.00  0.00     0.281 C 
ATOM     20  C   UNL     1      27.431  31.345  20.687  1.00  0.00     0.180 C 
ATOM     21  C   UNL     1      26.096  30.758  20.392  1.00  0.00     0.202 C 
BRANCH  17  22
ATOM     22  C   UNL     1      29.579  28.590  20.551  1.00  0.00     0.191 C 
BRANCH  22  23
ATOM     23  O   UNL     1      29.666  27.239  20.266  1.00  0.00    -0.394 OA
ATOM     24  H   UNL     1      29.523  26.717  21.099  1.00  0.00     0.210 HD
ENDBRANCH  22  23
ENDBRANCH  17  22
BRANCH  19  25
ATOM     25  O   UNL     1      25.073  28.687  19.889  1.00  0.00    -0.350 OA
BRANCH  25  26
ATOM     26  C   UNL     1      24.300  28.498  18.742  1.00  0.00     0.169 C 
BRANCH  26  27
ATOM     27  C   UNL     1      25.101  28.823  17.506  1.00  0.00     0.119 C 
BRANCH  27  28
ATOM     28  N   UNL     1      24.399  29.822  16.732  1.00  0.00    -0.092 NA
ATOM     29  N   UNL     1      23.220  29.634  16.465  1.00  0.00     0.001 N 
ATOM     30  N   UNL     1      22.011  29.845  16.271  1.00  0.00    -0.003 NA
ENDBRANCH  27  28
ENDBRANCH  26  27
ENDBRANCH  25  26
ENDBRANCH  19  25
BRANCH  20  31
ATOM     31  O   UNL     1      27.674  31.132  22.065  1.00  0.00    -0.387 OA
ATOM     32  H   UNL     1      28.598  30.805  22.206  1.00  0.00     0.211 HD
ENDBRANCH  20  31
BRANCH  21  33
ATOM     33  O   UNL     1      25.343  31.710  19.674  1.00  0.00    -0.385 OA
ATOM     34  H   UNL     1      25.499  32.633  20.018  1.00  0.00     0.211 HD
ENDBRANCH  21  33
ENDBRANCH  15  16
ENDBRANCH  10  15
BRANCH  12  35
ATOM     35  O   UNL     1      28.525  29.239  15.926  1.00  0.00    -0.385 OA
ATOM     36  H   UNL     1      29.521  29.214  15.999  1.00  0.00     0.211 HD
ENDBRANCH  12  35
BRANCH  13  37
ATOM     37  O   UNL     1      26.761  32.132  16.887  1.00  0.00    -0.387 OA
ATOM     38  H   UNL     1      26.788  31.669  17.764  1.00  0.00     0.211 HD
ENDBRANCH  13  37
BRANCH  14  39
ATOM     39  O   UNL     1      28.461  33.436  15.717  1.00  0.00    -0.387 OA
ATOM     40  H   UNL     1      27.653  33.883  15.417  1.00  0.00     0.211 HD
ENDBRANCH  14  39
ENDBRANCH   8   9
ENDBRANCH   7   8
ENDBRANCH   1   7
BRANCH   1  41
ATOM     41  C   UNL     1      33.040  35.017  15.413  1.00  0.00     0.364 C 
ATOM     42  O   UNL     1      33.752  35.946  15.880  1.00  0.00    -0.246 OA
BRANCH  41  43
ATOM     43  O   UNL     1      33.409  34.493  14.194  1.00  0.00    -0.477 OA
ATOM     44  H   UNL     1      33.138  33.556  13.870  1.00  0.00     0.296 HD
ENDBRANCH  41  43
ENDBRANCH   1  41
BRANCH   3  45
ATOM     45  O   UNL     1      30.214  33.826  18.880  1.00  0.00    -0.391 OA
ATOM     46  H   UNL     1      30.830  33.087  18.705  1.00  0.00     0.211 HD
ENDBRANCH   3  45
BRANCH   5  47
ATOM     47  C   UNL     1      29.836  37.401  15.624  1.00  0.00     0.176 C 
BRANCH  47  48
ATOM     48  O   UNL     1      28.606  36.948  15.095  1.00  0.00    -0.388 OA
ATOM     49  H   UNL     1      28.220  37.653  14.485  1.00  0.00     0.211 HD
ENDBRANCH  47  48
BRANCH  47  50
ATOM     50  C   UNL     1      30.649  38.058  14.544  1.00  0.00     0.165 C 
BRANCH  50  51
ATOM     51  O   UNL     1      31.898  38.382  15.033  1.00  0.00    -0.388 OA
ATOM     52  H   UNL     1      32.542  38.613  14.312  1.00  0.00     0.211 HD
ENDBRANCH  50  51
BRANCH  50  53
ATOM     53  C   UNL     1      29.878  39.277  14.100  1.00  0.00     0.154 C 
BRANCH  53  54
ATOM     54  N   UNL     1      28.840  39.056  13.160  1.00  0.00    -0.319 N 
ATOM     55  C   UNL     1      29.098  38.948  11.769  1.00  0.00     0.407 C 
ATOM     56  H   UNL     1      27.841  38.965  13.471  1.00  0.00     0.167 HD
ATOM     57  O   UNL     1      30.265  39.070  11.354  1.00  0.00    -0.225 OA
BRANCH  55  58
ATOM     58  O   UNL     1      28.054  38.704  10.856  1.00  0.00    -0.443 OA
BRANCH  58  59
ATOM     59  C   UNL     1      27.928  37.416  10.307  1.00  0.00     0.294 C 
BRANCH  59  60
ATOM     60  C   UNL     1      27.675  36.404  11.360  1.00  0.00     0.121 A 
ATOM     61  C   UNL     1      26.491  35.851  11.790  1.00  0.00     0.144 A 
ATOM     62  N   UNL     1      28.613  35.822  12.162  1.00  0.00    -0.131 NA
ATOM     63  N   UNL     1      26.709  34.982  12.801  1.00  0.00    -0.220 N 
ATOM     64  N   UNL     1      28.027  34.992  13.000  1.00  0.00    -0.062 NA
BRANCH  63  65
ATOM     65  C   UNL     1      25.731  34.246  13.515  1.00  0.00     0.071 A 
ATOM     66  C   UNL     1      25.401  34.687  14.787  1.00  0.00     0.064 A 
ATOM     67  C   UNL     1      25.066  33.134  13.040  1.00  0.00     0.057 A 
ATOM     68  C   UNL     1      24.440  34.006  15.510  1.00  0.00     0.151 A 
ATOM     69  C   UNL     1      24.122  32.470  13.757  1.00  0.00     0.073 A 
ATOM     70  N   UNL     1      23.825  32.924  14.991  1.00  0.00    -0.241 NA
BRANCH  68  71
ATOM     71  C   UNL     1      24.070  34.447  16.848  1.00  0.00     0.354 C 
ATOM     72  O   UNL     1      23.017  35.121  16.977  1.00  0.00    -0.245 OA
BRANCH  71  73
ATOM     73  O   UNL     1      24.803  34.170  17.977  1.00  0.00    -0.477 OA
ATOM     74  H   UNL     1      25.323  33.293  18.103  1.00  0.00     0.297 HD
ENDBRANCH  71  73
ENDBRANCH  68  71
BRANCH  69  75
ATOM     75  C   UNL     1      23.427  31.300  13.233  1.00  0.00     0.000 A 
ATOM     76  C   UNL     1      22.088  31.443  12.875  1.00  0.00     0.010 A 
ATOM     77  C   UNL     1      24.009  30.076  13.073  1.00  0.00     0.010 A 
ATOM     78  C   UNL     1      21.357  30.399  12.372  1.00  0.00     0.001 A 
ATOM     79  C   UNL     1      23.261  29.028  12.565  1.00  0.00     0.001 A 
ATOM     80  C   UNL     1      21.950  29.159  12.211  1.00  0.00     0.000 A 
ENDBRANCH  69  75
ENDBRANCH  63  65
ENDBRANCH  59  60
ENDBRANCH  58  59
ENDBRANCH  55  58
ENDBRANCH  53  54
ENDBRANCH  50  53
ENDBRANCH  47  50
ENDBRANCH   5  47
BRANCH   4  81
ATOM     81  N   UNL     1      29.164  36.862  18.344  1.00  0.00    -0.348 N 
ATOM     82  C   UNL     1      27.758  37.039  18.407  1.00  0.00     0.217 C 
ATOM     83  H   UNL     1      29.810  37.505  18.857  1.00  0.00     0.163 HD
ATOM     84  C   UNL     1      27.124  38.128  19.194  1.00  0.00     0.114 C 
ATOM     85  O   UNL     1      26.975  36.250  17.777  1.00  0.00    -0.275 OA
ENDBRANCH   4  81
TORSDOF 33
BEGIN_RES LYS A 131
REMARK  4 active torsions:
REMARK  status: ('A' for Active; 'I' for Inactive)
REMARK    1  A    between atoms: CA   and  CB  
REMARK    2  A    between atoms: CB   and  CG  
REMARK    3  A    between atoms: CG   and  CD  
REMARK    4  A    between atoms: CD   and  CE  
ROOT
ATOM      1  CA  LYS A 131      29.867  25.555  16.977  1.00 20.52     0.186 C 
ENDROOT
BRANCH   1   2
ATOM      2  CB  LYS A 131      28.345  25.722  17.026  1.00 20.94     0.034 C 
BRANCH   2   3
ATOM      3  CG  LYS A 131      27.602  24.398  16.938  1.00 22.96     0.005 C 
BRANCH   3   4
ATOM      4  CD  LYS A 131      26.497  24.299  17.953  1.00 24.33     0.041 C 
BRANCH   4   5
ATOM      5  CE  LYS A 131      25.279  23.637  17.317  1.00 26.91     0.338 C 
ATOM      6  NZ  LYS A 131      24.272  24.656  16.940  1.00 27.40     0.618 N 
ENDBRANCH   4   5
ENDBRANCH   3   4
ENDBRANCH   2   3
ENDBRANCH   1   2
END_RES LYS A 131
BEGIN_RES LYS A 135
REMARK  4 active torsions:
REMARK  status: ('A' for Active; 'I' for Inactive)
REMARK    5  A    between atoms: CA   and  CB  
REMARK    6  A    between atoms: CB   and  CG  
REMARK    7  A    between atoms: CG   and  CD  
REMARK    8  A    between atoms: CD   and  CE  
ROOT
ATOM      7  CA  LYS A 135      33.193  34.663   9.290  1.00 25.02     0.186 C 
ENDROOT
BRANCH   7   8
ATOM      8  CB  LYS A 135      32.060  35.360  10.034  1.00 26.63     0.034 C 
BRANCH   8   9
ATOM      9  CG  LYS A 135      30.699  34.789   9.730  1.00 29.45     0.005 C 
BRANCH   9  10
ATOM     10  CD  LYS A 135      30.430  34.810   8.233  1.00 32.00     0.041 C 
BRANCH  10  11
ATOM     11  CE  LYS A 135      28.939  34.785   7.959  1.00 34.25     0.338 C 
ATOM     12  NZ  LYS A 135      28.614  35.496   6.691  1.00 35.99     0.618 N 
ENDBRANCH  10  11
ENDBRANCH   9  10
ENDBRANCH   8   9
ENDBRANCH   7   8
END_RES LYS A 135
