REMARK VINA RESULT:    -4.134      2.712      5.565
REMARK INTER + INTRA:         -22.660
REMARK INTER:                 -10.537
REMARK INTRA:                 -12.122
REMARK UNBOUND:               -12.122
REMARK SMILES CC(=O)N[C@@H]1[C@@H](O)C[C@](OC[C@H]2O[C@@H](O[C@H]3[C@H](O)[C@@H](O)[C@H](OCCN=[N+]=[N-])O[C@@H]3CO)[C@H](O)[C@@H](O)[C@H]2O)(C(=O)O)O[C@H]1C(O)[C@H](O)CNC(=O)OCc1cn(-c2ccc(O)c([N+](=O)[O-])c2)nn1
REMARK SMILES IDX 9 1 8 2 6 3 5 4 42 5 41 6 10 7 11 8 12 9 14 10 13 11 32 12
REMARK SMILES IDX 34 13 36 14 15 15 16 16 29 17 28 18 21 19 17 20 19 21 30 22
REMARK SMILES IDX 31 23 22 25 23 26 24 27 25 28 26 29 27 30 18 31 20 33 33 35
REMARK SMILES IDX 35 37 37 39 38 41 39 42 40 43 7 45 43 47 44 48 45 50 46 51
REMARK SMILES IDX 47 53 48 54 49 55 50 57 51 58 52 59 53 60 54 61 67 62 55 63
REMARK SMILES IDX 66 64 56 65 57 66 65 67 58 68 61 69 59 70 62 71 63 72 64 73
REMARK SMILES IDX 60 74 4 76 2 77 1 79 3 80
REMARK H PARENT 31 24 18 32 20 34 33 36 35 38 37 40 40 44 7 46 44 49 46 52
REMARK H PARENT 48 56 60 75 4 78
REMARK Flexibility Score: inf
ROOT
ATOM      1  C   UNL     1      29.751  32.870  17.768  1.00  0.00     0.272 C 
ATOM      2  C   UNL     1      28.650  32.730  16.700  1.00  0.00     0.113 C 
ATOM      3  C   UNL     1      29.263  32.135  15.436  1.00  0.00     0.145 C 
ATOM      4  C   UNL     1      30.199  33.253  14.909  1.00  0.00     0.142 C 
ATOM      5  C   UNL     1      30.928  33.883  16.062  1.00  0.00     0.178 C 
ATOM      6  O   UNL     1      30.980  33.004  17.160  1.00  0.00    -0.332 OA
ENDROOT
BRANCH   1   7
ATOM      7  O   UNL     1      29.714  31.676  18.465  1.00  0.00    -0.338 OA
BRANCH   7   8
ATOM      8  C   UNL     1      30.444  31.609  19.612  1.00  0.00     0.199 C 
BRANCH   8   9
ATOM      9  C   UNL     1      29.721  30.571  20.504  1.00  0.00     0.179 C 
ATOM     10  C   UNL     1      29.025  28.422  20.295  1.00  0.00     0.282 C 
ATOM     11  O   UNL     1      29.241  29.636  19.638  1.00  0.00    -0.341 OA
ATOM     12  C   UNL     1      30.364  27.832  20.568  1.00  0.00     0.202 C 
ATOM     13  C   UNL     1      31.111  28.724  21.526  1.00  0.00     0.179 C 
ATOM     14  C   UNL     1      30.648  30.132  21.567  1.00  0.00     0.177 C 
BRANCH  10  15
ATOM     15  O   UNL     1      28.191  27.608  19.517  1.00  0.00    -0.341 OA
BRANCH  15  16
ATOM     16  C   UNL     1      27.061  28.331  19.184  1.00  0.00     0.184 C 
ATOM     17  C   UNL     1      25.763  27.681  19.517  1.00  0.00     0.178 C 
ATOM     18  O   UNL     1      24.772  28.648  19.399  1.00  0.00    -0.341 OA
ATOM     19  C   UNL     1      24.560  28.969  18.025  1.00  0.00     0.281 C 
ATOM     20  C   UNL     1      27.021  28.536  17.646  1.00  0.00     0.180 C 
ATOM     21  C   UNL     1      25.816  29.435  17.387  1.00  0.00     0.202 C 
BRANCH  17  22
ATOM     22  C   UNL     1      25.679  27.038  20.861  1.00  0.00     0.191 C 
BRANCH  22  23
ATOM     23  O   UNL     1      26.348  25.827  20.879  1.00  0.00    -0.394 OA
ATOM     24  H   UNL     1      27.326  26.020  20.722  1.00  0.00     0.210 HD
ENDBRANCH  22  23
ENDBRANCH  17  22
BRANCH  19  25
ATOM     25  O   UNL     1      23.629  30.000  18.080  1.00  0.00    -0.350 OA
BRANCH  25  26
ATOM     26  C   UNL     1      23.133  30.236  19.347  1.00  0.00     0.169 C 
BRANCH  26  27
ATOM     27  C   UNL     1      21.639  30.335  19.352  1.00  0.00     0.119 C 
BRANCH  27  28
ATOM     28  N   UNL     1      21.092  28.996  19.150  1.00  0.00    -0.092 NA
ATOM     29  N   UNL     1      21.430  28.074  19.926  1.00  0.00     0.001 N 
ATOM     30  N   UNL     1      21.301  27.194  20.796  1.00  0.00    -0.003 NA
ENDBRANCH  27  28
ENDBRANCH  26  27
ENDBRANCH  25  26
ENDBRANCH  19  25
BRANCH  20  31
ATOM     31  O   UNL     1      28.147  29.216  17.211  1.00  0.00    -0.387 OA
ATOM     32  H   UNL     1      28.864  29.241  17.903  1.00  0.00     0.211 HD
ENDBRANCH  20  31
BRANCH  21  33
ATOM     33  O   UNL     1      25.674  29.455  16.002  1.00  0.00    -0.385 OA
ATOM     34  H   UNL     1      25.835  28.576  15.609  1.00  0.00     0.211 HD
ENDBRANCH  21  33
ENDBRANCH  15  16
ENDBRANCH  10  15
BRANCH  12  35
ATOM     35  O   UNL     1      30.305  26.537  21.074  1.00  0.00    -0.385 OA
ATOM     36  H   UNL     1      29.380  26.165  21.003  1.00  0.00     0.211 HD
ENDBRANCH  12  35
BRANCH  13  37
ATOM     37  O   UNL     1      32.473  28.571  21.245  1.00  0.00    -0.387 OA
ATOM     38  H   UNL     1      32.903  29.450  21.424  1.00  0.00     0.211 HD
ENDBRANCH  13  37
BRANCH  14  39
ATOM     39  O   UNL     1      31.785  30.964  21.663  1.00  0.00    -0.387 OA
ATOM     40  H   UNL     1      32.232  30.889  22.531  1.00  0.00     0.211 HD
ENDBRANCH  14  39
ENDBRANCH   8   9
ENDBRANCH   7   8
ENDBRANCH   1   7
BRANCH   1  41
ATOM     41  C   UNL     1      29.325  33.963  18.634  1.00  0.00     0.364 C 
ATOM     42  O   UNL     1      30.041  34.923  19.024  1.00  0.00    -0.246 OA
BRANCH  41  43
ATOM     43  O   UNL     1      28.007  33.990  19.097  1.00  0.00    -0.477 OA
ATOM     44  H   UNL     1      27.559  34.838  19.426  1.00  0.00     0.296 HD
ENDBRANCH  41  43
ENDBRANCH   1  41
BRANCH   3  45
ATOM     45  O   UNL     1      29.979  30.999  15.707  1.00  0.00    -0.391 OA
ATOM     46  H   UNL     1      30.916  31.242  15.899  1.00  0.00     0.211 HD
ENDBRANCH   3  45
BRANCH   5  47
ATOM     47  C   UNL     1      32.360  34.146  15.666  1.00  0.00     0.176 C 
BRANCH  47  48
ATOM     48  O   UNL     1      32.508  33.802  14.331  1.00  0.00    -0.388 OA
ATOM     49  H   UNL     1      32.625  34.589  13.744  1.00  0.00     0.211 HD
ENDBRANCH  47  48
BRANCH  47  50
ATOM     50  C   UNL     1      32.803  35.575  15.857  1.00  0.00     0.165 C 
BRANCH  50  51
ATOM     51  O   UNL     1      31.924  36.086  16.849  1.00  0.00    -0.388 OA
ATOM     52  H   UNL     1      31.368  35.357  17.243  1.00  0.00     0.211 HD
ENDBRANCH  50  51
BRANCH  50  53
ATOM     53  C   UNL     1      32.563  36.404  14.628  1.00  0.00     0.154 C 
BRANCH  53  54
ATOM     54  N   UNL     1      31.665  37.489  14.925  1.00  0.00    -0.319 N 
ATOM     55  C   UNL     1      31.009  38.299  13.975  1.00  0.00     0.407 C 
ATOM     56  H   UNL     1      31.460  37.721  15.945  1.00  0.00     0.167 HD
ATOM     57  O   UNL     1      31.223  38.070  12.778  1.00  0.00    -0.225 OA
BRANCH  55  58
ATOM     58  O   UNL     1      30.147  39.325  14.285  1.00  0.00    -0.443 OA
BRANCH  58  59
ATOM     59  C   UNL     1      29.314  39.256  15.414  1.00  0.00     0.294 C 
BRANCH  59  60
ATOM     60  C   UNL     1      28.117  38.436  15.056  1.00  0.00     0.121 A 
ATOM     61  C   UNL     1      27.803  37.178  15.576  1.00  0.00     0.144 A 
ATOM     62  N   UNL     1      27.117  38.680  14.200  1.00  0.00    -0.131 NA
ATOM     63  N   UNL     1      26.673  36.754  15.021  1.00  0.00    -0.220 N 
ATOM     64  N   UNL     1      26.283  37.703  14.183  1.00  0.00    -0.062 NA
BRANCH  63  65
ATOM     65  C   UNL     1      26.006  35.505  15.274  1.00  0.00     0.073 A 
ATOM     66  C   UNL     1      25.658  34.677  14.251  1.00  0.00     0.033 A 
ATOM     67  C   UNL     1      25.699  35.101  16.545  1.00  0.00     0.118 A 
ATOM     68  C   UNL     1      25.022  33.472  14.442  1.00  0.00     0.056 A 
ATOM     69  C   UNL     1      25.048  33.872  16.771  1.00  0.00     0.312 A 
ATOM     70  C   UNL     1      24.697  33.035  15.745  1.00  0.00     0.194 A 
BRANCH  69  71
ATOM     71  N   UNL     1      24.774  33.533  18.108  1.00  0.00     0.066 N 
ATOM     72  O   UNL     1      25.533  32.673  18.656  1.00  0.00    -0.258 OA
ATOM     73  O   UNL     1      23.745  34.088  18.796  1.00  0.00    -0.258 OA
ENDBRANCH  69  71
BRANCH  70  74
ATOM     74  O   UNL     1      24.060  31.814  15.881  1.00  0.00    -0.502 OA
ATOM     75  H   UNL     1      23.945  31.360  16.730  1.00  0.00     0.293 HD
ENDBRANCH  70  74
ENDBRANCH  63  65
ENDBRANCH  59  60
ENDBRANCH  58  59
ENDBRANCH  55  58
ENDBRANCH  53  54
ENDBRANCH  50  53
ENDBRANCH  47  50
ENDBRANCH   5  47
BRANCH   4  76
ATOM     76  N   UNL     1      29.302  34.178  14.245  1.00  0.00    -0.348 N 
ATOM     77  C   UNL     1      29.618  34.728  12.959  1.00  0.00     0.217 C 
ATOM     78  H   UNL     1      28.407  34.466  14.682  1.00  0.00     0.163 HD
ATOM     79  C   UNL     1      28.686  35.672  12.299  1.00  0.00     0.114 C 
ATOM     80  O   UNL     1      30.707  34.387  12.408  1.00  0.00    -0.275 OA
ENDBRANCH   4  76
TORSDOF 32
BEGIN_RES LYS A 131
REMARK  4 active torsions:
REMARK  status: ('A' for Active; 'I' for Inactive)
REMARK    1  A    between atoms: CA   and  CB  
REMARK    2  A    between atoms: CB   and  CG  
REMARK    3  A    between atoms: CG   and  CD  
REMARK    4  A    between atoms: CD   and  CE  
ROOT
ATOM      1  CA  LYS A 131      29.867  25.555  16.977  1.00 20.52     0.186 C 
ENDROOT
BRANCH   1   2
ATOM      2  CB  LYS A 131      28.345  25.722  17.026  1.00 20.94     0.034 C 
BRANCH   2   3
ATOM      3  CG  LYS A 131      27.602  24.399  16.925  1.00 22.96     0.005 C 
BRANCH   3   4
ATOM      4  CD  LYS A 131      26.160  24.526  17.332  1.00 24.33     0.041 C 
BRANCH   4   5
ATOM      5  CE  LYS A 131      25.793  23.383  18.272  1.00 26.91     0.338 C 
ATOM      6  NZ  LYS A 131      24.737  22.535  17.670  1.00 27.40     0.618 N 
ENDBRANCH   4   5
ENDBRANCH   3   4
ENDBRANCH   2   3
ENDBRANCH   1   2
END_RES LYS A 131
BEGIN_RES LYS A 135
REMARK  4 active torsions:
REMARK  status: ('A' for Active; 'I' for Inactive)
REMARK    5  A    between atoms: CA   and  CB  
REMARK    6  A    between atoms: CB   and  CG  
REMARK    7  A    between atoms: CG   and  CD  
REMARK    8  A    between atoms: CD   and  CE  
ROOT
ATOM      7  CA  LYS A 135      33.193  34.663   9.290  1.00 25.02     0.186 C 
ENDROOT
BRANCH   7   8
ATOM      8  CB  LYS A 135      32.060  35.360  10.034  1.00 26.63     0.034 C 
BRANCH   8   9
ATOM      9  CG  LYS A 135      30.824  35.563   9.196  1.00 29.45     0.005 C 
BRANCH   9  10
ATOM     10  CD  LYS A 135      30.143  34.233   8.913  1.00 32.00     0.041 C 
BRANCH  10  11
ATOM     11  CE  LYS A 135      28.677  34.443   8.587  1.00 34.25     0.338 C 
ATOM     12  NZ  LYS A 135      27.806  33.665   9.511  1.00 35.99     0.618 N 
ENDBRANCH  10  11
ENDBRANCH   9  10
ENDBRANCH   8   9
ENDBRANCH   7   8
END_RES LYS A 135
