REMARK VINA RESULT:    -3.922      2.304      4.555
REMARK INTER + INTRA:         -22.273
REMARK INTER:                 -11.901
REMARK INTRA:                 -10.372
REMARK UNBOUND:               -11.702
REMARK SMILES CC(=O)N[C@@H]1[C@@H](O)C[C@](OC[C@H]2O[C@@H](O[C@H]3[C@H](O)[C@@H](O)[C@H](OCCN=[N+]=[N-])O[C@@H]3CO)[C@H](O)[C@@H](O)[C@H]2O)(C(=O)O)O[C@H]1C(O)[C@H](O)CNC(=O)OCc1cn([C@@H](CC(=O)O)C(=O)O)nn1
REMARK SMILES IDX 43 1 42 2 9 3 8 4 41 5 6 6 5 7 10 8 11 9 12 10 14 11 13 12
REMARK SMILES IDX 32 13 34 14 36 15 15 16 16 17 29 18 28 19 21 20 17 21 19 22
REMARK SMILES IDX 30 23 31 24 22 26 23 27 24 28 25 29 26 30 27 31 18 32 20 34
REMARK SMILES IDX 33 36 35 38 37 40 38 42 39 43 40 44 7 46 4 48 2 49 1 51 3 52
REMARK SMILES IDX 44 53 45 55 46 56 47 58 48 59 49 60 50 62 51 63 52 64 53 65
REMARK SMILES IDX 54 66 65 67 55 68 64 69 56 70 57 71 58 72 59 73 60 74 61 76
REMARK SMILES IDX 62 77 63 78
REMARK H PARENT 31 25 18 33 20 35 33 37 35 39 37 41 40 45 7 47 4 50 44 54
REMARK H PARENT 46 57 48 61 60 75 63 79
REMARK Flexibility Score: inf
ROOT
ATOM      1  C   UNL     1      24.103  38.768   7.705  1.00  0.00     0.176 C 
ENDROOT
BRANCH   1   2
ATOM      2  C   UNL     1      25.077  39.555   6.847  1.00  0.00     0.178 C 
ATOM      3  C   UNL     1      27.353  39.609   6.261  1.00  0.00     0.272 C 
ATOM      4  C   UNL     1      26.849  41.004   5.864  1.00  0.00     0.113 C 
ATOM      5  O   UNL     1      26.323  39.047   7.047  1.00  0.00    -0.332 OA
ATOM      6  C   UNL     1      26.295  41.612   7.145  1.00  0.00     0.145 C 
ATOM      7  C   UNL     1      24.883  41.010   7.236  1.00  0.00     0.142 C 
BRANCH   3   8
ATOM      8  O   UNL     1      28.440  39.671   6.879  1.00  0.00    -0.338 OA
BRANCH   8   9
ATOM      9  C   UNL     1      29.518  39.722   7.499  1.00  0.00     0.199 C 
BRANCH   9  10
ATOM     10  C   UNL     1      29.940  38.488   8.296  1.00  0.00     0.179 C 
ATOM     11  C   UNL     1      31.697  39.276   9.554  1.00  0.00     0.282 C 
ATOM     12  O   UNL     1      31.256  38.407   8.600  1.00  0.00    -0.341 OA
ATOM     13  C   UNL     1      30.938  39.178  10.820  1.00  0.00     0.202 C 
ATOM     14  C   UNL     1      30.029  37.946  10.678  1.00  0.00     0.179 C 
ATOM     15  C   UNL     1      29.095  38.287   9.532  1.00  0.00     0.177 C 
BRANCH  11  16
ATOM     16  O   UNL     1      32.008  40.554   9.115  1.00  0.00    -0.341 OA
BRANCH  16  17
ATOM     17  C   UNL     1      33.287  40.675   8.625  1.00  0.00     0.184 C 
ATOM     18  C   UNL     1      33.863  42.021   8.883  1.00  0.00     0.178 C 
ATOM     19  O   UNL     1      35.175  42.106   8.433  1.00  0.00    -0.341 OA
ATOM     20  C   UNL     1      35.410  41.423   7.236  1.00  0.00     0.281 C 
ATOM     21  C   UNL     1      33.184  40.445   7.120  1.00  0.00     0.180 C 
ATOM     22  C   UNL     1      34.127  41.365   6.413  1.00  0.00     0.202 C 
BRANCH  18  23
ATOM     23  C   UNL     1      33.937  42.205  10.398  1.00  0.00     0.191 C 
BRANCH  23  24
ATOM     24  O   UNL     1      32.721  42.766  10.840  1.00  0.00    -0.394 OA
ATOM     25  H   UNL     1      32.250  42.012  11.303  1.00  0.00     0.210 HD
ENDBRANCH  23  24
ENDBRANCH  18  23
BRANCH  20  26
ATOM     26  O   UNL     1      35.755  40.124   7.560  1.00  0.00    -0.350 OA
BRANCH  26  27
ATOM     27  C   UNL     1      37.066  39.784   7.424  1.00  0.00     0.169 C 
BRANCH  27  28
ATOM     28  C   UNL     1      37.368  39.370   6.016  1.00  0.00     0.119 C 
BRANCH  28  29
ATOM     29  N   UNL     1      36.305  38.467   5.570  1.00  0.00    -0.092 NA
ATOM     30  N   UNL     1      35.733  38.736   4.494  1.00  0.00     0.001 N 
ATOM     31  N   UNL     1      34.759  38.930   3.743  1.00  0.00    -0.003 NA
ENDBRANCH  28  29
ENDBRANCH  27  28
ENDBRANCH  26  27
ENDBRANCH  20  26
BRANCH  21  32
ATOM     32  O   UNL     1      33.502  39.126   6.822  1.00  0.00    -0.387 OA
ATOM     33  H   UNL     1      34.486  39.034   6.666  1.00  0.00     0.211 HD
ENDBRANCH  21  32
BRANCH  22  34
ATOM     34  O   UNL     1      33.618  42.648   6.202  1.00  0.00    -0.385 OA
ATOM     35  H   UNL     1      34.434  43.217   6.034  1.00  0.00     0.211 HD
ENDBRANCH  22  34
ENDBRANCH  16  17
ENDBRANCH  11  16
BRANCH  13  36
ATOM     36  O   UNL     1      31.737  38.921  11.937  1.00  0.00    -0.385 OA
ATOM     37  H   UNL     1      31.432  38.050  12.326  1.00  0.00     0.211 HD
ENDBRANCH  13  36
BRANCH  14  38
ATOM     38  O   UNL     1      29.343  37.652  11.829  1.00  0.00    -0.387 OA
ATOM     39  H   UNL     1      29.746  38.091  12.630  1.00  0.00     0.211 HD
ENDBRANCH  14  38
BRANCH  15  40
ATOM     40  O   UNL     1      28.364  39.407   9.859  1.00  0.00    -0.387 OA
ATOM     41  H   UNL     1      28.274  40.055   9.139  1.00  0.00     0.211 HD
ENDBRANCH  15  40
ENDBRANCH   9  10
ENDBRANCH   8   9
ENDBRANCH   3   8
BRANCH   3  42
ATOM     42  C   UNL     1      27.373  38.847   4.939  1.00  0.00     0.364 C 
ATOM     43  O   UNL     1      27.405  39.470   3.868  1.00  0.00    -0.246 OA
BRANCH  42  44
ATOM     44  O   UNL     1      27.354  37.465   4.911  1.00  0.00    -0.477 OA
ATOM     45  H   UNL     1      27.087  36.935   4.071  1.00  0.00     0.296 HD
ENDBRANCH  42  44
ENDBRANCH   3  42
BRANCH   6  46
ATOM     46  O   UNL     1      26.953  41.053   8.263  1.00  0.00    -0.391 OA
ATOM     47  H   UNL     1      26.465  41.188   9.092  1.00  0.00     0.211 HD
ENDBRANCH   6  46
BRANCH   7  48
ATOM     48  N   UNL     1      24.073  41.752   6.299  1.00  0.00    -0.348 N 
ATOM     49  C   UNL     1      23.007  42.579   6.770  1.00  0.00     0.217 C 
ATOM     50  H   UNL     1      24.224  41.718   5.265  1.00  0.00     0.163 HD
ATOM     51  C   UNL     1      22.199  43.322   5.746  1.00  0.00     0.114 C 
ATOM     52  O   UNL     1      22.742  42.689   7.997  1.00  0.00    -0.275 OA
ENDBRANCH   7  48
ENDBRANCH   1   2
BRANCH   1  53
ATOM     53  O   UNL     1      22.783  39.021   7.348  1.00  0.00    -0.388 OA
ATOM     54  H   UNL     1      22.689  39.188   6.368  1.00  0.00     0.211 HD
ENDBRANCH   1  53
BRANCH   1  55
ATOM     55  C   UNL     1      24.286  38.893   9.170  1.00  0.00     0.165 C 
BRANCH  55  56
ATOM     56  O   UNL     1      25.577  38.780   9.634  1.00  0.00    -0.388 OA
ATOM     57  H   UNL     1      25.818  39.434  10.343  1.00  0.00     0.211 HD
ENDBRANCH  55  56
BRANCH  55  58
ATOM     58  C   UNL     1      23.292  38.072   9.919  1.00  0.00     0.154 C 
BRANCH  58  59
ATOM     59  N   UNL     1      23.816  37.213  10.935  1.00  0.00    -0.319 N 
ATOM     60  C   UNL     1      23.976  35.833  10.666  1.00  0.00     0.407 C 
ATOM     61  H   UNL     1      24.082  37.575  11.860  1.00  0.00     0.167 HD
ATOM     62  O   UNL     1      23.655  35.409   9.501  1.00  0.00    -0.225 OA
BRANCH  60  63
ATOM     63  O   UNL     1      24.448  34.879  11.551  1.00  0.00    -0.443 OA
BRANCH  63  64
ATOM     64  C   UNL     1      25.023  35.295  12.800  1.00  0.00     0.294 C 
BRANCH  64  65
ATOM     65  C   UNL     1      26.481  35.034  12.760  1.00  0.00     0.120 A 
ATOM     66  C   UNL     1      27.337  34.625  13.758  1.00  0.00     0.139 A 
ATOM     67  N   UNL     1      27.285  35.185  11.655  1.00  0.00    -0.132 NA
ATOM     68  N   UNL     1      28.601  34.542  13.249  1.00  0.00    -0.237 N 
ATOM     69  N   UNL     1      28.508  34.884  11.997  1.00  0.00    -0.066 NA
BRANCH  68  70
ATOM     70  C   UNL     1      29.793  34.163  13.973  1.00  0.00     0.229 C 
BRANCH  70  71
ATOM     71  C   UNL     1      30.504  35.432  14.408  1.00  0.00     0.161 C 
BRANCH  71  72
ATOM     72  C   UNL     1      31.724  35.671  13.614  1.00  0.00     0.306 C 
ATOM     73  O   UNL     1      32.242  36.814  13.547  1.00  0.00    -0.252 OA
BRANCH  72  74
ATOM     74  O   UNL     1      32.321  34.638  12.925  1.00  0.00    -0.481 OA
ATOM     75  H   UNL     1      32.734  34.834  12.005  1.00  0.00     0.296 HD
ENDBRANCH  72  74
ENDBRANCH  71  72
ENDBRANCH  70  71
BRANCH  70  76
ATOM     76  C   UNL     1      29.406  33.383  15.161  1.00  0.00     0.329 C 
ATOM     77  O   UNL     1      29.290  32.139  15.060  1.00  0.00    -0.250 OA
BRANCH  76  78
ATOM     78  O   UNL     1      29.163  33.960  16.400  1.00  0.00    -0.480 OA
ATOM     79  H   UNL     1      29.485  34.910  16.560  1.00  0.00     0.296 HD
ENDBRANCH  76  78
ENDBRANCH  70  76
ENDBRANCH  68  70
ENDBRANCH  64  65
ENDBRANCH  63  64
ENDBRANCH  60  63
ENDBRANCH  58  59
ENDBRANCH  55  58
ENDBRANCH   1  55
TORSDOF 35
BEGIN_RES LYS A 131
REMARK  4 active torsions:
REMARK  status: ('A' for Active; 'I' for Inactive)
REMARK    1  A    between atoms: CA   and  CB  
REMARK    2  A    between atoms: CB   and  CG  
REMARK    3  A    between atoms: CG   and  CD  
REMARK    4  A    between atoms: CD   and  CE  
ROOT
ATOM      1  CA  LYS A 131      29.867  25.555  16.977  1.00 20.52     0.186 C 
ENDROOT
BRANCH   1   2
ATOM      2  CB  LYS A 131      28.345  25.722  17.026  1.00 20.94     0.034 C 
BRANCH   2   3
ATOM      3  CG  LYS A 131      27.599  24.425  16.753  1.00 22.96     0.005 C 
BRANCH   3   4
ATOM      4  CD  LYS A 131      26.933  23.884  17.988  1.00 24.33     0.041 C 
BRANCH   4   5
ATOM      5  CE  LYS A 131      25.588  23.271  17.614  1.00 26.91     0.338 C 
ATOM      6  NZ  LYS A 131      24.743  24.263  16.908  1.00 27.40     0.618 N 
ENDBRANCH   4   5
ENDBRANCH   3   4
ENDBRANCH   2   3
ENDBRANCH   1   2
END_RES LYS A 131
BEGIN_RES LYS A 135
REMARK  4 active torsions:
REMARK  status: ('A' for Active; 'I' for Inactive)
REMARK    5  A    between atoms: CA   and  CB  
REMARK    6  A    between atoms: CB   and  CG  
REMARK    7  A    between atoms: CG   and  CD  
REMARK    8  A    between atoms: CD   and  CE  
ROOT
ATOM      7  CA  LYS A 135      33.193  34.663   9.290  1.00 25.02     0.186 C 
ENDROOT
BRANCH   7   8
ATOM      8  CB  LYS A 135      32.060  35.360  10.034  1.00 26.63     0.034 C 
BRANCH   8   9
ATOM      9  CG  LYS A 135      30.729  34.667   9.891  1.00 29.45     0.005 C 
BRANCH   9  10
ATOM     10  CD  LYS A 135      30.287  34.650   8.436  1.00 32.00     0.041 C 
BRANCH  10  11
ATOM     11  CE  LYS A 135      28.780  34.508   8.339  1.00 34.25     0.338 C 
ATOM     12  NZ  LYS A 135      28.244  35.264   7.174  1.00 35.99     0.618 N 
ENDBRANCH  10  11
ENDBRANCH   9  10
ENDBRANCH   8   9
ENDBRANCH   7   8
END_RES LYS A 135
