REMARK VINA RESULT:    -5.850      0.000      0.000
REMARK INTER + INTRA:         -24.187
REMARK INTER:                 -13.341
REMARK INTRA:                 -10.846
REMARK UNBOUND:                -9.445
REMARK SMILES CC(=O)N[C@@H]1[C@@H](O)C[C@](OC[C@H]2O[C@@H](O[C@H]3[C@H](O)[C@@H](O)[C@H](OCCN=[N+]=[N-])O[C@@H]3CO)[C@H](O)[C@@H](O)[C@H]2O)(C(=O)O)O[C@H]1C(O)[C@H](O)CNC(=O)OCc1cn(Cc2cccc(Br)c2)nn1
REMARK SMILES IDX 9 1 8 2 6 3 5 4 42 5 41 6 10 7 11 8 12 9 14 10 13 11 32 12
REMARK SMILES IDX 34 13 36 14 15 15 16 16 29 17 28 18 21 19 17 20 19 21 30 22
REMARK SMILES IDX 31 23 22 25 23 26 24 27 25 28 26 29 27 30 18 31 20 33 33 35
REMARK SMILES IDX 35 37 37 39 38 41 39 42 40 43 7 45 43 47 44 48 45 50 46 51
REMARK SMILES IDX 47 53 48 54 49 55 50 57 51 58 52 59 53 60 54 61 65 62 55 63
REMARK SMILES IDX 64 64 56 65 57 66 58 67 63 68 59 69 61 70 60 71 62 72 4 73
REMARK SMILES IDX 2 74 1 76 3 77
REMARK H PARENT 31 24 18 32 20 34 33 36 35 38 37 40 40 44 7 46 44 49 46 52
REMARK H PARENT 48 56 4 75
REMARK Flexibility Score: inf
ROOT
ATOM      1  C   UNL     1      30.576  37.353  12.726  1.00  0.00     0.272 C 
ATOM      2  C   UNL     1      31.944  37.037  13.200  1.00  0.00     0.113 C 
ATOM      3  C   UNL     1      32.177  35.604  13.555  1.00  0.00     0.145 C 
ATOM      4  C   UNL     1      30.946  34.928  14.116  1.00  0.00     0.142 C 
ATOM      5  C   UNL     1      29.675  35.465  13.627  1.00  0.00     0.178 C 
ATOM      6  O   UNL     1      29.724  36.297  12.553  1.00  0.00    -0.332 OA
ENDROOT
BRANCH   1   7
ATOM      7  O   UNL     1      30.672  38.089  11.504  1.00  0.00    -0.338 OA
BRANCH   7   8
ATOM      8  C   UNL     1      31.958  38.216  11.067  1.00  0.00     0.199 C 
BRANCH   8   9
ATOM      9  C   UNL     1      31.987  38.743   9.616  1.00  0.00     0.179 C 
ATOM     10  C   UNL     1      30.503  38.840   7.807  1.00  0.00     0.282 C 
ATOM     11  O   UNL     1      30.903  38.204   9.005  1.00  0.00    -0.341 OA
ATOM     12  C   UNL     1      31.535  39.762   7.291  1.00  0.00     0.202 C 
ATOM     13  C   UNL     1      31.978  40.794   8.313  1.00  0.00     0.179 C 
ATOM     14  C   UNL     1      31.821  40.244   9.719  1.00  0.00     0.177 C 
BRANCH  10  15
ATOM     15  O   UNL     1      29.268  39.362   8.106  1.00  0.00    -0.341 OA
BRANCH  15  16
ATOM     16  C   UNL     1      28.226  38.508   8.142  1.00  0.00     0.184 C 
ATOM     17  C   UNL     1      27.232  38.895   7.077  1.00  0.00     0.178 C 
ATOM     18  O   UNL     1      26.249  37.911   7.004  1.00  0.00    -0.341 OA
ATOM     19  C   UNL     1      25.468  37.823   8.159  1.00  0.00     0.281 C 
ATOM     20  C   UNL     1      27.422  38.565   9.437  1.00  0.00     0.180 C 
ATOM     21  C   UNL     1      26.389  37.437   9.292  1.00  0.00     0.202 C 
BRANCH  17  22
ATOM     22  C   UNL     1      27.921  38.952   5.755  1.00  0.00     0.191 C 
BRANCH  22  23
ATOM     23  O   UNL     1      27.361  38.054   4.865  1.00  0.00    -0.394 OA
ATOM     24  H   UNL     1      26.386  38.018   5.046  1.00  0.00     0.210 HD
ENDBRANCH  22  23
ENDBRANCH  17  22
BRANCH  19  25
ATOM     25  O   UNL     1      24.503  36.874   7.897  1.00  0.00    -0.350 OA
BRANCH  25  26
ATOM     26  C   UNL     1      23.212  37.321   7.938  1.00  0.00     0.169 C 
BRANCH  26  27
ATOM     27  C   UNL     1      22.405  36.797   9.103  1.00  0.00     0.119 C 
BRANCH  27  28
ATOM     28  N   UNL     1      22.900  35.472   9.403  1.00  0.00    -0.092 NA
ATOM     29  N   UNL     1      23.558  35.190  10.393  1.00  0.00     0.001 N 
ATOM     30  N   UNL     1      24.091  34.982  11.481  1.00  0.00    -0.003 NA
ENDBRANCH  27  28
ENDBRANCH  26  27
ENDBRANCH  25  26
ENDBRANCH  19  25
BRANCH  20  31
ATOM     31  O   UNL     1      28.156  38.308  10.560  1.00  0.00    -0.387 OA
ATOM     32  H   UNL     1      27.699  37.778  11.250  1.00  0.00     0.211 HD
ENDBRANCH  20  31
BRANCH  21  33
ATOM     33  O   UNL     1      25.768  37.303  10.506  1.00  0.00    -0.385 OA
ATOM     34  H   UNL     1      24.812  36.986  10.420  1.00  0.00     0.211 HD
ENDBRANCH  21  33
ENDBRANCH  15  16
ENDBRANCH  10  15
BRANCH  12  35
ATOM     35  O   UNL     1      32.666  38.979   6.947  1.00  0.00    -0.385 OA
ATOM     36  H   UNL     1      32.693  38.862   5.963  1.00  0.00     0.211 HD
ENDBRANCH  12  35
BRANCH  13  37
ATOM     37  O   UNL     1      31.343  42.021   8.140  1.00  0.00    -0.387 OA
ATOM     38  H   UNL     1      30.666  41.925   7.395  1.00  0.00     0.211 HD
ENDBRANCH  13  37
BRANCH  14  39
ATOM     39  O   UNL     1      30.596  40.508  10.285  1.00  0.00    -0.387 OA
ATOM     40  H   UNL     1      29.955  39.753  10.105  1.00  0.00     0.211 HD
ENDBRANCH  14  39
ENDBRANCH   8   9
ENDBRANCH   7   8
ENDBRANCH   1   7
BRANCH   1  41
ATOM     41  C   UNL     1      29.948  38.325  13.669  1.00  0.00     0.364 C 
ATOM     42  O   UNL     1      28.770  38.763  13.415  1.00  0.00    -0.246 OA
BRANCH  41  43
ATOM     43  O   UNL     1      30.515  38.818  14.811  1.00  0.00    -0.477 OA
ATOM     44  H   UNL     1      30.058  38.598  15.706  1.00  0.00     0.296 HD
ENDBRANCH  41  43
ENDBRANCH   1  41
BRANCH   3  45
ATOM     45  O   UNL     1      32.752  34.902  12.506  1.00  0.00    -0.391 OA
ATOM     46  H   UNL     1      32.638  33.928  12.567  1.00  0.00     0.211 HD
ENDBRANCH   3  45
BRANCH   5  47
ATOM     47  C   UNL     1      28.630  34.368  13.365  1.00  0.00     0.176 C 
BRANCH  47  48
ATOM     48  O   UNL     1      28.805  33.422  14.453  1.00  0.00    -0.388 OA
ATOM     49  H   UNL     1      28.427  32.565  14.130  1.00  0.00     0.211 HD
ENDBRANCH  47  48
BRANCH  47  50
ATOM     50  C   UNL     1      27.217  34.817  13.429  1.00  0.00     0.165 C 
BRANCH  50  51
ATOM     51  O   UNL     1      27.088  35.754  12.336  1.00  0.00    -0.388 OA
ATOM     52  H   UNL     1      26.854  35.223  11.516  1.00  0.00     0.211 HD
ENDBRANCH  50  51
BRANCH  50  53
ATOM     53  C   UNL     1      26.788  35.611  14.617  1.00  0.00     0.154 C 
BRANCH  53  54
ATOM     54  N   UNL     1      26.377  34.799  15.751  1.00  0.00    -0.319 N 
ATOM     55  C   UNL     1      27.206  34.751  16.899  1.00  0.00     0.407 C 
ATOM     56  H   UNL     1      25.496  34.256  15.743  1.00  0.00     0.167 HD
ATOM     57  O   UNL     1      28.287  35.403  16.928  1.00  0.00    -0.225 OA
BRANCH  55  58
ATOM     58  O   UNL     1      26.853  33.993  18.015  1.00  0.00    -0.443 OA
BRANCH  58  59
ATOM     59  C   UNL     1      27.450  32.698  18.171  1.00  0.00     0.294 C 
BRANCH  59  60
ATOM     60  C   UNL     1      26.802  31.770  17.215  1.00  0.00     0.120 A 
ATOM     61  C   UNL     1      25.638  31.059  17.370  1.00  0.00     0.138 A 
ATOM     62  N   UNL     1      27.282  31.477  16.000  1.00  0.00    -0.132 NA
ATOM     63  N   UNL     1      25.450  30.355  16.237  1.00  0.00    -0.248 N 
ATOM     64  N   UNL     1      26.460  30.624  15.423  1.00  0.00    -0.067 NA
BRANCH  63  65
ATOM     65  C   UNL     1      24.323  29.462  15.983  1.00  0.00     0.181 C 
BRANCH  65  66
ATOM     66  C   UNL     1      23.555  29.890  14.786  1.00  0.00    -0.025 A 
ATOM     67  C   UNL     1      23.414  29.047  13.703  1.00  0.00     0.006 A 
ATOM     68  C   UNL     1      22.958  31.123  14.686  1.00  0.00     0.021 A 
ATOM     69  C   UNL     1      22.719  29.385  12.564  1.00  0.00     0.002 A 
ATOM     70  C   UNL     1      22.255  31.493  13.563  1.00  0.00     0.018 A 
ATOM     71  C   UNL     1      22.119  30.650  12.490  1.00  0.00     0.016 A 
ATOM     72  Br  UNL     1      21.419  33.209  13.421  1.00  0.00    -0.051 Br
ENDBRANCH  65  66
ENDBRANCH  63  65
ENDBRANCH  59  60
ENDBRANCH  58  59
ENDBRANCH  55  58
ENDBRANCH  53  54
ENDBRANCH  50  53
ENDBRANCH  47  50
ENDBRANCH   5  47
BRANCH   4  73
ATOM     73  N   UNL     1      30.996  34.984  15.600  1.00  0.00    -0.348 N 
ATOM     74  C   UNL     1      31.404  33.853  16.348  1.00  0.00     0.217 C 
ATOM     75  H   UNL     1      30.729  35.859  16.117  1.00  0.00     0.163 HD
ATOM     76  C   UNL     1      31.462  33.886  17.852  1.00  0.00     0.114 C 
ATOM     77  O   UNL     1      31.723  32.803  15.730  1.00  0.00    -0.275 OA
ENDBRANCH   4  73
TORSDOF 31
BEGIN_RES LYS A 131
REMARK  4 active torsions:
REMARK  status: ('A' for Active; 'I' for Inactive)
REMARK    1  A    between atoms: CA   and  CB  
REMARK    2  A    between atoms: CB   and  CG  
REMARK    3  A    between atoms: CG   and  CD  
REMARK    4  A    between atoms: CD   and  CE  
ROOT
ATOM      1  CA  LYS A 131      29.867  25.555  16.977  1.00 20.52     0.186 C 
ENDROOT
BRANCH   1   2
ATOM      2  CB  LYS A 131      28.345  25.722  17.026  1.00 20.94     0.034 C 
BRANCH   2   3
ATOM      3  CG  LYS A 131      27.601  24.400  16.908  1.00 22.96     0.005 C 
BRANCH   3   4
ATOM      4  CD  LYS A 131      26.609  24.208  18.021  1.00 24.33     0.041 C 
BRANCH   4   5
ATOM      5  CE  LYS A 131      25.945  25.542  18.347  1.00 26.91     0.338 C 
ATOM      6  NZ  LYS A 131      25.910  25.760  19.813  1.00 27.40     0.618 N 
ENDBRANCH   4   5
ENDBRANCH   3   4
ENDBRANCH   2   3
ENDBRANCH   1   2
END_RES LYS A 131
BEGIN_RES LYS A 135
REMARK  4 active torsions:
REMARK  status: ('A' for Active; 'I' for Inactive)
REMARK    5  A    between atoms: CA   and  CB  
REMARK    6  A    between atoms: CB   and  CG  
REMARK    7  A    between atoms: CG   and  CD  
REMARK    8  A    between atoms: CD   and  CE  
ROOT
ATOM      7  CA  LYS A 135      33.193  34.663   9.290  1.00 25.02     0.186 C 
ENDROOT
BRANCH   7   8
ATOM      8  CB  LYS A 135      32.060  35.360  10.034  1.00 26.63     0.034 C 
BRANCH   8   9
ATOM      9  CG  LYS A 135      30.705  34.755   9.772  1.00 29.45     0.005 C 
BRANCH   9  10
ATOM     10  CD  LYS A 135      30.482  34.564   8.279  1.00 32.00     0.041 C 
BRANCH  10  11
ATOM     11  CE  LYS A 135      29.046  34.883   7.910  1.00 34.25     0.338 C 
ATOM     12  NZ  LYS A 135      28.960  35.464   6.542  1.00 35.99     0.618 N 
ENDBRANCH  10  11
ENDBRANCH   9  10
ENDBRANCH   8   9
ENDBRANCH   7   8
END_RES LYS A 135
