REMARK VINA RESULT:    -5.166      0.000      0.000
REMARK INTER + INTRA:         -22.880
REMARK INTER:                 -10.497
REMARK INTRA:                 -12.383
REMARK UNBOUND:                -9.861
REMARK SMILES CC(=O)N[C@@H]1[C@@H](O)C[C@](OC[C@H]2O[C@@H](O[C@H]3[C@H](O)[C@@H](O)[C@H](OCCN=[N+]=[N-])O[C@@H]3CO)[C@H](O)[C@@H](O)[C@H]2O)(C(=O)O)O[C@H]1C(O)[C@H](O)CNC(=O)OCc1cn(-c2ccc([N+](=O)[O-])cc2)nn1
REMARK SMILES IDX 9 1 8 2 6 3 5 4 42 5 41 6 10 7 11 8 12 9 14 10 13 11 32 12
REMARK SMILES IDX 34 13 36 14 15 15 16 16 29 17 28 18 21 19 17 20 19 21 30 22
REMARK SMILES IDX 31 23 22 25 23 26 24 27 25 28 26 29 27 30 18 31 20 33 33 35
REMARK SMILES IDX 35 37 37 39 38 41 39 42 40 43 7 45 43 47 44 48 45 50 46 51
REMARK SMILES IDX 47 53 48 54 49 55 50 57 51 58 52 59 53 60 54 61 66 62 55 63
REMARK SMILES IDX 65 64 56 65 57 66 64 67 58 68 63 69 59 70 60 71 61 72 62 73
REMARK SMILES IDX 4 74 2 75 1 77 3 78
REMARK H PARENT 31 24 18 32 20 34 33 36 35 38 37 40 40 44 7 46 44 49 46 52
REMARK H PARENT 48 56 4 76
REMARK Flexibility Score: inf
ROOT
ATOM      1  C   UNL     1      28.345  39.841   5.396  1.00  0.00     0.272 C 
ATOM      2  C   UNL     1      27.767  38.601   4.797  1.00  0.00     0.113 C 
ATOM      3  C   UNL     1      27.897  37.476   5.732  1.00  0.00     0.145 C 
ATOM      4  C   UNL     1      28.841  37.703   6.926  1.00  0.00     0.142 C 
ATOM      5  C   UNL     1      29.964  38.523   6.493  1.00  0.00     0.178 C 
ATOM      6  O   UNL     1      29.682  39.607   5.667  1.00  0.00    -0.332 OA
ENDROOT
BRANCH   1   7
ATOM      7  O   UNL     1      27.652  40.374   6.438  1.00  0.00    -0.338 OA
BRANCH   7   8
ATOM      8  C   UNL     1      28.155  41.503   7.000  1.00  0.00     0.199 C 
BRANCH   8   9
ATOM      9  C   UNL     1      27.098  42.593   7.124  1.00  0.00     0.179 C 
ATOM     10  C   UNL     1      25.718  42.091   8.944  1.00  0.00     0.282 C 
ATOM     11  O   UNL     1      25.898  42.133   7.598  1.00  0.00    -0.341 OA
ATOM     12  C   UNL     1      26.794  42.592   9.819  1.00  0.00     0.202 C 
ATOM     13  C   UNL     1      27.439  43.827   9.250  1.00  0.00     0.179 C 
ATOM     14  C   UNL     1      27.568  43.847   7.768  1.00  0.00     0.177 C 
BRANCH  10  15
ATOM     15  O   UNL     1      25.269  40.814   9.265  1.00  0.00    -0.341 OA
BRANCH  15  16
ATOM     16  C   UNL     1      24.010  40.485   8.892  1.00  0.00     0.184 C 
ATOM     17  C   UNL     1      23.082  40.166  10.044  1.00  0.00     0.178 C 
ATOM     18  O   UNL     1      21.833  39.786   9.511  1.00  0.00    -0.341 OA
ATOM     19  C   UNL     1      21.948  38.511   8.955  1.00  0.00     0.281 C 
ATOM     20  C   UNL     1      24.122  39.155   8.122  1.00  0.00     0.180 C 
ATOM     21  C   UNL     1      22.743  38.726   7.661  1.00  0.00     0.202 C 
BRANCH  17  22
ATOM     22  C   UNL     1      22.805  41.332  10.957  1.00  0.00     0.191 C 
BRANCH  22  23
ATOM     23  O   UNL     1      23.915  41.384  11.836  1.00  0.00    -0.394 OA
ATOM     24  H   UNL     1      24.653  41.912  11.432  1.00  0.00     0.210 HD
ENDBRANCH  22  23
ENDBRANCH  17  22
BRANCH  19  25
ATOM     25  O   UNL     1      20.712  38.019   8.627  1.00  0.00    -0.350 OA
BRANCH  25  26
ATOM     26  C   UNL     1      19.835  37.848   9.667  1.00  0.00     0.169 C 
BRANCH  26  27
ATOM     27  C   UNL     1      20.222  36.786  10.658  1.00  0.00     0.119 C 
BRANCH  27  28
ATOM     28  N   UNL     1      19.427  35.588  10.381  1.00  0.00    -0.092 NA
ATOM     29  N   UNL     1      19.361  35.161   9.237  1.00  0.00     0.001 N 
ATOM     30  N   UNL     1      19.505  34.630   8.148  1.00  0.00    -0.003 NA
ENDBRANCH  27  28
ENDBRANCH  26  27
ENDBRANCH  25  26
ENDBRANCH  19  25
BRANCH  20  31
ATOM     31  O   UNL     1      25.035  39.222   7.107  1.00  0.00    -0.387 OA
ATOM     32  H   UNL     1      25.970  39.114   7.371  1.00  0.00     0.211 HD
ENDBRANCH  20  31
BRANCH  21  33
ATOM     33  O   UNL     1      22.834  37.586   6.910  1.00  0.00    -0.385 OA
ATOM     34  H   UNL     1      22.835  36.803   7.512  1.00  0.00     0.211 HD
ENDBRANCH  21  33
ENDBRANCH  15  16
ENDBRANCH  10  15
BRANCH  12  35
ATOM     35  O   UNL     1      26.226  43.021  11.035  1.00  0.00    -0.385 OA
ATOM     36  H   UNL     1      26.065  43.984  11.042  1.00  0.00     0.211 HD
ENDBRANCH  12  35
BRANCH  13  37
ATOM     37  O   UNL     1      28.691  44.018   9.883  1.00  0.00    -0.387 OA
ATOM     38  H   UNL     1      28.993  44.915   9.663  1.00  0.00     0.211 HD
ENDBRANCH  13  37
BRANCH  14  39
ATOM     39  O   UNL     1      28.830  44.178   7.296  1.00  0.00    -0.387 OA
ATOM     40  H   UNL     1      29.445  43.443   7.567  1.00  0.00     0.211 HD
ENDBRANCH  14  39
ENDBRANCH   8   9
ENDBRANCH   7   8
ENDBRANCH   1   7
BRANCH   1  41
ATOM     41  C   UNL     1      28.423  40.883   4.299  1.00  0.00     0.364 C 
ATOM     42  O   UNL     1      29.514  41.410   4.011  1.00  0.00    -0.246 OA
BRANCH  41  43
ATOM     43  O   UNL     1      27.286  41.246   3.631  1.00  0.00    -0.477 OA
ATOM     44  H   UNL     1      26.361  41.313   4.047  1.00  0.00     0.296 HD
ENDBRANCH  41  43
ENDBRANCH   1  41
BRANCH   3  45
ATOM     45  O   UNL     1      26.663  37.131   6.280  1.00  0.00    -0.391 OA
ATOM     46  H   UNL     1      25.951  37.706   5.936  1.00  0.00     0.211 HD
ENDBRANCH   3  45
BRANCH   5  47
ATOM     47  C   UNL     1      30.977  39.034   7.420  1.00  0.00     0.176 C 
BRANCH  47  48
ATOM     48  O   UNL     1      31.592  38.092   8.250  1.00  0.00    -0.388 OA
ATOM     49  H   UNL     1      31.770  38.397   9.156  1.00  0.00     0.211 HD
ENDBRANCH  47  48
BRANCH  47  50
ATOM     50  C   UNL     1      32.074  39.927   6.939  1.00  0.00     0.165 C 
BRANCH  50  51
ATOM     51  O   UNL     1      32.845  39.459   5.920  1.00  0.00    -0.388 OA
ATOM     52  H   UNL     1      33.586  38.877   6.232  1.00  0.00     0.211 HD
ENDBRANCH  50  51
BRANCH  50  53
ATOM     53  C   UNL     1      32.775  40.659   8.052  1.00  0.00     0.154 C 
BRANCH  53  54
ATOM     54  N   UNL     1      32.006  40.811   9.259  1.00  0.00    -0.319 N 
ATOM     55  C   UNL     1      31.181  41.923   9.550  1.00  0.00     0.407 C 
ATOM     56  H   UNL     1      32.032  40.063  10.003  1.00  0.00     0.167 HD
ATOM     57  O   UNL     1      31.095  42.852   8.740  1.00  0.00    -0.225 OA
BRANCH  55  58
ATOM     58  O   UNL     1      30.453  42.008  10.738  1.00  0.00    -0.443 OA
BRANCH  58  59
ATOM     59  C   UNL     1      30.402  40.995  11.707  1.00  0.00     0.294 C 
BRANCH  59  60
ATOM     60  C   UNL     1      29.022  40.487  11.856  1.00  0.00     0.121 A 
ATOM     61  C   UNL     1      28.439  39.375  11.252  1.00  0.00     0.144 A 
ATOM     62  N   UNL     1      28.026  40.999  12.639  1.00  0.00    -0.131 NA
ATOM     63  N   UNL     1      27.165  39.252  11.670  1.00  0.00    -0.220 N 
ATOM     64  N   UNL     1      26.950  40.246  12.503  1.00  0.00    -0.062 NA
BRANCH  63  65
ATOM     65  C   UNL     1      26.226  38.237  11.299  1.00  0.00     0.067 A 
ATOM     66  C   UNL     1      26.382  37.413  10.210  1.00  0.00     0.035 A 
ATOM     67  C   UNL     1      25.080  38.063  12.063  1.00  0.00     0.035 A 
ATOM     68  C   UNL     1      25.430  36.447   9.888  1.00  0.00     0.088 A 
ATOM     69  C   UNL     1      24.137  37.108  11.747  1.00  0.00     0.088 A 
ATOM     70  C   UNL     1      24.291  36.281  10.655  1.00  0.00     0.269 A 
BRANCH  70  71
ATOM     71  N   UNL     1      23.325  35.292  10.314  1.00  0.00     0.062 N 
ATOM     72  O   UNL     1      22.855  34.471  11.118  1.00  0.00    -0.258 OA
ATOM     73  O   UNL     1      22.890  35.246   9.014  1.00  0.00    -0.258 OA
ENDBRANCH  70  71
ENDBRANCH  63  65
ENDBRANCH  59  60
ENDBRANCH  58  59
ENDBRANCH  55  58
ENDBRANCH  53  54
ENDBRANCH  50  53
ENDBRANCH  47  50
ENDBRANCH   5  47
BRANCH   4  74
ATOM     74  N   UNL     1      29.300  36.325   7.170  1.00  0.00    -0.348 N 
ATOM     75  C   UNL     1      29.558  35.830   8.460  1.00  0.00     0.217 C 
ATOM     76  H   UNL     1      29.421  35.712   6.345  1.00  0.00     0.163 HD
ATOM     77  C   UNL     1      30.024  34.417   8.597  1.00  0.00     0.114 C 
ATOM     78  O   UNL     1      29.414  36.518   9.482  1.00  0.00    -0.275 OA
ENDBRANCH   4  74
TORSDOF 31
BEGIN_RES LYS A 131
REMARK  4 active torsions:
REMARK  status: ('A' for Active; 'I' for Inactive)
REMARK    1  A    between atoms: CA   and  CB  
REMARK    2  A    between atoms: CB   and  CG  
REMARK    3  A    between atoms: CG   and  CD  
REMARK    4  A    between atoms: CD   and  CE  
ROOT
ATOM      1  CA  LYS A 131      29.867  25.555  16.977  1.00 20.52     0.186 C 
ENDROOT
BRANCH   1   2
ATOM      2  CB  LYS A 131      28.345  25.722  17.026  1.00 20.94     0.034 C 
BRANCH   2   3
ATOM      3  CG  LYS A 131      27.599  24.458  16.627  1.00 22.96     0.005 C 
BRANCH   3   4
ATOM      4  CD  LYS A 131      26.995  23.759  17.814  1.00 24.33     0.041 C 
BRANCH   4   5
ATOM      5  CE  LYS A 131      25.582  23.298  17.468  1.00 26.91     0.338 C 
ATOM      6  NZ  LYS A 131      24.789  24.424  16.920  1.00 27.40     0.618 N 
ENDBRANCH   4   5
ENDBRANCH   3   4
ENDBRANCH   2   3
ENDBRANCH   1   2
END_RES LYS A 131
BEGIN_RES LYS A 135
REMARK  4 active torsions:
REMARK  status: ('A' for Active; 'I' for Inactive)
REMARK    5  A    between atoms: CA   and  CB  
REMARK    6  A    between atoms: CB   and  CG  
REMARK    7  A    between atoms: CG   and  CD  
REMARK    8  A    between atoms: CD   and  CE  
ROOT
ATOM      7  CA  LYS A 135      33.193  34.663   9.290  1.00 25.02     0.186 C 
ENDROOT
BRANCH   7   8
ATOM      8  CB  LYS A 135      32.060  35.360  10.034  1.00 26.63     0.034 C 
BRANCH   8   9
ATOM      9  CG  LYS A 135      32.526  36.184  11.206  1.00 29.45     0.005 C 
BRANCH   9  10
ATOM     10  CD  LYS A 135      32.062  35.565  12.516  1.00 32.00     0.041 C 
BRANCH  10  11
ATOM     11  CE  LYS A 135      30.730  34.864  12.331  1.00 34.25     0.338 C 
ATOM     12  NZ  LYS A 135      30.303  34.184  13.585  1.00 35.99     0.618 N 
ENDBRANCH  10  11
ENDBRANCH   9  10
ENDBRANCH   8   9
ENDBRANCH   7   8
END_RES LYS A 135
