REMARK VINA RESULT:    -3.944      3.769      8.785
REMARK INTER + INTRA:         -22.331
REMARK INTER:                 -11.120
REMARK INTRA:                 -11.211
REMARK UNBOUND:               -11.702
REMARK SMILES CC(=O)N[C@@H]1[C@@H](O)C[C@](OC[C@H]2O[C@@H](O[C@H]3[C@H](O)[C@@H](O)[C@H](OCCN=[N+]=[N-])O[C@@H]3CO)[C@H](O)[C@@H](O)[C@H]2O)(C(=O)O)O[C@H]1C(O)[C@H](O)CNC(=O)OCc1cn([C@@H](CC(=O)O)C(=O)O)nn1
REMARK SMILES IDX 43 1 42 2 9 3 8 4 41 5 6 6 5 7 10 8 11 9 12 10 14 11 13 12
REMARK SMILES IDX 32 13 34 14 36 15 15 16 16 17 29 18 28 19 21 20 17 21 19 22
REMARK SMILES IDX 30 23 31 24 22 26 23 27 24 28 25 29 26 30 27 31 18 32 20 34
REMARK SMILES IDX 33 36 35 38 37 40 38 42 39 43 40 44 7 46 4 48 2 49 1 51 3 52
REMARK SMILES IDX 44 53 45 55 46 56 47 58 48 59 49 60 50 62 51 63 52 64 53 65
REMARK SMILES IDX 54 66 65 67 55 68 64 69 56 70 57 71 58 72 59 73 60 74 61 76
REMARK SMILES IDX 62 77 63 78
REMARK H PARENT 31 25 18 33 20 35 33 37 35 39 37 41 40 45 7 47 4 50 44 54
REMARK H PARENT 46 57 48 61 60 75 63 79
REMARK Flexibility Score: inf
ROOT
ATOM      1  C   UNL     1      29.559  35.736  14.478  1.00  0.00     0.176 C 
ENDROOT
BRANCH   1   2
ATOM      2  C   UNL     1      29.468  37.224  14.188  1.00  0.00     0.178 C 
ATOM      3  C   UNL     1      28.327  38.740  12.799  1.00  0.00     0.272 C 
ATOM      4  C   UNL     1      29.535  39.547  13.294  1.00  0.00     0.113 C 
ATOM      5  O   UNL     1      28.600  37.400  13.155  1.00  0.00    -0.332 OA
ATOM      6  C   UNL     1      30.757  38.757  12.851  1.00  0.00     0.145 C 
ATOM      7  C   UNL     1      30.894  37.683  13.943  1.00  0.00     0.142 C 
BRANCH   3   8
ATOM      8  O   UNL     1      28.155  38.876  11.567  1.00  0.00    -0.338 OA
BRANCH   8   9
ATOM      9  C   UNL     1      27.994  39.014  10.340  1.00  0.00     0.199 C 
BRANCH   9  10
ATOM     10  C   UNL     1      28.446  37.870   9.432  1.00  0.00     0.179 C 
ATOM     11  C   UNL     1      26.569  37.461   8.165  1.00  0.00     0.282 C 
ATOM     12  O   UNL     1      27.481  36.995   9.067  1.00  0.00    -0.341 OA
ATOM     13  C   UNL     1      27.194  37.981   6.929  1.00  0.00     0.202 C 
ATOM     14  C   UNL     1      28.683  37.607   7.014  1.00  0.00     0.179 C 
ATOM     15  C   UNL     1      29.203  38.364   8.221  1.00  0.00     0.177 C 
BRANCH  11  16
ATOM     16  O   UNL     1      25.522  38.202   8.689  1.00  0.00    -0.341 OA
BRANCH  16  17
ATOM     17  C   UNL     1      24.605  37.449   9.385  1.00  0.00     0.184 C 
ATOM     18  C   UNL     1      23.215  37.676   8.912  1.00  0.00     0.178 C 
ATOM     19  O   UNL     1      22.310  36.866   9.587  1.00  0.00    -0.341 OA
ATOM     20  C   UNL     1      22.606  36.690  10.942  1.00  0.00     0.281 C 
ATOM     21  C   UNL     1      24.725  37.884  10.843  1.00  0.00     0.180 C 
ATOM     22  C   UNL     1      23.367  37.904  11.467  1.00  0.00     0.202 C 
BRANCH  18  23
ATOM     23  C   UNL     1      23.150  37.235   7.451  1.00  0.00     0.191 C 
BRANCH  23  24
ATOM     24  O   UNL     1      21.825  36.850   7.158  1.00  0.00    -0.394 OA
ATOM     25  H   UNL     1      21.437  37.637   6.673  1.00  0.00     0.210 HD
ENDBRANCH  23  24
ENDBRANCH  18  23
BRANCH  20  26
ATOM     26  O   UNL     1      23.446  35.597  11.045  1.00  0.00    -0.350 OA
BRANCH  26  27
ATOM     27  C   UNL     1      22.914  34.461  11.571  1.00  0.00     0.169 C 
BRANCH  27  28
ATOM     28  C   UNL     1      21.964  34.779  12.685  1.00  0.00     0.119 C 
BRANCH  28  29
ATOM     29  N   UNL     1      20.910  33.763  12.688  1.00  0.00    -0.092 NA
ATOM     30  N   UNL     1      21.260  32.567  12.757  1.00  0.00     0.001 N 
ATOM     31  N   UNL     1      21.280  31.369  12.420  1.00  0.00    -0.003 NA
ENDBRANCH  28  29
ENDBRANCH  27  28
ENDBRANCH  26  27
ENDBRANCH  20  26
BRANCH  21  32
ATOM     32  O   UNL     1      25.546  37.000  11.532  1.00  0.00    -0.387 OA
ATOM     33  H   UNL     1      25.675  36.162  11.001  1.00  0.00     0.211 HD
ENDBRANCH  21  32
BRANCH  22  34
ATOM     34  O   UNL     1      22.649  39.077  11.227  1.00  0.00    -0.385 OA
ATOM     35  H   UNL     1      22.470  39.064  10.234  1.00  0.00     0.211 HD
ENDBRANCH  22  34
ENDBRANCH  16  17
ENDBRANCH  11  16
BRANCH  13  36
ATOM     36  O   UNL     1      26.726  37.372   5.762  1.00  0.00    -0.385 OA
ATOM     37  H   UNL     1      27.186  37.815   4.991  1.00  0.00     0.211 HD
ENDBRANCH  13  36
BRANCH  14  38
ATOM     38  O   UNL     1      29.379  37.920   5.873  1.00  0.00    -0.387 OA
ATOM     39  H   UNL     1      30.231  37.406   5.798  1.00  0.00     0.211 HD
ENDBRANCH  14  38
BRANCH  15  40
ATOM     40  O   UNL     1      29.042  39.715   8.014  1.00  0.00    -0.387 OA
ATOM     41  H   UNL     1      29.750  40.131   7.494  1.00  0.00     0.211 HD
ENDBRANCH  15  40
ENDBRANCH   9  10
ENDBRANCH   8   9
ENDBRANCH   3   8
BRANCH   3  42
ATOM     42  C   UNL     1      27.187  39.216  13.695  1.00  0.00     0.364 C 
ATOM     43  O   UNL     1      26.234  38.460  13.935  1.00  0.00    -0.246 OA
BRANCH  42  44
ATOM     44  O   UNL     1      27.194  40.482  14.248  1.00  0.00    -0.477 OA
ATOM     45  H   UNL     1      27.531  40.665  15.203  1.00  0.00     0.296 HD
ENDBRANCH  42  44
ENDBRANCH   3  42
BRANCH   6  46
ATOM     46  O   UNL     1      30.447  38.003  11.698  1.00  0.00    -0.391 OA
ATOM     47  H   UNL     1      30.279  38.559  10.920  1.00  0.00     0.211 HD
ENDBRANCH   6  46
BRANCH   7  48
ATOM     48  N   UNL     1      31.488  38.344  15.081  1.00  0.00    -0.348 N 
ATOM     49  C   UNL     1      32.501  37.686  15.844  1.00  0.00     0.217 C 
ATOM     50  H   UNL     1      31.212  39.304  15.389  1.00  0.00     0.163 HD
ATOM     51  C   UNL     1      33.077  38.426  17.017  1.00  0.00     0.114 C 
ATOM     52  O   UNL     1      32.905  36.529  15.556  1.00  0.00    -0.275 OA
ENDBRANCH   7  48
ENDBRANCH   1   2
BRANCH   1  53
ATOM     53  O   UNL     1      30.025  35.492  15.765  1.00  0.00    -0.388 OA
ATOM     54  H   UNL     1      30.521  34.626  15.823  1.00  0.00     0.211 HD
ENDBRANCH   1  53
BRANCH   1  55
ATOM     55  C   UNL     1      30.307  34.930  13.485  1.00  0.00     0.165 C 
BRANCH  55  56
ATOM     56  O   UNL     1      29.565  34.381  12.463  1.00  0.00    -0.388 OA
ATOM     57  H   UNL     1      30.101  33.899  11.779  1.00  0.00     0.211 HD
ENDBRANCH  55  56
BRANCH  55  58
ATOM     58  C   UNL     1      31.240  33.973  14.146  1.00  0.00     0.154 C 
BRANCH  58  59
ATOM     59  N   UNL     1      30.679  32.728  14.568  1.00  0.00    -0.319 N 
ATOM     60  C   UNL     1      30.890  32.282  15.894  1.00  0.00     0.407 C 
ATOM     61  H   UNL     1      30.120  32.147  13.929  1.00  0.00     0.167 HD
ATOM     62  O   UNL     1      31.573  33.031  16.676  1.00  0.00    -0.225 OA
BRANCH  60  63
ATOM     63  O   UNL     1      30.430  31.096  16.439  1.00  0.00    -0.443 OA
BRANCH  63  64
ATOM     64  C   UNL     1      29.270  31.108  17.287  1.00  0.00     0.294 C 
BRANCH  64  65
ATOM     65  C   UNL     1      28.284  32.062  16.725  1.00  0.00     0.120 A 
ATOM     66  C   UNL     1      27.351  31.888  15.728  1.00  0.00     0.139 A 
ATOM     67  N   UNL     1      28.136  33.372  17.113  1.00  0.00    -0.132 NA
ATOM     68  N   UNL     1      26.681  33.063  15.541  1.00  0.00    -0.237 N 
ATOM     69  N   UNL     1      27.189  33.907  16.391  1.00  0.00    -0.066 NA
BRANCH  68  70
ATOM     70  C   UNL     1      25.632  33.307  14.578  1.00  0.00     0.229 C 
BRANCH  70  71
ATOM     71  C   UNL     1      24.323  33.457  15.333  1.00  0.00     0.161 C 
BRANCH  71  72
ATOM     72  C   UNL     1      23.549  32.201  15.333  1.00  0.00     0.306 C 
ATOM     73  O   UNL     1      23.946  31.194  14.693  1.00  0.00    -0.252 OA
BRANCH  72  74
ATOM     74  O   UNL     1      22.370  32.109  16.038  1.00  0.00    -0.481 OA
ATOM     75  H   UNL     1      21.716  32.901  16.011  1.00  0.00     0.296 HD
ENDBRANCH  72  74
ENDBRANCH  71  72
ENDBRANCH  70  71
BRANCH  70  76
ATOM     76  C   UNL     1      25.927  34.555  13.852  1.00  0.00     0.329 C 
ATOM     77  O   UNL     1      26.630  34.503  12.817  1.00  0.00    -0.250 OA
BRANCH  76  78
ATOM     78  O   UNL     1      25.461  35.798  14.261  1.00  0.00    -0.480 OA
ATOM     79  H   UNL     1      25.745  36.142  15.174  1.00  0.00     0.296 HD
ENDBRANCH  76  78
ENDBRANCH  70  76
ENDBRANCH  68  70
ENDBRANCH  64  65
ENDBRANCH  63  64
ENDBRANCH  60  63
ENDBRANCH  58  59
ENDBRANCH  55  58
ENDBRANCH   1  55
TORSDOF 35
BEGIN_RES LYS A 131
REMARK  4 active torsions:
REMARK  status: ('A' for Active; 'I' for Inactive)
REMARK    1  A    between atoms: CA   and  CB  
REMARK    2  A    between atoms: CB   and  CG  
REMARK    3  A    between atoms: CG   and  CD  
REMARK    4  A    between atoms: CD   and  CE  
ROOT
ATOM      1  CA  LYS A 131      29.867  25.555  16.977  1.00 20.52     0.186 C 
ENDROOT
BRANCH   1   2
ATOM      2  CB  LYS A 131      28.345  25.722  17.026  1.00 20.94     0.034 C 
BRANCH   2   3
ATOM      3  CG  LYS A 131      27.602  24.400  16.915  1.00 22.96     0.005 C 
BRANCH   3   4
ATOM      4  CD  LYS A 131      26.628  24.201  18.044  1.00 24.33     0.041 C 
BRANCH   4   5
ATOM      5  CE  LYS A 131      26.059  25.551  18.469  1.00 26.91     0.338 C 
ATOM      6  NZ  LYS A 131      24.728  25.769  17.856  1.00 27.40     0.618 N 
ENDBRANCH   4   5
ENDBRANCH   3   4
ENDBRANCH   2   3
ENDBRANCH   1   2
END_RES LYS A 131
BEGIN_RES LYS A 135
REMARK  4 active torsions:
REMARK  status: ('A' for Active; 'I' for Inactive)
REMARK    5  A    between atoms: CA   and  CB  
REMARK    6  A    between atoms: CB   and  CG  
REMARK    7  A    between atoms: CG   and  CD  
REMARK    8  A    between atoms: CD   and  CE  
ROOT
ATOM      7  CA  LYS A 135      33.193  34.663   9.290  1.00 25.02     0.186 C 
ENDROOT
BRANCH   7   8
ATOM      8  CB  LYS A 135      32.060  35.360  10.034  1.00 26.63     0.034 C 
BRANCH   8   9
ATOM      9  CG  LYS A 135      30.779  35.437   9.245  1.00 29.45     0.005 C 
BRANCH   9  10
ATOM     10  CD  LYS A 135      30.209  34.047   9.008  1.00 32.00     0.041 C 
BRANCH  10  11
ATOM     11  CE  LYS A 135      28.761  34.133   8.564  1.00 34.25     0.338 C 
ATOM     12  NZ  LYS A 135      27.844  33.640   9.628  1.00 35.99     0.618 N 
ENDBRANCH  10  11
ENDBRANCH   9  10
ENDBRANCH   8   9
ENDBRANCH   7   8
END_RES LYS A 135
