REMARK VINA RESULT:    -5.058      2.667      7.744
REMARK INTER + INTRA:         -22.245
REMARK INTER:                 -12.695
REMARK INTRA:                  -9.550
REMARK UNBOUND:                -9.203
REMARK SMILES CC(=O)N[C@@H]1[C@@H](O)C[C@](OC[C@H]2O[C@@H](O[C@H]3[C@H](O)[C@@H](O)[C@H](OCCN=[N+]=[N-])O[C@@H]3CO)[C@H](O)[C@@H](O)[C@H]2O)(C(=O)O)O[C@H]1C(O)[C@H](O)CNC(=O)OCc1cn(Cc2ccc(C#N)cc2)nn1
REMARK SMILES IDX 9 1 8 2 6 3 5 4 42 5 41 6 10 7 11 8 12 9 14 10 13 11 32 12
REMARK SMILES IDX 34 13 36 14 15 15 16 16 29 17 28 18 21 19 17 20 19 21 30 22
REMARK SMILES IDX 31 23 22 25 23 26 24 27 25 28 26 29 27 30 18 31 20 33 33 35
REMARK SMILES IDX 35 37 37 39 38 41 39 42 40 43 7 45 43 47 44 48 45 50 46 51
REMARK SMILES IDX 47 53 48 54 49 55 50 57 51 58 52 59 53 60 54 61 66 62 55 63
REMARK SMILES IDX 65 64 56 65 57 66 58 67 64 68 59 69 63 70 60 71 61 72 62 73
REMARK SMILES IDX 4 74 2 75 1 77 3 78
REMARK H PARENT 31 24 18 32 20 34 33 36 35 38 37 40 40 44 7 46 44 49 46 52
REMARK H PARENT 48 56 4 76
REMARK Flexibility Score: inf
ROOT
ATOM      1  C   UNL     1      28.898  39.136   6.211  1.00  0.00     0.272 C 
ATOM      2  C   UNL     1      29.846  39.654   5.187  1.00  0.00     0.113 C 
ATOM      3  C   UNL     1      31.061  40.323   5.725  1.00  0.00     0.145 C 
ATOM      4  C   UNL     1      30.687  40.968   7.069  1.00  0.00     0.142 C 
ATOM      5  C   UNL     1      29.220  41.269   6.993  1.00  0.00     0.178 C 
ATOM      6  O   UNL     1      28.496  40.119   7.129  1.00  0.00    -0.332 OA
ENDROOT
BRANCH   1   7
ATOM      7  O   UNL     1      29.289  37.995   6.878  1.00  0.00    -0.338 OA
BRANCH   7   8
ATOM      8  C   UNL     1      29.470  38.141   8.211  1.00  0.00     0.199 C 
BRANCH   8   9
ATOM      9  C   UNL     1      28.764  37.037   9.017  1.00  0.00     0.179 C 
ATOM     10  C   UNL     1      26.775  35.866   9.019  1.00  0.00     0.282 C 
ATOM     11  O   UNL     1      27.465  36.967   8.512  1.00  0.00    -0.341 OA
ATOM     12  C   UNL     1      27.401  34.561   8.652  1.00  0.00     0.202 C 
ATOM     13  C   UNL     1      28.672  34.814   7.876  1.00  0.00     0.179 C 
ATOM     14  C   UNL     1      29.502  35.753   8.740  1.00  0.00     0.177 C 
BRANCH  10  15
ATOM     15  O   UNL     1      25.496  35.905   8.468  1.00  0.00    -0.341 OA
BRANCH  15  16
ATOM     16  C   UNL     1      24.881  37.149   8.590  1.00  0.00     0.184 C 
ATOM     17  C   UNL     1      24.449  37.357   9.997  1.00  0.00     0.178 C 
ATOM     18  O   UNL     1      23.146  37.064  10.283  1.00  0.00    -0.341 OA
ATOM     19  C   UNL     1      22.434  36.412   9.309  1.00  0.00     0.281 C 
ATOM     20  C   UNL     1      23.828  37.376   7.554  1.00  0.00     0.180 C 
ATOM     21  C   UNL     1      22.415  37.270   8.063  1.00  0.00     0.202 C 
BRANCH  17  22
ATOM     22  C   UNL     1      24.832  38.769  10.436  1.00  0.00     0.191 C 
BRANCH  22  23
ATOM     23  O   UNL     1      25.717  39.280   9.487  1.00  0.00    -0.394 OA
ATOM     24  H   UNL     1      25.928  40.245   9.673  1.00  0.00     0.210 HD
ENDBRANCH  22  23
ENDBRANCH  17  22
BRANCH  19  25
ATOM     25  O   UNL     1      21.109  36.322   9.783  1.00  0.00    -0.350 OA
BRANCH  25  26
ATOM     26  C   UNL     1      21.060  36.537  11.153  1.00  0.00     0.169 C 
BRANCH  26  27
ATOM     27  C   UNL     1      20.375  35.383  11.858  1.00  0.00     0.119 C 
BRANCH  27  28
ATOM     28  N   UNL     1      21.111  34.141  11.718  1.00  0.00    -0.092 NA
ATOM     29  N   UNL     1      22.267  34.066  12.101  1.00  0.00     0.001 N 
ATOM     30  N   UNL     1      23.237  33.677  12.770  1.00  0.00    -0.003 NA
ENDBRANCH  27  28
ENDBRANCH  26  27
ENDBRANCH  25  26
ENDBRANCH  19  25
BRANCH  20  31
ATOM     31  O   UNL     1      24.012  38.567   6.840  1.00  0.00    -0.387 OA
ATOM     32  H   UNL     1      24.391  39.272   7.443  1.00  0.00     0.211 HD
ENDBRANCH  20  31
BRANCH  21  33
ATOM     33  O   UNL     1      21.554  36.733   7.104  1.00  0.00    -0.385 OA
ATOM     34  H   UNL     1      21.627  37.313   6.301  1.00  0.00     0.211 HD
ENDBRANCH  21  33
ENDBRANCH  15  16
ENDBRANCH  10  15
BRANCH  12  35
ATOM     35  O   UNL     1      27.697  33.743   9.720  1.00  0.00    -0.385 OA
ATOM     36  H   UNL     1      26.857  33.513  10.210  1.00  0.00     0.211 HD
ENDBRANCH  12  35
BRANCH  13  37
ATOM     37  O   UNL     1      28.331  35.379   6.658  1.00  0.00    -0.387 OA
ATOM     38  H   UNL     1      27.461  35.097   6.301  1.00  0.00     0.211 HD
ENDBRANCH  13  37
BRANCH  14  39
ATOM     39  O   UNL     1      30.774  35.953   8.263  1.00  0.00    -0.387 OA
ATOM     40  H   UNL     1      31.253  36.586   8.840  1.00  0.00     0.211 HD
ENDBRANCH  14  39
ENDBRANCH   8   9
ENDBRANCH   7   8
ENDBRANCH   1   7
BRANCH   1  41
ATOM     41  C   UNL     1      27.624  38.820   5.481  1.00  0.00     0.364 C 
ATOM     42  O   UNL     1      27.064  39.687   4.804  1.00  0.00    -0.246 OA
BRANCH  41  43
ATOM     43  O   UNL     1      27.103  37.551   5.584  1.00  0.00    -0.477 OA
ATOM     44  H   UNL     1      26.741  37.024   4.800  1.00  0.00     0.296 HD
ENDBRANCH  41  43
ENDBRANCH   1  41
BRANCH   3  45
ATOM     45  O   UNL     1      32.195  39.566   5.797  1.00  0.00    -0.391 OA
ATOM     46  H   UNL     1      32.725  39.788   6.589  1.00  0.00     0.211 HD
ENDBRANCH   3  45
BRANCH   5  47
ATOM     47  C   UNL     1      28.772  42.334   8.003  1.00  0.00     0.176 C 
BRANCH  47  48
ATOM     48  O   UNL     1      28.485  43.472   7.213  1.00  0.00    -0.388 OA
ATOM     49  H   UNL     1      28.325  43.166   6.286  1.00  0.00     0.211 HD
ENDBRANCH  47  48
BRANCH  47  50
ATOM     50  C   UNL     1      27.562  41.933   8.721  1.00  0.00     0.165 C 
BRANCH  50  51
ATOM     51  O   UNL     1      26.446  41.839   7.836  1.00  0.00    -0.388 OA
ATOM     52  H   UNL     1      25.810  42.539   8.184  1.00  0.00     0.211 HD
ENDBRANCH  50  51
BRANCH  50  53
ATOM     53  C   UNL     1      27.176  42.720   9.911  1.00  0.00     0.154 C 
BRANCH  53  54
ATOM     54  N   UNL     1      26.521  42.159  11.009  1.00  0.00    -0.319 N 
ATOM     55  C   UNL     1      27.021  41.361  12.055  1.00  0.00     0.407 C 
ATOM     56  H   UNL     1      25.462  42.354  11.092  1.00  0.00     0.167 HD
ATOM     57  O   UNL     1      28.214  41.044  12.160  1.00  0.00    -0.225 OA
BRANCH  55  58
ATOM     58  O   UNL     1      26.172  40.875  13.061  1.00  0.00    -0.443 OA
BRANCH  58  59
ATOM     59  C   UNL     1      26.696  40.066  14.101  1.00  0.00     0.294 C 
BRANCH  59  60
ATOM     60  C   UNL     1      26.160  38.670  13.921  1.00  0.00     0.120 A 
ATOM     61  C   UNL     1      26.775  37.699  13.158  1.00  0.00     0.138 A 
ATOM     62  N   UNL     1      25.042  38.109  14.418  1.00  0.00    -0.132 NA
ATOM     63  N   UNL     1      26.010  36.578  13.215  1.00  0.00    -0.248 N 
ATOM     64  N   UNL     1      25.004  36.875  13.970  1.00  0.00    -0.067 NA
BRANCH  63  65
ATOM     65  C   UNL     1      26.358  35.358  12.503  1.00  0.00     0.181 C 
BRANCH  65  66
ATOM     66  C   UNL     1      27.484  34.754  13.306  1.00  0.00    -0.026 A 
ATOM     67  C   UNL     1      28.758  34.838  12.804  1.00  0.00     0.007 A 
ATOM     68  C   UNL     1      27.213  34.128  14.525  1.00  0.00     0.007 A 
ATOM     69  C   UNL     1      29.845  34.312  13.464  1.00  0.00     0.020 A 
ATOM     70  C   UNL     1      28.297  33.604  15.183  1.00  0.00     0.020 A 
ATOM     71  C   UNL     1      29.555  33.688  14.682  1.00  0.00     0.052 A 
BRANCH  71  72
ATOM     72  C   UNL     1      30.688  33.105  15.392  1.00  0.00     0.099 C 
ATOM     73  N   UNL     1      31.583  32.621  15.957  1.00  0.00    -0.192 NA
ENDBRANCH  71  72
ENDBRANCH  65  66
ENDBRANCH  63  65
ENDBRANCH  59  60
ENDBRANCH  58  59
ENDBRANCH  55  58
ENDBRANCH  53  54
ENDBRANCH  50  53
ENDBRANCH  47  50
ENDBRANCH   5  47
BRANCH   4  74
ATOM     74  N   UNL     1      31.526  42.113   7.320  1.00  0.00    -0.348 N 
ATOM     75  C   UNL     1      32.703  41.938   8.094  1.00  0.00     0.217 C 
ATOM     76  H   UNL     1      31.308  43.054   6.956  1.00  0.00     0.163 HD
ATOM     77  C   UNL     1      33.611  43.060   8.391  1.00  0.00     0.114 C 
ATOM     78  O   UNL     1      33.014  40.792   8.563  1.00  0.00    -0.275 OA
ENDBRANCH   4  74
TORSDOF 32
BEGIN_RES LYS A 131
REMARK  4 active torsions:
REMARK  status: ('A' for Active; 'I' for Inactive)
REMARK    1  A    between atoms: CA   and  CB  
REMARK    2  A    between atoms: CB   and  CG  
REMARK    3  A    between atoms: CG   and  CD  
REMARK    4  A    between atoms: CD   and  CE  
ROOT
ATOM      1  CA  LYS A 131      29.867  25.555  16.977  1.00 20.52     0.186 C 
ENDROOT
BRANCH   1   2
ATOM      2  CB  LYS A 131      28.345  25.722  17.026  1.00 20.94     0.034 C 
BRANCH   2   3
ATOM      3  CG  LYS A 131      27.600  24.410  16.836  1.00 22.96     0.005 C 
BRANCH   3   4
ATOM      4  CD  LYS A 131      26.550  24.196  17.891  1.00 24.33     0.041 C 
BRANCH   4   5
ATOM      5  CE  LYS A 131      25.166  24.318  17.263  1.00 26.91     0.338 C 
ATOM      6  NZ  LYS A 131      24.427  23.039  17.384  1.00 27.40     0.618 N 
ENDBRANCH   4   5
ENDBRANCH   3   4
ENDBRANCH   2   3
ENDBRANCH   1   2
END_RES LYS A 131
BEGIN_RES LYS A 135
REMARK  4 active torsions:
REMARK  status: ('A' for Active; 'I' for Inactive)
REMARK    5  A    between atoms: CA   and  CB  
REMARK    6  A    between atoms: CB   and  CG  
REMARK    7  A    between atoms: CG   and  CD  
REMARK    8  A    between atoms: CD   and  CE  
ROOT
ATOM      7  CA  LYS A 135      33.193  34.663   9.290  1.00 25.02     0.186 C 
ENDROOT
BRANCH   7   8
ATOM      8  CB  LYS A 135      32.060  35.360  10.034  1.00 26.63     0.034 C 
BRANCH   8   9
ATOM      9  CG  LYS A 135      32.466  35.901  11.381  1.00 29.45     0.005 C 
BRANCH   9  10
ATOM     10  CD  LYS A 135      31.622  37.111  11.750  1.00 32.00     0.041 C 
BRANCH  10  11
ATOM     11  CE  LYS A 135      31.929  38.276  10.828  1.00 34.25     0.338 C 
ATOM     12  NZ  LYS A 135      31.338  39.540  11.347  1.00 35.99     0.618 N 
ENDBRANCH  10  11
ENDBRANCH   9  10
ENDBRANCH   8   9
ENDBRANCH   7   8
END_RES LYS A 135
