REMARK VINA RESULT:    -3.486      2.635      8.717
REMARK INTER + INTRA:         -21.244
REMARK INTER:                  -9.623
REMARK INTRA:                 -11.621
REMARK UNBOUND:               -12.359
REMARK SMILES CC(=O)N[C@@H]1[C@@H](O)C[C@](OC[C@H]2O[C@@H](O[C@H]3[C@H](O)[C@@H](O)[C@H](OCCN=[N+]=[N-])O[C@@H]3CO)[C@H](O)[C@@H](O)[C@H]2O)(C(=O)O)O[C@H]1C(O)[C@H](O)CNC(=O)OCc1cn(CC(=O)O)nn1
REMARK SMILES IDX 9 1 8 2 6 3 5 4 42 5 41 6 10 7 11 8 12 9 14 10 13 11 32 12
REMARK SMILES IDX 34 13 36 14 15 15 16 16 29 17 28 18 21 19 17 20 19 21 30 22
REMARK SMILES IDX 31 23 22 25 23 26 24 27 25 28 26 29 27 30 18 31 20 33 33 35
REMARK SMILES IDX 35 37 37 39 38 41 39 42 40 43 7 45 43 47 44 48 45 50 46 51
REMARK SMILES IDX 47 53 48 54 49 55 50 57 51 58 52 59 53 60 54 61 61 62 55 63
REMARK SMILES IDX 60 64 56 65 57 66 58 67 59 68 4 70 2 71 1 73 3 74
REMARK H PARENT 31 24 18 32 20 34 33 36 35 38 37 40 40 44 7 46 44 49 46 52
REMARK H PARENT 48 56 59 69 4 72
REMARK Flexibility Score: inf
ROOT
ATOM      1  C   UNL     1      23.263  36.993   8.981  1.00  0.00     0.272 C 
ATOM      2  C   UNL     1      22.197  36.434   8.084  1.00  0.00     0.113 C 
ATOM      3  C   UNL     1      20.802  36.709   8.461  1.00  0.00     0.145 C 
ATOM      4  C   UNL     1      20.573  37.170   9.896  1.00  0.00     0.142 C 
ATOM      5  C   UNL     1      21.747  36.681  10.686  1.00  0.00     0.178 C 
ATOM      6  O   UNL     1      22.814  37.467  10.174  1.00  0.00    -0.332 OA
ENDROOT
BRANCH   1   7
ATOM      7  O   UNL     1      23.996  38.017   8.342  1.00  0.00    -0.338 OA
BRANCH   7   8
ATOM      8  C   UNL     1      23.944  39.229   8.959  1.00  0.00     0.199 C 
BRANCH   8   9
ATOM      9  C   UNL     1      25.372  39.752   9.181  1.00  0.00     0.179 C 
ATOM     10  C   UNL     1      27.403  39.026   8.364  1.00  0.00     0.282 C 
ATOM     11  O   UNL     1      26.301  38.745   9.233  1.00  0.00    -0.341 OA
ATOM     12  C   UNL     1      26.823  38.980   6.998  1.00  0.00     0.202 C 
ATOM     13  C   UNL     1      26.061  40.304   6.820  1.00  0.00     0.179 C 
ATOM     14  C   UNL     1      25.685  40.841   8.174  1.00  0.00     0.177 C 
BRANCH  10  15
ATOM     15  O   UNL     1      28.396  38.140   8.660  1.00  0.00    -0.341 OA
BRANCH  15  16
ATOM     16  C   UNL     1      29.460  38.698   9.371  1.00  0.00     0.184 C 
ATOM     17  C   UNL     1      30.739  38.285   8.706  1.00  0.00     0.178 C 
ATOM     18  O   UNL     1      31.765  38.204   9.608  1.00  0.00    -0.341 OA
ATOM     19  C   UNL     1      31.785  39.134  10.615  1.00  0.00     0.281 C 
ATOM     20  C   UNL     1      29.485  38.203  10.801  1.00  0.00     0.180 C 
ATOM     21  C   UNL     1      30.572  39.006  11.521  1.00  0.00     0.202 C 
BRANCH  17  22
ATOM     22  C   UNL     1      31.090  39.294   7.627  1.00  0.00     0.191 C 
BRANCH  22  23
ATOM     23  O   UNL     1      30.478  38.836   6.457  1.00  0.00    -0.394 OA
ATOM     24  H   UNL     1      29.729  38.235   6.665  1.00  0.00     0.210 HD
ENDBRANCH  22  23
ENDBRANCH  17  22
BRANCH  19  25
ATOM     25  O   UNL     1      31.939  40.399  10.116  1.00  0.00    -0.350 OA
BRANCH  25  26
ATOM     26  C   UNL     1      31.510  41.398  10.952  1.00  0.00     0.169 C 
BRANCH  26  27
ATOM     27  C   UNL     1      30.828  42.549  10.260  1.00  0.00     0.119 C 
BRANCH  27  28
ATOM     28  N   UNL     1      29.476  42.180   9.833  1.00  0.00    -0.092 NA
ATOM     29  N   UNL     1      28.656  41.989  10.754  1.00  0.00     0.001 N 
ATOM     30  N   UNL     1      27.742  41.397  11.359  1.00  0.00    -0.003 NA
ENDBRANCH  27  28
ENDBRANCH  26  27
ENDBRANCH  25  26
ENDBRANCH  19  25
BRANCH  20  31
ATOM     31  O   UNL     1      28.310  38.416  11.478  1.00  0.00    -0.387 OA
ATOM     32  H   UNL     1      28.393  38.553  12.434  1.00  0.00     0.211 HD
ENDBRANCH  20  31
BRANCH  21  33
ATOM     33  O   UNL     1      30.940  38.399  12.706  1.00  0.00    -0.385 OA
ATOM     34  H   UNL     1      31.528  37.616  12.551  1.00  0.00     0.211 HD
ENDBRANCH  21  33
ENDBRANCH  15  16
ENDBRANCH  10  15
BRANCH  12  35
ATOM     35  O   UNL     1      27.675  38.722   5.964  1.00  0.00    -0.385 OA
ATOM     36  H   UNL     1      27.222  38.225   5.264  1.00  0.00     0.211 HD
ENDBRANCH  12  35
BRANCH  13  37
ATOM     37  O   UNL     1      24.931  40.018   6.068  1.00  0.00    -0.387 OA
ATOM     38  H   UNL     1      24.843  39.047   5.856  1.00  0.00     0.211 HD
ENDBRANCH  13  37
BRANCH  14  39
ATOM     39  O   UNL     1      24.527  41.597   7.989  1.00  0.00    -0.387 OA
ATOM     40  H   UNL     1      24.591  42.491   8.400  1.00  0.00     0.211 HD
ENDBRANCH  14  39
ENDBRANCH   8   9
ENDBRANCH   7   8
ENDBRANCH   1   7
BRANCH   1  41
ATOM     41  C   UNL     1      24.253  35.923   9.240  1.00  0.00     0.364 C 
ATOM     42  O   UNL     1      23.947  34.884   9.856  1.00  0.00    -0.246 OA
BRANCH  41  43
ATOM     43  O   UNL     1      25.565  36.024   8.810  1.00  0.00    -0.477 OA
ATOM     44  H   UNL     1      26.183  36.799   9.082  1.00  0.00     0.296 HD
ENDBRANCH  41  43
ENDBRANCH   1  41
BRANCH   3  45
ATOM     45  O   UNL     1      20.103  37.504   7.546  1.00  0.00    -0.391 OA
ATOM     46  H   UNL     1      20.085  38.448   7.776  1.00  0.00     0.211 HD
ENDBRANCH   3  45
BRANCH   5  47
ATOM     47  C   UNL     1      21.697  36.849  12.166  1.00  0.00     0.176 C 
BRANCH  47  48
ATOM     48  O   UNL     1      22.528  37.990  12.422  1.00  0.00    -0.388 OA
ATOM     49  H   UNL     1      22.591  38.542  11.591  1.00  0.00     0.211 HD
ENDBRANCH  47  48
BRANCH  47  50
ATOM     50  C   UNL     1      22.264  35.683  12.946  1.00  0.00     0.165 C 
BRANCH  50  51
ATOM     51  O   UNL     1      21.281  35.228  13.863  1.00  0.00    -0.388 OA
ATOM     52  H   UNL     1      21.716  35.163  14.741  1.00  0.00     0.211 HD
ENDBRANCH  50  51
BRANCH  50  53
ATOM     53  C   UNL     1      23.504  36.010  13.681  1.00  0.00     0.154 C 
BRANCH  53  54
ATOM     54  N   UNL     1      24.689  35.657  12.955  1.00  0.00    -0.319 N 
ATOM     55  C   UNL     1      25.640  36.535  12.389  1.00  0.00     0.407 C 
ATOM     56  H   UNL     1      24.937  34.614  12.792  1.00  0.00     0.167 HD
ATOM     57  O   UNL     1      25.517  37.760  12.468  1.00  0.00    -0.225 OA
BRANCH  55  58
ATOM     58  O   UNL     1      26.770  36.069  11.707  1.00  0.00    -0.443 OA
BRANCH  58  59
ATOM     59  C   UNL     1      27.426  34.879  12.110  1.00  0.00     0.294 C 
BRANCH  59  60
ATOM     60  C   UNL     1      28.595  35.195  12.988  1.00  0.00     0.120 A 
ATOM     61  C   UNL     1      29.701  34.389  13.217  1.00  0.00     0.139 A 
ATOM     62  N   UNL     1      28.803  36.304  13.715  1.00  0.00    -0.132 NA
ATOM     63  N   UNL     1      30.522  35.035  14.064  1.00  0.00    -0.241 N 
ATOM     64  N   UNL     1      29.955  36.196  14.354  1.00  0.00    -0.066 NA
BRANCH  63  65
ATOM     65  C   UNL     1      31.811  34.574  14.589  1.00  0.00     0.268 C 
BRANCH  65  66
ATOM     66  C   UNL     1      31.544  33.577  15.642  1.00  0.00     0.325 C 
ATOM     67  O   UNL     1      31.565  32.366  15.378  1.00  0.00    -0.250 OA
BRANCH  66  68
ATOM     68  O   UNL     1      31.270  33.998  16.927  1.00  0.00    -0.480 OA
ATOM     69  H   UNL     1      30.861  33.406  17.621  1.00  0.00     0.296 HD
ENDBRANCH  66  68
ENDBRANCH  65  66
ENDBRANCH  63  65
ENDBRANCH  59  60
ENDBRANCH  58  59
ENDBRANCH  55  58
ENDBRANCH  53  54
ENDBRANCH  50  53
ENDBRANCH  47  50
ENDBRANCH   5  47
BRANCH   4  70
ATOM     70  N   UNL     1      19.273  36.817  10.351  1.00  0.00    -0.348 N 
ATOM     71  C   UNL     1      18.828  35.452  10.432  1.00  0.00     0.217 C 
ATOM     72  H   UNL     1      18.597  37.544  10.661  1.00  0.00     0.163 HD
ATOM     73  C   UNL     1      17.457  35.177  10.920  1.00  0.00     0.114 C 
ATOM     74  O   UNL     1      19.581  34.508  10.098  1.00  0.00    -0.275 OA
ENDBRANCH   4  70
TORSDOF 32
BEGIN_RES LYS A 131
REMARK  4 active torsions:
REMARK  status: ('A' for Active; 'I' for Inactive)
REMARK    1  A    between atoms: CA   and  CB  
REMARK    2  A    between atoms: CB   and  CG  
REMARK    3  A    between atoms: CG   and  CD  
REMARK    4  A    between atoms: CD   and  CE  
ROOT
ATOM      1  CA  LYS A 131      29.867  25.555  16.977  1.00 20.52     0.186 C 
ENDROOT
BRANCH   1   2
ATOM      2  CB  LYS A 131      28.345  25.722  17.026  1.00 20.94     0.034 C 
BRANCH   2   3
ATOM      3  CG  LYS A 131      27.601  24.402  16.894  1.00 22.96     0.005 C 
BRANCH   3   4
ATOM      4  CD  LYS A 131      26.494  24.272  17.903  1.00 24.33     0.041 C 
BRANCH   4   5
ATOM      5  CE  LYS A 131      25.167  24.653  17.256  1.00 26.91     0.338 C 
ATOM      6  NZ  LYS A 131      24.337  23.447  17.027  1.00 27.40     0.618 N 
ENDBRANCH   4   5
ENDBRANCH   3   4
ENDBRANCH   2   3
ENDBRANCH   1   2
END_RES LYS A 131
BEGIN_RES LYS A 135
REMARK  4 active torsions:
REMARK  status: ('A' for Active; 'I' for Inactive)
REMARK    5  A    between atoms: CA   and  CB  
REMARK    6  A    between atoms: CB   and  CG  
REMARK    7  A    between atoms: CG   and  CD  
REMARK    8  A    between atoms: CD   and  CE  
ROOT
ATOM      7  CA  LYS A 135      33.193  34.663   9.290  1.00 25.02     0.186 C 
ENDROOT
BRANCH   7   8
ATOM      8  CB  LYS A 135      32.060  35.360  10.034  1.00 26.63     0.034 C 
BRANCH   8   9
ATOM      9  CG  LYS A 135      30.706  34.751   9.777  1.00 29.45     0.005 C 
BRANCH   9  10
ATOM     10  CD  LYS A 135      30.474  34.569   8.284  1.00 32.00     0.041 C 
BRANCH  10  11
ATOM     11  CE  LYS A 135      29.019  34.820   7.937  1.00 34.25     0.338 C 
ATOM     12  NZ  LYS A 135      28.893  35.522   6.630  1.00 35.99     0.618 N 
ENDBRANCH  10  11
ENDBRANCH   9  10
ENDBRANCH   8   9
ENDBRANCH   7   8
END_RES LYS A 135
