REMARK VINA RESULT:    -5.571      0.000      0.000
REMARK INTER + INTRA:         -25.144
REMARK INTER:                 -11.539
REMARK INTRA:                 -13.605
REMARK UNBOUND:               -10.617
REMARK SMILES CC(=O)N[C@@H]1[C@@H](O)C[C@](OC[C@H]2O[C@@H](O[C@H]3[C@H](O)[C@@H](O)[C@H](OCCN=[N+]=[N-])O[C@@H]3CO)[C@H](O)[C@@H](O)[C@H]2O)(C(=O)O)O[C@H]1C(O)[C@H](O)CNC(=O)OCc1cn(-c2ccc(S(=O)(=O)c3ccc(N)cc3)cc2)nn1
REMARK SMILES IDX 43 1 42 2 9 3 8 4 41 5 6 6 5 7 10 8 11 9 12 10 14 11 13 12
REMARK SMILES IDX 32 13 34 14 36 15 15 16 16 17 29 18 28 19 21 20 17 21 19 22
REMARK SMILES IDX 30 23 31 24 22 26 23 27 24 28 25 29 26 30 27 31 18 32 20 34
REMARK SMILES IDX 33 36 35 38 37 40 38 42 39 43 40 44 7 46 4 48 2 49 1 51 3 52
REMARK SMILES IDX 44 53 45 55 46 56 47 58 48 59 49 60 50 62 51 63 52 64 53 65
REMARK SMILES IDX 54 66 73 67 55 68 72 69 56 70 57 71 71 72 58 73 70 74 59 75
REMARK SMILES IDX 60 76 61 77 62 78 63 79 64 80 69 81 65 82 68 83 66 84 67 85
REMARK H PARENT 31 25 18 33 20 35 33 37 35 39 37 41 40 45 7 47 4 50 44 54
REMARK H PARENT 46 57 48 61 67 86 67 87
REMARK Flexibility Score: inf
ROOT
ATOM      1  C   UNL     1      21.823  36.068   9.633  1.00  0.00     0.176 C 
ENDROOT
BRANCH   1   2
ATOM      2  C   UNL     1      21.615  37.212  10.625  1.00  0.00     0.178 C 
ATOM      3  C   UNL     1      22.443  38.185  12.553  1.00  0.00     0.272 C 
ATOM      4  C   UNL     1      21.060  38.318  13.100  1.00  0.00     0.113 C 
ATOM      5  O   UNL     1      22.517  37.117  11.641  1.00  0.00    -0.332 OA
ATOM      6  C   UNL     1      20.237  37.131  12.627  1.00  0.00     0.145 C 
ATOM      7  C   UNL     1      20.167  37.167  11.138  1.00  0.00     0.142 C 
BRANCH   3   8
ATOM      8  O   UNL     1      23.427  37.890  13.500  1.00  0.00    -0.338 OA
BRANCH   8   9
ATOM      9  C   UNL     1      23.446  38.669  14.618  1.00  0.00     0.199 C 
BRANCH   9  10
ATOM     10  C   UNL     1      24.699  38.379  15.413  1.00  0.00     0.179 C 
ATOM     11  C   UNL     1      26.119  36.718  16.075  1.00  0.00     0.282 C 
ATOM     12  O   UNL     1      25.038  37.036  15.211  1.00  0.00    -0.341 OA
ATOM     13  C   UNL     1      27.315  37.409  15.483  1.00  0.00     0.202 C 
ATOM     14  C   UNL     1      27.128  38.904  15.612  1.00  0.00     0.179 C 
ATOM     15  C   UNL     1      25.796  39.296  14.996  1.00  0.00     0.177 C 
BRANCH  11  16
ATOM     16  O   UNL     1      26.203  35.352  16.151  1.00  0.00    -0.341 OA
BRANCH  16  17
ATOM     17  C   UNL     1      25.303  34.741  15.247  1.00  0.00     0.184 C 
ATOM     18  C   UNL     1      24.403  33.843  16.035  1.00  0.00     0.178 C 
ATOM     19  O   UNL     1      24.330  32.549  15.594  1.00  0.00    -0.341 OA
ATOM     20  C   UNL     1      25.504  31.889  15.372  1.00  0.00     0.281 C 
ATOM     21  C   UNL     1      26.195  33.954  14.297  1.00  0.00     0.180 C 
ATOM     22  C   UNL     1      26.699  32.777  15.107  1.00  0.00     0.202 C 
BRANCH  18  23
ATOM     23  C   UNL     1      22.985  34.420  15.864  1.00  0.00     0.191 C 
BRANCH  23  24
ATOM     24  O   UNL     1      22.873  35.240  14.769  1.00  0.00    -0.394 OA
ATOM     25  H   UNL     1      22.529  34.798  13.953  1.00  0.00     0.210 HD
ENDBRANCH  23  24
ENDBRANCH  18  23
BRANCH  20  26
ATOM     26  O   UNL     1      25.336  31.100  14.239  1.00  0.00    -0.350 OA
BRANCH  26  27
ATOM     27  C   UNL     1      24.211  30.322  14.228  1.00  0.00     0.169 C 
BRANCH  27  28
ATOM     28  C   UNL     1      23.663  30.186  12.846  1.00  0.00     0.119 C 
BRANCH  28  29
ATOM     29  N   UNL     1      22.438  30.994  12.722  1.00  0.00    -0.092 NA
ATOM     30  N   UNL     1      22.481  32.223  12.766  1.00  0.00     0.001 N 
ATOM     31  N   UNL     1      22.544  33.400  12.370  1.00  0.00    -0.003 NA
ENDBRANCH  28  29
ENDBRANCH  27  28
ENDBRANCH  26  27
ENDBRANCH  20  26
BRANCH  21  32
ATOM     32  O   UNL     1      25.462  33.486  13.232  1.00  0.00    -0.387 OA
ATOM     33  H   UNL     1      25.304  34.211  12.568  1.00  0.00     0.211 HD
ENDBRANCH  21  32
BRANCH  22  34
ATOM     34  O   UNL     1      27.362  33.162  16.249  1.00  0.00    -0.385 OA
ATOM     35  H   UNL     1      27.433  34.148  16.342  1.00  0.00     0.211 HD
ENDBRANCH  22  34
ENDBRANCH  16  17
ENDBRANCH  11  16
BRANCH  13  36
ATOM     36  O   UNL     1      28.513  36.990  16.056  1.00  0.00    -0.385 OA
ATOM     37  H   UNL     1      28.396  37.084  17.055  1.00  0.00     0.211 HD
ENDBRANCH  13  36
BRANCH  14  38
ATOM     38  O   UNL     1      28.105  39.539  14.832  1.00  0.00    -0.387 OA
ATOM     39  H   UNL     1      28.996  39.257  15.110  1.00  0.00     0.211 HD
ENDBRANCH  14  38
BRANCH  15  40
ATOM     40  O   UNL     1      25.899  39.393  13.615  1.00  0.00    -0.387 OA
ATOM     41  H   UNL     1      25.671  40.304  13.319  1.00  0.00     0.211 HD
ENDBRANCH  15  40
ENDBRANCH   9  10
ENDBRANCH   8   9
ENDBRANCH   3   8
BRANCH   3  42
ATOM     42  C   UNL     1      22.916  39.399  11.834  1.00  0.00     0.364 C 
ATOM     43  O   UNL     1      22.259  40.455  11.682  1.00  0.00    -0.246 OA
BRANCH  42  44
ATOM     44  O   UNL     1      24.182  39.393  11.272  1.00  0.00    -0.477 OA
ATOM     45  H   UNL     1      24.948  38.827  11.671  1.00  0.00     0.296 HD
ENDBRANCH  42  44
ENDBRANCH   3  42
BRANCH   6  46
ATOM     46  O   UNL     1      20.965  35.992  12.989  1.00  0.00    -0.391 OA
ATOM     47  H   UNL     1      20.619  35.584  13.829  1.00  0.00     0.211 HD
ENDBRANCH   6  46
BRANCH   7  48
ATOM     48  N   UNL     1      19.417  38.247  10.581  1.00  0.00    -0.348 N 
ATOM     49  C   UNL     1      18.322  38.089   9.685  1.00  0.00     0.217 C 
ATOM     50  H   UNL     1      19.674  39.231  10.842  1.00  0.00     0.163 HD
ATOM     51  C   UNL     1      17.620  39.292   9.175  1.00  0.00     0.114 C 
ATOM     52  O   UNL     1      17.995  36.938   9.366  1.00  0.00    -0.275 OA
ENDBRANCH   7  48
ENDBRANCH   1   2
BRANCH   1  53
ATOM     53  O   UNL     1      21.328  34.876  10.135  1.00  0.00    -0.388 OA
ATOM     54  H   UNL     1      21.772  34.099   9.682  1.00  0.00     0.211 HD
ENDBRANCH   1  53
BRANCH   1  55
ATOM     55  C   UNL     1      21.351  36.400   8.270  1.00  0.00     0.165 C 
BRANCH  55  56
ATOM     56  O   UNL     1      20.997  35.247   7.565  1.00  0.00    -0.388 OA
ATOM     57  H   UNL     1      21.476  34.449   7.841  1.00  0.00     0.211 HD
ENDBRANCH  55  56
BRANCH  55  58
ATOM     58  C   UNL     1      22.442  37.061   7.455  1.00  0.00     0.154 C 
BRANCH  58  59
ATOM     59  N   UNL     1      23.760  36.861   7.988  1.00  0.00    -0.319 N 
ATOM     60  C   UNL     1      24.670  37.947   7.980  1.00  0.00     0.407 C 
ATOM     61  H   UNL     1      24.057  35.951   8.373  1.00  0.00     0.167 HD
ATOM     62  O   UNL     1      24.283  39.058   7.514  1.00  0.00    -0.225 OA
BRANCH  60  63
ATOM     63  O   UNL     1      25.963  37.886   8.447  1.00  0.00    -0.443 OA
BRANCH  63  64
ATOM     64  C   UNL     1      26.778  39.013   8.688  1.00  0.00     0.294 C 
BRANCH  64  65
ATOM     65  C   UNL     1      27.487  38.815   9.977  1.00  0.00     0.121 A 
ATOM     66  C   UNL     1      28.342  37.811  10.381  1.00  0.00     0.144 A 
ATOM     67  N   UNL     1      27.425  39.665  11.051  1.00  0.00    -0.131 NA
ATOM     68  N   UNL     1      28.765  38.073  11.656  1.00  0.00    -0.220 N 
ATOM     69  N   UNL     1      28.187  39.194  12.011  1.00  0.00    -0.062 NA
BRANCH  68  70
ATOM     70  C   UNL     1      29.657  37.318  12.449  1.00  0.00     0.066 A 
ATOM     71  C   UNL     1      30.794  37.915  13.003  1.00  0.00     0.030 A 
ATOM     72  C   UNL     1      29.477  35.986  12.722  1.00  0.00     0.030 A 
ATOM     73  C   UNL     1      31.691  37.226  13.780  1.00  0.00     0.023 A 
ATOM     74  C   UNL     1      30.385  35.279  13.512  1.00  0.00     0.023 A 
ATOM     75  C   UNL     1      31.498  35.889  14.047  1.00  0.00     0.072 A 
BRANCH  75  76
ATOM     76  S   UNL     1      32.634  35.000  15.040  1.00  0.00     0.206 S 
ATOM     77  O   UNL     1      33.160  35.936  16.116  1.00  0.00    -0.219 OA
ATOM     78  O   UNL     1      33.744  34.387  14.255  1.00  0.00    -0.219 OA
BRANCH  76  79
ATOM     79  C   UNL     1      31.758  33.738  15.907  1.00  0.00     0.072 A 
ATOM     80  C   UNL     1      31.427  33.906  17.224  1.00  0.00     0.023 A 
ATOM     81  C   UNL     1      31.398  32.571  15.274  1.00  0.00     0.023 A 
ATOM     82  C   UNL     1      30.751  32.922  17.886  1.00  0.00     0.027 A 
ATOM     83  C   UNL     1      30.719  31.591  15.952  1.00  0.00     0.027 A 
ATOM     84  C   UNL     1      30.376  31.731  17.267  1.00  0.00     0.031 A 
BRANCH  84  85
ATOM     85  N   UNL     1      29.679  30.739  17.990  1.00  0.00    -0.399 N 
ATOM     86  H   UNL     1      29.092  30.980  18.800  1.00  0.00     0.156 HD
ATOM     87  H   UNL     1      29.757  29.748  17.702  1.00  0.00     0.156 HD
ENDBRANCH  84  85
ENDBRANCH  76  79
ENDBRANCH  75  76
ENDBRANCH  68  70
ENDBRANCH  64  65
ENDBRANCH  63  64
ENDBRANCH  60  63
ENDBRANCH  58  59
ENDBRANCH  55  58
ENDBRANCH   1  55
TORSDOF 33
BEGIN_RES LYS A 131
REMARK  4 active torsions:
REMARK  status: ('A' for Active; 'I' for Inactive)
REMARK    1  A    between atoms: CA   and  CB  
REMARK    2  A    between atoms: CB   and  CG  
REMARK    3  A    between atoms: CG   and  CD  
REMARK    4  A    between atoms: CD   and  CE  
ROOT
ATOM      1  CA  LYS A 131      29.867  25.555  16.977  1.00 20.52     0.186 C 
ENDROOT
BRANCH   1   2
ATOM      2  CB  LYS A 131      28.345  25.722  17.026  1.00 20.94     0.034 C 
BRANCH   2   3
ATOM      3  CG  LYS A 131      27.602  24.397  16.941  1.00 22.96     0.005 C 
BRANCH   3   4
ATOM      4  CD  LYS A 131      26.113  24.575  17.051  1.00 24.33     0.041 C 
BRANCH   4   5
ATOM      5  CE  LYS A 131      25.506  23.362  17.749  1.00 26.91     0.338 C 
ATOM      6  NZ  LYS A 131      25.799  23.398  19.201  1.00 27.40     0.618 N 
ENDBRANCH   4   5
ENDBRANCH   3   4
ENDBRANCH   2   3
ENDBRANCH   1   2
END_RES LYS A 131
BEGIN_RES LYS A 135
REMARK  4 active torsions:
REMARK  status: ('A' for Active; 'I' for Inactive)
REMARK    5  A    between atoms: CA   and  CB  
REMARK    6  A    between atoms: CB   and  CG  
REMARK    7  A    between atoms: CG   and  CD  
REMARK    8  A    between atoms: CD   and  CE  
ROOT
ATOM      7  CA  LYS A 135      33.193  34.663   9.290  1.00 25.02     0.186 C 
ENDROOT
BRANCH   7   8
ATOM      8  CB  LYS A 135      32.060  35.360  10.034  1.00 26.63     0.034 C 
BRANCH   8   9
ATOM      9  CG  LYS A 135      30.793  35.480   9.227  1.00 29.45     0.005 C 
BRANCH   9  10
ATOM     10  CD  LYS A 135      30.025  34.168   9.235  1.00 32.00     0.041 C 
BRANCH  10  11
ATOM     11  CE  LYS A 135      28.596  34.385   8.774  1.00 34.25     0.338 C 
ATOM     12  NZ  LYS A 135      27.632  33.679   9.664  1.00 35.99     0.618 N 
ENDBRANCH  10  11
ENDBRANCH   9  10
ENDBRANCH   8   9
ENDBRANCH   7   8
END_RES LYS A 135
