REMARK VINA RESULT:    -3.666      3.710      6.790
REMARK INTER + INTRA:         -21.954
REMARK INTER:                 -10.770
REMARK INTRA:                 -11.183
REMARK UNBOUND:               -11.857
REMARK SMILES CC[N+](C)(CC)CCCn1cc(COC(=O)NC[C@@H](O)C(O)[C@@H]2O[C@@](OC[C@H]3O[C@@H](O[C@H]4[C@H](O)[C@@H](O)[C@H](OCCN=[N+]=[N-])O[C@@H]4CO)[C@H](O)[C@@H](O)[C@H]3O)(C(=O)O)C[C@H](O)[C@H]2NC(C)=O)nn1
REMARK SMILES IDX 21 1 23 2 25 3 57 4 24 5 58 6 60 7 26 8 27 9 28 10 30 11
REMARK SMILES IDX 29 12 48 13 50 14 52 15 31 16 32 17 45 18 44 19 37 20 33 21
REMARK SMILES IDX 35 22 46 23 47 24 38 26 39 27 40 28 41 29 42 30 43 31 34 32
REMARK SMILES IDX 36 34 49 36 51 38 53 40 54 42 55 43 56 44 59 46 61 48 62 49
REMARK SMILES IDX 63 51 64 52 22 53 19 55 20 56 18 58 17 59 15 60 16 62 14 63
REMARK SMILES IDX 13 64 12 65 11 66 65 67 10 68 66 69 9 70 8 71 7 72 3 73 4 74
REMARK SMILES IDX 2 75 1 76 5 77 6 78
REMARK H PARENT 47 25 34 33 36 35 49 37 51 39 53 41 56 45 59 47 61 50 22 54
REMARK H PARENT 20 57 17 61
REMARK Flexibility Score: inf
ROOT
ATOM      1  C   UNL     1      26.796  32.589  17.483  1.00  0.00     0.176 C 
ENDROOT
BRANCH   1   2
ATOM      2  C   UNL     1      28.305  32.367  17.438  1.00  0.00     0.178 C 
ATOM      3  C   UNL     1      30.206  33.166  16.292  1.00  0.00     0.272 C 
ATOM      4  C   UNL     1      30.705  31.773  16.486  1.00  0.00     0.113 C 
ATOM      5  O   UNL     1      28.787  33.076  16.361  1.00  0.00    -0.332 OA
ATOM      6  C   UNL     1      29.637  30.737  16.254  1.00  0.00     0.145 C 
ATOM      7  C   UNL     1      28.581  30.901  17.344  1.00  0.00     0.142 C 
BRANCH   3   8
ATOM      8  O   UNL     1      30.420  33.670  15.026  1.00  0.00    -0.338 OA
BRANCH   8   9
ATOM      9  C   UNL     1      29.497  34.449  14.439  1.00  0.00     0.199 C 
BRANCH   9  10
ATOM     10  C   UNL     1      29.957  34.888  13.024  1.00  0.00     0.179 C 
ATOM     11  C   UNL     1      28.417  36.601  12.520  1.00  0.00     0.282 C 
ATOM     12  O   UNL     1      28.959  35.350  12.259  1.00  0.00    -0.341 OA
ATOM     13  C   UNL     1      29.388  37.579  13.063  1.00  0.00     0.202 C 
ATOM     14  C   UNL     1      30.748  37.167  12.458  1.00  0.00     0.179 C 
ATOM     15  C   UNL     1      31.105  35.887  13.180  1.00  0.00     0.177 C 
BRANCH  11  16
ATOM     16  O   UNL     1      27.209  36.474  13.222  1.00  0.00    -0.341 OA
BRANCH  16  17
ATOM     17  C   UNL     1      26.128  36.362  12.397  1.00  0.00     0.184 C 
ATOM     18  C   UNL     1      25.120  37.425  12.352  1.00  0.00     0.178 C 
ATOM     19  O   UNL     1      24.291  37.230  11.262  1.00  0.00    -0.341 OA
ATOM     20  C   UNL     1      24.209  36.009  10.698  1.00  0.00     0.281 C 
ATOM     21  C   UNL     1      25.345  35.067  12.713  1.00  0.00     0.180 C 
ATOM     22  C   UNL     1      24.359  34.812  11.603  1.00  0.00     0.202 C 
BRANCH  18  23
ATOM     23  C   UNL     1      25.641  38.847  12.280  1.00  0.00     0.191 C 
BRANCH  23  24
ATOM     24  O   UNL     1      26.283  39.259  13.440  1.00  0.00    -0.394 OA
ATOM     25  H   UNL     1      26.801  38.456  13.772  1.00  0.00     0.210 HD
ENDBRANCH  23  24
ENDBRANCH  18  23
BRANCH  20  26
ATOM     26  O   UNL     1      25.002  35.922   9.568  1.00  0.00    -0.350 OA
BRANCH  26  27
ATOM     27  C   UNL     1      24.834  36.899   8.644  1.00  0.00     0.169 C 
BRANCH  27  28
ATOM     28  C   UNL     1      26.129  37.537   8.185  1.00  0.00     0.119 C 
BRANCH  28  29
ATOM     29  N   UNL     1      27.139  37.376   9.218  1.00  0.00    -0.092 NA
ATOM     30  N   UNL     1      28.083  38.149   9.357  1.00  0.00     0.001 N 
ATOM     31  N   UNL     1      29.025  38.925   9.530  1.00  0.00    -0.003 NA
ENDBRANCH  28  29
ENDBRANCH  27  28
ENDBRANCH  26  27
ENDBRANCH  20  26
BRANCH  21  32
ATOM     32  O   UNL     1      26.279  34.077  12.912  1.00  0.00    -0.387 OA
ATOM     33  H   UNL     1      26.542  33.580  12.121  1.00  0.00     0.211 HD
ENDBRANCH  21  32
BRANCH  22  34
ATOM     34  O   UNL     1      23.159  34.397  12.158  1.00  0.00    -0.385 OA
ATOM     35  H   UNL     1      23.073  34.598  13.126  1.00  0.00     0.211 HD
ENDBRANCH  22  34
ENDBRANCH  16  17
ENDBRANCH  11  16
BRANCH  13  36
ATOM     36  O   UNL     1      29.167  38.896  12.632  1.00  0.00    -0.385 OA
ATOM     37  H   UNL     1      28.769  39.382  13.387  1.00  0.00     0.211 HD
ENDBRANCH  13  36
BRANCH  14  38
ATOM     38  O   UNL     1      31.693  38.158  12.723  1.00  0.00    -0.387 OA
ATOM     39  H   UNL     1      32.474  37.709  13.106  1.00  0.00     0.211 HD
ENDBRANCH  14  38
BRANCH  15  40
ATOM     40  O   UNL     1      31.172  36.216  14.532  1.00  0.00    -0.387 OA
ATOM     41  H   UNL     1      30.435  35.898  15.076  1.00  0.00     0.211 HD
ENDBRANCH  15  40
ENDBRANCH   9  10
ENDBRANCH   8   9
ENDBRANCH   3   8
BRANCH   3  42
ATOM     42  C   UNL     1      30.676  34.135  17.296  1.00  0.00     0.364 C 
ATOM     43  O   UNL     1      30.358  35.344  17.246  1.00  0.00    -0.246 OA
BRANCH  42  44
ATOM     44  O   UNL     1      31.489  33.742  18.331  1.00  0.00    -0.477 OA
ATOM     45  H   UNL     1      31.375  34.070  19.288  1.00  0.00     0.296 HD
ENDBRANCH  42  44
ENDBRANCH   3  42
BRANCH   6  46
ATOM     46  O   UNL     1      29.039  30.831  15.020  1.00  0.00    -0.391 OA
ATOM     47  H   UNL     1      29.572  30.363  14.307  1.00  0.00     0.211 HD
ENDBRANCH   6  46
BRANCH   7  48
ATOM     48  N   UNL     1      29.255  30.468  18.580  1.00  0.00    -0.348 N 
ATOM     49  C   UNL     1      28.655  29.525  19.460  1.00  0.00     0.217 C 
ATOM     50  H   UNL     1      30.186  30.823  18.877  1.00  0.00     0.163 HD
ATOM     51  C   UNL     1      29.297  29.058  20.714  1.00  0.00     0.114 C 
ATOM     52  O   UNL     1      27.537  29.069  19.160  1.00  0.00    -0.275 OA
ENDBRANCH   7  48
ENDBRANCH   1   2
BRANCH   1  53
ATOM     53  O   UNL     1      26.181  31.389  17.978  1.00  0.00    -0.388 OA
ATOM     54  H   UNL     1      26.504  30.653  17.394  1.00  0.00     0.211 HD
ENDBRANCH   1  53
BRANCH   1  55
ATOM     55  C   UNL     1      26.245  32.807  16.111  1.00  0.00     0.165 C 
BRANCH  55  56
ATOM     56  O   UNL     1      26.317  34.254  15.961  1.00  0.00    -0.388 OA
ATOM     57  H   UNL     1      26.196  34.644  16.881  1.00  0.00     0.211 HD
ENDBRANCH  55  56
BRANCH  55  58
ATOM     58  C   UNL     1      24.838  32.408  15.859  1.00  0.00     0.154 C 
BRANCH  58  59
ATOM     59  N   UNL     1      24.490  31.198  15.264  1.00  0.00    -0.319 N 
ATOM     60  C   UNL     1      24.379  30.893  13.887  1.00  0.00     0.407 C 
ATOM     61  H   UNL     1      24.266  30.357  15.940  1.00  0.00     0.167 HD
ATOM     62  O   UNL     1      24.592  31.712  12.980  1.00  0.00    -0.225 OA
BRANCH  60  63
ATOM     63  O   UNL     1      23.996  29.590  13.485  1.00  0.00    -0.443 OA
BRANCH  63  64
ATOM     64  C   UNL     1      22.882  29.000  14.181  1.00  0.00     0.294 C 
BRANCH  64  65
ATOM     65  C   UNL     1      21.695  29.462  13.369  1.00  0.00     0.120 A 
ATOM     66  C   UNL     1      20.976  30.620  13.546  1.00  0.00     0.138 A 
ATOM     67  N   UNL     1      21.142  28.878  12.300  1.00  0.00    -0.132 NA
ATOM     68  N   UNL     1      20.012  30.696  12.573  1.00  0.00    -0.252 N 
ATOM     69  N   UNL     1      20.149  29.609  11.836  1.00  0.00    -0.067 NA
BRANCH  68  70
ATOM     70  C   UNL     1      19.078  31.792  12.390  1.00  0.00     0.152 C 
BRANCH  70  71
ATOM     71  C   UNL     1      19.715  33.002  11.859  1.00  0.00     0.085 C 
BRANCH  71  72
ATOM     72  C   UNL     1      18.976  33.909  10.964  1.00  0.00     0.265 C 
BRANCH  72  73
ATOM     73  N   UNL     1      19.422  35.254  10.821  1.00  0.00    -0.326 N 
ATOM     74  C   UNL     1      20.575  35.309   9.965  1.00  0.00     0.334 C 
BRANCH  73  75
ATOM     75  C   UNL     1      19.652  35.967  12.046  1.00  0.00     0.260 C 
ATOM     76  C   UNL     1      20.756  36.993  11.935  1.00  0.00     0.071 C 
ENDBRANCH  73  75
BRANCH  73  77
ATOM     77  C   UNL     1      18.359  35.956  10.082  1.00  0.00     0.260 C 
ATOM     78  C   UNL     1      18.742  36.351   8.700  1.00  0.00     0.071 C 
ENDBRANCH  73  77
ENDBRANCH  72  73
ENDBRANCH  71  72
ENDBRANCH  70  71
ENDBRANCH  68  70
ENDBRANCH  64  65
ENDBRANCH  63  64
ENDBRANCH  60  63
ENDBRANCH  58  59
ENDBRANCH  55  58
ENDBRANCH   1  55
TORSDOF 35
BEGIN_RES LYS A 131
REMARK  4 active torsions:
REMARK  status: ('A' for Active; 'I' for Inactive)
REMARK    1  A    between atoms: CA   and  CB  
REMARK    2  A    between atoms: CB   and  CG  
REMARK    3  A    between atoms: CG   and  CD  
REMARK    4  A    between atoms: CD   and  CE  
ROOT
ATOM      1  CA  LYS A 131      29.867  25.555  16.977  1.00 20.52     0.186 C 
ENDROOT
BRANCH   1   2
ATOM      2  CB  LYS A 131      28.345  25.722  17.026  1.00 20.94     0.034 C 
BRANCH   2   3
ATOM      3  CG  LYS A 131      27.601  24.404  16.875  1.00 22.96     0.005 C 
BRANCH   3   4
ATOM      4  CD  LYS A 131      26.498  24.257  17.886  1.00 24.33     0.041 C 
BRANCH   4   5
ATOM      5  CE  LYS A 131      25.149  24.432  17.198  1.00 26.91     0.338 C 
ATOM      6  NZ  LYS A 131      24.413  23.146  17.164  1.00 27.40     0.618 N 
ENDBRANCH   4   5
ENDBRANCH   3   4
ENDBRANCH   2   3
ENDBRANCH   1   2
END_RES LYS A 131
BEGIN_RES LYS A 135
REMARK  4 active torsions:
REMARK  status: ('A' for Active; 'I' for Inactive)
REMARK    5  A    between atoms: CA   and  CB  
REMARK    6  A    between atoms: CB   and  CG  
REMARK    7  A    between atoms: CG   and  CD  
REMARK    8  A    between atoms: CD   and  CE  
ROOT
ATOM      7  CA  LYS A 135      33.193  34.663   9.290  1.00 25.02     0.186 C 
ENDROOT
BRANCH   7   8
ATOM      8  CB  LYS A 135      32.060  35.360  10.034  1.00 26.63     0.034 C 
BRANCH   8   9
ATOM      9  CG  LYS A 135      30.815  35.541   9.204  1.00 29.45     0.005 C 
BRANCH   9  10
ATOM     10  CD  LYS A 135      29.986  34.266   9.196  1.00 32.00     0.041 C 
BRANCH  10  11
ATOM     11  CE  LYS A 135      28.768  34.428   8.306  1.00 34.25     0.338 C 
ATOM     12  NZ  LYS A 135      29.066  35.313   7.146  1.00 35.99     0.618 N 
ENDBRANCH  10  11
ENDBRANCH   9  10
ENDBRANCH   8   9
ENDBRANCH   7   8
END_RES LYS A 135
