REMARK VINA RESULT:    -4.398      3.178      8.320
REMARK INTER + INTRA:         -23.235
REMARK INTER:                 -13.273
REMARK INTRA:                  -9.962
REMARK UNBOUND:               -12.409
REMARK SMILES CC(=O)N[C@@H]1[C@@H](O)C[C@](OC[C@H]2O[C@@H](O[C@H]3[C@H](O)[C@@H](O)[C@H](OCCN=[N+]=[N-])O[C@@H]3CO)[C@H](O)[C@@H](O)[C@H]2O)(C(=O)O)O[C@H]1C(O)[C@H](O)CNC(=O)OCc1cn(C2c3ccccc3-c3ccccc32)nn1
REMARK SMILES IDX 9 1 8 2 6 3 5 4 42 5 41 6 10 7 11 8 12 9 14 10 13 11 32 12
REMARK SMILES IDX 34 13 36 14 15 15 16 16 29 17 28 18 21 19 17 20 19 21 30 22
REMARK SMILES IDX 31 23 22 25 23 26 24 27 25 28 26 29 27 30 18 31 20 33 33 35
REMARK SMILES IDX 35 37 37 39 38 41 39 42 40 43 7 45 43 47 44 48 45 50 46 51
REMARK SMILES IDX 47 53 48 54 49 55 50 57 51 58 52 59 53 60 54 61 70 62 55 63
REMARK SMILES IDX 69 64 56 65 57 66 68 67 58 68 62 69 63 70 67 71 59 72 61 73
REMARK SMILES IDX 64 74 66 75 60 76 65 77 4 78 2 79 1 81 3 82
REMARK H PARENT 31 24 18 32 20 34 33 36 35 38 37 40 40 44 7 46 44 49 46 52
REMARK H PARENT 48 56 4 80
REMARK Flexibility Score: inf
ROOT
ATOM      1  C   UNL     1      27.855  39.959   5.217  1.00  0.00     0.272 C 
ATOM      2  C   UNL     1      27.990  38.698   4.464  1.00  0.00     0.113 C 
ATOM      3  C   UNL     1      28.146  37.512   5.337  1.00  0.00     0.145 C 
ATOM      4  C   UNL     1      28.631  37.831   6.724  1.00  0.00     0.142 C 
ATOM      5  C   UNL     1      29.459  39.068   6.674  1.00  0.00     0.178 C 
ATOM      6  O   UNL     1      28.886  40.179   6.143  1.00  0.00    -0.332 OA
ENDROOT
BRANCH   1   7
ATOM      7  O   UNL     1      26.659  40.077   5.875  1.00  0.00    -0.338 OA
BRANCH   7   8
ATOM      8  C   UNL     1      26.476  41.204   6.627  1.00  0.00     0.199 C 
BRANCH   8   9
ATOM      9  C   UNL     1      25.244  41.945   6.157  1.00  0.00     0.179 C 
ATOM     10  C   UNL     1      24.027  41.436   8.096  1.00  0.00     0.282 C 
ATOM     11  O   UNL     1      24.143  41.357   6.737  1.00  0.00    -0.341 OA
ATOM     12  C   UNL     1      24.319  42.802   8.585  1.00  0.00     0.202 C 
ATOM     13  C   UNL     1      24.091  43.732   7.378  1.00  0.00     0.179 C 
ATOM     14  C   UNL     1      25.298  43.416   6.468  1.00  0.00     0.177 C 
BRANCH  10  15
ATOM     15  O   UNL     1      24.638  40.385   8.727  1.00  0.00    -0.341 OA
BRANCH  15  16
ATOM     16  C   UNL     1      23.917  39.228   8.839  1.00  0.00     0.184 C 
ATOM     17  C   UNL     1      23.502  38.992  10.243  1.00  0.00     0.178 C 
ATOM     18  O   UNL     1      23.575  37.657  10.627  1.00  0.00    -0.341 OA
ATOM     19  C   UNL     1      23.302  36.780   9.629  1.00  0.00     0.281 C 
ATOM     20  C   UNL     1      24.850  38.141   8.312  1.00  0.00     0.180 C 
ATOM     21  C   UNL     1      24.499  36.761   8.684  1.00  0.00     0.202 C 
BRANCH  17  22
ATOM     22  C   UNL     1      22.083  39.451  10.502  1.00  0.00     0.191 C 
BRANCH  22  23
ATOM     23  O   UNL     1      22.049  40.849  10.726  1.00  0.00    -0.394 OA
ATOM     24  H   UNL     1      21.923  41.026  11.706  1.00  0.00     0.210 HD
ENDBRANCH  22  23
ENDBRANCH  17  22
BRANCH  19  25
ATOM     25  O   UNL     1      22.192  37.047   8.851  1.00  0.00    -0.350 OA
BRANCH  25  26
ATOM     26  C   UNL     1      21.263  36.046   8.827  1.00  0.00     0.169 C 
BRANCH  26  27
ATOM     27  C   UNL     1      20.288  36.063   7.700  1.00  0.00     0.119 C 
BRANCH  27  28
ATOM     28  N   UNL     1      19.543  34.827   7.568  1.00  0.00    -0.092 NA
ATOM     29  N   UNL     1      18.968  34.422   8.586  1.00  0.00     0.001 N 
ATOM     30  N   UNL     1      18.453  33.900   9.582  1.00  0.00    -0.003 NA
ENDBRANCH  27  28
ENDBRANCH  26  27
ENDBRANCH  25  26
ENDBRANCH  19  25
BRANCH  20  31
ATOM     31  O   UNL     1      24.884  38.215   6.894  1.00  0.00    -0.387 OA
ATOM     32  H   UNL     1      24.301  38.949   6.576  1.00  0.00     0.211 HD
ENDBRANCH  20  31
BRANCH  21  33
ATOM     33  O   UNL     1      25.554  36.160   9.385  1.00  0.00    -0.385 OA
ATOM     34  H   UNL     1      25.540  36.378  10.353  1.00  0.00     0.211 HD
ENDBRANCH  21  33
ENDBRANCH  15  16
ENDBRANCH  10  15
BRANCH  12  35
ATOM     35  O   UNL     1      23.424  43.251   9.555  1.00  0.00    -0.385 OA
ATOM     36  H   UNL     1      22.520  42.939   9.314  1.00  0.00     0.211 HD
ENDBRANCH  12  35
BRANCH  13  37
ATOM     37  O   UNL     1      24.192  45.057   7.731  1.00  0.00    -0.387 OA
ATOM     38  H   UNL     1      24.741  45.123   8.550  1.00  0.00     0.211 HD
ENDBRANCH  13  37
BRANCH  14  39
ATOM     39  O   UNL     1      26.418  43.682   7.233  1.00  0.00    -0.387 OA
ATOM     40  H   UNL     1      26.860  44.532   6.987  1.00  0.00     0.211 HD
ENDBRANCH  14  39
ENDBRANCH   8   9
ENDBRANCH   7   8
ENDBRANCH   1   7
BRANCH   1  41
ATOM     41  C   UNL     1      28.027  41.150   4.275  1.00  0.00     0.364 C 
ATOM     42  O   UNL     1      28.998  41.889   4.458  1.00  0.00    -0.246 OA
BRANCH  41  43
ATOM     43  O   UNL     1      27.138  41.398   3.258  1.00  0.00    -0.477 OA
ATOM     44  H   UNL     1      26.193  41.751   3.447  1.00  0.00     0.296 HD
ENDBRANCH  41  43
ENDBRANCH   1  41
BRANCH   3  45
ATOM     45  O   UNL     1      27.017  36.697   5.431  1.00  0.00    -0.391 OA
ATOM     46  H   UNL     1      27.218  35.752   5.373  1.00  0.00     0.211 HD
ENDBRANCH   3  45
BRANCH   5  47
ATOM     47  C   UNL     1      29.934  39.393   8.088  1.00  0.00     0.176 C 
BRANCH  47  48
ATOM     48  O   UNL     1      31.019  38.612   8.395  1.00  0.00    -0.388 OA
ATOM     49  H   UNL     1      31.074  37.810   7.794  1.00  0.00     0.211 HD
ENDBRANCH  47  48
BRANCH  47  50
ATOM     50  C   UNL     1      28.790  39.169   9.030  1.00  0.00     0.165 C 
BRANCH  50  51
ATOM     51  O   UNL     1      28.101  40.378   9.229  1.00  0.00    -0.388 OA
ATOM     52  H   UNL     1      28.724  41.139   9.215  1.00  0.00     0.211 HD
ENDBRANCH  50  51
BRANCH  50  53
ATOM     53  C   UNL     1      29.401  38.833  10.396  1.00  0.00     0.154 C 
BRANCH  53  54
ATOM     54  N   UNL     1      29.202  37.436  10.636  1.00  0.00    -0.319 N 
ATOM     55  C   UNL     1      28.000  36.966  11.205  1.00  0.00     0.407 C 
ATOM     56  H   UNL     1      29.956  36.753  10.384  1.00  0.00     0.167 HD
ATOM     57  O   UNL     1      27.077  37.757  11.528  1.00  0.00    -0.225 OA
BRANCH  55  58
ATOM     58  O   UNL     1      27.777  35.623  11.434  1.00  0.00    -0.443 OA
BRANCH  58  59
ATOM     59  C   UNL     1      27.526  35.090  12.725  1.00  0.00     0.294 C 
BRANCH  59  60
ATOM     60  C   UNL     1      26.152  34.527  12.713  1.00  0.00     0.120 A 
ATOM     61  C   UNL     1      25.501  33.832  13.723  1.00  0.00     0.139 A 
ATOM     62  N   UNL     1      25.271  34.592  11.703  1.00  0.00    -0.132 NA
ATOM     63  N   UNL     1      24.269  33.503  13.306  1.00  0.00    -0.240 N 
ATOM     64  N   UNL     1      24.160  33.979  12.075  1.00  0.00    -0.066 NA
BRANCH  63  65
ATOM     65  C   UNL     1      23.253  32.768  14.062  1.00  0.00     0.170 C 
ATOM     66  C   UNL     1      23.123  31.433  13.473  1.00  0.00    -0.011 A 
ATOM     67  C   UNL     1      21.925  33.376  13.867  1.00  0.00    -0.011 A 
ATOM     68  C   UNL     1      24.022  30.381  13.347  1.00  0.00     0.007 A 
ATOM     69  C   UNL     1      21.863  31.241  12.971  1.00  0.00    -0.012 A 
ATOM     70  C   UNL     1      21.115  32.471  13.223  1.00  0.00    -0.012 A 
ATOM     71  C   UNL     1      21.400  34.610  14.201  1.00  0.00     0.007 A 
ATOM     72  C   UNL     1      23.648  29.202  12.742  1.00  0.00     0.000 A 
ATOM     73  C   UNL     1      21.489  30.053  12.361  1.00  0.00     0.009 A 
ATOM     74  C   UNL     1      19.809  32.778  12.915  1.00  0.00     0.009 A 
ATOM     75  C   UNL     1      20.097  34.938  13.902  1.00  0.00     0.000 A 
ATOM     76  C   UNL     1      22.373  29.008  12.233  1.00  0.00     0.001 A 
ATOM     77  C   UNL     1      19.298  34.018  13.256  1.00  0.00     0.001 A 
ENDBRANCH  63  65
ENDBRANCH  59  60
ENDBRANCH  58  59
ENDBRANCH  55  58
ENDBRANCH  53  54
ENDBRANCH  50  53
ENDBRANCH  47  50
ENDBRANCH   5  47
BRANCH   4  78
ATOM     78  N   UNL     1      29.550  36.739   7.100  1.00  0.00    -0.348 N 
ATOM     79  C   UNL     1      29.100  35.602   7.818  1.00  0.00     0.217 C 
ATOM     80  H   UNL     1      30.537  36.830   6.824  1.00  0.00     0.163 HD
ATOM     81  C   UNL     1      30.044  34.502   8.192  1.00  0.00     0.114 C 
ATOM     82  O   UNL     1      27.878  35.544   8.131  1.00  0.00    -0.275 OA
ENDBRANCH   4  78
TORSDOF 30
BEGIN_RES LYS A 131
REMARK  4 active torsions:
REMARK  status: ('A' for Active; 'I' for Inactive)
REMARK    1  A    between atoms: CA   and  CB  
REMARK    2  A    between atoms: CB   and  CG  
REMARK    3  A    between atoms: CG   and  CD  
REMARK    4  A    between atoms: CD   and  CE  
ROOT
ATOM      1  CA  LYS A 131      29.867  25.555  16.977  1.00 20.52     0.186 C 
ENDROOT
BRANCH   1   2
ATOM      2  CB  LYS A 131      28.345  25.722  17.026  1.00 20.94     0.034 C 
BRANCH   2   3
ATOM      3  CG  LYS A 131      27.602  24.400  16.912  1.00 22.96     0.005 C 
BRANCH   3   4
ATOM      4  CD  LYS A 131      26.593  24.221  18.013  1.00 24.33     0.041 C 
BRANCH   4   5
ATOM      5  CE  LYS A 131      25.963  25.568  18.350  1.00 26.91     0.338 C 
ATOM      6  NZ  LYS A 131      24.725  25.774  17.561  1.00 27.40     0.618 N 
ENDBRANCH   4   5
ENDBRANCH   3   4
ENDBRANCH   2   3
ENDBRANCH   1   2
END_RES LYS A 131
BEGIN_RES LYS A 135
REMARK  4 active torsions:
REMARK  status: ('A' for Active; 'I' for Inactive)
REMARK    5  A    between atoms: CA   and  CB  
REMARK    6  A    between atoms: CB   and  CG  
REMARK    7  A    between atoms: CG   and  CD  
REMARK    8  A    between atoms: CD   and  CE  
ROOT
ATOM      7  CA  LYS A 135      33.193  34.663   9.290  1.00 25.02     0.186 C 
ENDROOT
BRANCH   7   8
ATOM      8  CB  LYS A 135      32.060  35.360  10.034  1.00 26.63     0.034 C 
BRANCH   8   9
ATOM      9  CG  LYS A 135      32.534  36.395  11.021  1.00 29.45     0.005 C 
BRANCH   9  10
ATOM     10  CD  LYS A 135      32.289  35.928  12.448  1.00 32.00     0.041 C 
BRANCH  10  11
ATOM     11  CE  LYS A 135      31.198  34.875  12.483  1.00 34.25     0.338 C 
ATOM     12  NZ  LYS A 135      30.918  34.440  13.880  1.00 35.99     0.618 N 
ENDBRANCH  10  11
ENDBRANCH   9  10
ENDBRANCH   8   9
ENDBRANCH   7   8
END_RES LYS A 135
