REMARK VINA RESULT:    -5.222      4.202      8.420
REMARK INTER + INTRA:         -21.976
REMARK INTER:                 -11.547
REMARK INTRA:                 -10.429
REMARK UNBOUND:                -9.122
REMARK SMILES CC(=O)N[C@@H]1[C@@H](O)C[C@](OC[C@H]2O[C@@H](O[C@H]3[C@H](O)[C@@H](O)[C@H](OCCN=[N+]=[N-])O[C@@H]3CO)[C@H](O)[C@@H](O)[C@H]2O)(C(=O)O)O[C@H]1C(O)[C@H](O)CNC(=O)OCc1cn(-c2ccc(Cl)cc2)nn1
REMARK SMILES IDX 9 1 8 2 6 3 5 4 42 5 41 6 10 7 11 8 12 9 14 10 13 11 32 12
REMARK SMILES IDX 34 13 36 14 15 15 16 16 29 17 28 18 21 19 17 20 19 21 30 22
REMARK SMILES IDX 31 23 22 25 23 26 24 27 25 28 26 29 27 30 18 31 20 33 33 35
REMARK SMILES IDX 35 37 37 39 38 41 39 42 40 43 7 45 43 47 44 48 45 50 46 51
REMARK SMILES IDX 47 53 48 54 49 55 50 57 51 58 52 59 53 60 54 61 64 62 55 63
REMARK SMILES IDX 63 64 56 65 57 66 62 67 58 68 61 69 59 70 60 71 4 72 2 73
REMARK SMILES IDX 1 75 3 76
REMARK H PARENT 31 24 18 32 20 34 33 36 35 38 37 40 40 44 7 46 44 49 46 52
REMARK H PARENT 48 56 4 74
REMARK Flexibility Score: inf
ROOT
ATOM      1  C   UNL     1      24.924  36.886   9.813  1.00  0.00     0.272 C 
ATOM      2  C   UNL     1      23.951  36.528   8.766  1.00  0.00     0.113 C 
ATOM      3  C   UNL     1      23.065  37.563   8.204  1.00  0.00     0.145 C 
ATOM      4  C   UNL     1      23.469  38.932   8.707  1.00  0.00     0.142 C 
ATOM      5  C   UNL     1      23.672  38.742  10.226  1.00  0.00     0.178 C 
ATOM      6  O   UNL     1      24.988  38.187  10.238  1.00  0.00    -0.332 OA
ENDROOT
BRANCH   1   7
ATOM      7  O   UNL     1      26.209  36.506   9.334  1.00  0.00    -0.338 OA
BRANCH   7   8
ATOM      8  C   UNL     1      26.267  35.210   8.903  1.00  0.00     0.199 C 
BRANCH   8   9
ATOM      9  C   UNL     1      27.377  35.001   7.876  1.00  0.00     0.179 C 
ATOM     10  C   UNL     1      28.920  36.525   6.963  1.00  0.00     0.282 C 
ATOM     11  O   UNL     1      27.597  36.111   7.124  1.00  0.00    -0.341 OA
ATOM     12  C   UNL     1      29.479  36.804   8.295  1.00  0.00     0.202 C 
ATOM     13  C   UNL     1      29.461  35.531   9.129  1.00  0.00     0.179 C 
ATOM     14  C   UNL     1      28.629  34.449   8.517  1.00  0.00     0.177 C 
BRANCH  10  15
ATOM     15  O   UNL     1      28.814  37.596   6.079  1.00  0.00    -0.341 OA
BRANCH  15  16
ATOM     16  C   UNL     1      29.192  38.795   6.512  1.00  0.00     0.184 C 
ATOM     17  C   UNL     1      28.079  39.767   6.674  1.00  0.00     0.178 C 
ATOM     18  O   UNL     1      28.481  40.875   7.414  1.00  0.00    -0.341 OA
ATOM     19  C   UNL     1      29.515  41.586   6.896  1.00  0.00     0.281 C 
ATOM     20  C   UNL     1      30.231  39.503   5.619  1.00  0.00     0.180 C 
ATOM     21  C   UNL     1      30.056  40.979   5.653  1.00  0.00     0.202 C 
BRANCH  17  22
ATOM     22  C   UNL     1      26.799  39.247   7.249  1.00  0.00     0.191 C 
BRANCH  22  23
ATOM     23  O   UNL     1      26.061  38.513   6.321  1.00  0.00    -0.394 OA
ATOM     24  H   UNL     1      26.154  37.551   6.523  1.00  0.00     0.210 HD
ENDBRANCH  22  23
ENDBRANCH  17  22
BRANCH  19  25
ATOM     25  O   UNL     1      30.560  41.668   7.823  1.00  0.00    -0.350 OA
BRANCH  25  26
ATOM     26  C   UNL     1      30.098  42.001   9.087  1.00  0.00     0.169 C 
BRANCH  26  27
ATOM     27  C   UNL     1      30.828  41.315  10.200  1.00  0.00     0.119 C 
BRANCH  27  28
ATOM     28  N   UNL     1      30.573  39.883  10.059  1.00  0.00    -0.092 NA
ATOM     29  N   UNL     1      29.448  39.504  10.432  1.00  0.00     0.001 N 
ATOM     30  N   UNL     1      28.250  39.149  10.454  1.00  0.00    -0.003 NA
ENDBRANCH  27  28
ENDBRANCH  26  27
ENDBRANCH  25  26
ENDBRANCH  19  25
BRANCH  20  31
ATOM     31  O   UNL     1      31.475  39.168   6.125  1.00  0.00    -0.387 OA
ATOM     32  H   UNL     1      31.998  38.780   5.353  1.00  0.00     0.211 HD
ENDBRANCH  20  31
BRANCH  21  33
ATOM     33  O   UNL     1      29.337  41.462   4.541  1.00  0.00    -0.385 OA
ATOM     34  H   UNL     1      29.983  41.470   3.801  1.00  0.00     0.211 HD
ENDBRANCH  21  33
ENDBRANCH  15  16
ENDBRANCH  10  15
BRANCH  12  35
ATOM     35  O   UNL     1      30.783  37.303   8.308  1.00  0.00    -0.385 OA
ATOM     36  H   UNL     1      30.788  38.309   8.411  1.00  0.00     0.211 HD
ENDBRANCH  12  35
BRANCH  13  37
ATOM     37  O   UNL     1      29.072  35.868  10.424  1.00  0.00    -0.387 OA
ATOM     38  H   UNL     1      28.243  36.368  10.484  1.00  0.00     0.211 HD
ENDBRANCH  13  37
BRANCH  14  39
ATOM     39  O   UNL     1      28.169  33.575   9.532  1.00  0.00    -0.387 OA
ATOM     40  H   UNL     1      27.923  32.742   9.091  1.00  0.00     0.211 HD
ENDBRANCH  14  39
ENDBRANCH   8   9
ENDBRANCH   7   8
ENDBRANCH   1   7
BRANCH   1  41
ATOM     41  C   UNL     1      24.682  36.008  11.013  1.00  0.00     0.364 C 
ATOM     42  O   UNL     1      23.687  35.254  11.091  1.00  0.00    -0.246 OA
BRANCH  41  43
ATOM     43  O   UNL     1      25.578  36.034  12.053  1.00  0.00    -0.477 OA
ATOM     44  H   UNL     1      26.460  36.542  12.029  1.00  0.00     0.296 HD
ENDBRANCH  41  43
ENDBRANCH   1  41
BRANCH   3  45
ATOM     45  O   UNL     1      23.154  37.605   6.813  1.00  0.00    -0.391 OA
ATOM     46  H   UNL     1      22.254  37.509   6.449  1.00  0.00     0.211 HD
ENDBRANCH   3  45
BRANCH   5  47
ATOM     47  C   UNL     1      23.697  40.024  10.977  1.00  0.00     0.176 C 
BRANCH  47  48
ATOM     48  O   UNL     1      22.390  40.474  11.097  1.00  0.00    -0.388 OA
ATOM     49  H   UNL     1      21.741  40.007  10.515  1.00  0.00     0.211 HD
ENDBRANCH  47  48
BRANCH  47  50
ATOM     50  C   UNL     1      24.419  40.110  12.254  1.00  0.00     0.165 C 
BRANCH  50  51
ATOM     51  O   UNL     1      23.513  40.800  13.141  1.00  0.00    -0.388 OA
ATOM     52  H   UNL     1      23.970  41.575  13.545  1.00  0.00     0.211 HD
ENDBRANCH  50  51
BRANCH  50  53
ATOM     53  C   UNL     1      25.605  41.062  12.217  1.00  0.00     0.154 C 
BRANCH  53  54
ATOM     54  N   UNL     1      26.819  40.514  12.755  1.00  0.00    -0.319 N 
ATOM     55  C   UNL     1      26.958  40.412  14.163  1.00  0.00     0.407 C 
ATOM     56  H   UNL     1      27.617  40.185  12.161  1.00  0.00     0.167 HD
ATOM     57  O   UNL     1      26.049  40.805  14.957  1.00  0.00    -0.225 OA
BRANCH  55  58
ATOM     58  O   UNL     1      28.100  39.875  14.726  1.00  0.00    -0.443 OA
BRANCH  58  59
ATOM     59  C   UNL     1      29.112  39.244  13.936  1.00  0.00     0.294 C 
BRANCH  59  60
ATOM     60  C   UNL     1      28.922  37.765  13.943  1.00  0.00     0.121 A 
ATOM     61  C   UNL     1      29.380  36.904  14.930  1.00  0.00     0.144 A 
ATOM     62  N   UNL     1      28.296  37.008  13.031  1.00  0.00    -0.131 NA
ATOM     63  N   UNL     1      29.021  35.660  14.589  1.00  0.00    -0.220 N 
ATOM     64  N   UNL     1      28.380  35.751  13.459  1.00  0.00    -0.062 NA
BRANCH  63  65
ATOM     65  C   UNL     1      29.335  34.519  15.390  1.00  0.00     0.066 A 
ATOM     66  C   UNL     1      29.978  33.430  14.859  1.00  0.00     0.030 A 
ATOM     67  C   UNL     1      29.000  34.491  16.715  1.00  0.00     0.030 A 
ATOM     68  C   UNL     1      30.299  32.301  15.616  1.00  0.00     0.023 A 
ATOM     69  C   UNL     1      29.306  33.382  17.492  1.00  0.00     0.023 A 
ATOM     70  C   UNL     1      29.960  32.279  16.943  1.00  0.00     0.041 A 
ATOM     71  Cl  UNL     1      30.343  30.874  17.941  1.00  0.00    -0.084 Cl
ENDBRANCH  63  65
ENDBRANCH  59  60
ENDBRANCH  58  59
ENDBRANCH  55  58
ENDBRANCH  53  54
ENDBRANCH  50  53
ENDBRANCH  47  50
ENDBRANCH   5  47
BRANCH   4  72
ATOM     72  N   UNL     1      22.520  39.918   8.354  1.00  0.00    -0.348 N 
ATOM     73  C   UNL     1      22.797  40.813   7.260  1.00  0.00     0.217 C 
ATOM     74  H   UNL     1      21.606  40.056   8.815  1.00  0.00     0.163 HD
ATOM     75  C   UNL     1      21.818  41.864   6.862  1.00  0.00     0.114 C 
ATOM     76  O   UNL     1      23.887  40.684   6.647  1.00  0.00    -0.275 OA
ENDBRANCH   4  72
TORSDOF 30
BEGIN_RES LYS A 131
REMARK  4 active torsions:
REMARK  status: ('A' for Active; 'I' for Inactive)
REMARK    1  A    between atoms: CA   and  CB  
REMARK    2  A    between atoms: CB   and  CG  
REMARK    3  A    between atoms: CG   and  CD  
REMARK    4  A    between atoms: CD   and  CE  
ROOT
ATOM      1  CA  LYS A 131      29.867  25.555  16.977  1.00 20.52     0.186 C 
ENDROOT
BRANCH   1   2
ATOM      2  CB  LYS A 131      28.345  25.722  17.026  1.00 20.94     0.034 C 
BRANCH   2   3
ATOM      3  CG  LYS A 131      27.601  24.401  16.904  1.00 22.96     0.005 C 
BRANCH   3   4
ATOM      4  CD  LYS A 131      26.659  24.173  18.052  1.00 24.33     0.041 C 
BRANCH   4   5
ATOM      5  CE  LYS A 131      25.535  23.241  17.611  1.00 26.91     0.338 C 
ATOM      6  NZ  LYS A 131      24.479  24.001  16.901  1.00 27.40     0.618 N 
ENDBRANCH   4   5
ENDBRANCH   3   4
ENDBRANCH   2   3
ENDBRANCH   1   2
END_RES LYS A 131
BEGIN_RES LYS A 135
REMARK  4 active torsions:
REMARK  status: ('A' for Active; 'I' for Inactive)
REMARK    5  A    between atoms: CA   and  CB  
REMARK    6  A    between atoms: CB   and  CG  
REMARK    7  A    between atoms: CG   and  CD  
REMARK    8  A    between atoms: CD   and  CE  
ROOT
ATOM      7  CA  LYS A 135      33.193  34.663   9.290  1.00 25.02     0.186 C 
ENDROOT
BRANCH   7   8
ATOM      8  CB  LYS A 135      32.060  35.360  10.034  1.00 26.63     0.034 C 
BRANCH   8   9
ATOM      9  CG  LYS A 135      32.521  36.147  11.233  1.00 29.45     0.005 C 
BRANCH   9  10
ATOM     10  CD  LYS A 135      31.922  35.579  12.511  1.00 32.00     0.041 C 
BRANCH  10  11
ATOM     11  CE  LYS A 135      33.015  35.238  13.505  1.00 34.25     0.338 C 
ATOM     12  NZ  LYS A 135      32.803  35.943  14.800  1.00 35.99     0.618 N 
ENDBRANCH  10  11
ENDBRANCH   9  10
ENDBRANCH   8   9
ENDBRANCH   7   8
END_RES LYS A 135
