REMARK VINA RESULT:    -3.653      2.606      7.788
REMARK INTER + INTRA:         -21.061
REMARK INTER:                  -8.991
REMARK INTRA:                 -12.070
REMARK UNBOUND:               -12.070
REMARK SMILES CC(=O)N[C@@H]1[C@@H](O)C[C@](OC[C@H]2O[C@@H](O[C@H]3[C@H](O)[C@@H](O)[C@H](OCCN=[N+]=[N-])O[C@@H]3CO)[C@H](O)[C@@H](O)[C@H]2O)(C(=O)O)O[C@H]1C(O)[C@H](O)CNC(=O)OCc1cn(-c2ccccc2I)nn1
REMARK SMILES IDX 9 1 8 2 6 3 5 4 42 5 41 6 10 7 11 8 12 9 14 10 13 11 32 12
REMARK SMILES IDX 34 13 36 14 15 15 16 16 29 17 28 18 21 19 17 20 19 21 30 22
REMARK SMILES IDX 31 23 22 25 23 26 24 27 25 28 26 29 27 30 18 31 20 33 33 35
REMARK SMILES IDX 35 37 37 39 38 41 39 42 40 43 7 45 43 47 44 48 45 50 46 51
REMARK SMILES IDX 47 53 48 54 49 55 50 57 51 58 52 59 53 60 54 61 64 62 55 63
REMARK SMILES IDX 63 64 56 65 57 66 61 67 58 68 60 69 62 70 59 71 4 72 2 73
REMARK SMILES IDX 1 75 3 76
REMARK H PARENT 31 24 18 32 20 34 33 36 35 38 37 40 40 44 7 46 44 49 46 52
REMARK H PARENT 48 56 4 74
REMARK Flexibility Score: inf
ROOT
ATOM      1  C   UNL     1      27.869  38.636   7.939  1.00  0.00     0.272 C 
ATOM      2  C   UNL     1      29.171  38.864   8.653  1.00  0.00     0.113 C 
ATOM      3  C   UNL     1      29.048  39.996   9.687  1.00  0.00     0.145 C 
ATOM      4  C   UNL     1      28.753  41.271   8.845  1.00  0.00     0.142 C 
ATOM      5  C   UNL     1      27.598  40.977   7.928  1.00  0.00     0.178 C 
ATOM      6  O   UNL     1      27.044  39.750   8.313  1.00  0.00    -0.332 OA
ENDROOT
BRANCH   1   7
ATOM      7  O   UNL     1      27.116  37.565   8.307  1.00  0.00    -0.338 OA
BRANCH   7   8
ATOM      8  C   UNL     1      25.915  37.546   8.804  1.00  0.00     0.199 C 
BRANCH   8   9
ATOM      9  C   UNL     1      24.799  36.864   8.118  1.00  0.00     0.179 C 
ATOM     10  C   UNL     1      23.575  35.616   9.588  1.00  0.00     0.282 C 
ATOM     11  O   UNL     1      24.446  35.624   8.533  1.00  0.00    -0.341 OA
ATOM     12  C   UNL     1      22.166  35.966   9.126  1.00  0.00     0.202 C 
ATOM     13  C   UNL     1      22.291  36.926   7.921  1.00  0.00     0.179 C 
ATOM     14  C   UNL     1      23.531  37.771   8.138  1.00  0.00     0.177 C 
BRANCH  10  15
ATOM     15  O   UNL     1      23.973  36.172  10.761  1.00  0.00    -0.341 OA
BRANCH  15  16
ATOM     16  C   UNL     1      23.467  35.600  11.906  1.00  0.00     0.184 C 
ATOM     17  C   UNL     1      22.857  36.551  12.901  1.00  0.00     0.178 C 
ATOM     18  O   UNL     1      22.877  35.995  14.177  1.00  0.00    -0.341 OA
ATOM     19  C   UNL     1      22.824  34.596  14.183  1.00  0.00     0.281 C 
ATOM     20  C   UNL     1      24.680  35.023  12.669  1.00  0.00     0.180 C 
ATOM     21  C   UNL     1      24.078  33.989  13.611  1.00  0.00     0.202 C 
BRANCH  17  22
ATOM     22  C   UNL     1      21.513  37.085  12.527  1.00  0.00     0.191 C 
BRANCH  22  23
ATOM     23  O   UNL     1      21.730  38.194  11.700  1.00  0.00    -0.394 OA
ATOM     24  H   UNL     1      20.939  38.793  11.782  1.00  0.00     0.210 HD
ENDBRANCH  22  23
ENDBRANCH  17  22
BRANCH  19  25
ATOM     25  O   UNL     1      21.671  34.107  13.652  1.00  0.00    -0.350 OA
BRANCH  25  26
ATOM     26  C   UNL     1      21.677  32.753  13.524  1.00  0.00     0.169 C 
BRANCH  26  27
ATOM     27  C   UNL     1      20.791  32.160  12.474  1.00  0.00     0.119 C 
BRANCH  27  28
ATOM     28  N   UNL     1      19.519  32.797  12.279  1.00  0.00    -0.092 NA
ATOM     29  N   UNL     1      19.391  33.476  11.243  1.00  0.00     0.001 N 
ATOM     30  N   UNL     1      19.072  34.247  10.336  1.00  0.00    -0.003 NA
ENDBRANCH  27  28
ENDBRANCH  26  27
ENDBRANCH  25  26
ENDBRANCH  19  25
BRANCH  20  31
ATOM     31  O   UNL     1      25.581  34.448  11.793  1.00  0.00    -0.387 OA
ATOM     32  H   UNL     1      25.655  33.490  12.045  1.00  0.00     0.211 HD
ENDBRANCH  20  31
BRANCH  21  33
ATOM     33  O   UNL     1      24.998  33.604  14.584  1.00  0.00    -0.385 OA
ATOM     34  H   UNL     1      25.751  33.111  14.121  1.00  0.00     0.211 HD
ENDBRANCH  21  33
ENDBRANCH  15  16
ENDBRANCH  10  15
BRANCH  12  35
ATOM     35  O   UNL     1      21.465  34.866   8.650  1.00  0.00    -0.385 OA
ATOM     36  H   UNL     1      22.142  34.192   8.379  1.00  0.00     0.211 HD
ENDBRANCH  12  35
BRANCH  13  37
ATOM     37  O   UNL     1      21.183  37.684   7.709  1.00  0.00    -0.387 OA
ATOM     38  H   UNL     1      20.438  37.564   8.373  1.00  0.00     0.211 HD
ENDBRANCH  13  37
BRANCH  14  39
ATOM     39  O   UNL     1      23.483  38.325   9.406  1.00  0.00    -0.387 OA
ATOM     40  H   UNL     1      23.182  39.285   9.343  1.00  0.00     0.211 HD
ENDBRANCH  14  39
ENDBRANCH   8   9
ENDBRANCH   7   8
ENDBRANCH   1   7
BRANCH   1  41
ATOM     41  C   UNL     1      28.073  38.703   6.481  1.00  0.00     0.364 C 
ATOM     42  O   UNL     1      29.168  38.883   5.920  1.00  0.00    -0.246 OA
BRANCH  41  43
ATOM     43  O   UNL     1      26.980  38.564   5.597  1.00  0.00    -0.477 OA
ATOM     44  H   UNL     1      26.211  39.247   5.644  1.00  0.00     0.296 HD
ENDBRANCH  41  43
ENDBRANCH   1  41
BRANCH   3  45
ATOM     45  O   UNL     1      28.039  39.769  10.598  1.00  0.00    -0.391 OA
ATOM     46  H   UNL     1      28.374  39.883  11.519  1.00  0.00     0.211 HD
ENDBRANCH   3  45
BRANCH   5  47
ATOM     47  C   UNL     1      26.447  41.976   8.219  1.00  0.00     0.176 C 
BRANCH  47  48
ATOM     48  O   UNL     1      27.010  42.934   9.148  1.00  0.00    -0.388 OA
ATOM     49  H   UNL     1      26.320  43.662   9.208  1.00  0.00     0.211 HD
ENDBRANCH  47  48
BRANCH  47  50
ATOM     50  C   UNL     1      25.359  41.350   9.039  1.00  0.00     0.165 C 
BRANCH  50  51
ATOM     51  O   UNL     1      24.239  41.099   8.203  1.00  0.00    -0.388 OA
ATOM     52  H   UNL     1      24.027  40.132   8.178  1.00  0.00     0.211 HD
ENDBRANCH  50  51
BRANCH  50  53
ATOM     53  C   UNL     1      24.890  42.046  10.244  1.00  0.00     0.154 C 
BRANCH  53  54
ATOM     54  N   UNL     1      25.598  41.730  11.470  1.00  0.00    -0.319 N 
ATOM     55  C   UNL     1      25.084  40.705  12.321  1.00  0.00     0.407 C 
ATOM     56  H   UNL     1      26.468  42.206  11.780  1.00  0.00     0.167 HD
ATOM     57  O   UNL     1      24.012  40.102  11.985  1.00  0.00    -0.225 OA
BRANCH  55  58
ATOM     58  O   UNL     1      25.661  40.298  13.506  1.00  0.00    -0.443 OA
BRANCH  58  59
ATOM     59  C   UNL     1      25.566  38.950  13.943  1.00  0.00     0.294 C 
BRANCH  59  60
ATOM     60  C   UNL     1      26.671  38.171  13.277  1.00  0.00     0.121 A 
ATOM     61  C   UNL     1      27.975  38.021  13.690  1.00  0.00     0.144 A 
ATOM     62  N   UNL     1      26.557  37.479  12.130  1.00  0.00    -0.131 NA
ATOM     63  N   UNL     1      28.567  37.244  12.762  1.00  0.00    -0.219 N 
ATOM     64  N   UNL     1      27.702  36.919  11.820  1.00  0.00    -0.062 NA
BRANCH  63  65
ATOM     65  C   UNL     1      29.925  36.820  12.752  1.00  0.00     0.080 A 
ATOM     66  C   UNL     1      30.899  37.567  12.102  1.00  0.00     0.029 A 
ATOM     67  C   UNL     1      30.309  35.657  13.379  1.00  0.00     0.039 A 
ATOM     68  C   UNL     1      32.221  37.107  12.113  1.00  0.00     0.002 A 
ATOM     69  C   UNL     1      31.637  35.212  13.379  1.00  0.00     0.017 A 
ATOM     70  I   UNL     1      28.848  34.497  14.374  1.00  0.00    -0.042 I 
ATOM     71  C   UNL     1      32.604  35.946  12.740  1.00  0.00     0.001 A 
ENDBRANCH  63  65
ENDBRANCH  59  60
ENDBRANCH  58  59
ENDBRANCH  55  58
ENDBRANCH  53  54
ENDBRANCH  50  53
ENDBRANCH  47  50
ENDBRANCH   5  47
BRANCH   4  72
ATOM     72  N   UNL     1      29.981  41.608   8.223  1.00  0.00    -0.348 N 
ATOM     73  C   UNL     1      30.503  42.951   8.204  1.00  0.00     0.217 C 
ATOM     74  H   UNL     1      30.581  40.914   7.744  1.00  0.00     0.163 HD
ATOM     75  C   UNL     1      31.779  43.313   7.559  1.00  0.00     0.114 C 
ATOM     76  O   UNL     1      29.801  43.826   8.776  1.00  0.00    -0.275 OA
ENDBRANCH   4  72
TORSDOF 30
BEGIN_RES LYS A 131
REMARK  4 active torsions:
REMARK  status: ('A' for Active; 'I' for Inactive)
REMARK    1  A    between atoms: CA   and  CB  
REMARK    2  A    between atoms: CB   and  CG  
REMARK    3  A    between atoms: CG   and  CD  
REMARK    4  A    between atoms: CD   and  CE  
ROOT
ATOM      1  CA  LYS A 131      29.867  25.555  16.977  1.00 20.52     0.186 C 
ENDROOT
BRANCH   1   2
ATOM      2  CB  LYS A 131      28.345  25.722  17.026  1.00 20.94     0.034 C 
BRANCH   2   3
ATOM      3  CG  LYS A 131      27.601  24.405  16.869  1.00 22.96     0.005 C 
BRANCH   3   4
ATOM      4  CD  LYS A 131      26.571  24.204  17.946  1.00 24.33     0.041 C 
BRANCH   4   5
ATOM      5  CE  LYS A 131      25.227  23.865  17.310  1.00 26.91     0.338 C 
ATOM      6  NZ  LYS A 131      24.874  22.449  17.567  1.00 27.40     0.618 N 
ENDBRANCH   4   5
ENDBRANCH   3   4
ENDBRANCH   2   3
ENDBRANCH   1   2
END_RES LYS A 131
BEGIN_RES LYS A 135
REMARK  4 active torsions:
REMARK  status: ('A' for Active; 'I' for Inactive)
REMARK    5  A    between atoms: CA   and  CB  
REMARK    6  A    between atoms: CB   and  CG  
REMARK    7  A    between atoms: CG   and  CD  
REMARK    8  A    between atoms: CD   and  CE  
ROOT
ATOM      7  CA  LYS A 135      33.193  34.663   9.290  1.00 25.02     0.186 C 
ENDROOT
BRANCH   7   8
ATOM      8  CB  LYS A 135      32.060  35.360  10.034  1.00 26.63     0.034 C 
BRANCH   8   9
ATOM      9  CG  LYS A 135      30.704  34.758   9.768  1.00 29.45     0.005 C 
BRANCH   9  10
ATOM     10  CD  LYS A 135      30.509  34.512   8.279  1.00 32.00     0.041 C 
BRANCH  10  11
ATOM     11  CE  LYS A 135      29.101  34.887   7.858  1.00 34.25     0.338 C 
ATOM     12  NZ  LYS A 135      29.080  35.405   6.462  1.00 35.99     0.618 N 
ENDBRANCH  10  11
ENDBRANCH   9  10
ENDBRANCH   8   9
ENDBRANCH   7   8
END_RES LYS A 135
