REMARK VINA RESULT:    -3.822      4.708      9.497
REMARK INTER + INTRA:         -22.329
REMARK INTER:                  -9.622
REMARK INTRA:                 -12.708
REMARK UNBOUND:               -12.699
REMARK SMILES CC(=O)N[C@@H]1[C@@H](O)C[C@](OC[C@H]2O[C@@H](O[C@H]3[C@H](O)[C@@H](O)[C@H](OCCN=[N+]=[N-])O[C@@H]3CO)[C@H](O)[C@@H](O)[C@H]2O)(C(=O)O)O[C@H]1C(O)[C@H](O)CNC(=O)OCc1cn(Cc2ccc(Br)cc2)nn1
REMARK SMILES IDX 9 1 8 2 6 3 5 4 42 5 41 6 10 7 11 8 12 9 14 10 13 11 32 12
REMARK SMILES IDX 34 13 36 14 15 15 16 16 29 17 28 18 21 19 17 20 19 21 30 22
REMARK SMILES IDX 31 23 22 25 23 26 24 27 25 28 26 29 27 30 18 31 20 33 33 35
REMARK SMILES IDX 35 37 37 39 38 41 39 42 40 43 7 45 43 47 44 48 45 50 46 51
REMARK SMILES IDX 47 53 48 54 49 55 50 57 51 58 52 59 53 60 54 61 65 62 55 63
REMARK SMILES IDX 64 64 56 65 57 66 58 67 63 68 59 69 62 70 60 71 61 72 4 73
REMARK SMILES IDX 2 74 1 76 3 77
REMARK H PARENT 31 24 18 32 20 34 33 36 35 38 37 40 40 44 7 46 44 49 46 52
REMARK H PARENT 48 56 4 75
REMARK Flexibility Score: inf
ROOT
ATOM      1  C   UNL     1      32.201  30.232  22.971  1.00  0.00     0.272 C 
ATOM      2  C   UNL     1      32.504  31.619  22.533  1.00  0.00     0.113 C 
ATOM      3  C   UNL     1      31.389  32.490  22.110  1.00  0.00     0.145 C 
ATOM      4  C   UNL     1      30.103  31.717  21.711  1.00  0.00     0.142 C 
ATOM      5  C   UNL     1      30.659  30.415  21.202  1.00  0.00     0.178 C 
ATOM      6  O   UNL     1      31.013  29.738  22.403  1.00  0.00    -0.332 OA
ENDROOT
BRANCH   1   7
ATOM      7  O   UNL     1      32.371  29.864  24.236  1.00  0.00    -0.338 OA
BRANCH   7   8
ATOM      8  C   UNL     1      31.811  30.084  25.364  1.00  0.00     0.199 C 
BRANCH   8   9
ATOM      9  C   UNL     1      31.053  28.931  25.978  1.00  0.00     0.179 C 
ATOM     10  C   UNL     1      29.023  27.948  26.228  1.00  0.00     0.282 C 
ATOM     11  O   UNL     1      29.694  29.066  25.874  1.00  0.00    -0.341 OA
ATOM     12  C   UNL     1      29.820  26.876  26.949  1.00  0.00     0.202 C 
ATOM     13  C   UNL     1      31.108  26.555  26.224  1.00  0.00     0.179 C 
ATOM     14  C   UNL     1      31.420  27.649  25.213  1.00  0.00     0.177 C 
BRANCH  10  15
ATOM     15  O   UNL     1      28.283  27.323  25.281  1.00  0.00    -0.341 OA
BRANCH  15  16
ATOM     16  C   UNL     1      27.133  27.800  24.785  1.00  0.00     0.184 C 
ATOM     17  C   UNL     1      25.995  26.838  24.670  1.00  0.00     0.178 C 
ATOM     18  O   UNL     1      25.597  26.595  23.384  1.00  0.00    -0.341 OA
ATOM     19  C   UNL     1      25.136  27.713  22.704  1.00  0.00     0.281 C 
ATOM     20  C   UNL     1      27.389  28.418  23.427  1.00  0.00     0.180 C 
ATOM     21  C   UNL     1      26.068  28.896  22.878  1.00  0.00     0.202 C 
BRANCH  17  22
ATOM     22  C   UNL     1      24.852  27.311  25.538  1.00  0.00     0.191 C 
BRANCH  22  23
ATOM     23  O   UNL     1      23.795  26.379  25.547  1.00  0.00    -0.394 OA
ATOM     24  H   UNL     1      22.977  26.775  25.897  1.00  0.00     0.210 HD
ENDBRANCH  22  23
ENDBRANCH  17  22
BRANCH  19  25
ATOM     25  O   UNL     1      23.828  28.058  23.000  1.00  0.00    -0.350 OA
BRANCH  25  26
ATOM     26  C   UNL     1      22.955  28.029  21.945  1.00  0.00     0.169 C 
BRANCH  26  27
ATOM     27  C   UNL     1      21.942  29.136  21.958  1.00  0.00     0.119 C 
BRANCH  27  28
ATOM     28  N   UNL     1      22.615  30.429  21.940  1.00  0.00    -0.092 NA
ATOM     29  N   UNL     1      23.262  30.771  20.952  1.00  0.00     0.001 N 
ATOM     30  N   UNL     1      24.120  31.146  20.121  1.00  0.00    -0.003 NA
ENDBRANCH  27  28
ENDBRANCH  26  27
ENDBRANCH  25  26
ENDBRANCH  19  25
BRANCH  20  31
ATOM     31  O   UNL     1      28.180  29.562  23.650  1.00  0.00    -0.387 OA
ATOM     32  H   UNL     1      28.975  29.545  23.048  1.00  0.00     0.211 HD
ENDBRANCH  20  31
BRANCH  21  33
ATOM     33  O   UNL     1      26.217  29.617  21.699  1.00  0.00    -0.385 OA
ATOM     34  H   UNL     1      25.380  30.128  21.561  1.00  0.00     0.211 HD
ENDBRANCH  21  33
ENDBRANCH  15  16
ENDBRANCH  10  15
BRANCH  12  35
ATOM     35  O   UNL     1      30.104  27.188  28.267  1.00  0.00    -0.385 OA
ATOM     36  H   UNL     1      30.460  26.440  28.800  1.00  0.00     0.211 HD
ENDBRANCH  12  35
BRANCH  13  37
ATOM     37  O   UNL     1      31.095  25.307  25.614  1.00  0.00    -0.387 OA
ATOM     38  H   UNL     1      31.702  24.725  26.133  1.00  0.00     0.211 HD
ENDBRANCH  13  37
BRANCH  14  39
ATOM     39  O   UNL     1      30.555  27.593  24.115  1.00  0.00    -0.387 OA
ATOM     40  H   UNL     1      30.326  26.663  23.922  1.00  0.00     0.211 HD
ENDBRANCH  14  39
ENDBRANCH   8   9
ENDBRANCH   7   8
ENDBRANCH   1   7
BRANCH   1  41
ATOM     41  C   UNL     1      33.249  29.361  22.258  1.00  0.00     0.364 C 
ATOM     42  O   UNL     1      34.238  29.919  21.788  1.00  0.00    -0.246 OA
BRANCH  41  43
ATOM     43  O   UNL     1      33.120  28.003  22.132  1.00  0.00    -0.477 OA
ATOM     44  H   UNL     1      32.313  27.615  21.618  1.00  0.00     0.296 HD
ENDBRANCH  41  43
ENDBRANCH   1  41
BRANCH   3  45
ATOM     45  O   UNL     1      31.085  33.555  22.943  1.00  0.00    -0.391 OA
ATOM     46  H   UNL     1      30.994  34.363  22.395  1.00  0.00     0.211 HD
ENDBRANCH   3  45
BRANCH   5  47
ATOM     47  C   UNL     1      29.766  29.551  20.394  1.00  0.00     0.176 C 
BRANCH  47  48
ATOM     48  O   UNL     1      29.753  29.873  19.078  1.00  0.00    -0.388 OA
ATOM     49  H   UNL     1      29.755  30.824  18.918  1.00  0.00     0.211 HD
ENDBRANCH  47  48
BRANCH  47  50
ATOM     50  C   UNL     1      29.704  28.107  20.671  1.00  0.00     0.165 C 
BRANCH  50  51
ATOM     51  O   UNL     1      30.888  27.438  20.319  1.00  0.00    -0.388 OA
ATOM     52  H   UNL     1      31.077  27.416  19.370  1.00  0.00     0.211 HD
ENDBRANCH  50  51
BRANCH  50  53
ATOM     53  C   UNL     1      28.511  27.330  20.283  1.00  0.00     0.154 C 
BRANCH  53  54
ATOM     54  N   UNL     1      28.131  27.430  18.885  1.00  0.00    -0.319 N 
ATOM     55  C   UNL     1      26.850  27.897  18.492  1.00  0.00     0.407 C 
ATOM     56  H   UNL     1      28.779  27.168  18.101  1.00  0.00     0.167 HD
ATOM     57  O   UNL     1      26.006  28.252  19.375  1.00  0.00    -0.225 OA
BRANCH  55  58
ATOM     58  O   UNL     1      26.441  27.992  17.165  1.00  0.00    -0.443 OA
BRANCH  58  59
ATOM     59  C   UNL     1      26.174  29.282  16.583  1.00  0.00     0.294 C 
BRANCH  59  60
ATOM     60  C   UNL     1      27.379  30.123  16.509  1.00  0.00     0.120 A 
ATOM     61  C   UNL     1      27.491  31.402  17.018  1.00  0.00     0.138 A 
ATOM     62  N   UNL     1      28.553  29.827  15.949  1.00  0.00    -0.132 NA
ATOM     63  N   UNL     1      28.727  31.843  16.754  1.00  0.00    -0.248 N 
ATOM     64  N   UNL     1      29.342  30.873  16.109  1.00  0.00    -0.067 NA
BRANCH  63  65
ATOM     65  C   UNL     1      29.326  33.116  17.105  1.00  0.00     0.181 C 
BRANCH  65  66
ATOM     66  C   UNL     1      30.079  33.747  15.998  1.00  0.00    -0.026 A 
ATOM     67  C   UNL     1      31.470  33.827  16.115  1.00  0.00     0.007 A 
ATOM     68  C   UNL     1      29.507  34.243  14.861  1.00  0.00     0.007 A 
ATOM     69  C   UNL     1      32.222  34.395  15.100  1.00  0.00     0.016 A 
ATOM     70  C   UNL     1      30.253  34.818  13.831  1.00  0.00     0.016 A 
ATOM     71  C   UNL     1      31.614  34.889  13.960  1.00  0.00     0.017 A 
ATOM     72  Br  UNL     1      32.693  35.668  12.570  1.00  0.00    -0.051 Br
ENDBRANCH  65  66
ENDBRANCH  63  65
ENDBRANCH  59  60
ENDBRANCH  58  59
ENDBRANCH  55  58
ENDBRANCH  53  54
ENDBRANCH  50  53
ENDBRANCH  47  50
ENDBRANCH   5  47
BRANCH   4  73
ATOM     73  N   UNL     1      29.342  32.496  20.805  1.00  0.00    -0.348 N 
ATOM     74  C   UNL     1      27.952  32.682  21.006  1.00  0.00     0.217 C 
ATOM     75  H   UNL     1      29.796  32.952  19.995  1.00  0.00     0.163 HD
ATOM     76  C   UNL     1      27.071  33.469  20.140  1.00  0.00     0.114 C 
ATOM     77  O   UNL     1      27.413  32.121  22.026  1.00  0.00    -0.275 OA
ENDBRANCH   4  73
TORSDOF 31
BEGIN_RES LYS A 131
REMARK  4 active torsions:
REMARK  status: ('A' for Active; 'I' for Inactive)
REMARK    1  A    between atoms: CA   and  CB  
REMARK    2  A    between atoms: CB   and  CG  
REMARK    3  A    between atoms: CG   and  CD  
REMARK    4  A    between atoms: CD   and  CE  
ROOT
ATOM      1  CA  LYS A 131      29.867  25.555  16.977  1.00 20.52     0.186 C 
ENDROOT
BRANCH   1   2
ATOM      2  CB  LYS A 131      28.345  25.722  17.026  1.00 20.94     0.034 C 
BRANCH   2   3
ATOM      3  CG  LYS A 131      27.599  24.429  16.736  1.00 22.96     0.005 C 
BRANCH   3   4
ATOM      4  CD  LYS A 131      26.971  23.848  17.973  1.00 24.33     0.041 C 
BRANCH   4   5
ATOM      5  CE  LYS A 131      25.594  24.468  18.183  1.00 26.91     0.338 C 
ATOM      6  NZ  LYS A 131      24.801  24.410  16.932  1.00 27.40     0.618 N 
ENDBRANCH   4   5
ENDBRANCH   3   4
ENDBRANCH   2   3
ENDBRANCH   1   2
END_RES LYS A 131
BEGIN_RES LYS A 135
REMARK  4 active torsions:
REMARK  status: ('A' for Active; 'I' for Inactive)
REMARK    5  A    between atoms: CA   and  CB  
REMARK    6  A    between atoms: CB   and  CG  
REMARK    7  A    between atoms: CG   and  CD  
REMARK    8  A    between atoms: CD   and  CE  
ROOT
ATOM      7  CA  LYS A 135      33.193  34.663   9.290  1.00 25.02     0.186 C 
ENDROOT
BRANCH   7   8
ATOM      8  CB  LYS A 135      32.060  35.360  10.034  1.00 26.63     0.034 C 
BRANCH   8   9
ATOM      9  CG  LYS A 135      30.804  35.511   9.215  1.00 29.45     0.005 C 
BRANCH   9  10
ATOM     10  CD  LYS A 135      30.118  34.166   9.032  1.00 32.00     0.041 C 
BRANCH  10  11
ATOM     11  CE  LYS A 135      28.657  34.359   8.673  1.00 34.25     0.338 C 
ATOM     12  NZ  LYS A 135      27.770  33.636   9.627  1.00 35.99     0.618 N 
ENDBRANCH  10  11
ENDBRANCH   9  10
ENDBRANCH   8   9
ENDBRANCH   7   8
END_RES LYS A 135
