REMARK VINA RESULT:    -3.819      5.568     11.171
REMARK INTER + INTRA:         -22.808
REMARK INTER:                  -9.649
REMARK INTRA:                 -13.159
REMARK UNBOUND:               -13.184
REMARK SMILES CC(=O)N[C@@H]1[C@@H](O)C[C@](OC[C@H]2O[C@@H](O[C@H]3[C@H](O)[C@@H](O)[C@H](OCCN=[N+]=[N-])O[C@@H]3CO)[C@H](O)[C@@H](O)[C@H]2O)(C(=O)O)O[C@H]1C(O)[C@H](O)CNC(=O)OCc1cn(-c2cc(Cl)ccc2C(=O)N(C)C)nn1
REMARK SMILES IDX 9 1 8 2 6 3 5 4 42 5 41 6 10 7 11 8 12 9 14 10 13 11 32 12
REMARK SMILES IDX 34 13 36 14 15 15 16 16 29 17 28 18 21 19 17 20 19 21 30 22
REMARK SMILES IDX 31 23 22 25 23 26 24 27 25 28 26 29 27 30 18 31 20 33 33 35
REMARK SMILES IDX 35 37 37 39 38 41 39 42 40 43 7 45 43 47 44 48 45 50 46 51
REMARK SMILES IDX 47 53 48 54 49 55 50 57 51 58 52 59 53 60 54 61 69 62 55 63
REMARK SMILES IDX 68 64 56 65 57 66 62 67 58 68 61 69 59 70 60 71 63 72 64 73
REMARK SMILES IDX 65 74 66 75 67 76 4 77 2 78 1 80 3 81
REMARK H PARENT 31 24 18 32 20 34 33 36 35 38 37 40 40 44 7 46 44 49 46 52
REMARK H PARENT 48 56 4 79
REMARK Flexibility Score: inf
ROOT
ATOM      1  C   UNL     1      28.062  38.953   7.342  1.00  0.00     0.272 C 
ATOM      2  C   UNL     1      29.099  37.901   7.221  1.00  0.00     0.113 C 
ATOM      3  C   UNL     1      30.225  38.165   8.188  1.00  0.00     0.145 C 
ATOM      4  C   UNL     1      30.791  39.520   7.833  1.00  0.00     0.142 C 
ATOM      5  C   UNL     1      29.752  40.561   7.844  1.00  0.00     0.178 C 
ATOM      6  O   UNL     1      28.453  40.219   7.648  1.00  0.00    -0.332 OA
ENDROOT
BRANCH   1   7
ATOM      7  O   UNL     1      27.080  38.604   8.255  1.00  0.00    -0.338 OA
BRANCH   7   8
ATOM      8  C   UNL     1      26.606  37.340   8.249  1.00  0.00     0.199 C 
BRANCH   8   9
ATOM      9  C   UNL     1      25.228  37.305   8.927  1.00  0.00     0.179 C 
ATOM     10  C   UNL     1      23.819  38.836   9.923  1.00  0.00     0.282 C 
ATOM     11  O   UNL     1      25.167  38.325   9.832  1.00  0.00    -0.341 OA
ATOM     12  C   UNL     1      22.902  37.635   9.976  1.00  0.00     0.202 C 
ATOM     13  C   UNL     1      22.863  36.914   8.645  1.00  0.00     0.179 C 
ATOM     14  C   UNL     1      24.169  37.178   7.916  1.00  0.00     0.177 C 
BRANCH  10  15
ATOM     15  O   UNL     1      23.669  39.645   8.879  1.00  0.00    -0.341 OA
BRANCH  15  16
ATOM     16  C   UNL     1      23.940  41.000   8.947  1.00  0.00     0.184 C 
ATOM     17  C   UNL     1      22.963  41.669   8.036  1.00  0.00     0.178 C 
ATOM     18  O   UNL     1      23.183  43.058   8.028  1.00  0.00    -0.341 OA
ATOM     19  C   UNL     1      24.355  43.153   7.202  1.00  0.00     0.281 C 
ATOM     20  C   UNL     1      25.353  41.278   8.502  1.00  0.00     0.180 C 
ATOM     21  C   UNL     1      25.515  42.679   7.997  1.00  0.00     0.202 C 
BRANCH  17  22
ATOM     22  C   UNL     1      21.536  41.382   8.451  1.00  0.00     0.191 C 
BRANCH  22  23
ATOM     23  O   UNL     1      21.152  40.178   7.899  1.00  0.00    -0.394 OA
ATOM     24  H   UNL     1      21.076  40.265   6.916  1.00  0.00     0.210 HD
ENDBRANCH  22  23
ENDBRANCH  17  22
BRANCH  19  25
ATOM     25  O   UNL     1      24.454  44.417   6.769  1.00  0.00    -0.350 OA
BRANCH  25  26
ATOM     26  C   UNL     1      24.424  44.586   5.396  1.00  0.00     0.169 C 
BRANCH  26  27
ATOM     27  C   UNL     1      24.035  43.334   4.637  1.00  0.00     0.119 C 
BRANCH  27  28
ATOM     28  N   UNL     1      24.996  43.043   3.596  1.00  0.00    -0.092 NA
ATOM     29  N   UNL     1      26.139  42.700   3.878  1.00  0.00     0.001 N 
ATOM     30  N   UNL     1      27.215  42.283   4.355  1.00  0.00    -0.003 NA
ENDBRANCH  27  28
ENDBRANCH  26  27
ENDBRANCH  25  26
ENDBRANCH  19  25
BRANCH  20  31
ATOM     31  O   UNL     1      26.264  41.116   9.552  1.00  0.00    -0.387 OA
ATOM     32  H   UNL     1      26.680  40.205   9.518  1.00  0.00     0.211 HD
ENDBRANCH  20  31
BRANCH  21  33
ATOM     33  O   UNL     1      26.674  42.748   7.229  1.00  0.00    -0.385 OA
ATOM     34  H   UNL     1      26.774  42.003   6.599  1.00  0.00     0.211 HD
ENDBRANCH  21  33
ENDBRANCH  15  16
ENDBRANCH  10  15
BRANCH  12  35
ATOM     35  O   UNL     1      23.473  36.741  10.904  1.00  0.00    -0.385 OA
ATOM     36  H   UNL     1      22.934  36.708  11.757  1.00  0.00     0.211 HD
ENDBRANCH  12  35
BRANCH  13  37
ATOM     37  O   UNL     1      21.824  37.275   7.829  1.00  0.00    -0.387 OA
ATOM     38  H   UNL     1      21.926  38.173   7.429  1.00  0.00     0.211 HD
ENDBRANCH  13  37
BRANCH  14  39
ATOM     39  O   UNL     1      24.091  38.122   6.932  1.00  0.00    -0.387 OA
ATOM     40  H   UNL     1      23.485  38.872   7.120  1.00  0.00     0.211 HD
ENDBRANCH  14  39
ENDBRANCH   8   9
ENDBRANCH   7   8
ENDBRANCH   1   7
BRANCH   1  41
ATOM     41  C   UNL     1      27.300  39.017   6.005  1.00  0.00     0.364 C 
ATOM     42  O   UNL     1      27.740  38.283   5.091  1.00  0.00    -0.246 OA
BRANCH  41  43
ATOM     43  O   UNL     1      26.216  39.811   5.795  1.00  0.00    -0.477 OA
ATOM     44  H   UNL     1      25.464  39.950   6.431  1.00  0.00     0.296 HD
ENDBRANCH  41  43
ENDBRANCH   1  41
BRANCH   3  45
ATOM     45  O   UNL     1      29.777  38.043   9.472  1.00  0.00    -0.391 OA
ATOM     46  H   UNL     1      29.014  38.566   9.738  1.00  0.00     0.211 HD
ENDBRANCH   3  45
BRANCH   5  47
ATOM     47  C   UNL     1      29.768  41.485   9.055  1.00  0.00     0.176 C 
BRANCH  47  48
ATOM     48  O   UNL     1      28.836  42.485   9.025  1.00  0.00    -0.388 OA
ATOM     49  H   UNL     1      29.179  43.370   8.732  1.00  0.00     0.211 HD
ENDBRANCH  47  48
BRANCH  47  50
ATOM     50  C   UNL     1      29.779  40.817  10.380  1.00  0.00     0.165 C 
BRANCH  50  51
ATOM     51  O   UNL     1      28.561  40.153  10.660  1.00  0.00    -0.388 OA
ATOM     52  H   UNL     1      28.477  39.955  11.623  1.00  0.00     0.211 HD
ENDBRANCH  50  51
BRANCH  50  53
ATOM     53  C   UNL     1      29.791  41.952  11.430  1.00  0.00     0.154 C 
BRANCH  53  54
ATOM     54  N   UNL     1      28.907  41.633  12.516  1.00  0.00    -0.319 N 
ATOM     55  C   UNL     1      27.584  42.115  12.553  1.00  0.00     0.407 C 
ATOM     56  H   UNL     1      29.221  41.023  13.327  1.00  0.00     0.167 HD
ATOM     57  O   UNL     1      27.128  42.822  11.625  1.00  0.00    -0.225 OA
BRANCH  55  58
ATOM     58  O   UNL     1      26.737  41.822  13.628  1.00  0.00    -0.443 OA
BRANCH  58  59
ATOM     59  C   UNL     1      26.060  40.600  13.725  1.00  0.00     0.294 C 
BRANCH  59  60
ATOM     60  C   UNL     1      26.947  39.539  14.293  1.00  0.00     0.121 A 
ATOM     61  C   UNL     1      27.457  38.454  13.549  1.00  0.00     0.144 A 
ATOM     62  N   UNL     1      27.424  39.380  15.517  1.00  0.00    -0.131 NA
ATOM     63  N   UNL     1      28.206  37.706  14.347  1.00  0.00    -0.219 N 
ATOM     64  N   UNL     1      28.164  38.301  15.547  1.00  0.00    -0.062 NA
BRANCH  63  65
ATOM     65  C   UNL     1      28.948  36.522  14.126  1.00  0.00     0.081 A 
ATOM     66  C   UNL     1      30.296  36.618  13.759  1.00  0.00     0.049 A 
ATOM     67  C   UNL     1      28.444  35.256  14.212  1.00  0.00     0.065 A 
ATOM     68  C   UNL     1      31.044  35.515  13.504  1.00  0.00     0.043 A 
ATOM     69  C   UNL     1      29.218  34.111  13.946  1.00  0.00     0.017 A 
ATOM     70  Cl  UNL     1      32.730  35.707  13.047  1.00  0.00    -0.084 Cl
ATOM     71  C   UNL     1      30.536  34.247  13.588  1.00  0.00     0.021 A 
BRANCH  67  72
ATOM     72  C   UNL     1      27.063  35.005  14.635  1.00  0.00     0.255 C 
ATOM     73  O   UNL     1      26.826  34.875  15.854  1.00  0.00    -0.269 OA
ATOM     74  N   UNL     1      26.039  34.915  13.689  1.00  0.00    -0.345 N 
ATOM     75  C   UNL     1      26.331  35.068  12.266  1.00  0.00     0.146 C 
ATOM     76  C   UNL     1      24.653  34.677  14.084  1.00  0.00     0.146 C 
ENDBRANCH  67  72
ENDBRANCH  63  65
ENDBRANCH  59  60
ENDBRANCH  58  59
ENDBRANCH  55  58
ENDBRANCH  53  54
ENDBRANCH  50  53
ENDBRANCH  47  50
ENDBRANCH   5  47
BRANCH   4  77
ATOM     77  N   UNL     1      31.439  39.364   6.527  1.00  0.00    -0.348 N 
ATOM     78  C   UNL     1      32.710  39.905   6.242  1.00  0.00     0.217 C 
ATOM     79  H   UNL     1      30.954  38.841   5.772  1.00  0.00     0.163 HD
ATOM     80  C   UNL     1      33.371  39.754   4.923  1.00  0.00     0.114 C 
ATOM     81  O   UNL     1      33.312  40.544   7.146  1.00  0.00    -0.275 OA
ENDBRANCH   4  77
TORSDOF 31
BEGIN_RES LYS A 131
REMARK  4 active torsions:
REMARK  status: ('A' for Active; 'I' for Inactive)
REMARK    1  A    between atoms: CA   and  CB  
REMARK    2  A    between atoms: CB   and  CG  
REMARK    3  A    between atoms: CG   and  CD  
REMARK    4  A    between atoms: CD   and  CE  
ROOT
ATOM      1  CA  LYS A 131      29.867  25.555  16.977  1.00 20.52     0.186 C 
ENDROOT
BRANCH   1   2
ATOM      2  CB  LYS A 131      28.345  25.722  17.026  1.00 20.94     0.034 C 
BRANCH   2   3
ATOM      3  CG  LYS A 131      27.603  24.395  16.976  1.00 22.96     0.005 C 
BRANCH   3   4
ATOM      4  CD  LYS A 131      26.157  24.540  17.361  1.00 24.33     0.041 C 
BRANCH   4   5
ATOM      5  CE  LYS A 131      25.522  23.158  17.483  1.00 26.91     0.338 C 
ATOM      6  NZ  LYS A 131      24.073  23.277  17.768  1.00 27.40     0.618 N 
ENDBRANCH   4   5
ENDBRANCH   3   4
ENDBRANCH   2   3
ENDBRANCH   1   2
END_RES LYS A 131
BEGIN_RES LYS A 135
REMARK  4 active torsions:
REMARK  status: ('A' for Active; 'I' for Inactive)
REMARK    5  A    between atoms: CA   and  CB  
REMARK    6  A    between atoms: CB   and  CG  
REMARK    7  A    between atoms: CG   and  CD  
REMARK    8  A    between atoms: CD   and  CE  
ROOT
ATOM      7  CA  LYS A 135      33.193  34.663   9.290  1.00 25.02     0.186 C 
ENDROOT
BRANCH   7   8
ATOM      8  CB  LYS A 135      32.060  35.360  10.034  1.00 26.63     0.034 C 
BRANCH   8   9
ATOM      9  CG  LYS A 135      30.740  34.640   9.932  1.00 29.45     0.005 C 
BRANCH   9  10
ATOM     10  CD  LYS A 135      30.345  34.447   8.476  1.00 32.00     0.041 C 
BRANCH  10  11
ATOM     11  CE  LYS A 135      28.836  34.443   8.330  1.00 34.25     0.338 C 
ATOM     12  NZ  LYS A 135      28.187  33.749   9.477  1.00 35.99     0.618 N 
ENDBRANCH  10  11
ENDBRANCH   9  10
ENDBRANCH   8   9
ENDBRANCH   7   8
END_RES LYS A 135
