REMARK VINA RESULT:    -5.508      3.267      8.457
REMARK INTER + INTRA:         -24.028
REMARK INTER:                 -12.518
REMARK INTRA:                 -11.510
REMARK UNBOUND:                -9.504
REMARK SMILES CC(=O)N[C@@H]1[C@@H](O)C[C@](OC[C@H]2O[C@@H](O[C@H]3[C@H](O)[C@@H](O)[C@H](OCCN=[N+]=[N-])O[C@@H]3CO)[C@H](O)[C@@H](O)[C@H]2O)(C(=O)O)O[C@H]1C(O)[C@H](O)CNC(=O)OCc1cn(COCc2ccccc2)nn1
REMARK SMILES IDX 43 1 42 2 9 3 8 4 41 5 6 6 5 7 10 8 11 9 12 10 14 11 13 12
REMARK SMILES IDX 32 13 34 14 36 15 15 16 16 17 29 18 28 19 21 20 17 21 19 22
REMARK SMILES IDX 30 23 31 24 22 26 23 27 24 28 25 29 26 30 27 31 18 32 20 34
REMARK SMILES IDX 33 36 35 38 37 40 38 42 39 43 40 44 7 46 4 48 2 49 1 51 3 52
REMARK SMILES IDX 44 53 45 55 46 56 47 58 48 59 49 60 50 62 51 63 52 64 53 65
REMARK SMILES IDX 54 66 66 67 55 68 65 69 56 70 57 71 58 72 59 73 60 74 64 75
REMARK SMILES IDX 61 76 63 77 62 78
REMARK H PARENT 31 25 18 33 20 35 33 37 35 39 37 41 40 45 7 47 4 50 44 54
REMARK H PARENT 46 57 48 61
REMARK Flexibility Score: inf
ROOT
ATOM      1  C   UNL     1      28.899  38.092   6.645  1.00  0.00     0.176 C 
ENDROOT
BRANCH   1   2
ATOM      2  C   UNL     1      28.743  39.481   7.302  1.00  0.00     0.178 C 
ATOM      3  C   UNL     1      26.999  40.954   7.737  1.00  0.00     0.272 C 
ATOM      4  C   UNL     1      27.896  42.119   7.333  1.00  0.00     0.113 C 
ATOM      5  O   UNL     1      27.436  39.883   7.021  1.00  0.00    -0.332 OA
ATOM      6  C   UNL     1      28.822  41.683   6.222  1.00  0.00     0.145 C 
ATOM      7  C   UNL     1      29.687  40.488   6.726  1.00  0.00     0.142 C 
BRANCH   3   8
ATOM      8  O   UNL     1      25.658  41.256   7.428  1.00  0.00    -0.338 OA
BRANCH   8   9
ATOM      9  C   UNL     1      25.085  40.567   6.429  1.00  0.00     0.199 C 
BRANCH   9  10
ATOM     10  C   UNL     1      23.700  40.111   6.825  1.00  0.00     0.179 C 
ATOM     11  C   UNL     1      22.420  38.999   8.328  1.00  0.00     0.282 C 
ATOM     12  O   UNL     1      23.740  39.425   8.056  1.00  0.00    -0.341 OA
ATOM     13  C   UNL     1      21.568  40.179   8.785  1.00  0.00     0.202 C 
ATOM     14  C   UNL     1      22.344  41.435   8.360  1.00  0.00     0.179 C 
ATOM     15  C   UNL     1      22.704  41.209   6.906  1.00  0.00     0.177 C 
BRANCH  11  16
ATOM     16  O   UNL     1      22.475  38.099   9.356  1.00  0.00    -0.341 OA
BRANCH  16  17
ATOM     17  C   UNL     1      22.161  36.799   8.986  1.00  0.00     0.184 C 
ATOM     18  C   UNL     1      20.767  36.641   8.493  1.00  0.00     0.178 C 
ATOM     19  O   UNL     1      19.894  36.737   9.534  1.00  0.00    -0.341 OA
ATOM     20  C   UNL     1      19.947  35.703  10.439  1.00  0.00     0.281 C 
ATOM     21  C   UNL     1      22.456  35.885  10.124  1.00  0.00     0.180 C 
ATOM     22  C   UNL     1      21.301  35.208  10.765  1.00  0.00     0.202 C 
BRANCH  18  23
ATOM     23  C   UNL     1      20.647  35.361   7.699  1.00  0.00     0.191 C 
BRANCH  23  24
ATOM     24  O   UNL     1      19.415  35.287   7.039  1.00  0.00    -0.394 OA
ATOM     25  H   UNL     1      19.308  36.078   6.452  1.00  0.00     0.210 HD
ENDBRANCH  23  24
ENDBRANCH  18  23
BRANCH  20  26
ATOM     26  O   UNL     1      19.196  34.653   9.900  1.00  0.00    -0.350 OA
BRANCH  26  27
ATOM     27  C   UNL     1      18.695  33.781  10.833  1.00  0.00     0.169 C 
BRANCH  27  28
ATOM     28  C   UNL     1      17.811  34.596  11.763  1.00  0.00     0.119 C 
BRANCH  28  29
ATOM     29  N   UNL     1      17.792  34.060  13.105  1.00  0.00    -0.092 NA
ATOM     30  N   UNL     1      18.713  34.326  13.898  1.00  0.00     0.001 N 
ATOM     31  N   UNL     1      19.830  34.149  14.421  1.00  0.00    -0.003 NA
ENDBRANCH  28  29
ENDBRANCH  27  28
ENDBRANCH  26  27
ENDBRANCH  20  26
BRANCH  21  32
ATOM     32  O   UNL     1      23.340  34.856   9.695  1.00  0.00    -0.387 OA
ATOM     33  H   UNL     1      23.688  35.023   8.805  1.00  0.00     0.211 HD
ENDBRANCH  21  32
BRANCH  22  34
ATOM     34  O   UNL     1      21.451  35.343  12.171  1.00  0.00    -0.385 OA
ATOM     35  H   UNL     1      20.528  35.397  12.534  1.00  0.00     0.211 HD
ENDBRANCH  22  34
ENDBRANCH  16  17
ENDBRANCH  11  16
BRANCH  13  36
ATOM     36  O   UNL     1      20.354  40.241   8.101  1.00  0.00    -0.385 OA
ATOM     37  H   UNL     1      19.723  40.749   8.670  1.00  0.00     0.211 HD
ENDBRANCH  13  36
BRANCH  14  38
ATOM     38  O   UNL     1      23.512  41.412   9.112  1.00  0.00    -0.387 OA
ATOM     39  H   UNL     1      24.287  41.030   8.629  1.00  0.00     0.211 HD
ENDBRANCH  14  38
BRANCH  15  40
ATOM     40  O   UNL     1      23.096  42.379   6.275  1.00  0.00    -0.387 OA
ATOM     41  H   UNL     1      23.020  43.181   6.852  1.00  0.00     0.211 HD
ENDBRANCH  15  40
ENDBRANCH   9  10
ENDBRANCH   8   9
ENDBRANCH   3   8
BRANCH   3  42
ATOM     42  C   UNL     1      27.016  40.692   9.176  1.00  0.00     0.364 C 
ATOM     43  O   UNL     1      27.831  41.137  10.026  1.00  0.00    -0.246 OA
BRANCH  42  44
ATOM     44  O   UNL     1      26.022  39.846   9.725  1.00  0.00    -0.477 OA
ATOM     45  H   UNL     1      25.848  38.924   9.326  1.00  0.00     0.296 HD
ENDBRANCH  42  44
ENDBRANCH   3  42
BRANCH   6  46
ATOM     46  O   UNL     1      28.256  41.298   5.058  1.00  0.00    -0.391 OA
ATOM     47  H   UNL     1      27.927  40.347   5.077  1.00  0.00     0.211 HD
ENDBRANCH   6  46
BRANCH   7  48
ATOM     48  N   UNL     1      30.550  41.083   7.718  1.00  0.00    -0.348 N 
ATOM     49  C   UNL     1      31.831  40.529   7.925  1.00  0.00     0.217 C 
ATOM     50  H   UNL     1      30.242  41.890   8.265  1.00  0.00     0.163 HD
ATOM     51  C   UNL     1      32.744  41.134   8.931  1.00  0.00     0.114 C 
ATOM     52  O   UNL     1      32.221  39.519   7.258  1.00  0.00    -0.275 OA
ENDBRANCH   7  48
ENDBRANCH   1   2
BRANCH   1  53
ATOM     53  O   UNL     1      30.006  38.231   5.723  1.00  0.00    -0.388 OA
ATOM     54  H   UNL     1      29.617  38.050   4.816  1.00  0.00     0.211 HD
ENDBRANCH   1  53
BRANCH   1  55
ATOM     55  C   UNL     1      27.742  37.652   5.820  1.00  0.00     0.165 C 
BRANCH  55  56
ATOM     56  O   UNL     1      27.369  38.450   4.775  1.00  0.00    -0.388 OA
ATOM     57  H   UNL     1      26.514  38.918   4.897  1.00  0.00     0.211 HD
ENDBRANCH  55  56
BRANCH  55  58
ATOM     58  C   UNL     1      26.588  36.984   6.462  1.00  0.00     0.154 C 
BRANCH  58  59
ATOM     59  N   UNL     1      26.217  37.403   7.784  1.00  0.00    -0.319 N 
ATOM     60  C   UNL     1      26.035  36.526   8.886  1.00  0.00     0.407 C 
ATOM     61  H   UNL     1      26.074  38.416   7.989  1.00  0.00     0.167 HD
ATOM     62  O   UNL     1      26.209  35.310   8.748  1.00  0.00    -0.225 OA
BRANCH  60  63
ATOM     63  O   UNL     1      25.664  36.952  10.167  1.00  0.00    -0.443 OA
BRANCH  63  64
ATOM     64  C   UNL     1      26.442  36.558  11.299  1.00  0.00     0.294 C 
BRANCH  64  65
ATOM     65  C   UNL     1      25.688  35.685  12.227  1.00  0.00     0.120 A 
ATOM     66  C   UNL     1      26.217  34.552  12.809  1.00  0.00     0.141 A 
ATOM     67  N   UNL     1      24.428  35.782  12.667  1.00  0.00    -0.132 NA
ATOM     68  N   UNL     1      25.253  33.998  13.585  1.00  0.00    -0.226 N 
ATOM     69  N   UNL     1      24.181  34.770  13.476  1.00  0.00    -0.065 NA
BRANCH  68  70
ATOM     70  C   UNL     1      25.332  32.804  14.397  1.00  0.00     0.307 C 
BRANCH  70  71
ATOM     71  O   UNL     1      24.191  32.052  14.323  1.00  0.00    -0.355 OA
BRANCH  71  72
ATOM     72  C   UNL     1      24.319  31.093  13.331  1.00  0.00     0.198 C 
BRANCH  72  73
ATOM     73  C   UNL     1      22.944  30.663  12.892  1.00  0.00    -0.022 A 
ATOM     74  C   UNL     1      22.752  29.331  12.586  1.00  0.00     0.006 A 
ATOM     75  C   UNL     1      21.920  31.570  12.799  1.00  0.00     0.006 A 
ATOM     76  C   UNL     1      21.508  28.898  12.179  1.00  0.00     0.000 A 
ATOM     77  C   UNL     1      20.698  31.119  12.394  1.00  0.00     0.000 A 
ATOM     78  C   UNL     1      20.462  29.791  12.078  1.00  0.00     0.000 A 
ENDBRANCH  72  73
ENDBRANCH  71  72
ENDBRANCH  70  71
ENDBRANCH  68  70
ENDBRANCH  64  65
ENDBRANCH  63  64
ENDBRANCH  60  63
ENDBRANCH  58  59
ENDBRANCH  55  58
ENDBRANCH   1  55
TORSDOF 33
BEGIN_RES LYS A 131
REMARK  4 active torsions:
REMARK  status: ('A' for Active; 'I' for Inactive)
REMARK    1  A    between atoms: CA   and  CB  
REMARK    2  A    between atoms: CB   and  CG  
REMARK    3  A    between atoms: CG   and  CD  
REMARK    4  A    between atoms: CD   and  CE  
ROOT
ATOM      1  CA  LYS A 131      29.867  25.555  16.977  1.00 20.52     0.186 C 
ENDROOT
BRANCH   1   2
ATOM      2  CB  LYS A 131      28.345  25.722  17.026  1.00 20.94     0.034 C 
BRANCH   2   3
ATOM      3  CG  LYS A 131      27.601  24.403  16.887  1.00 22.96     0.005 C 
BRANCH   3   4
ATOM      4  CD  LYS A 131      26.620  24.185  18.005  1.00 24.33     0.041 C 
BRANCH   4   5
ATOM      5  CE  LYS A 131      25.599  23.131  17.589  1.00 26.91     0.338 C 
ATOM      6  NZ  LYS A 131      24.431  23.768  16.937  1.00 27.40     0.618 N 
ENDBRANCH   4   5
ENDBRANCH   3   4
ENDBRANCH   2   3
ENDBRANCH   1   2
END_RES LYS A 131
BEGIN_RES LYS A 135
REMARK  4 active torsions:
REMARK  status: ('A' for Active; 'I' for Inactive)
REMARK    5  A    between atoms: CA   and  CB  
REMARK    6  A    between atoms: CB   and  CG  
REMARK    7  A    between atoms: CG   and  CD  
REMARK    8  A    between atoms: CD   and  CE  
ROOT
ATOM      7  CA  LYS A 135      33.193  34.663   9.290  1.00 25.02     0.186 C 
ENDROOT
BRANCH   7   8
ATOM      8  CB  LYS A 135      32.060  35.360  10.034  1.00 26.63     0.034 C 
BRANCH   8   9
ATOM      9  CG  LYS A 135      30.884  35.703   9.156  1.00 29.45     0.005 C 
BRANCH   9  10
ATOM     10  CD  LYS A 135      29.795  36.392   9.964  1.00 32.00     0.041 C 
BRANCH  10  11
ATOM     11  CE  LYS A 135      30.113  37.864  10.142  1.00 34.25     0.338 C 
ATOM     12  NZ  LYS A 135      29.589  38.373  11.440  1.00 35.99     0.618 N 
ENDBRANCH  10  11
ENDBRANCH   9  10
ENDBRANCH   8   9
ENDBRANCH   7   8
END_RES LYS A 135
