REMARK VINA RESULT:    -3.272      3.204      8.858
REMARK INTER + INTRA:         -22.102
REMARK INTER:                  -9.601
REMARK INTRA:                 -12.501
REMARK UNBOUND:               -13.473
REMARK SMILES CC(=O)N[C@@H]1[C@@H](O)C[C@](OC[C@H]2O[C@@H](O[C@H]3[C@H](O)[C@@H](O)[C@H](OCCN=[N+]=[N-])O[C@@H]3CO)[C@H](O)[C@@H](O)[C@H]2O)(C(=O)O)O[C@H]1C(O)[C@H](O)CNC(=O)OCc1cn(CCOC(C)=O)nn1
REMARK SMILES IDX 43 1 42 2 9 3 8 4 41 5 6 6 5 7 10 8 11 9 12 10 14 11 13 12
REMARK SMILES IDX 32 13 34 14 36 15 15 16 16 17 29 18 28 19 21 20 17 21 19 22
REMARK SMILES IDX 30 23 31 24 22 26 23 27 24 28 25 29 26 30 27 31 18 32 20 34
REMARK SMILES IDX 33 36 35 38 37 40 38 42 39 43 40 44 7 46 4 48 2 49 1 51 3 52
REMARK SMILES IDX 44 53 45 55 46 56 47 58 48 59 49 60 50 62 51 63 52 64 53 65
REMARK SMILES IDX 54 66 63 67 55 68 62 69 56 70 57 71 58 72 59 73 61 74 60 75
REMARK H PARENT 31 25 18 33 20 35 33 37 35 39 37 41 40 45 7 47 4 50 44 54
REMARK H PARENT 46 57 48 61
REMARK Flexibility Score: inf
ROOT
ATOM      1  C   UNL     1      24.938  36.850   9.739  1.00  0.00     0.176 C 
ENDROOT
BRANCH   1   2
ATOM      2  C   UNL     1      25.206  37.336  11.140  1.00  0.00     0.178 C 
ATOM      3  C   UNL     1      26.669  36.844  12.922  1.00  0.00     0.272 C 
ATOM      4  C   UNL     1      25.946  38.045  13.484  1.00  0.00     0.113 C 
ATOM      5  O   UNL     1      26.365  36.643  11.548  1.00  0.00    -0.332 OA
ATOM      6  C   UNL     1      24.469  37.958  13.342  1.00  0.00     0.145 C 
ATOM      7  C   UNL     1      24.165  36.994  12.161  1.00  0.00     0.142 C 
BRANCH   3   8
ATOM      8  O   UNL     1      26.480  35.689  13.511  1.00  0.00    -0.338 OA
BRANCH   8   9
ATOM      9  C   UNL     1      26.935  34.491  13.274  1.00  0.00     0.199 C 
BRANCH   9  10
ATOM     10  C   UNL     1      27.799  33.687  14.149  1.00  0.00     0.179 C 
ATOM     11  C   UNL     1      30.039  33.281  14.512  1.00  0.00     0.282 C 
ATOM     12  O   UNL     1      29.127  34.262  14.096  1.00  0.00    -0.341 OA
ATOM     13  C   UNL     1      29.599  32.494  15.675  1.00  0.00     0.202 C 
ATOM     14  C   UNL     1      28.358  32.927  16.374  1.00  0.00     0.179 C 
ATOM     15  C   UNL     1      27.486  33.887  15.645  1.00  0.00     0.177 C 
BRANCH  11  16
ATOM     16  O   UNL     1      31.271  33.903  14.616  1.00  0.00    -0.341 OA
BRANCH  16  17
ATOM     17  C   UNL     1      31.192  35.206  15.036  1.00  0.00     0.184 C 
ATOM     18  C   UNL     1      32.162  36.058  14.250  1.00  0.00     0.178 C 
ATOM     19  O   UNL     1      31.981  37.365  14.724  1.00  0.00    -0.341 OA
ATOM     20  C   UNL     1      32.594  37.503  15.933  1.00  0.00     0.281 C 
ATOM     21  C   UNL     1      31.476  35.343  16.523  1.00  0.00     0.180 C 
ATOM     22  C   UNL     1      32.619  36.264  16.797  1.00  0.00     0.202 C 
BRANCH  18  23
ATOM     23  C   UNL     1      31.803  36.028  12.776  1.00  0.00     0.191 C 
BRANCH  23  24
ATOM     24  O   UNL     1      32.273  34.860  12.203  1.00  0.00    -0.394 OA
ATOM     25  H   UNL     1      32.897  35.146  11.471  1.00  0.00     0.210 HD
ENDBRANCH  23  24
ENDBRANCH  18  23
BRANCH  20  26
ATOM     26  O   UNL     1      31.974  38.567  16.601  1.00  0.00    -0.350 OA
BRANCH  26  27
ATOM     27  C   UNL     1      31.114  39.262  15.758  1.00  0.00     0.169 C 
BRANCH  27  28
ATOM     28  C   UNL     1      30.055  39.884  16.674  1.00  0.00     0.119 C 
BRANCH  28  29
ATOM     29  N   UNL     1      28.753  39.672  16.066  1.00  0.00    -0.092 NA
ATOM     30  N   UNL     1      27.908  38.912  16.556  1.00  0.00     0.001 N 
ATOM     31  N   UNL     1      27.237  37.894  16.808  1.00  0.00    -0.003 NA
ENDBRANCH  28  29
ENDBRANCH  27  28
ENDBRANCH  26  27
ENDBRANCH  20  26
BRANCH  21  32
ATOM     32  O   UNL     1      30.353  35.698  17.261  1.00  0.00    -0.387 OA
ATOM     33  H   UNL     1      29.499  35.544  16.787  1.00  0.00     0.211 HD
ENDBRANCH  21  32
BRANCH  22  34
ATOM     34  O   UNL     1      33.822  35.588  16.751  1.00  0.00    -0.385 OA
ATOM     35  H   UNL     1      33.701  34.771  16.185  1.00  0.00     0.211 HD
ENDBRANCH  22  34
ENDBRANCH  16  17
ENDBRANCH  11  16
BRANCH  13  36
ATOM     36  O   UNL     1      29.566  31.104  15.388  1.00  0.00    -0.385 OA
ATOM     37  H   UNL     1      28.672  30.811  15.114  1.00  0.00     0.211 HD
ENDBRANCH  13  36
BRANCH  14  38
ATOM     38  O   UNL     1      28.640  33.477  17.634  1.00  0.00    -0.387 OA
ATOM     39  H   UNL     1      28.005  34.238  17.786  1.00  0.00     0.211 HD
ENDBRANCH  14  38
BRANCH  15  40
ATOM     40  O   UNL     1      27.932  35.192  15.993  1.00  0.00    -0.387 OA
ATOM     41  H   UNL     1      27.190  35.829  15.966  1.00  0.00     0.211 HD
ENDBRANCH  15  40
ENDBRANCH   9  10
ENDBRANCH   8   9
ENDBRANCH   3   8
BRANCH   3  42
ATOM     42  C   UNL     1      28.096  37.263  12.830  1.00  0.00     0.364 C 
ATOM     43  O   UNL     1      28.718  37.532  11.785  1.00  0.00    -0.246 OA
BRANCH  42  44
ATOM     44  O   UNL     1      28.865  37.381  14.008  1.00  0.00    -0.477 OA
ATOM     45  H   UNL     1      28.477  37.888  14.789  1.00  0.00     0.296 HD
ENDBRANCH  42  44
ENDBRANCH   3  42
BRANCH   6  46
ATOM     46  O   UNL     1      23.784  37.576  14.472  1.00  0.00    -0.391 OA
ATOM     47  H   UNL     1      24.175  36.785  14.924  1.00  0.00     0.211 HD
ENDBRANCH   6  46
BRANCH   7  48
ATOM     48  N   UNL     1      22.797  37.132  11.786  1.00  0.00    -0.348 N 
ATOM     49  C   UNL     1      21.961  36.010  11.552  1.00  0.00     0.217 C 
ATOM     50  H   UNL     1      22.388  38.076  11.704  1.00  0.00     0.163 HD
ATOM     51  C   UNL     1      20.526  36.164  11.159  1.00  0.00     0.114 C 
ATOM     52  O   UNL     1      22.391  34.822  11.667  1.00  0.00    -0.275 OA
ENDBRANCH   7  48
ENDBRANCH   1   2
BRANCH   1  53
ATOM     53  O   UNL     1      24.768  35.437   9.882  1.00  0.00    -0.388 OA
ATOM     54  H   UNL     1      24.107  35.247  10.579  1.00  0.00     0.211 HD
ENDBRANCH   1  53
BRANCH   1  55
ATOM     55  C   UNL     1      26.184  36.978   8.896  1.00  0.00     0.165 C 
BRANCH  55  56
ATOM     56  O   UNL     1      26.925  38.086   9.336  1.00  0.00    -0.388 OA
ATOM     57  H   UNL     1      26.296  38.782   9.616  1.00  0.00     0.211 HD
ENDBRANCH  55  56
BRANCH  55  58
ATOM     58  C   UNL     1      25.900  37.050   7.428  1.00  0.00     0.154 C 
BRANCH  58  59
ATOM     59  N   UNL     1      26.654  38.022   6.699  1.00  0.00    -0.319 N 
ATOM     60  C   UNL     1      27.808  37.713   5.953  1.00  0.00     0.407 C 
ATOM     61  H   UNL     1      26.372  39.051   6.683  1.00  0.00     0.167 HD
ATOM     62  O   UNL     1      28.263  36.554   5.860  1.00  0.00    -0.225 OA
BRANCH  60  63
ATOM     63  O   UNL     1      28.528  38.700   5.263  1.00  0.00    -0.443 OA
BRANCH  63  64
ATOM     64  C   UNL     1      29.788  39.143   5.680  1.00  0.00     0.294 C 
BRANCH  64  65
ATOM     65  C   UNL     1      29.851  39.334   7.155  1.00  0.00     0.120 A 
ATOM     66  C   UNL     1      30.925  38.943   7.936  1.00  0.00     0.138 A 
ATOM     67  N   UNL     1      28.976  39.881   7.993  1.00  0.00    -0.132 NA
ATOM     68  N   UNL     1      30.645  39.272   9.201  1.00  0.00    -0.249 N 
ATOM     69  N   UNL     1      29.454  39.842   9.213  1.00  0.00    -0.067 NA
BRANCH  68  70
ATOM     70  C   UNL     1      31.483  39.040  10.387  1.00  0.00     0.187 C 
BRANCH  70  71
ATOM     71  C   UNL     1      31.515  40.287  11.242  1.00  0.00     0.256 C 
BRANCH  71  72
ATOM     72  O   UNL     1      30.719  40.055  12.400  1.00  0.00    -0.464 OA
BRANCH  72  73
ATOM     73  C   UNL     1      29.742  40.970  12.780  1.00  0.00     0.302 C 
ATOM     74  O   UNL     1      28.561  40.755  12.416  1.00  0.00    -0.253 OA
ATOM     75  C   UNL     1      30.058  42.186  13.599  1.00  0.00     0.139 C 
ENDBRANCH  72  73
ENDBRANCH  71  72
ENDBRANCH  70  71
ENDBRANCH  68  70
ENDBRANCH  64  65
ENDBRANCH  63  64
ENDBRANCH  60  63
ENDBRANCH  58  59
ENDBRANCH  55  58
ENDBRANCH   1  55
TORSDOF 33
BEGIN_RES LYS A 131
REMARK  4 active torsions:
REMARK  status: ('A' for Active; 'I' for Inactive)
REMARK    1  A    between atoms: CA   and  CB  
REMARK    2  A    between atoms: CB   and  CG  
REMARK    3  A    between atoms: CG   and  CD  
REMARK    4  A    between atoms: CD   and  CE  
ROOT
ATOM      1  CA  LYS A 131      29.867  25.555  16.977  1.00 20.52     0.186 C 
ENDROOT
BRANCH   1   2
ATOM      2  CB  LYS A 131      28.345  25.722  17.026  1.00 20.94     0.034 C 
BRANCH   2   3
ATOM      3  CG  LYS A 131      27.602  24.400  16.914  1.00 22.96     0.005 C 
BRANCH   3   4
ATOM      4  CD  LYS A 131      26.238  24.461  17.546  1.00 24.33     0.041 C 
BRANCH   4   5
ATOM      5  CE  LYS A 131      26.050  25.817  18.218  1.00 26.91     0.338 C 
ATOM      6  NZ  LYS A 131      25.818  25.647  19.672  1.00 27.40     0.618 N 
ENDBRANCH   4   5
ENDBRANCH   3   4
ENDBRANCH   2   3
ENDBRANCH   1   2
END_RES LYS A 131
BEGIN_RES LYS A 135
REMARK  4 active torsions:
REMARK  status: ('A' for Active; 'I' for Inactive)
REMARK    5  A    between atoms: CA   and  CB  
REMARK    6  A    between atoms: CB   and  CG  
REMARK    7  A    between atoms: CG   and  CD  
REMARK    8  A    between atoms: CD   and  CE  
ROOT
ATOM      7  CA  LYS A 135      33.193  34.663   9.290  1.00 25.02     0.186 C 
ENDROOT
BRANCH   7   8
ATOM      8  CB  LYS A 135      32.060  35.360  10.034  1.00 26.63     0.034 C 
BRANCH   8   9
ATOM      9  CG  LYS A 135      30.792  35.475   9.229  1.00 29.45     0.005 C 
BRANCH   9  10
ATOM     10  CD  LYS A 135      29.998  34.179   9.289  1.00 32.00     0.041 C 
BRANCH  10  11
ATOM     11  CE  LYS A 135      28.737  34.365  10.111  1.00 34.25     0.338 C 
ATOM     12  NZ  LYS A 135      27.570  33.708   9.459  1.00 35.99     0.618 N 
ENDBRANCH  10  11
ENDBRANCH   9  10
ENDBRANCH   8   9
ENDBRANCH   7   8
END_RES LYS A 135
