REMARK VINA RESULT:    -4.414      6.757     13.371
REMARK INTER + INTRA:         -21.482
REMARK INTER:                  -9.472
REMARK INTRA:                 -12.010
REMARK UNBOUND:               -10.616
REMARK SMILES CC(=O)N[C@@H]1[C@@H](O)C[C@](OC[C@H]2O[C@@H](O[C@H]3[C@H](O)[C@@H](O)[C@H](OCCN=[N+]=[N-])O[C@@H]3CO)[C@H](O)[C@@H](O)[C@H]2O)(C(=O)O)O[C@H]1C(O)[C@H](O)CNC(=O)OCc1cn(C2CCCC2)nn1
REMARK SMILES IDX 9 1 8 2 6 3 5 4 42 5 41 6 10 7 11 8 12 9 14 10 13 11 32 12
REMARK SMILES IDX 34 13 36 14 15 15 16 16 29 17 28 18 21 19 17 20 19 21 30 22
REMARK SMILES IDX 31 23 22 25 23 26 24 27 25 28 26 29 27 30 18 31 20 33 33 35
REMARK SMILES IDX 35 37 37 39 38 41 39 42 40 43 7 45 43 47 44 48 45 50 46 51
REMARK SMILES IDX 47 53 48 54 49 55 50 57 51 58 52 59 53 60 54 61 62 62 55 63
REMARK SMILES IDX 61 64 56 65 57 66 60 67 58 68 59 69 4 70 2 71 1 73 3 74
REMARK H PARENT 31 24 18 32 20 34 33 36 35 38 37 40 40 44 7 46 44 49 46 52
REMARK H PARENT 48 56 4 72
REMARK Flexibility Score: inf
ROOT
ATOM      1  C   UNL     1      29.498  30.421  20.431  1.00  0.00     0.272 C 
ATOM      2  C   UNL     1      30.006  29.253  21.190  1.00  0.00     0.113 C 
ATOM      3  C   UNL     1      29.181  28.020  21.057  1.00  0.00     0.145 C 
ATOM      4  C   UNL     1      27.689  28.347  21.307  1.00  0.00     0.142 C 
ATOM      5  C   UNL     1      27.595  29.799  21.619  1.00  0.00     0.178 C 
ATOM      6  O   UNL     1      28.084  30.436  20.426  1.00  0.00    -0.332 OA
ENDROOT
BRANCH   1   7
ATOM      7  O   UNL     1      29.911  30.467  19.148  1.00  0.00    -0.338 OA
BRANCH   7   8
ATOM      8  C   UNL     1      30.007  31.674  18.506  1.00  0.00     0.199 C 
BRANCH   8   9
ATOM      9  C   UNL     1      30.481  31.395  17.083  1.00  0.00     0.179 C 
ATOM     10  C   UNL     1      28.523  31.571  15.835  1.00  0.00     0.282 C 
ATOM     11  O   UNL     1      29.558  30.773  16.306  1.00  0.00    -0.341 OA
ATOM     12  C   UNL     1      28.919  32.985  15.585  1.00  0.00     0.202 C 
ATOM     13  C   UNL     1      30.383  33.184  15.345  1.00  0.00     0.179 C 
ATOM     14  C   UNL     1      31.128  32.605  16.522  1.00  0.00     0.177 C 
BRANCH  10  15
ATOM     15  O   UNL     1      27.375  31.440  16.615  1.00  0.00    -0.341 OA
BRANCH  15  16
ATOM     16  C   UNL     1      26.640  30.304  16.279  1.00  0.00     0.184 C 
ATOM     17  C   UNL     1      25.243  30.583  15.834  1.00  0.00     0.178 C 
ATOM     18  O   UNL     1      24.595  29.370  15.612  1.00  0.00    -0.341 OA
ATOM     19  C   UNL     1      24.249  28.795  16.821  1.00  0.00     0.281 C 
ATOM     20  C   UNL     1      26.539  29.484  17.559  1.00  0.00     0.180 C 
ATOM     21  C   UNL     1      25.550  28.366  17.474  1.00  0.00     0.202 C 
BRANCH  17  22
ATOM     22  C   UNL     1      25.164  31.322  14.502  1.00  0.00     0.191 C 
BRANCH  22  23
ATOM     23  O   UNL     1      25.419  32.669  14.808  1.00  0.00    -0.394 OA
ATOM     24  H   UNL     1      26.237  32.978  14.384  1.00  0.00     0.210 HD
ENDBRANCH  22  23
ENDBRANCH  17  22
BRANCH  19  25
ATOM     25  O   UNL     1      23.512  27.639  16.577  1.00  0.00    -0.350 OA
BRANCH  25  26
ATOM     26  C   UNL     1      22.273  27.720  17.234  1.00  0.00     0.169 C 
BRANCH  26  27
ATOM     27  C   UNL     1      22.063  26.508  18.125  1.00  0.00     0.119 C 
BRANCH  27  28
ATOM     28  N   UNL     1      21.284  25.506  17.458  1.00  0.00    -0.092 NA
ATOM     29  N   UNL     1      20.959  24.439  18.019  1.00  0.00     0.001 N 
ATOM     30  N   UNL     1      21.091  23.287  18.425  1.00  0.00    -0.003 NA
ENDBRANCH  27  28
ENDBRANCH  26  27
ENDBRANCH  25  26
ENDBRANCH  19  25
BRANCH  20  31
ATOM     31  O   UNL     1      27.804  28.940  17.771  1.00  0.00    -0.387 OA
ATOM     32  H   UNL     1      28.036  28.866  18.730  1.00  0.00     0.211 HD
ENDBRANCH  20  31
BRANCH  21  33
ATOM     33  O   UNL     1      25.233  27.966  18.782  1.00  0.00    -0.385 OA
ATOM     34  H   UNL     1      25.529  27.022  18.850  1.00  0.00     0.211 HD
ENDBRANCH  21  33
ENDBRANCH  15  16
ENDBRANCH  10  15
BRANCH  12  35
ATOM     35  O   UNL     1      28.267  33.503  14.441  1.00  0.00    -0.385 OA
ATOM     36  H   UNL     1      27.877  34.360  14.696  1.00  0.00     0.211 HD
ENDBRANCH  12  35
BRANCH  13  37
ATOM     37  O   UNL     1      30.658  34.537  15.275  1.00  0.00    -0.387 OA
ATOM     38  H   UNL     1      30.640  34.801  14.328  1.00  0.00     0.211 HD
ENDBRANCH  13  37
BRANCH  14  39
ATOM     39  O   UNL     1      31.336  33.620  17.447  1.00  0.00    -0.387 OA
ATOM     40  H   UNL     1      32.265  33.882  17.521  1.00  0.00     0.211 HD
ENDBRANCH  14  39
ENDBRANCH   8   9
ENDBRANCH   7   8
ENDBRANCH   1   7
BRANCH   1  41
ATOM     41  C   UNL     1      29.853  31.678  21.194  1.00  0.00     0.364 C 
ATOM     42  O   UNL     1      30.857  31.759  21.919  1.00  0.00    -0.246 OA
BRANCH  41  43
ATOM     43  O   UNL     1      28.973  32.753  21.034  1.00  0.00    -0.477 OA
ATOM     44  H   UNL     1      28.555  33.178  21.871  1.00  0.00     0.296 HD
ENDBRANCH  41  43
ENDBRANCH   1  41
BRANCH   3  45
ATOM     45  O   UNL     1      29.358  27.302  19.902  1.00  0.00    -0.391 OA
ATOM     46  H   UNL     1      30.146  27.632  19.413  1.00  0.00     0.211 HD
ENDBRANCH   3  45
BRANCH   5  47
ATOM     47  C   UNL     1      26.194  30.339  21.761  1.00  0.00     0.176 C 
BRANCH  47  48
ATOM     48  O   UNL     1      25.333  29.353  21.121  1.00  0.00    -0.388 OA
ATOM     49  H   UNL     1      24.925  28.896  21.892  1.00  0.00     0.211 HD
ENDBRANCH  47  48
BRANCH  47  50
ATOM     50  C   UNL     1      25.884  31.578  20.967  1.00  0.00     0.165 C 
BRANCH  50  51
ATOM     51  O   UNL     1      26.126  32.777  21.538  1.00  0.00    -0.388 OA
ATOM     52  H   UNL     1      26.618  33.422  20.985  1.00  0.00     0.211 HD
ENDBRANCH  50  51
BRANCH  50  53
ATOM     53  C   UNL     1      24.409  31.527  20.588  1.00  0.00     0.154 C 
BRANCH  53  54
ATOM     54  N   UNL     1      24.293  31.860  19.162  1.00  0.00    -0.319 N 
ATOM     55  C   UNL     1      24.189  33.207  18.733  1.00  0.00     0.407 C 
ATOM     56  H   UNL     1      24.282  31.110  18.424  1.00  0.00     0.167 HD
ATOM     57  O   UNL     1      24.199  34.125  19.594  1.00  0.00    -0.225 OA
BRANCH  55  58
ATOM     58  O   UNL     1      24.079  33.534  17.401  1.00  0.00    -0.443 OA
BRANCH  58  59
ATOM     59  C   UNL     1      22.840  33.855  16.798  1.00  0.00     0.294 C 
BRANCH  59  60
ATOM     60  C   UNL     1      22.159  32.680  16.209  1.00  0.00     0.120 A 
ATOM     61  C   UNL     1      21.799  32.411  14.907  1.00  0.00     0.138 A 
ATOM     62  N   UNL     1      21.748  31.601  16.910  1.00  0.00    -0.132 NA
ATOM     63  N   UNL     1      21.201  31.218  14.860  1.00  0.00    -0.249 N 
ATOM     64  N   UNL     1      21.189  30.752  16.098  1.00  0.00    -0.067 NA
BRANCH  63  65
ATOM     65  C   UNL     1      20.656  30.521  13.701  1.00  0.00     0.109 C 
ATOM     66  C   UNL     1      21.520  30.645  12.489  1.00  0.00     0.027 C 
ATOM     67  C   UNL     1      20.636  29.037  14.001  1.00  0.00     0.027 C 
ATOM     68  C   UNL     1      22.431  29.446  12.450  1.00  0.00     0.002 C 
ATOM     69  C   UNL     1      21.928  28.477  13.490  1.00  0.00     0.002 C 
ENDBRANCH  63  65
ENDBRANCH  59  60
ENDBRANCH  58  59
ENDBRANCH  55  58
ENDBRANCH  53  54
ENDBRANCH  50  53
ENDBRANCH  47  50
ENDBRANCH   5  47
BRANCH   4  70
ATOM     70  N   UNL     1      27.184  27.436  22.309  1.00  0.00    -0.348 N 
ATOM     71  C   UNL     1      26.281  26.371  21.927  1.00  0.00     0.217 C 
ATOM     72  H   UNL     1      27.446  27.482  23.315  1.00  0.00     0.163 HD
ATOM     73  C   UNL     1      25.750  25.424  22.939  1.00  0.00     0.114 C 
ATOM     74  O   UNL     1      25.926  26.226  20.726  1.00  0.00    -0.275 OA
ENDBRANCH   4  70
TORSDOF 30
BEGIN_RES LYS A 131
REMARK  4 active torsions:
REMARK  status: ('A' for Active; 'I' for Inactive)
REMARK    1  A    between atoms: CA   and  CB  
REMARK    2  A    between atoms: CB   and  CG  
REMARK    3  A    between atoms: CG   and  CD  
REMARK    4  A    between atoms: CD   and  CE  
ROOT
ATOM      1  CA  LYS A 131      29.867  25.555  16.977  1.00 20.52     0.186 C 
ENDROOT
BRANCH   1   2
ATOM      2  CB  LYS A 131      28.345  25.722  17.026  1.00 20.94     0.034 C 
BRANCH   2   3
ATOM      3  CG  LYS A 131      27.601  24.402  16.892  1.00 22.96     0.005 C 
BRANCH   3   4
ATOM      4  CD  LYS A 131      26.487  24.276  17.894  1.00 24.33     0.041 C 
BRANCH   4   5
ATOM      5  CE  LYS A 131      25.158  24.602  17.221  1.00 26.91     0.338 C 
ATOM      6  NZ  LYS A 131      24.343  23.375  17.059  1.00 27.40     0.618 N 
ENDBRANCH   4   5
ENDBRANCH   3   4
ENDBRANCH   2   3
ENDBRANCH   1   2
END_RES LYS A 131
BEGIN_RES LYS A 135
REMARK  4 active torsions:
REMARK  status: ('A' for Active; 'I' for Inactive)
REMARK    5  A    between atoms: CA   and  CB  
REMARK    6  A    between atoms: CB   and  CG  
REMARK    7  A    between atoms: CG   and  CD  
REMARK    8  A    between atoms: CD   and  CE  
ROOT
ATOM      7  CA  LYS A 135      33.193  34.663   9.290  1.00 25.02     0.186 C 
ENDROOT
BRANCH   7   8
ATOM      8  CB  LYS A 135      32.060  35.360  10.034  1.00 26.63     0.034 C 
BRANCH   8   9
ATOM      9  CG  LYS A 135      30.803  35.508   9.216  1.00 29.45     0.005 C 
BRANCH   9  10
ATOM     10  CD  LYS A 135      30.128  34.159   9.020  1.00 32.00     0.041 C 
BRANCH  10  11
ATOM     11  CE  LYS A 135      28.672  34.342   8.637  1.00 34.25     0.338 C 
ATOM     12  NZ  LYS A 135      27.772  33.671   9.616  1.00 35.99     0.618 N 
ENDBRANCH  10  11
ENDBRANCH   9  10
ENDBRANCH   8   9
ENDBRANCH   7   8
END_RES LYS A 135
