REMARK VINA RESULT:    -4.406      4.495     10.547
REMARK INTER + INTRA:         -23.354
REMARK INTER:                 -13.679
REMARK INTRA:                  -9.675
REMARK UNBOUND:               -12.122
REMARK SMILES CC(=O)N[C@@H]1[C@@H](O)C[C@](OC[C@H]2O[C@@H](O[C@H]3[C@H](O)[C@@H](O)[C@H](OCCN=[N+]=[N-])O[C@@H]3CO)[C@H](O)[C@@H](O)[C@H]2O)(C(=O)O)O[C@H]1C(O)[C@H](O)CNC(=O)OCc1cn(-c2ccc(O)c([N+](=O)[O-])c2)nn1
REMARK SMILES IDX 9 1 8 2 6 3 5 4 42 5 41 6 10 7 11 8 12 9 14 10 13 11 32 12
REMARK SMILES IDX 34 13 36 14 15 15 16 16 29 17 28 18 21 19 17 20 19 21 30 22
REMARK SMILES IDX 31 23 22 25 23 26 24 27 25 28 26 29 27 30 18 31 20 33 33 35
REMARK SMILES IDX 35 37 37 39 38 41 39 42 40 43 7 45 43 47 44 48 45 50 46 51
REMARK SMILES IDX 47 53 48 54 49 55 50 57 51 58 52 59 53 60 54 61 67 62 55 63
REMARK SMILES IDX 66 64 56 65 57 66 65 67 58 68 61 69 59 70 62 71 63 72 64 73
REMARK SMILES IDX 60 74 4 76 2 77 1 79 3 80
REMARK H PARENT 31 24 18 32 20 34 33 36 35 38 37 40 40 44 7 46 44 49 46 52
REMARK H PARENT 48 56 60 75 4 78
REMARK Flexibility Score: inf
ROOT
ATOM      1  C   UNL     1      27.724  37.151  12.549  1.00  0.00     0.272 C 
ATOM      2  C   UNL     1      28.526  35.932  12.055  1.00  0.00     0.113 C 
ATOM      3  C   UNL     1      28.775  34.995  13.232  1.00  0.00     0.145 C 
ATOM      4  C   UNL     1      29.754  35.784  14.140  1.00  0.00     0.142 C 
ATOM      5  C   UNL     1      29.333  37.225  14.199  1.00  0.00     0.178 C 
ATOM      6  O   UNL     1      27.968  37.360  13.888  1.00  0.00    -0.332 OA
ENDROOT
BRANCH   1   7
ATOM      7  O   UNL     1      26.401  36.788  12.377  1.00  0.00    -0.338 OA
BRANCH   7   8
ATOM      8  C   UNL     1      26.048  36.310  11.151  1.00  0.00     0.199 C 
BRANCH   8   9
ATOM      9  C   UNL     1      25.114  37.384  10.541  1.00  0.00     0.179 C 
ATOM     10  C   UNL     1      24.732  38.254   8.481  1.00  0.00     0.282 C 
ATOM     11  O   UNL     1      25.683  37.708   9.346  1.00  0.00    -0.341 OA
ATOM     12  C   UNL     1      23.857  37.135   8.035  1.00  0.00     0.202 C 
ATOM     13  C   UNL     1      23.108  36.590   9.223  1.00  0.00     0.179 C 
ATOM     14  C   UNL     1      23.732  36.864  10.541  1.00  0.00     0.177 C 
BRANCH  10  15
ATOM     15  O   UNL     1      25.379  38.924   7.434  1.00  0.00    -0.341 OA
BRANCH  15  16
ATOM     16  C   UNL     1      26.743  38.777   7.597  1.00  0.00     0.184 C 
ATOM     17  C   UNL     1      27.507  40.041   7.791  1.00  0.00     0.178 C 
ATOM     18  O   UNL     1      28.778  39.695   8.231  1.00  0.00    -0.341 OA
ATOM     19  C   UNL     1      29.521  39.100   7.169  1.00  0.00     0.281 C 
ATOM     20  C   UNL     1      27.344  38.141   6.315  1.00  0.00     0.180 C 
ATOM     21  C   UNL     1      28.819  37.909   6.630  1.00  0.00     0.202 C 
BRANCH  17  22
ATOM     22  C   UNL     1      26.903  41.032   8.728  1.00  0.00     0.191 C 
BRANCH  22  23
ATOM     23  O   UNL     1      25.854  41.711   8.132  1.00  0.00    -0.394 OA
ATOM     24  H   UNL     1      26.150  41.966   7.202  1.00  0.00     0.210 HD
ENDBRANCH  22  23
ENDBRANCH  17  22
BRANCH  19  25
ATOM     25  O   UNL     1      30.711  38.728   7.784  1.00  0.00    -0.350 OA
BRANCH  25  26
ATOM     26  C   UNL     1      31.200  39.670   8.668  1.00  0.00     0.169 C 
BRANCH  26  27
ATOM     27  C   UNL     1      32.211  39.085   9.605  1.00  0.00     0.119 C 
BRANCH  27  28
ATOM     28  N   UNL     1      31.532  38.740  10.852  1.00  0.00    -0.092 NA
ATOM     29  N   UNL     1      31.496  39.580  11.779  1.00  0.00     0.001 N 
ATOM     30  N   UNL     1      30.997  40.381  12.590  1.00  0.00    -0.003 NA
ENDBRANCH  27  28
ENDBRANCH  26  27
ENDBRANCH  25  26
ENDBRANCH  19  25
BRANCH  20  31
ATOM     31  O   UNL     1      26.774  36.903   6.066  1.00  0.00    -0.387 OA
ATOM     32  H   UNL     1      27.458  36.182   5.986  1.00  0.00     0.211 HD
ENDBRANCH  20  31
BRANCH  21  33
ATOM     33  O   UNL     1      29.388  37.521   5.419  1.00  0.00    -0.385 OA
ATOM     34  H   UNL     1      29.540  38.285   4.830  1.00  0.00     0.211 HD
ENDBRANCH  21  33
ENDBRANCH  15  16
ENDBRANCH  10  15
BRANCH  12  35
ATOM     35  O   UNL     1      22.960  37.498   7.036  1.00  0.00    -0.385 OA
ATOM     36  H   UNL     1      22.350  36.740   6.807  1.00  0.00     0.211 HD
ENDBRANCH  12  35
BRANCH  13  37
ATOM     37  O   UNL     1      22.872  35.234   8.967  1.00  0.00    -0.387 OA
ATOM     38  H   UNL     1      22.629  34.816   9.837  1.00  0.00     0.211 HD
ENDBRANCH  13  37
BRANCH  14  39
ATOM     39  O   UNL     1      23.594  35.708  11.340  1.00  0.00    -0.387 OA
ATOM     40  H   UNL     1      22.877  35.119  11.027  1.00  0.00     0.211 HD
ENDBRANCH  14  39
ENDBRANCH   8   9
ENDBRANCH   7   8
ENDBRANCH   1   7
BRANCH   1  41
ATOM     41  C   UNL     1      28.062  38.241  11.642  1.00  0.00     0.364 C 
ATOM     42  O   UNL     1      27.818  39.463  11.828  1.00  0.00    -0.246 OA
BRANCH  41  43
ATOM     43  O   UNL     1      28.719  37.951  10.445  1.00  0.00    -0.477 OA
ATOM     44  H   UNL     1      29.225  37.085  10.292  1.00  0.00     0.296 HD
ENDBRANCH  41  43
ENDBRANCH   1  41
BRANCH   3  45
ATOM     45  O   UNL     1      27.618  34.713  13.907  1.00  0.00    -0.391 OA
ATOM     46  H   UNL     1      27.237  35.549  14.267  1.00  0.00     0.211 HD
ENDBRANCH   3  45
BRANCH   5  47
ATOM     47  C   UNL     1      29.497  37.737  15.610  1.00  0.00     0.176 C 
BRANCH  47  48
ATOM     48  O   UNL     1      29.928  36.685  16.402  1.00  0.00    -0.388 OA
ATOM     49  H   UNL     1      30.615  36.128  15.958  1.00  0.00     0.211 HD
ENDBRANCH  47  48
BRANCH  47  50
ATOM     50  C   UNL     1      30.466  38.884  15.744  1.00  0.00     0.165 C 
BRANCH  50  51
ATOM     51  O   UNL     1      31.627  38.446  15.050  1.00  0.00    -0.388 OA
ATOM     52  H   UNL     1      32.367  38.242  15.687  1.00  0.00     0.211 HD
ENDBRANCH  50  51
BRANCH  50  53
ATOM     53  C   UNL     1      30.893  39.093  17.169  1.00  0.00     0.154 C 
BRANCH  53  54
ATOM     54  N   UNL     1      32.055  38.299  17.464  1.00  0.00    -0.319 N 
ATOM     55  C   UNL     1      33.085  38.647  18.362  1.00  0.00     0.407 C 
ATOM     56  H   UNL     1      32.174  37.359  16.974  1.00  0.00     0.167 HD
ATOM     57  O   UNL     1      32.993  39.733  18.949  1.00  0.00    -0.225 OA
BRANCH  55  58
ATOM     58  O   UNL     1      34.184  37.865  18.634  1.00  0.00    -0.443 OA
BRANCH  58  59
ATOM     59  C   UNL     1      34.138  36.470  18.475  1.00  0.00     0.294 C 
BRANCH  59  60
ATOM     60  C   UNL     1      35.460  36.021  17.945  1.00  0.00     0.121 A 
ATOM     61  C   UNL     1      35.839  36.002  16.600  1.00  0.00     0.144 A 
ATOM     62  N   UNL     1      36.539  35.547  18.580  1.00  0.00    -0.131 NA
ATOM     63  N   UNL     1      37.078  35.535  16.509  1.00  0.00    -0.220 N 
ATOM     64  N   UNL     1      37.474  35.267  17.744  1.00  0.00    -0.062 NA
BRANCH  63  65
ATOM     65  C   UNL     1      37.841  35.348  15.304  1.00  0.00     0.073 A 
ATOM     66  C   UNL     1      38.905  36.147  15.016  1.00  0.00     0.033 A 
ATOM     67  C   UNL     1      37.531  34.363  14.405  1.00  0.00     0.118 A 
ATOM     68  C   UNL     1      39.666  36.006  13.880  1.00  0.00     0.056 A 
ATOM     69  C   UNL     1      38.293  34.195  13.231  1.00  0.00     0.312 A 
ATOM     70  C   UNL     1      39.365  34.995  12.939  1.00  0.00     0.194 A 
BRANCH  69  71
ATOM     71  N   UNL     1      37.908  33.156  12.366  1.00  0.00     0.066 N 
ATOM     72  O   UNL     1      37.162  33.464  11.384  1.00  0.00    -0.258 OA
ATOM     73  O   UNL     1      38.303  31.873  12.559  1.00  0.00    -0.258 OA
ENDBRANCH  69  71
BRANCH  70  74
ATOM     74  O   UNL     1      40.165  34.895  11.814  1.00  0.00    -0.502 OA
ATOM     75  H   UNL     1      41.097  34.629  11.841  1.00  0.00     0.293 HD
ENDBRANCH  70  74
ENDBRANCH  63  65
ENDBRANCH  59  60
ENDBRANCH  58  59
ENDBRANCH  55  58
ENDBRANCH  53  54
ENDBRANCH  50  53
ENDBRANCH  47  50
ENDBRANCH   5  47
BRANCH   4  76
ATOM     76  N   UNL     1      31.045  35.605  13.504  1.00  0.00    -0.348 N 
ATOM     77  C   UNL     1      32.181  35.140  14.244  1.00  0.00     0.217 C 
ATOM     78  H   UNL     1      31.180  35.809  12.497  1.00  0.00     0.163 HD
ATOM     79  C   UNL     1      33.490  34.965  13.572  1.00  0.00     0.114 C 
ATOM     80  O   UNL     1      32.035  34.883  15.476  1.00  0.00    -0.275 OA
ENDBRANCH   4  76
TORSDOF 32
BEGIN_RES LYS A 131
REMARK  4 active torsions:
REMARK  status: ('A' for Active; 'I' for Inactive)
REMARK    1  A    between atoms: CA   and  CB  
REMARK    2  A    between atoms: CB   and  CG  
REMARK    3  A    between atoms: CG   and  CD  
REMARK    4  A    between atoms: CD   and  CE  
ROOT
ATOM      1  CA  LYS A 131      29.867  25.555  16.977  1.00 20.52     0.186 C 
ENDROOT
BRANCH   1   2
ATOM      2  CB  LYS A 131      28.345  25.722  17.026  1.00 20.94     0.034 C 
BRANCH   2   3
ATOM      3  CG  LYS A 131      27.601  24.403  16.887  1.00 22.96     0.005 C 
BRANCH   3   4
ATOM      4  CD  LYS A 131      26.667  24.155  18.038  1.00 24.33     0.041 C 
BRANCH   4   5
ATOM      5  CE  LYS A 131      26.065  25.478  18.500  1.00 26.91     0.338 C 
ATOM      6  NZ  LYS A 131      24.771  25.725  17.820  1.00 27.40     0.618 N 
ENDBRANCH   4   5
ENDBRANCH   3   4
ENDBRANCH   2   3
ENDBRANCH   1   2
END_RES LYS A 131
BEGIN_RES LYS A 135
REMARK  4 active torsions:
REMARK  status: ('A' for Active; 'I' for Inactive)
REMARK    5  A    between atoms: CA   and  CB  
REMARK    6  A    between atoms: CB   and  CG  
REMARK    7  A    between atoms: CG   and  CD  
REMARK    8  A    between atoms: CD   and  CE  
ROOT
ATOM      7  CA  LYS A 135      33.193  34.663   9.290  1.00 25.02     0.186 C 
ENDROOT
BRANCH   7   8
ATOM      8  CB  LYS A 135      32.060  35.360  10.034  1.00 26.63     0.034 C 
BRANCH   8   9
ATOM      9  CG  LYS A 135      30.824  35.562   9.196  1.00 29.45     0.005 C 
BRANCH   9  10
ATOM     10  CD  LYS A 135      30.149  34.231   8.904  1.00 32.00     0.041 C 
BRANCH  10  11
ATOM     11  CE  LYS A 135      28.691  34.440   8.545  1.00 34.25     0.338 C 
ATOM     12  NZ  LYS A 135      27.800  33.634   9.425  1.00 35.99     0.618 N 
ENDBRANCH  10  11
ENDBRANCH   9  10
ENDBRANCH   8   9
ENDBRANCH   7   8
END_RES LYS A 135
