REMARK VINA RESULT:    -4.560      5.747     11.120
REMARK INTER + INTRA:         -22.897
REMARK INTER:                  -9.827
REMARK INTRA:                 -13.070
REMARK UNBOUND:               -10.207
REMARK SMILES CC(=O)N[C@@H]1[C@@H](O)C[C@](OC[C@H]2O[C@@H](O[C@H]3[C@H](O)[C@@H](O)[C@H](OCCN=[N+]=[N-])O[C@@H]3CO)[C@H](O)[C@@H](O)[C@H]2O)(C(=O)O)O[C@H]1C(O)[C@H](O)CNC(=O)OCc1cn(C[C@H](CC(=O)O)CC(C)C)nn1
REMARK SMILES IDX 43 1 42 2 9 3 8 4 41 5 6 6 5 7 10 8 11 9 12 10 14 11 13 12
REMARK SMILES IDX 32 13 34 14 36 15 15 16 16 17 29 18 28 19 21 20 17 21 19 22
REMARK SMILES IDX 30 23 31 24 22 26 23 27 24 28 25 29 26 30 27 31 18 32 20 34
REMARK SMILES IDX 33 36 35 38 37 40 38 42 39 43 40 44 7 46 4 48 2 49 1 51 3 52
REMARK SMILES IDX 44 53 45 55 46 56 47 58 48 59 49 60 50 62 51 63 52 64 53 65
REMARK SMILES IDX 54 66 67 67 55 68 66 69 56 70 57 71 58 72 59 73 60 74 61 75
REMARK SMILES IDX 62 77 63 78 64 79 65 80
REMARK H PARENT 31 25 18 33 20 35 33 37 35 39 37 41 40 45 7 47 4 50 44 54
REMARK H PARENT 46 57 48 61 61 76
REMARK Flexibility Score: inf
ROOT
ATOM      1  C   UNL     1      23.163  37.221  10.148  1.00  0.00     0.176 C 
ENDROOT
BRANCH   1   2
ATOM      2  C   UNL     1      22.757  37.111  11.591  1.00  0.00     0.178 C 
ATOM      3  C   UNL     1      22.175  39.107  12.812  1.00  0.00     0.272 C 
ATOM      4  C   UNL     1      23.531  39.158  13.418  1.00  0.00     0.113 C 
ATOM      5  O   UNL     1      22.015  38.219  11.853  1.00  0.00    -0.332 OA
ATOM      6  C   UNL     1      24.565  38.264  12.863  1.00  0.00     0.145 C 
ATOM      7  C   UNL     1      23.994  36.923  12.399  1.00  0.00     0.142 C 
BRANCH   3   8
ATOM      8  O   UNL     1      21.841  40.391  12.301  1.00  0.00    -0.338 OA
BRANCH   8   9
ATOM      9  C   UNL     1      20.519  40.575  12.041  1.00  0.00     0.199 C 
BRANCH   9  10
ATOM     10  C   UNL     1      20.327  41.070  10.590  1.00  0.00     0.179 C 
ATOM     11  C   UNL     1      21.527  41.731   8.717  1.00  0.00     0.282 C 
ATOM     12  O   UNL     1      21.507  40.977   9.880  1.00  0.00    -0.341 OA
ATOM     13  C   UNL     1      20.099  41.700   8.150  1.00  0.00     0.202 C 
ATOM     14  C   UNL     1      19.459  40.355   8.424  1.00  0.00     0.179 C 
ATOM     15  C   UNL     1      19.314  40.150   9.894  1.00  0.00     0.177 C 
BRANCH  11  16
ATOM     16  O   UNL     1      22.295  41.082   7.782  1.00  0.00    -0.341 OA
BRANCH  16  17
ATOM     17  C   UNL     1      23.541  40.679   8.186  1.00  0.00     0.184 C 
ATOM     18  C   UNL     1      24.543  41.787   8.328  1.00  0.00     0.178 C 
ATOM     19  O   UNL     1      25.600  41.733   7.469  1.00  0.00    -0.341 OA
ATOM     20  C   UNL     1      26.326  40.558   7.492  1.00  0.00     0.281 C 
ATOM     21  C   UNL     1      24.065  39.719   7.139  1.00  0.00     0.180 C 
ATOM     22  C   UNL     1      25.493  39.325   7.542  1.00  0.00     0.202 C 
BRANCH  18  23
ATOM     23  C   UNL     1      24.960  41.849   9.786  1.00  0.00     0.191 C 
BRANCH  23  24
ATOM     24  O   UNL     1      24.220  40.962  10.564  1.00  0.00    -0.394 OA
ATOM     25  H   UNL     1      24.751  40.165  10.835  1.00  0.00     0.210 HD
ENDBRANCH  23  24
ENDBRANCH  18  23
BRANCH  20  26
ATOM     26  O   UNL     1      27.264  40.661   8.508  1.00  0.00    -0.350 OA
BRANCH  26  27
ATOM     27  C   UNL     1      28.470  40.052   8.203  1.00  0.00     0.169 C 
BRANCH  27  28
ATOM     28  C   UNL     1      28.908  39.292   9.448  1.00  0.00     0.119 C 
BRANCH  28  29
ATOM     29  N   UNL     1      28.196  38.023   9.408  1.00  0.00    -0.092 NA
ATOM     30  N   UNL     1      27.921  37.480  10.453  1.00  0.00     0.001 N 
ATOM     31  N   UNL     1      27.656  36.652  11.334  1.00  0.00    -0.003 NA
ENDBRANCH  28  29
ENDBRANCH  27  28
ENDBRANCH  26  27
ENDBRANCH  20  26
BRANCH  21  32
ATOM     32  O   UNL     1      23.238  38.615   7.043  1.00  0.00    -0.387 OA
ATOM     33  H   UNL     1      23.837  37.814   6.911  1.00  0.00     0.211 HD
ENDBRANCH  21  32
BRANCH  22  34
ATOM     34  O   UNL     1      25.883  38.364   6.586  1.00  0.00    -0.385 OA
ATOM     35  H   UNL     1      26.055  37.528   7.070  1.00  0.00     0.211 HD
ENDBRANCH  22  34
ENDBRANCH  16  17
ENDBRANCH  11  16
BRANCH  13  36
ATOM     36  O   UNL     1      19.342  42.772   8.549  1.00  0.00    -0.385 OA
ATOM     37  H   UNL     1      19.803  43.629   8.531  1.00  0.00     0.211 HD
ENDBRANCH  13  36
BRANCH  14  38
ATOM     38  O   UNL     1      20.362  39.398   7.918  1.00  0.00    -0.387 OA
ATOM     39  H   UNL     1      20.662  38.776   8.599  1.00  0.00     0.211 HD
ENDBRANCH  14  38
BRANCH  15  40
ATOM     40  O   UNL     1      19.637  38.804  10.167  1.00  0.00    -0.387 OA
ATOM     41  H   UNL     1      19.875  38.331   9.353  1.00  0.00     0.211 HD
ENDBRANCH  15  40
ENDBRANCH   9  10
ENDBRANCH   8   9
ENDBRANCH   3   8
BRANCH   3  42
ATOM     42  C   UNL     1      21.141  38.918  13.905  1.00  0.00     0.364 C 
ATOM     43  O   UNL     1      20.253  38.064  13.787  1.00  0.00    -0.246 OA
BRANCH  42  44
ATOM     44  O   UNL     1      21.176  39.688  15.032  1.00  0.00    -0.477 OA
ATOM     45  H   UNL     1      20.927  40.676  15.041  1.00  0.00     0.296 HD
ENDBRANCH  42  44
ENDBRANCH   3  42
BRANCH   6  46
ATOM     46  O   UNL     1      25.375  38.783  11.876  1.00  0.00    -0.391 OA
ATOM     47  H   UNL     1      25.729  39.640  12.218  1.00  0.00     0.211 HD
ENDBRANCH   6  46
BRANCH   7  48
ATOM     48  N   UNL     1      23.857  36.132  13.593  1.00  0.00    -0.348 N 
ATOM     49  C   UNL     1      24.067  34.705  13.492  1.00  0.00     0.217 C 
ATOM     50  H   UNL     1      23.612  36.490  14.542  1.00  0.00     0.163 HD
ATOM     51  C   UNL     1      23.930  33.882  14.743  1.00  0.00     0.114 C 
ATOM     52  O   UNL     1      24.356  34.144  12.407  1.00  0.00    -0.275 OA
ENDBRANCH   7  48
ENDBRANCH   1   2
BRANCH   1  53
ATOM     53  O   UNL     1      22.138  37.927   9.449  1.00  0.00    -0.388 OA
ATOM     54  H   UNL     1      22.086  37.582   8.520  1.00  0.00     0.211 HD
ENDBRANCH   1  53
BRANCH   1  55
ATOM     55  C   UNL     1      23.296  35.932   9.370  1.00  0.00     0.165 C 
BRANCH  55  56
ATOM     56  O   UNL     1      24.417  36.261   8.490  1.00  0.00    -0.388 OA
ATOM     57  H   UNL     1      25.118  36.539   9.163  1.00  0.00     0.211 HD
ENDBRANCH  55  56
BRANCH  55  58
ATOM     58  C   UNL     1      22.182  35.718   8.404  1.00  0.00     0.154 C 
BRANCH  58  59
ATOM     59  N   UNL     1      21.139  34.920   8.942  1.00  0.00    -0.319 N 
ATOM     60  C   UNL     1      19.809  35.484   8.884  1.00  0.00     0.407 C 
ATOM     61  H   UNL     1      21.203  33.983   9.378  1.00  0.00     0.167 HD
ATOM     62  O   UNL     1      19.637  36.625   8.369  1.00  0.00    -0.225 OA
BRANCH  60  63
ATOM     63  O   UNL     1      18.692  34.843   9.371  1.00  0.00    -0.443 OA
BRANCH  63  64
ATOM     64  C   UNL     1      18.357  34.695  10.735  1.00  0.00     0.294 C 
BRANCH  64  65
ATOM     65  C   UNL     1      19.276  33.776  11.465  1.00  0.00     0.120 A 
ATOM     66  C   UNL     1      19.067  32.469  11.840  1.00  0.00     0.138 A 
ATOM     67  N   UNL     1      20.503  34.105  11.880  1.00  0.00    -0.132 NA
ATOM     68  N   UNL     1      20.189  32.026  12.487  1.00  0.00    -0.252 N 
ATOM     69  N   UNL     1      21.014  33.046  12.482  1.00  0.00    -0.067 NA
BRANCH  68  70
ATOM     70  C   UNL     1      20.400  30.750  13.062  1.00  0.00     0.150 C 
BRANCH  70  71
ATOM     71  C   UNL     1      20.908  29.712  12.154  1.00  0.00     0.022 C 
BRANCH  71  72
ATOM     72  C   UNL     1      20.032  28.542  11.901  1.00  0.00     0.128 C 
BRANCH  72  73
ATOM     73  C   UNL     1      19.382  27.928  13.066  1.00  0.00     0.303 C 
ATOM     74  O   UNL     1      18.125  27.897  13.125  1.00  0.00    -0.252 OA
BRANCH  73  75
ATOM     75  O   UNL     1      20.079  27.368  14.129  1.00  0.00    -0.481 OA
ATOM     76  H   UNL     1      19.830  27.599  15.079  1.00  0.00     0.296 HD
ENDBRANCH  73  75
ENDBRANCH  72  73
ENDBRANCH  71  72
BRANCH  71  77
ATOM     77  C   UNL     1      22.345  29.333  12.371  1.00  0.00     0.009 C 
BRANCH  77  78
ATOM     78  C   UNL     1      23.078  29.897  13.503  1.00  0.00    -0.017 C 
ATOM     79  C   UNL     1      23.286  29.063  14.716  1.00  0.00     0.007 C 
ATOM     80  C   UNL     1      24.406  30.533  13.138  1.00  0.00     0.007 C 
ENDBRANCH  77  78
ENDBRANCH  71  77
ENDBRANCH  70  71
ENDBRANCH  68  70
ENDBRANCH  64  65
ENDBRANCH  63  64
ENDBRANCH  60  63
ENDBRANCH  58  59
ENDBRANCH  55  58
ENDBRANCH   1  55
TORSDOF 36
BEGIN_RES LYS A 131
REMARK  4 active torsions:
REMARK  status: ('A' for Active; 'I' for Inactive)
REMARK    1  A    between atoms: CA   and  CB  
REMARK    2  A    between atoms: CB   and  CG  
REMARK    3  A    between atoms: CG   and  CD  
REMARK    4  A    between atoms: CD   and  CE  
ROOT
ATOM      1  CA  LYS A 131      29.867  25.555  16.977  1.00 20.52     0.186 C 
ENDROOT
BRANCH   1   2
ATOM      2  CB  LYS A 131      28.345  25.722  17.026  1.00 20.94     0.034 C 
BRANCH   2   3
ATOM      3  CG  LYS A 131      27.601  24.402  16.895  1.00 22.96     0.005 C 
BRANCH   3   4
ATOM      4  CD  LYS A 131      26.201  24.484  17.437  1.00 24.33     0.041 C 
BRANCH   4   5
ATOM      5  CE  LYS A 131      26.021  25.802  18.183  1.00 26.91     0.338 C 
ATOM      6  NZ  LYS A 131      24.809  26.508  17.704  1.00 27.40     0.618 N 
ENDBRANCH   4   5
ENDBRANCH   3   4
ENDBRANCH   2   3
ENDBRANCH   1   2
END_RES LYS A 131
BEGIN_RES LYS A 135
REMARK  4 active torsions:
REMARK  status: ('A' for Active; 'I' for Inactive)
REMARK    5  A    between atoms: CA   and  CB  
REMARK    6  A    between atoms: CB   and  CG  
REMARK    7  A    between atoms: CG   and  CD  
REMARK    8  A    between atoms: CD   and  CE  
ROOT
ATOM      7  CA  LYS A 135      33.193  34.663   9.290  1.00 25.02     0.186 C 
ENDROOT
BRANCH   7   8
ATOM      8  CB  LYS A 135      32.060  35.360  10.034  1.00 26.63     0.034 C 
BRANCH   8   9
ATOM      9  CG  LYS A 135      30.879  35.692   9.159  1.00 29.45     0.005 C 
BRANCH   9  10
ATOM     10  CD  LYS A 135      30.368  34.446   8.452  1.00 32.00     0.041 C 
BRANCH  10  11
ATOM     11  CE  LYS A 135      28.852  34.452   8.391  1.00 34.25     0.338 C 
ATOM     12  NZ  LYS A 135      28.266  33.729   9.554  1.00 35.99     0.618 N 
ENDBRANCH  10  11
ENDBRANCH   9  10
ENDBRANCH   8   9
ENDBRANCH   7   8
END_RES LYS A 135
