REMARK VINA RESULT:    -5.240      3.629      8.814
REMARK INTER + INTRA:         -23.395
REMARK INTER:                 -12.473
REMARK INTRA:                 -10.921
REMARK UNBOUND:                -9.883
REMARK SMILES CC(=O)N[C@@H]1[C@@H](O)C[C@](OC[C@H]2O[C@@H](O[C@H]3[C@H](O)[C@@H](O)[C@H](OCCN=[N+]=[N-])O[C@@H]3CO)[C@H](O)[C@@H](O)[C@H]2O)(C(=O)O)O[C@H]1C(O)[C@H](O)CNC(=O)OCc1cn(C(c2ccccc2)c2ccccc2)nn1
REMARK SMILES IDX 9 1 8 2 6 3 5 4 42 5 41 6 10 7 11 8 12 9 14 10 13 11 32 12
REMARK SMILES IDX 34 13 36 14 15 15 16 16 29 17 28 18 21 19 17 20 19 21 30 22
REMARK SMILES IDX 31 23 22 25 23 26 24 27 25 28 26 29 27 30 18 31 20 33 33 35
REMARK SMILES IDX 35 37 37 39 38 41 39 42 40 43 7 45 43 47 44 48 45 50 46 51
REMARK SMILES IDX 47 53 48 54 49 55 50 57 51 58 52 59 53 60 54 61 70 62 55 63
REMARK SMILES IDX 69 64 56 65 57 66 58 67 62 68 59 69 61 70 60 71 63 72 64 73
REMARK SMILES IDX 68 74 65 75 67 76 66 77 4 78 2 79 1 81 3 82
REMARK H PARENT 31 24 18 32 20 34 33 36 35 38 37 40 40 44 7 46 44 49 46 52
REMARK H PARENT 48 56 4 80
REMARK Flexibility Score: inf
ROOT
ATOM      1  C   UNL     1      24.371  38.351   8.865  1.00  0.00     0.272 C 
ATOM      2  C   UNL     1      25.067  37.623   7.696  1.00  0.00     0.113 C 
ATOM      3  C   UNL     1      26.258  38.381   7.271  1.00  0.00     0.145 C 
ATOM      4  C   UNL     1      27.208  38.537   8.432  1.00  0.00     0.142 C 
ATOM      5  C   UNL     1      26.552  38.389   9.756  1.00  0.00     0.178 C 
ATOM      6  O   UNL     1      25.239  38.728   9.817  1.00  0.00    -0.332 OA
ENDROOT
BRANCH   1   7
ATOM      7  O   UNL     1      23.433  37.460   9.413  1.00  0.00    -0.338 OA
BRANCH   7   8
ATOM      8  C   UNL     1      23.480  36.236   8.798  1.00  0.00     0.199 C 
BRANCH   8   9
ATOM      9  C   UNL     1      22.171  35.462   8.942  1.00  0.00     0.179 C 
ATOM     10  C   UNL     1      20.885  36.049  10.863  1.00  0.00     0.282 C 
ATOM     11  O   UNL     1      21.809  35.335  10.190  1.00  0.00    -0.341 OA
ATOM     12  C   UNL     1      20.276  37.143  10.126  1.00  0.00     0.202 C 
ATOM     13  C   UNL     1      20.144  36.922   8.659  1.00  0.00     0.179 C 
ATOM     14  C   UNL     1      21.107  36.003   8.014  1.00  0.00     0.177 C 
BRANCH  10  15
ATOM     15  O   UNL     1      21.575  36.432  12.054  1.00  0.00    -0.341 OA
BRANCH  15  16
ATOM     16  C   UNL     1      21.593  35.428  12.975  1.00  0.00     0.184 C 
ATOM     17  C   UNL     1      21.059  35.864  14.293  1.00  0.00     0.178 C 
ATOM     18  O   UNL     1      20.892  34.760  15.139  1.00  0.00    -0.341 OA
ATOM     19  C   UNL     1      22.114  34.295  15.544  1.00  0.00     0.281 C 
ATOM     20  C   UNL     1      23.011  34.933  13.233  1.00  0.00     0.180 C 
ATOM     21  C   UNL     1      23.238  34.684  14.672  1.00  0.00     0.202 C 
BRANCH  17  22
ATOM     22  C   UNL     1      19.790  36.690  14.226  1.00  0.00     0.191 C 
BRANCH  22  23
ATOM     23  O   UNL     1      18.873  36.048  13.400  1.00  0.00    -0.394 OA
ATOM     24  H   UNL     1      19.218  35.233  12.979  1.00  0.00     0.210 HD
ENDBRANCH  22  23
ENDBRANCH  17  22
BRANCH  19  25
ATOM     25  O   UNL     1      22.087  32.914  15.798  1.00  0.00    -0.350 OA
BRANCH  25  26
ATOM     26  C   UNL     1      20.986  32.261  15.326  1.00  0.00     0.169 C 
BRANCH  26  27
ATOM     27  C   UNL     1      21.349  31.498  14.074  1.00  0.00     0.119 C 
BRANCH  27  28
ATOM     28  N   UNL     1      22.764  31.137  14.052  1.00  0.00    -0.092 NA
ATOM     29  N   UNL     1      23.232  30.375  13.215  1.00  0.00     0.001 N 
ATOM     30  N   UNL     1      23.528  29.366  12.563  1.00  0.00    -0.003 NA
ENDBRANCH  27  28
ENDBRANCH  26  27
ENDBRANCH  25  26
ENDBRANCH  19  25
BRANCH  20  31
ATOM     31  O   UNL     1      23.212  33.825  12.409  1.00  0.00    -0.387 OA
ATOM     32  H   UNL     1      23.813  33.156  12.836  1.00  0.00     0.211 HD
ENDBRANCH  20  31
BRANCH  21  33
ATOM     33  O   UNL     1      23.883  35.836  15.212  1.00  0.00    -0.385 OA
ATOM     34  H   UNL     1      23.151  36.373  15.625  1.00  0.00     0.211 HD
ENDBRANCH  21  33
ENDBRANCH  15  16
ENDBRANCH  10  15
BRANCH  12  35
ATOM     35  O   UNL     1      18.970  37.466  10.575  1.00  0.00    -0.385 OA
ATOM     36  H   UNL     1      19.099  37.971  11.413  1.00  0.00     0.211 HD
ENDBRANCH  12  35
BRANCH  13  37
ATOM     37  O   UNL     1      20.165  38.154   7.954  1.00  0.00    -0.387 OA
ATOM     38  H   UNL     1      19.232  38.459   7.805  1.00  0.00     0.211 HD
ENDBRANCH  13  37
BRANCH  14  39
ATOM     39  O   UNL     1      21.799  36.691   7.005  1.00  0.00    -0.387 OA
ATOM     40  H   UNL     1      21.348  37.532   6.756  1.00  0.00     0.211 HD
ENDBRANCH  14  39
ENDBRANCH   8   9
ENDBRANCH   7   8
ENDBRANCH   1   7
BRANCH   1  41
ATOM     41  C   UNL     1      23.663  39.476   8.254  1.00  0.00     0.364 C 
ATOM     42  O   UNL     1      23.875  40.647   8.623  1.00  0.00    -0.246 OA
BRANCH  41  43
ATOM     43  O   UNL     1      22.719  39.303   7.238  1.00  0.00    -0.477 OA
ATOM     44  H   UNL     1      21.749  39.126   7.454  1.00  0.00     0.296 HD
ENDBRANCH  41  43
ENDBRANCH   1  41
BRANCH   3  45
ATOM     45  O   UNL     1      26.882  37.635   6.248  1.00  0.00    -0.391 OA
ATOM     46  H   UNL     1      27.394  38.228   5.644  1.00  0.00     0.211 HD
ENDBRANCH   3  45
BRANCH   5  47
ATOM     47  C   UNL     1      26.780  37.095  10.483  1.00  0.00     0.176 C 
BRANCH  47  48
ATOM     48  O   UNL     1      25.800  37.038  11.496  1.00  0.00    -0.388 OA
ATOM     49  H   UNL     1      26.062  36.487  12.254  1.00  0.00     0.211 HD
ENDBRANCH  47  48
BRANCH  47  50
ATOM     50  C   UNL     1      28.110  36.925  11.123  1.00  0.00     0.165 C 
BRANCH  50  51
ATOM     51  O   UNL     1      28.004  35.859  12.010  1.00  0.00    -0.388 OA
ATOM     52  H   UNL     1      28.840  35.332  12.084  1.00  0.00     0.211 HD
ENDBRANCH  50  51
BRANCH  50  53
ATOM     53  C   UNL     1      28.656  38.114  11.833  1.00  0.00     0.154 C 
BRANCH  53  54
ATOM     54  N   UNL     1      28.600  38.083  13.259  1.00  0.00    -0.319 N 
ATOM     55  C   UNL     1      27.550  38.491  14.087  1.00  0.00     0.407 C 
ATOM     56  H   UNL     1      29.463  37.703  13.766  1.00  0.00     0.167 HD
ATOM     57  O   UNL     1      26.515  38.959  13.598  1.00  0.00    -0.225 OA
BRANCH  55  58
ATOM     58  O   UNL     1      27.637  38.384  15.473  1.00  0.00    -0.443 OA
BRANCH  58  59
ATOM     59  C   UNL     1      26.981  37.298  16.146  1.00  0.00     0.294 C 
BRANCH  59  60
ATOM     60  C   UNL     1      27.469  36.022  15.564  1.00  0.00     0.120 A 
ATOM     61  C   UNL     1      28.734  35.544  15.751  1.00  0.00     0.139 A 
ATOM     62  N   UNL     1      26.767  35.186  14.805  1.00  0.00    -0.132 NA
ATOM     63  N   UNL     1      28.783  34.382  15.078  1.00  0.00    -0.240 N 
ATOM     64  N   UNL     1      27.588  34.177  14.512  1.00  0.00    -0.066 NA
BRANCH  63  65
ATOM     65  C   UNL     1      29.877  33.443  14.943  1.00  0.00     0.169 C 
BRANCH  65  66
ATOM     66  C   UNL     1      30.068  32.780  16.239  1.00  0.00    -0.019 A 
ATOM     67  C   UNL     1      30.476  33.502  17.343  1.00  0.00     0.006 A 
ATOM     68  C   UNL     1      29.873  31.429  16.425  1.00  0.00     0.006 A 
ATOM     69  C   UNL     1      30.678  32.892  18.574  1.00  0.00     0.000 A 
ATOM     70  C   UNL     1      30.073  30.807  17.655  1.00  0.00     0.000 A 
ATOM     71  C   UNL     1      30.481  31.545  18.748  1.00  0.00     0.000 A 
ENDBRANCH  65  66
BRANCH  65  72
ATOM     72  C   UNL     1      31.075  34.118  14.405  1.00  0.00    -0.019 A 
ATOM     73  C   UNL     1      30.934  34.785  13.194  1.00  0.00     0.006 A 
ATOM     74  C   UNL     1      32.307  34.110  14.992  1.00  0.00     0.006 A 
ATOM     75  C   UNL     1      32.004  35.415  12.615  1.00  0.00     0.000 A 
ATOM     76  C   UNL     1      33.392  34.744  14.414  1.00  0.00     0.000 A 
ATOM     77  C   UNL     1      33.245  35.400  13.219  1.00  0.00     0.000 A 
ENDBRANCH  65  72
ENDBRANCH  63  65
ENDBRANCH  59  60
ENDBRANCH  58  59
ENDBRANCH  55  58
ENDBRANCH  53  54
ENDBRANCH  50  53
ENDBRANCH  47  50
ENDBRANCH   5  47
BRANCH   4  78
ATOM     78  N   UNL     1      27.751  39.902   8.291  1.00  0.00    -0.348 N 
ATOM     79  C   UNL     1      28.910  40.181   7.516  1.00  0.00     0.217 C 
ATOM     80  H   UNL     1      27.294  40.722   8.763  1.00  0.00     0.163 HD
ATOM     81  C   UNL     1      29.437  41.583   7.388  1.00  0.00     0.114 C 
ATOM     82  O   UNL     1      29.523  39.273   6.916  1.00  0.00    -0.275 OA
ENDBRANCH   4  78
TORSDOF 32
BEGIN_RES LYS A 131
REMARK  4 active torsions:
REMARK  status: ('A' for Active; 'I' for Inactive)
REMARK    1  A    between atoms: CA   and  CB  
REMARK    2  A    between atoms: CB   and  CG  
REMARK    3  A    between atoms: CG   and  CD  
REMARK    4  A    between atoms: CD   and  CE  
ROOT
ATOM      1  CA  LYS A 131      29.867  25.555  16.977  1.00 20.52     0.186 C 
ENDROOT
BRANCH   1   2
ATOM      2  CB  LYS A 131      28.345  25.722  17.026  1.00 20.94     0.034 C 
BRANCH   2   3
ATOM      3  CG  LYS A 131      27.599  24.470  16.592  1.00 22.96     0.005 C 
BRANCH   3   4
ATOM      4  CD  LYS A 131      27.013  23.726  17.760  1.00 24.33     0.041 C 
BRANCH   4   5
ATOM      5  CE  LYS A 131      25.543  23.425  17.486  1.00 26.91     0.338 C 
ATOM      6  NZ  LYS A 131      24.795  24.678  17.232  1.00 27.40     0.618 N 
ENDBRANCH   4   5
ENDBRANCH   3   4
ENDBRANCH   2   3
ENDBRANCH   1   2
END_RES LYS A 131
BEGIN_RES LYS A 135
REMARK  4 active torsions:
REMARK  status: ('A' for Active; 'I' for Inactive)
REMARK    5  A    between atoms: CA   and  CB  
REMARK    6  A    between atoms: CB   and  CG  
REMARK    7  A    between atoms: CG   and  CD  
REMARK    8  A    between atoms: CD   and  CE  
ROOT
ATOM      7  CA  LYS A 135      33.193  34.663   9.290  1.00 25.02     0.186 C 
ENDROOT
BRANCH   7   8
ATOM      8  CB  LYS A 135      32.060  35.360  10.034  1.00 26.63     0.034 C 
BRANCH   8   9
ATOM      9  CG  LYS A 135      30.806  35.516   9.213  1.00 29.45     0.005 C 
BRANCH   9  10
ATOM     10  CD  LYS A 135      30.087  34.183   9.073  1.00 32.00     0.041 C 
BRANCH  10  11
ATOM     11  CE  LYS A 135      28.670  34.393   8.574  1.00 34.25     0.338 C 
ATOM     12  NZ  LYS A 135      27.688  33.676   9.433  1.00 35.99     0.618 N 
ENDBRANCH  10  11
ENDBRANCH   9  10
ENDBRANCH   8   9
ENDBRANCH   7   8
END_RES LYS A 135
