REMARK VINA RESULT:    -5.494      3.782      9.209
REMARK INTER + INTRA:         -24.943
REMARK INTER:                 -14.879
REMARK INTRA:                 -10.064
REMARK UNBOUND:               -10.617
REMARK SMILES CC(=O)N[C@@H]1[C@@H](O)C[C@](OC[C@H]2O[C@@H](O[C@H]3[C@H](O)[C@@H](O)[C@H](OCCN=[N+]=[N-])O[C@@H]3CO)[C@H](O)[C@@H](O)[C@H]2O)(C(=O)O)O[C@H]1C(O)[C@H](O)CNC(=O)OCc1cn(-c2ccc(S(=O)(=O)c3ccc(N)cc3)cc2)nn1
REMARK SMILES IDX 43 1 42 2 9 3 8 4 41 5 6 6 5 7 10 8 11 9 12 10 14 11 13 12
REMARK SMILES IDX 32 13 34 14 36 15 15 16 16 17 29 18 28 19 21 20 17 21 19 22
REMARK SMILES IDX 30 23 31 24 22 26 23 27 24 28 25 29 26 30 27 31 18 32 20 34
REMARK SMILES IDX 33 36 35 38 37 40 38 42 39 43 40 44 7 46 4 48 2 49 1 51 3 52
REMARK SMILES IDX 44 53 45 55 46 56 47 58 48 59 49 60 50 62 51 63 52 64 53 65
REMARK SMILES IDX 54 66 73 67 55 68 72 69 56 70 57 71 71 72 58 73 70 74 59 75
REMARK SMILES IDX 60 76 61 77 62 78 63 79 64 80 69 81 65 82 68 83 66 84 67 85
REMARK H PARENT 31 25 18 33 20 35 33 37 35 39 37 41 40 45 7 47 4 50 44 54
REMARK H PARENT 46 57 48 61 67 86 67 87
REMARK Flexibility Score: inf
ROOT
ATOM      1  C   UNL     1      28.760  35.632  16.395  1.00  0.00     0.176 C 
ENDROOT
BRANCH   1   2
ATOM      2  C   UNL     1      29.605  34.446  16.860  1.00  0.00     0.178 C 
ATOM      3  C   UNL     1      29.684  32.682  18.353  1.00  0.00     0.272 C 
ATOM      4  C   UNL     1      31.111  32.993  18.671  1.00  0.00     0.113 C 
ATOM      5  O   UNL     1      29.007  33.836  17.921  1.00  0.00    -0.332 OA
ATOM      6  C   UNL     1      31.304  34.499  18.598  1.00  0.00     0.145 C 
ATOM      7  C   UNL     1      31.016  34.947  17.206  1.00  0.00     0.142 C 
BRANCH   3   8
ATOM      8  O   UNL     1      28.924  32.229  19.436  1.00  0.00    -0.338 OA
BRANCH   8   9
ATOM      9  C   UNL     1      29.619  31.744  20.503  1.00  0.00     0.199 C 
BRANCH   9  10
ATOM     10  C   UNL     1      29.143  30.344  20.818  1.00  0.00     0.179 C 
ATOM     11  C   UNL     1      27.538  28.791  20.342  1.00  0.00     0.282 C 
ATOM     12  O   UNL     1      28.089  30.039  19.949  1.00  0.00    -0.341 OA
ATOM     13  C   UNL     1      28.555  27.763  19.936  1.00  0.00     0.202 C 
ATOM     14  C   UNL     1      29.793  27.937  20.786  1.00  0.00     0.179 C 
ATOM     15  C   UNL     1      30.268  29.377  20.687  1.00  0.00     0.177 C 
BRANCH  11  16
ATOM     16  O   UNL     1      26.308  28.673  19.749  1.00  0.00    -0.341 OA
BRANCH  16  17
ATOM     17  C   UNL     1      26.166  29.608  18.697  1.00  0.00     0.184 C 
ATOM     18  C   UNL     1      24.848  30.295  18.870  1.00  0.00     0.178 C 
ATOM     19  O   UNL     1      24.027  30.279  17.774  1.00  0.00    -0.341 OA
ATOM     20  C   UNL     1      23.806  29.077  17.168  1.00  0.00     0.281 C 
ATOM     21  C   UNL     1      26.199  28.762  17.431  1.00  0.00     0.180 C 
ATOM     22  C   UNL     1      24.871  28.032  17.406  1.00  0.00     0.202 C 
BRANCH  18  23
ATOM     23  C   UNL     1      25.182  31.779  19.118  1.00  0.00     0.191 C 
BRANCH  23  24
ATOM     24  O   UNL     1      26.266  32.208  18.393  1.00  0.00    -0.394 OA
ATOM     25  H   UNL     1      26.800  32.919  18.827  1.00  0.00     0.210 HD
ENDBRANCH  23  24
ENDBRANCH  18  23
BRANCH  20  26
ATOM     26  O   UNL     1      23.765  29.298  15.796  1.00  0.00    -0.350 OA
BRANCH  26  27
ATOM     27  C   UNL     1      22.950  28.456  15.090  1.00  0.00     0.169 C 
BRANCH  27  28
ATOM     28  C   UNL     1      21.511  28.746  15.359  1.00  0.00     0.119 C 
BRANCH  28  29
ATOM     29  N   UNL     1      20.692  28.251  14.240  1.00  0.00    -0.092 NA
ATOM     30  N   UNL     1      20.668  28.843  13.162  1.00  0.00     0.001 N 
ATOM     31  N   UNL     1      20.962  29.140  11.991  1.00  0.00    -0.003 NA
ENDBRANCH  28  29
ENDBRANCH  27  28
ENDBRANCH  26  27
ENDBRANCH  20  26
BRANCH  21  32
ATOM     32  O   UNL     1      26.290  29.568  16.321  1.00  0.00    -0.387 OA
ATOM     33  H   UNL     1      25.384  29.827  16.001  1.00  0.00     0.211 HD
ENDBRANCH  21  32
BRANCH  22  34
ATOM     34  O   UNL     1      24.658  27.276  18.535  1.00  0.00    -0.385 OA
ATOM     35  H   UNL     1      24.097  26.474  18.365  1.00  0.00     0.211 HD
ENDBRANCH  22  34
ENDBRANCH  16  17
ENDBRANCH  11  16
BRANCH  13  36
ATOM     36  O   UNL     1      28.060  26.462  20.009  1.00  0.00    -0.385 OA
ATOM     37  H   UNL     1      28.671  25.896  19.438  1.00  0.00     0.211 HD
ENDBRANCH  13  36
BRANCH  14  38
ATOM     38  O   UNL     1      30.821  27.163  20.230  1.00  0.00    -0.387 OA
ATOM     39  H   UNL     1      31.492  26.956  20.907  1.00  0.00     0.211 HD
ENDBRANCH  14  38
BRANCH  15  40
ATOM     40  O   UNL     1      30.996  29.579  19.523  1.00  0.00    -0.387 OA
ATOM     41  H   UNL     1      31.960  29.496  19.704  1.00  0.00     0.211 HD
ENDBRANCH  15  40
ENDBRANCH   9  10
ENDBRANCH   8   9
ENDBRANCH   3   8
BRANCH   3  42
ATOM     42  C   UNL     1      29.523  31.662  17.282  1.00  0.00     0.364 C 
ATOM     43  O   UNL     1      28.439  31.341  16.742  1.00  0.00    -0.246 OA
BRANCH  42  44
ATOM     44  O   UNL     1      30.645  30.993  16.823  1.00  0.00    -0.477 OA
ATOM     45  H   UNL     1      30.571  30.090  16.328  1.00  0.00     0.296 HD
ENDBRANCH  42  44
ENDBRANCH   3  42
BRANCH   6  46
ATOM     46  O   UNL     1      30.326  35.051  19.432  1.00  0.00    -0.391 OA
ATOM     47  H   UNL     1      29.630  35.539  18.913  1.00  0.00     0.211 HD
ENDBRANCH   6  46
BRANCH   7  48
ATOM     48  N   UNL     1      31.946  34.512  16.212  1.00  0.00    -0.348 N 
ATOM     49  C   UNL     1      32.662  35.385  15.345  1.00  0.00     0.217 C 
ATOM     50  H   UNL     1      32.129  33.485  16.103  1.00  0.00     0.163 HD
ATOM     51  C   UNL     1      33.604  34.811  14.352  1.00  0.00     0.114 C 
ATOM     52  O   UNL     1      32.468  36.602  15.457  1.00  0.00    -0.275 OA
ENDBRANCH   7  48
ENDBRANCH   1   2
BRANCH   1  53
ATOM     53  O   UNL     1      29.434  36.383  15.446  1.00  0.00    -0.388 OA
ATOM     54  H   UNL     1      29.024  36.244  14.541  1.00  0.00     0.211 HD
ENDBRANCH   1  53
BRANCH   1  55
ATOM     55  C   UNL     1      27.388  35.238  16.002  1.00  0.00     0.165 C 
BRANCH  55  56
ATOM     56  O   UNL     1      26.631  34.870  17.117  1.00  0.00    -0.388 OA
ATOM     57  H   UNL     1      27.159  34.648  17.900  1.00  0.00     0.211 HD
ENDBRANCH  55  56
BRANCH  55  58
ATOM     58  C   UNL     1      27.403  34.026  15.097  1.00  0.00     0.154 C 
BRANCH  58  59
ATOM     59  N   UNL     1      26.272  33.951  14.215  1.00  0.00    -0.319 N 
ATOM     60  C   UNL     1      25.212  33.067  14.539  1.00  0.00     0.407 C 
ATOM     61  H   UNL     1      26.213  34.523  13.358  1.00  0.00     0.167 HD
ATOM     62  O   UNL     1      25.298  32.383  15.600  1.00  0.00    -0.225 OA
BRANCH  60  63
ATOM     63  O   UNL     1      24.081  32.891  13.775  1.00  0.00    -0.443 OA
BRANCH  63  64
ATOM     64  C   UNL     1      23.135  33.903  13.506  1.00  0.00     0.294 C 
BRANCH  64  65
ATOM     65  C   UNL     1      23.410  34.460  12.158  1.00  0.00     0.121 A 
ATOM     66  C   UNL     1      24.609  34.743  11.536  1.00  0.00     0.144 A 
ATOM     67  N   UNL     1      22.456  34.792  11.231  1.00  0.00    -0.131 NA
ATOM     68  N   UNL     1      24.356  35.225  10.280  1.00  0.00    -0.220 N 
ATOM     69  N   UNL     1      23.053  35.235  10.147  1.00  0.00    -0.062 NA
BRANCH  68  70
ATOM     70  C   UNL     1      25.287  35.623   9.298  1.00  0.00     0.066 A 
ATOM     71  C   UNL     1      25.191  36.882   8.697  1.00  0.00     0.030 A 
ATOM     72  C   UNL     1      26.320  34.826   8.874  1.00  0.00     0.030 A 
ATOM     73  C   UNL     1      26.071  37.316   7.737  1.00  0.00     0.023 A 
ATOM     74  C   UNL     1      27.218  35.261   7.897  1.00  0.00     0.023 A 
ATOM     75  C   UNL     1      27.104  36.506   7.320  1.00  0.00     0.072 A 
BRANCH  75  76
ATOM     76  S   UNL     1      28.234  37.051   6.099  1.00  0.00     0.206 S 
ATOM     77  O   UNL     1      27.466  37.858   5.065  1.00  0.00    -0.219 OA
ATOM     78  O   UNL     1      28.997  35.935   5.468  1.00  0.00    -0.219 OA
BRANCH  76  79
ATOM     79  C   UNL     1      29.359  38.190   6.840  1.00  0.00     0.072 A 
ATOM     80  C   UNL     1      29.884  39.219   6.107  1.00  0.00     0.023 A 
ATOM     81  C   UNL     1      29.723  38.059   8.160  1.00  0.00     0.023 A 
ATOM     82  C   UNL     1      30.755  40.093   6.690  1.00  0.00     0.027 A 
ATOM     83  C   UNL     1      30.600  38.945   8.732  1.00  0.00     0.027 A 
ATOM     84  C   UNL     1      31.141  39.981   8.025  1.00  0.00     0.031 A 
BRANCH  84  85
ATOM     85  N   UNL     1      32.046  40.907   8.587  1.00  0.00    -0.399 N 
ATOM     86  H   UNL     1      32.141  41.859   8.209  1.00  0.00     0.156 HD
ATOM     87  H   UNL     1      32.627  40.626   9.396  1.00  0.00     0.156 HD
ENDBRANCH  84  85
ENDBRANCH  76  79
ENDBRANCH  75  76
ENDBRANCH  68  70
ENDBRANCH  64  65
ENDBRANCH  63  64
ENDBRANCH  60  63
ENDBRANCH  58  59
ENDBRANCH  55  58
ENDBRANCH   1  55
TORSDOF 33
BEGIN_RES LYS A 131
REMARK  4 active torsions:
REMARK  status: ('A' for Active; 'I' for Inactive)
REMARK    1  A    between atoms: CA   and  CB  
REMARK    2  A    between atoms: CB   and  CG  
REMARK    3  A    between atoms: CG   and  CD  
REMARK    4  A    between atoms: CD   and  CE  
ROOT
ATOM      1  CA  LYS A 131      29.867  25.555  16.977  1.00 20.52     0.186 C 
ENDROOT
BRANCH   1   2
ATOM      2  CB  LYS A 131      28.345  25.722  17.026  1.00 20.94     0.034 C 
BRANCH   2   3
ATOM      3  CG  LYS A 131      27.602  24.398  16.936  1.00 22.96     0.005 C 
BRANCH   3   4
ATOM      4  CD  LYS A 131      26.518  24.285  17.971  1.00 24.33     0.041 C 
BRANCH   4   5
ATOM      5  CE  LYS A 131      25.231  23.803  17.310  1.00 26.91     0.338 C 
ATOM      6  NZ  LYS A 131      25.077  22.338  17.480  1.00 27.40     0.618 N 
ENDBRANCH   4   5
ENDBRANCH   3   4
ENDBRANCH   2   3
ENDBRANCH   1   2
END_RES LYS A 131
BEGIN_RES LYS A 135
REMARK  4 active torsions:
REMARK  status: ('A' for Active; 'I' for Inactive)
REMARK    5  A    between atoms: CA   and  CB  
REMARK    6  A    between atoms: CB   and  CG  
REMARK    7  A    between atoms: CG   and  CD  
REMARK    8  A    between atoms: CD   and  CE  
ROOT
ATOM      7  CA  LYS A 135      33.193  34.663   9.290  1.00 25.02     0.186 C 
ENDROOT
BRANCH   7   8
ATOM      8  CB  LYS A 135      32.060  35.360  10.034  1.00 26.63     0.034 C 
BRANCH   8   9
ATOM      9  CG  LYS A 135      30.688  34.921   9.591  1.00 29.45     0.005 C 
BRANCH   9  10
ATOM     10  CD  LYS A 135      29.732  34.872  10.773  1.00 32.00     0.041 C 
BRANCH  10  11
ATOM     11  CE  LYS A 135      30.465  35.185  12.063  1.00 34.25     0.338 C 
ATOM     12  NZ  LYS A 135      30.219  34.132  13.088  1.00 35.99     0.618 N 
ENDBRANCH  10  11
ENDBRANCH   9  10
ENDBRANCH   8   9
ENDBRANCH   7   8
END_RES LYS A 135
