REMARK VINA RESULT:    -3.828      4.263      8.112
REMARK INTER + INTRA:         -21.494
REMARK INTER:                  -9.204
REMARK INTRA:                 -12.290
REMARK UNBOUND:               -12.070
REMARK SMILES CC(=O)N[C@@H]1[C@@H](O)C[C@](OC[C@H]2O[C@@H](O[C@H]3[C@H](O)[C@@H](O)[C@H](OCCN=[N+]=[N-])O[C@@H]3CO)[C@H](O)[C@@H](O)[C@H]2O)(C(=O)O)O[C@H]1C(O)[C@H](O)CNC(=O)OCc1cn(-c2ccccc2I)nn1
REMARK SMILES IDX 9 1 8 2 6 3 5 4 42 5 41 6 10 7 11 8 12 9 14 10 13 11 32 12
REMARK SMILES IDX 34 13 36 14 15 15 16 16 29 17 28 18 21 19 17 20 19 21 30 22
REMARK SMILES IDX 31 23 22 25 23 26 24 27 25 28 26 29 27 30 18 31 20 33 33 35
REMARK SMILES IDX 35 37 37 39 38 41 39 42 40 43 7 45 43 47 44 48 45 50 46 51
REMARK SMILES IDX 47 53 48 54 49 55 50 57 51 58 52 59 53 60 54 61 64 62 55 63
REMARK SMILES IDX 63 64 56 65 57 66 61 67 58 68 60 69 62 70 59 71 4 72 2 73
REMARK SMILES IDX 1 75 3 76
REMARK H PARENT 31 24 18 32 20 34 33 36 35 38 37 40 40 44 7 46 44 49 46 52
REMARK H PARENT 48 56 4 74
REMARK Flexibility Score: inf
ROOT
ATOM      1  C   UNL     1      29.126  32.493  16.009  1.00  0.00     0.272 C 
ATOM      2  C   UNL     1      27.976  32.301  15.060  1.00  0.00     0.113 C 
ATOM      3  C   UNL     1      26.802  33.229  15.414  1.00  0.00     0.145 C 
ATOM      4  C   UNL     1      26.328  32.751  16.817  1.00  0.00     0.142 C 
ATOM      5  C   UNL     1      27.524  32.690  17.726  1.00  0.00     0.178 C 
ATOM      6  O   UNL     1      28.597  33.305  17.068  1.00  0.00    -0.332 OA
ENDROOT
BRANCH   1   7
ATOM      7  O   UNL     1      30.196  33.213  15.580  1.00  0.00    -0.338 OA
BRANCH   7   8
ATOM      8  C   UNL     1      30.367  33.817  14.442  1.00  0.00     0.199 C 
BRANCH   8   9
ATOM      9  C   UNL     1      31.277  34.972  14.301  1.00  0.00     0.179 C 
ATOM     10  C   UNL     1      30.173  36.787  13.462  1.00  0.00     0.282 C 
ATOM     11  O   UNL     1      31.103  35.807  13.249  1.00  0.00    -0.341 OA
ATOM     12  C   UNL     1      30.738  37.881  14.359  1.00  0.00     0.202 C 
ATOM     13  C   UNL     1      31.757  37.223  15.319  1.00  0.00     0.179 C 
ATOM     14  C   UNL     1      31.267  35.818  15.610  1.00  0.00     0.177 C 
BRANCH  10  15
ATOM     15  O   UNL     1      28.889  36.419  13.708  1.00  0.00    -0.341 OA
BRANCH  15  16
ATOM     16  C   UNL     1      27.947  36.871  12.813  1.00  0.00     0.184 C 
ATOM     17  C   UNL     1      26.945  37.854  13.356  1.00  0.00     0.178 C 
ATOM     18  O   UNL     1      25.779  37.829  12.594  1.00  0.00    -0.341 OA
ATOM     19  C   UNL     1      25.988  37.465  11.259  1.00  0.00     0.281 C 
ATOM     20  C   UNL     1      27.077  35.646  12.453  1.00  0.00     0.180 C 
ATOM     21  C   UNL     1      26.416  36.026  11.134  1.00  0.00     0.202 C 
BRANCH  17  22
ATOM     22  C   UNL     1      27.465  39.239  13.567  1.00  0.00     0.191 C 
BRANCH  22  23
ATOM     23  O   UNL     1      28.455  39.454  12.601  1.00  0.00    -0.394 OA
ATOM     24  H   UNL     1      28.001  39.727  11.758  1.00  0.00     0.210 HD
ENDBRANCH  22  23
ENDBRANCH  17  22
BRANCH  19  25
ATOM     25  O   UNL     1      26.778  38.345  10.586  1.00  0.00    -0.350 OA
BRANCH  25  26
ATOM     26  C   UNL     1      26.128  38.977   9.572  1.00  0.00     0.169 C 
BRANCH  26  27
ATOM     27  C   UNL     1      26.086  38.283   8.248  1.00  0.00     0.119 C 
BRANCH  27  28
ATOM     28  N   UNL     1      24.783  37.973   7.731  1.00  0.00    -0.092 NA
ATOM     29  N   UNL     1      24.116  37.138   8.368  1.00  0.00     0.001 N 
ATOM     30  N   UNL     1      23.325  36.295   8.792  1.00  0.00    -0.003 NA
ENDBRANCH  27  28
ENDBRANCH  26  27
ENDBRANCH  25  26
ENDBRANCH  19  25
BRANCH  20  31
ATOM     31  O   UNL     1      27.857  34.513  12.321  1.00  0.00    -0.387 OA
ATOM     32  H   UNL     1      27.452  33.816  12.902  1.00  0.00     0.211 HD
ENDBRANCH  20  31
BRANCH  21  33
ATOM     33  O   UNL     1      25.365  35.162  10.834  1.00  0.00    -0.385 OA
ATOM     34  H   UNL     1      25.055  35.366   9.893  1.00  0.00     0.211 HD
ENDBRANCH  21  33
ENDBRANCH  15  16
ENDBRANCH  10  15
BRANCH  12  35
ATOM     35  O   UNL     1      31.458  38.837  13.656  1.00  0.00    -0.385 OA
ATOM     36  H   UNL     1      31.868  38.372  12.880  1.00  0.00     0.211 HD
ENDBRANCH  12  35
BRANCH  13  37
ATOM     37  O   UNL     1      31.979  37.937  16.454  1.00  0.00    -0.387 OA
ATOM     38  H   UNL     1      32.762  37.639  17.010  1.00  0.00     0.211 HD
ENDBRANCH  13  37
BRANCH  14  39
ATOM     39  O   UNL     1      29.944  35.877  16.012  1.00  0.00    -0.387 OA
ATOM     40  H   UNL     1      29.678  36.839  16.154  1.00  0.00     0.211 HD
ENDBRANCH  14  39
ENDBRANCH   8   9
ENDBRANCH   7   8
ENDBRANCH   1   7
BRANCH   1  41
ATOM     41  C   UNL     1      29.520  31.199  16.595  1.00  0.00     0.364 C 
ATOM     42  O   UNL     1      30.391  31.046  17.469  1.00  0.00    -0.246 OA
BRANCH  41  43
ATOM     43  O   UNL     1      28.900  30.003  16.172  1.00  0.00    -0.477 OA
ATOM     44  H   UNL     1      29.312  29.478  15.387  1.00  0.00     0.296 HD
ENDBRANCH  41  43
ENDBRANCH   1  41
BRANCH   3  45
ATOM     45  O   UNL     1      27.173  34.555  15.450  1.00  0.00    -0.391 OA
ATOM     46  H   UNL     1      26.803  35.038  14.672  1.00  0.00     0.211 HD
ENDBRANCH   3  45
BRANCH   5  47
ATOM     47  C   UNL     1      27.290  33.627  18.941  1.00  0.00     0.176 C 
BRANCH  47  48
ATOM     48  O   UNL     1      25.864  33.568  19.188  1.00  0.00    -0.388 OA
ATOM     49  H   UNL     1      25.560  32.738  18.710  1.00  0.00     0.211 HD
ENDBRANCH  47  48
BRANCH  47  50
ATOM     50  C   UNL     1      27.484  35.069  18.580  1.00  0.00     0.165 C 
BRANCH  50  51
ATOM     51  O   UNL     1      28.579  35.586  19.321  1.00  0.00    -0.388 OA
ATOM     52  H   UNL     1      28.270  35.986  20.173  1.00  0.00     0.211 HD
ENDBRANCH  50  51
BRANCH  50  53
ATOM     53  C   UNL     1      26.352  35.994  18.720  1.00  0.00     0.154 C 
BRANCH  53  54
ATOM     54  N   UNL     1      25.570  36.221  17.519  1.00  0.00    -0.319 N 
ATOM     55  C   UNL     1      24.180  35.899  17.529  1.00  0.00     0.407 C 
ATOM     56  H   UNL     1      25.958  36.608  16.636  1.00  0.00     0.167 HD
ATOM     57  O   UNL     1      23.665  35.412  18.589  1.00  0.00    -0.225 OA
BRANCH  55  58
ATOM     58  O   UNL     1      23.320  36.073  16.464  1.00  0.00    -0.443 OA
BRANCH  58  59
ATOM     59  C   UNL     1      23.802  36.474  15.190  1.00  0.00     0.294 C 
BRANCH  59  60
ATOM     60  C   UNL     1      23.554  35.341  14.227  1.00  0.00     0.121 A 
ATOM     61  C   UNL     1      23.485  33.994  14.497  1.00  0.00     0.144 A 
ATOM     62  N   UNL     1      23.361  35.470  12.903  1.00  0.00    -0.131 NA
ATOM     63  N   UNL     1      23.253  33.393  13.314  1.00  0.00    -0.219 N 
ATOM     64  N   UNL     1      23.178  34.293  12.352  1.00  0.00    -0.062 NA
BRANCH  63  65
ATOM     65  C   UNL     1      23.111  31.996  13.086  1.00  0.00     0.080 A 
ATOM     66  C   UNL     1      24.209  31.147  13.168  1.00  0.00     0.029 A 
ATOM     67  C   UNL     1      21.889  31.449  12.771  1.00  0.00     0.039 A 
ATOM     68  C   UNL     1      24.023  29.780  12.929  1.00  0.00     0.002 A 
ATOM     69  C   UNL     1      21.723  30.078  12.535  1.00  0.00     0.017 A 
ATOM     70  I   UNL     1      20.202  32.716  12.636  1.00  0.00    -0.042 I 
ATOM     71  C   UNL     1      22.801  29.235  12.616  1.00  0.00     0.001 A 
ENDBRANCH  63  65
ENDBRANCH  59  60
ENDBRANCH  58  59
ENDBRANCH  55  58
ENDBRANCH  53  54
ENDBRANCH  50  53
ENDBRANCH  47  50
ENDBRANCH   5  47
BRANCH   4  72
ATOM     72  N   UNL     1      25.646  31.529  16.592  1.00  0.00    -0.348 N 
ATOM     73  C   UNL     1      24.277  31.316  16.984  1.00  0.00     0.217 C 
ATOM     74  H   UNL     1      26.086  30.713  16.131  1.00  0.00     0.163 HD
ATOM     75  C   UNL     1      23.557  30.049  16.755  1.00  0.00     0.114 C 
ATOM     76  O   UNL     1      23.704  32.286  17.547  1.00  0.00    -0.275 OA
ENDBRANCH   4  72
TORSDOF 30
BEGIN_RES LYS A 131
REMARK  4 active torsions:
REMARK  status: ('A' for Active; 'I' for Inactive)
REMARK    1  A    between atoms: CA   and  CB  
REMARK    2  A    between atoms: CB   and  CG  
REMARK    3  A    between atoms: CG   and  CD  
REMARK    4  A    between atoms: CD   and  CE  
ROOT
ATOM      1  CA  LYS A 131      29.867  25.555  16.977  1.00 20.52     0.186 C 
ENDROOT
BRANCH   1   2
ATOM      2  CB  LYS A 131      28.345  25.722  17.026  1.00 20.94     0.034 C 
BRANCH   2   3
ATOM      3  CG  LYS A 131      27.602  24.399  16.924  1.00 22.96     0.005 C 
BRANCH   3   4
ATOM      4  CD  LYS A 131      26.133  24.551  17.207  1.00 24.33     0.041 C 
BRANCH   4   5
ATOM      5  CE  LYS A 131      25.915  25.732  18.147  1.00 26.91     0.338 C 
ATOM      6  NZ  LYS A 131      25.790  25.264  19.548  1.00 27.40     0.618 N 
ENDBRANCH   4   5
ENDBRANCH   3   4
ENDBRANCH   2   3
ENDBRANCH   1   2
END_RES LYS A 131
BEGIN_RES LYS A 135
REMARK  4 active torsions:
REMARK  status: ('A' for Active; 'I' for Inactive)
REMARK    5  A    between atoms: CA   and  CB  
REMARK    6  A    between atoms: CB   and  CG  
REMARK    7  A    between atoms: CG   and  CD  
REMARK    8  A    between atoms: CD   and  CE  
ROOT
ATOM      7  CA  LYS A 135      33.193  34.663   9.290  1.00 25.02     0.186 C 
ENDROOT
BRANCH   7   8
ATOM      8  CB  LYS A 135      32.060  35.360  10.034  1.00 26.63     0.034 C 
BRANCH   8   9
ATOM      9  CG  LYS A 135      30.921  35.780   9.141  1.00 29.45     0.005 C 
BRANCH   9  10
ATOM     10  CD  LYS A 135      30.297  34.571   8.462  1.00 32.00     0.041 C 
BRANCH  10  11
ATOM     11  CE  LYS A 135      29.459  33.780   9.448  1.00 34.25     0.338 C 
ATOM     12  NZ  LYS A 135      28.018  33.811   9.072  1.00 35.99     0.618 N 
ENDBRANCH  10  11
ENDBRANCH   9  10
ENDBRANCH   8   9
ENDBRANCH   7   8
END_RES LYS A 135
