REMARK VINA RESULT:    -3.098      2.769      6.596
REMARK INTER + INTRA:         -21.409
REMARK INTER:                 -12.429
REMARK INTRA:                  -8.979
REMARK UNBOUND:               -13.239
REMARK SMILES CCOC(=O)Cn1cc(COC(=O)NC[C@@H](O)C(O)[C@@H]2O[C@@](OC[C@H]3O[C@@H](O[C@H]4[C@H](O)[C@@H](O)[C@H](OCCN=[N+]=[N-])O[C@@H]4CO)[C@H](O)[C@@H](O)[C@H]3O)(C(=O)O)C[C@H](O)[C@H]2NC(C)=O)nn1
REMARK SMILES IDX 18 1 20 2 22 3 54 4 21 5 55 6 57 7 23 8 24 9 25 10 27 11
REMARK SMILES IDX 26 12 45 13 47 14 49 15 28 16 29 17 42 18 41 19 34 20 30 21
REMARK SMILES IDX 32 22 43 23 44 24 35 26 36 27 37 28 38 29 39 30 40 31 31 32
REMARK SMILES IDX 33 34 46 36 48 38 50 40 51 42 52 43 53 44 56 46 58 48 59 49
REMARK SMILES IDX 60 51 61 52 19 53 16 55 17 56 15 58 14 59 12 60 13 62 11 63
REMARK SMILES IDX 10 64 9 65 8 66 62 67 7 68 63 69 6 70 4 71 5 72 3 73 2 74
REMARK SMILES IDX 1 75
REMARK H PARENT 44 25 31 33 33 35 46 37 48 39 50 41 53 45 56 47 58 50 19 54
REMARK H PARENT 17 57 14 61
REMARK Flexibility Score: inf
ROOT
ATOM      1  C   UNL     1      30.983  33.682  18.950  1.00  0.00     0.176 C 
ENDROOT
BRANCH   1   2
ATOM      2  C   UNL     1      31.083  33.089  17.572  1.00  0.00     0.178 C 
ATOM      3  C   UNL     1      30.418  33.482  15.365  1.00  0.00     0.272 C 
ATOM      4  C   UNL     1      30.855  32.068  15.193  1.00  0.00     0.113 C 
ATOM      5  O   UNL     1      30.845  34.022  16.597  1.00  0.00    -0.332 OA
ATOM      6  C   UNL     1      30.391  31.149  16.277  1.00  0.00     0.145 C 
ATOM      7  C   UNL     1      30.038  31.991  17.493  1.00  0.00     0.142 C 
BRANCH   3   8
ATOM      8  O   UNL     1      29.066  33.708  15.230  1.00  0.00    -0.338 OA
BRANCH   8   9
ATOM      9  C   UNL     1      28.590  34.948  15.485  1.00  0.00     0.199 C 
BRANCH   9  10
ATOM     10  C   UNL     1      27.482  35.259  14.459  1.00  0.00     0.179 C 
ATOM     11  C   UNL     1      26.767  34.778  12.306  1.00  0.00     0.282 C 
ATOM     12  O   UNL     1      27.791  34.779  13.226  1.00  0.00    -0.341 OA
ATOM     13  C   UNL     1      25.507  34.135  12.800  1.00  0.00     0.202 C 
ATOM     14  C   UNL     1      25.044  34.935  13.992  1.00  0.00     0.179 C 
ATOM     15  C   UNL     1      26.137  34.885  15.006  1.00  0.00     0.177 C 
BRANCH  11  16
ATOM     16  O   UNL     1      27.117  34.182  11.106  1.00  0.00    -0.341 OA
BRANCH  16  17
ATOM     17  C   UNL     1      27.502  35.044  10.111  1.00  0.00     0.184 C 
ATOM     18  C   UNL     1      26.411  35.318   9.098  1.00  0.00     0.178 C 
ATOM     19  O   UNL     1      26.700  34.744   7.868  1.00  0.00    -0.341 OA
ATOM     20  C   UNL     1      27.834  35.332   7.262  1.00  0.00     0.281 C 
ATOM     21  C   UNL     1      28.708  34.462   9.374  1.00  0.00     0.180 C 
ATOM     22  C   UNL     1      28.988  35.401   8.210  1.00  0.00     0.202 C 
BRANCH  18  23
ATOM     23  C   UNL     1      26.131  36.797   9.026  1.00  0.00     0.191 C 
BRANCH  23  24
ATOM     24  O   UNL     1      26.980  37.511   9.892  1.00  0.00    -0.394 OA
ATOM     25  H   UNL     1      27.802  37.015  10.073  1.00  0.00     0.210 HD
ENDBRANCH  23  24
ENDBRANCH  18  23
BRANCH  20  26
ATOM     26  O   UNL     1      27.517  36.552   6.724  1.00  0.00    -0.350 OA
BRANCH  26  27
ATOM     27  C   UNL     1      28.171  37.004   5.629  1.00  0.00     0.169 C 
BRANCH  27  28
ATOM     28  C   UNL     1      28.963  38.254   5.711  1.00  0.00     0.119 C 
BRANCH  28  29
ATOM     29  N   UNL     1      28.603  39.197   6.715  1.00  0.00    -0.092 NA
ATOM     30  N   UNL     1      29.016  39.083   7.888  1.00  0.00     0.001 N 
ATOM     31  N   UNL     1      29.688  38.900   8.919  1.00  0.00    -0.003 NA
ENDBRANCH  28  29
ENDBRANCH  27  28
ENDBRANCH  26  27
ENDBRANCH  20  26
BRANCH  21  32
ATOM     32  O   UNL     1      29.806  34.439  10.238  1.00  0.00    -0.387 OA
ATOM     33  H   UNL     1      29.733  33.586  10.769  1.00  0.00     0.211 HD
ENDBRANCH  21  32
BRANCH  22  34
ATOM     34  O   UNL     1      30.204  35.050   7.618  1.00  0.00    -0.385 OA
ATOM     35  H   UNL     1      30.281  35.336   6.675  1.00  0.00     0.211 HD
ENDBRANCH  22  34
ENDBRANCH  16  17
ENDBRANCH  11  16
BRANCH  13  36
ATOM     36  O   UNL     1      24.555  34.184  11.789  1.00  0.00    -0.385 OA
ATOM     37  H   UNL     1      24.656  33.521  11.088  1.00  0.00     0.211 HD
ENDBRANCH  13  36
BRANCH  14  38
ATOM     38  O   UNL     1      23.897  34.298  14.516  1.00  0.00    -0.387 OA
ATOM     39  H   UNL     1      23.804  33.391  14.132  1.00  0.00     0.211 HD
ENDBRANCH  14  38
BRANCH  15  40
ATOM     40  O   UNL     1      26.148  33.579  15.549  1.00  0.00    -0.387 OA
ATOM     41  H   UNL     1      27.004  33.185  15.224  1.00  0.00     0.211 HD
ENDBRANCH  15  40
ENDBRANCH   9  10
ENDBRANCH   8   9
ENDBRANCH   3   8
BRANCH   3  42
ATOM     42  C   UNL     1      31.146  34.298  14.362  1.00  0.00     0.364 C 
ATOM     43  O   UNL     1      32.027  35.101  14.742  1.00  0.00    -0.246 OA
BRANCH  42  44
ATOM     44  O   UNL     1      30.865  34.184  13.030  1.00  0.00    -0.477 OA
ATOM     45  H   UNL     1      30.226  33.483  12.665  1.00  0.00     0.296 HD
ENDBRANCH  42  44
ENDBRANCH   3  42
BRANCH   6  46
ATOM     46  O   UNL     1      29.374  30.295  15.922  1.00  0.00    -0.391 OA
ATOM     47  H   UNL     1      28.509  30.790  15.978  1.00  0.00     0.211 HD
ENDBRANCH   6  46
BRANCH   7  48
ATOM     48  N   UNL     1      30.034  31.175  18.700  1.00  0.00    -0.348 N 
ATOM     49  C   UNL     1      28.874  30.503  19.151  1.00  0.00     0.217 C 
ATOM     50  H   UNL     1      30.911  31.083  19.240  1.00  0.00     0.163 HD
ATOM     51  C   UNL     1      28.857  29.665  20.387  1.00  0.00     0.114 C 
ATOM     52  O   UNL     1      27.817  30.624  18.473  1.00  0.00    -0.275 OA
ENDBRANCH   7  48
ENDBRANCH   1   2
BRANCH   1  53
ATOM     53  O   UNL     1      32.205  34.178  19.358  1.00  0.00    -0.388 OA
ATOM     54  H   UNL     1      32.830  33.471  19.689  1.00  0.00     0.211 HD
ENDBRANCH   1  53
BRANCH   1  55
ATOM     55  C   UNL     1      29.949  34.790  19.047  1.00  0.00     0.165 C 
BRANCH  55  56
ATOM     56  O   UNL     1      30.508  36.035  19.212  1.00  0.00    -0.388 OA
ATOM     57  H   UNL     1      30.435  36.617  18.420  1.00  0.00     0.211 HD
ENDBRANCH  55  56
BRANCH  55  58
ATOM     58  C   UNL     1      29.004  34.460  20.154  1.00  0.00     0.154 C 
BRANCH  58  59
ATOM     59  N   UNL     1      27.633  34.455  19.787  1.00  0.00    -0.319 N 
ATOM     60  C   UNL     1      26.770  35.583  19.805  1.00  0.00     0.407 C 
ATOM     61  H   UNL     1      27.166  33.538  19.460  1.00  0.00     0.167 HD
ATOM     62  O   UNL     1      27.165  36.709  20.153  1.00  0.00    -0.225 OA
BRANCH  60  63
ATOM     63  O   UNL     1      25.429  35.426  19.415  1.00  0.00    -0.443 OA
BRANCH  63  64
ATOM     64  C   UNL     1      24.704  34.301  19.789  1.00  0.00     0.294 C 
BRANCH  64  65
ATOM     65  C   UNL     1      24.419  33.370  18.681  1.00  0.00     0.120 A 
ATOM     66  C   UNL     1      24.780  32.038  18.615  1.00  0.00     0.139 A 
ATOM     67  N   UNL     1      23.776  33.622  17.534  1.00  0.00    -0.132 NA
ATOM     68  N   UNL     1      24.354  31.517  17.440  1.00  0.00    -0.241 N 
ATOM     69  N   UNL     1      23.750  32.503  16.813  1.00  0.00    -0.066 NA
BRANCH  68  70
ATOM     70  C   UNL     1      24.563  30.136  17.021  1.00  0.00     0.268 C 
BRANCH  70  71
ATOM     71  C   UNL     1      25.167  30.176  15.641  1.00  0.00     0.327 C 
ATOM     72  O   UNL     1      26.343  30.535  15.442  1.00  0.00    -0.250 OA
BRANCH  71  73
ATOM     73  O   UNL     1      24.429  29.809  14.529  1.00  0.00    -0.465 OA
BRANCH  73  74
ATOM     74  C   UNL     1      24.412  30.508  13.318  1.00  0.00     0.229 C 
ATOM     75  C   UNL     1      23.017  30.841  12.850  1.00  0.00     0.049 C 
ENDBRANCH  73  74
ENDBRANCH  71  73
ENDBRANCH  70  71
ENDBRANCH  68  70
ENDBRANCH  64  65
ENDBRANCH  63  64
ENDBRANCH  60  63
ENDBRANCH  58  59
ENDBRANCH  55  58
ENDBRANCH   1  55
TORSDOF 33
BEGIN_RES LYS A 131
REMARK  4 active torsions:
REMARK  status: ('A' for Active; 'I' for Inactive)
REMARK    1  A    between atoms: CA   and  CB  
REMARK    2  A    between atoms: CB   and  CG  
REMARK    3  A    between atoms: CG   and  CD  
REMARK    4  A    between atoms: CD   and  CE  
ROOT
ATOM      1  CA  LYS A 131      29.867  25.555  16.977  1.00 20.52     0.186 C 
ENDROOT
BRANCH   1   2
ATOM      2  CB  LYS A 131      28.345  25.722  17.026  1.00 20.94     0.034 C 
BRANCH   2   3
ATOM      3  CG  LYS A 131      27.602  24.399  16.918  1.00 22.96     0.005 C 
BRANCH   3   4
ATOM      4  CD  LYS A 131      26.501  24.283  17.936  1.00 24.33     0.041 C 
BRANCH   4   5
ATOM      5  CE  LYS A 131      25.934  25.667  18.233  1.00 26.91     0.338 C 
ATOM      6  NZ  LYS A 131      25.927  25.923  19.692  1.00 27.40     0.618 N 
ENDBRANCH   4   5
ENDBRANCH   3   4
ENDBRANCH   2   3
ENDBRANCH   1   2
END_RES LYS A 131
BEGIN_RES LYS A 135
REMARK  4 active torsions:
REMARK  status: ('A' for Active; 'I' for Inactive)
REMARK    5  A    between atoms: CA   and  CB  
REMARK    6  A    between atoms: CB   and  CG  
REMARK    7  A    between atoms: CG   and  CD  
REMARK    8  A    between atoms: CD   and  CE  
ROOT
ATOM      7  CA  LYS A 135      33.193  34.663   9.290  1.00 25.02     0.186 C 
ENDROOT
BRANCH   7   8
ATOM      8  CB  LYS A 135      32.060  35.360  10.034  1.00 26.63     0.034 C 
BRANCH   8   9
ATOM      9  CG  LYS A 135      32.370  36.788  10.404  1.00 29.45     0.005 C 
BRANCH   9  10
ATOM     10  CD  LYS A 135      32.256  36.990  11.907  1.00 32.00     0.041 C 
BRANCH  10  11
ATOM     11  CE  LYS A 135      31.155  37.982  12.228  1.00 34.25     0.338 C 
ATOM     12  NZ  LYS A 135      29.814  37.336  12.159  1.00 35.99     0.618 N 
ENDBRANCH  10  11
ENDBRANCH   9  10
ENDBRANCH   8   9
ENDBRANCH   7   8
END_RES LYS A 135
