REMARK VINA RESULT:    -4.691      6.693     12.877
REMARK INTER + INTRA:         -21.682
REMARK INTER:                 -12.073
REMARK INTRA:                  -9.609
REMARK UNBOUND:                -9.861
REMARK SMILES CC(=O)N[C@@H]1[C@@H](O)C[C@](OC[C@H]2O[C@@H](O[C@H]3[C@H](O)[C@@H](O)[C@H](OCCN=[N+]=[N-])O[C@@H]3CO)[C@H](O)[C@@H](O)[C@H]2O)(C(=O)O)O[C@H]1C(O)[C@H](O)CNC(=O)OCc1cn(-c2ccc([N+](=O)[O-])cc2)nn1
REMARK SMILES IDX 9 1 8 2 6 3 5 4 42 5 41 6 10 7 11 8 12 9 14 10 13 11 32 12
REMARK SMILES IDX 34 13 36 14 15 15 16 16 29 17 28 18 21 19 17 20 19 21 30 22
REMARK SMILES IDX 31 23 22 25 23 26 24 27 25 28 26 29 27 30 18 31 20 33 33 35
REMARK SMILES IDX 35 37 37 39 38 41 39 42 40 43 7 45 43 47 44 48 45 50 46 51
REMARK SMILES IDX 47 53 48 54 49 55 50 57 51 58 52 59 53 60 54 61 66 62 55 63
REMARK SMILES IDX 65 64 56 65 57 66 64 67 58 68 63 69 59 70 60 71 61 72 62 73
REMARK SMILES IDX 4 74 2 75 1 77 3 78
REMARK H PARENT 31 24 18 32 20 34 33 36 35 38 37 40 40 44 7 46 44 49 46 52
REMARK H PARENT 48 56 4 76
REMARK Flexibility Score: inf
ROOT
ATOM      1  C   UNL     1      27.337  29.115  18.335  1.00  0.00     0.272 C 
ATOM      2  C   UNL     1      27.374  28.765  16.883  1.00  0.00     0.113 C 
ATOM      3  C   UNL     1      27.242  29.977  16.064  1.00  0.00     0.145 C 
ATOM      4  C   UNL     1      26.784  31.243  16.810  1.00  0.00     0.142 C 
ATOM      5  C   UNL     1      25.833  30.865  17.846  1.00  0.00     0.178 C 
ATOM      6  O   UNL     1      26.127  29.732  18.600  1.00  0.00    -0.332 OA
ENDROOT
BRANCH   1   7
ATOM      7  O   UNL     1      28.420  29.788  18.810  1.00  0.00    -0.338 OA
BRANCH   7   8
ATOM      8  C   UNL     1      28.525  29.916  20.157  1.00  0.00     0.199 C 
BRANCH   8   9
ATOM      9  C   UNL     1      29.973  30.092  20.597  1.00  0.00     0.179 C 
ATOM     10  C   UNL     1      30.591  32.321  20.253  1.00  0.00     0.282 C 
ATOM     11  O   UNL     1      30.655  31.022  19.858  1.00  0.00    -0.341 OA
ATOM     12  C   UNL     1      29.844  32.654  21.479  1.00  0.00     0.202 C 
ATOM     13  C   UNL     1      30.054  31.619  22.553  1.00  0.00     0.179 C 
ATOM     14  C   UNL     1      30.167  30.219  22.066  1.00  0.00     0.177 C 
BRANCH  10  15
ATOM     15  O   UNL     1      30.230  33.077  19.142  1.00  0.00    -0.341 OA
BRANCH  15  16
ATOM     16  C   UNL     1      31.182  33.296  18.203  1.00  0.00     0.184 C 
ATOM     17  C   UNL     1      31.356  34.750  17.821  1.00  0.00     0.178 C 
ATOM     18  O   UNL     1      32.327  34.824  16.802  1.00  0.00    -0.341 OA
ATOM     19  C   UNL     1      31.774  34.345  15.614  1.00  0.00     0.281 C 
ATOM     20  C   UNL     1      30.675  32.628  16.911  1.00  0.00     0.180 C 
ATOM     21  C   UNL     1      31.699  32.825  15.811  1.00  0.00     0.202 C 
BRANCH  17  22
ATOM     22  C   UNL     1      31.860  35.628  18.937  1.00  0.00     0.191 C 
BRANCH  22  23
ATOM     23  O   UNL     1      30.740  35.835  19.779  1.00  0.00    -0.394 OA
ATOM     24  H   UNL     1      31.020  36.268  20.629  1.00  0.00     0.210 HD
ENDBRANCH  22  23
ENDBRANCH  17  22
BRANCH  19  25
ATOM     25  O   UNL     1      32.608  34.603  14.558  1.00  0.00    -0.350 OA
BRANCH  25  26
ATOM     26  C   UNL     1      32.035  35.221  13.475  1.00  0.00     0.169 C 
BRANCH  26  27
ATOM     27  C   UNL     1      30.916  36.169  13.801  1.00  0.00     0.119 C 
BRANCH  27  28
ATOM     28  N   UNL     1      31.333  37.520  13.415  1.00  0.00    -0.092 NA
ATOM     29  N   UNL     1      31.707  37.731  12.271  1.00  0.00     0.001 N 
ATOM     30  N   UNL     1      31.845  37.958  11.080  1.00  0.00    -0.003 NA
ENDBRANCH  27  28
ENDBRANCH  26  27
ENDBRANCH  25  26
ENDBRANCH  19  25
BRANCH  20  31
ATOM     31  O   UNL     1      30.336  31.318  17.107  1.00  0.00    -0.387 OA
ATOM     32  H   UNL     1      31.080  30.710  17.283  1.00  0.00     0.211 HD
ENDBRANCH  20  31
BRANCH  21  33
ATOM     33  O   UNL     1      31.299  32.172  14.677  1.00  0.00    -0.385 OA
ATOM     34  H   UNL     1      30.321  32.043  14.707  1.00  0.00     0.211 HD
ENDBRANCH  21  33
ENDBRANCH  15  16
ENDBRANCH  10  15
BRANCH  12  35
ATOM     35  O   UNL     1      30.375  33.839  22.026  1.00  0.00    -0.385 OA
ATOM     36  H   UNL     1      31.117  33.659  22.634  1.00  0.00     0.211 HD
ENDBRANCH  12  35
BRANCH  13  37
ATOM     37  O   UNL     1      29.027  31.753  23.519  1.00  0.00    -0.387 OA
ATOM     38  H   UNL     1      28.577  32.596  23.347  1.00  0.00     0.211 HD
ENDBRANCH  13  37
BRANCH  14  39
ATOM     39  O   UNL     1      29.363  29.302  22.730  1.00  0.00    -0.387 OA
ATOM     40  H   UNL     1      29.925  28.881  23.436  1.00  0.00     0.211 HD
ENDBRANCH  14  39
ENDBRANCH   8   9
ENDBRANCH   7   8
ENDBRANCH   1   7
BRANCH   1  41
ATOM     41  C   UNL     1      27.209  27.821  19.112  1.00  0.00     0.364 C 
ATOM     42  O   UNL     1      26.144  27.542  19.693  1.00  0.00    -0.246 OA
BRANCH  41  43
ATOM     43  O   UNL     1      28.273  26.965  19.177  1.00  0.00    -0.477 OA
ATOM     44  H   UNL     1      29.098  27.014  18.586  1.00  0.00     0.296 HD
ENDBRANCH  41  43
ENDBRANCH   1  41
BRANCH   3  45
ATOM     45  O   UNL     1      28.451  30.308  15.455  1.00  0.00    -0.391 OA
ATOM     46  H   UNL     1      29.206  29.911  15.932  1.00  0.00     0.211 HD
ENDBRANCH   3  45
BRANCH   5  47
ATOM     47  C   UNL     1      25.305  31.818  18.825  1.00  0.00     0.176 C 
BRANCH  47  48
ATOM     48  O   UNL     1      25.321  33.165  18.452  1.00  0.00    -0.388 OA
ATOM     49  H   UNL     1      26.031  33.695  18.852  1.00  0.00     0.211 HD
ENDBRANCH  47  48
BRANCH  47  50
ATOM     50  C   UNL     1      23.979  31.594  19.476  1.00  0.00     0.165 C 
BRANCH  50  51
ATOM     51  O   UNL     1      23.749  30.356  19.991  1.00  0.00    -0.388 OA
ATOM     52  H   UNL     1      23.106  30.366  20.747  1.00  0.00     0.211 HD
ENDBRANCH  50  51
BRANCH  50  53
ATOM     53  C   UNL     1      22.841  32.260  18.749  1.00  0.00     0.154 C 
BRANCH  53  54
ATOM     54  N   UNL     1      22.535  31.703  17.458  1.00  0.00    -0.319 N 
ATOM     55  C   UNL     1      22.784  32.352  16.225  1.00  0.00     0.407 C 
ATOM     56  H   UNL     1      22.095  30.748  17.382  1.00  0.00     0.167 HD
ATOM     57  O   UNL     1      23.290  33.479  16.216  1.00  0.00    -0.225 OA
BRANCH  55  58
ATOM     58  O   UNL     1      22.471  31.755  15.003  1.00  0.00    -0.443 OA
BRANCH  58  59
ATOM     59  C   UNL     1      21.246  31.913  14.338  1.00  0.00     0.294 C 
BRANCH  59  60
ATOM     60  C   UNL     1      21.333  32.999  13.338  1.00  0.00     0.121 A 
ATOM     61  C   UNL     1      22.432  33.382  12.571  1.00  0.00     0.144 A 
ATOM     62  N   UNL     1      20.340  33.849  12.943  1.00  0.00    -0.131 NA
ATOM     63  N   UNL     1      22.085  34.406  11.770  1.00  0.00    -0.220 N 
ATOM     64  N   UNL     1      20.821  34.662  12.020  1.00  0.00    -0.062 NA
BRANCH  63  65
ATOM     65  C   UNL     1      22.916  35.082  10.819  1.00  0.00     0.067 A 
ATOM     66  C   UNL     1      24.277  35.219  10.955  1.00  0.00     0.035 A 
ATOM     67  C   UNL     1      22.335  35.648   9.693  1.00  0.00     0.035 A 
ATOM     68  C   UNL     1      25.038  35.896  10.004  1.00  0.00     0.088 A 
ATOM     69  C   UNL     1      23.085  36.318   8.750  1.00  0.00     0.088 A 
ATOM     70  C   UNL     1      24.450  36.457   8.885  1.00  0.00     0.269 A 
BRANCH  70  71
ATOM     71  N   UNL     1      25.237  37.149   7.922  1.00  0.00     0.062 N 
ATOM     72  O   UNL     1      26.247  36.675   7.377  1.00  0.00    -0.258 OA
ATOM     73  O   UNL     1      24.854  38.421   7.579  1.00  0.00    -0.258 OA
ENDBRANCH  70  71
ENDBRANCH  63  65
ENDBRANCH  59  60
ENDBRANCH  58  59
ENDBRANCH  55  58
ENDBRANCH  53  54
ENDBRANCH  50  53
ENDBRANCH  47  50
ENDBRANCH   5  47
BRANCH   4  74
ATOM     74  N   UNL     1      26.080  31.951  15.727  1.00  0.00    -0.348 N 
ATOM     75  C   UNL     1      26.636  33.055  15.058  1.00  0.00     0.217 C 
ATOM     76  H   UNL     1      25.145  31.598  15.459  1.00  0.00     0.163 HD
ATOM     77  C   UNL     1      25.835  33.704  13.976  1.00  0.00     0.114 C 
ATOM     78  O   UNL     1      27.758  33.507  15.331  1.00  0.00    -0.275 OA
ENDBRANCH   4  74
TORSDOF 31
BEGIN_RES LYS A 131
REMARK  4 active torsions:
REMARK  status: ('A' for Active; 'I' for Inactive)
REMARK    1  A    between atoms: CA   and  CB  
REMARK    2  A    between atoms: CB   and  CG  
REMARK    3  A    between atoms: CG   and  CD  
REMARK    4  A    between atoms: CD   and  CE  
ROOT
ATOM      1  CA  LYS A 131      29.867  25.555  16.977  1.00 20.52     0.186 C 
ENDROOT
BRANCH   1   2
ATOM      2  CB  LYS A 131      28.345  25.722  17.026  1.00 20.94     0.034 C 
BRANCH   2   3
ATOM      3  CG  LYS A 131      27.602  24.399  16.920  1.00 22.96     0.005 C 
BRANCH   3   4
ATOM      4  CD  LYS A 131      26.151  24.533  17.291  1.00 24.33     0.041 C 
BRANCH   4   5
ATOM      5  CE  LYS A 131      25.943  24.037  18.718  1.00 26.91     0.338 C 
ATOM      6  NZ  LYS A 131      24.626  24.481  19.234  1.00 27.40     0.618 N 
ENDBRANCH   4   5
ENDBRANCH   3   4
ENDBRANCH   2   3
ENDBRANCH   1   2
END_RES LYS A 131
BEGIN_RES LYS A 135
REMARK  4 active torsions:
REMARK  status: ('A' for Active; 'I' for Inactive)
REMARK    5  A    between atoms: CA   and  CB  
REMARK    6  A    between atoms: CB   and  CG  
REMARK    7  A    between atoms: CG   and  CD  
REMARK    8  A    between atoms: CD   and  CE  
ROOT
ATOM      7  CA  LYS A 135      33.193  34.663   9.290  1.00 25.02     0.186 C 
ENDROOT
BRANCH   7   8
ATOM      8  CB  LYS A 135      32.060  35.360  10.034  1.00 26.63     0.034 C 
BRANCH   8   9
ATOM      9  CG  LYS A 135      30.726  34.677   9.876  1.00 29.45     0.005 C 
BRANCH   9  10
ATOM     10  CD  LYS A 135      30.282  34.697   8.422  1.00 32.00     0.041 C 
BRANCH  10  11
ATOM     11  CE  LYS A 135      28.787  34.463   8.318  1.00 34.25     0.338 C 
ATOM     12  NZ  LYS A 135      28.226  33.993   9.615  1.00 35.99     0.618 N 
ENDBRANCH  10  11
ENDBRANCH   9  10
ENDBRANCH   8   9
ENDBRANCH   7   8
END_RES LYS A 135
