REMARK VINA RESULT:    -4.501      3.317      6.165
REMARK INTER + INTRA:         -22.321
REMARK INTER:                 -12.606
REMARK INTRA:                  -9.715
REMARK UNBOUND:               -11.242
REMARK SMILES CC(=O)N[C@@H]1[C@@H](O)C[C@](OC[C@H]2O[C@@H](O[C@H]3[C@H](O)[C@@H](O)[C@H](OCCN=[N+]=[N-])O[C@@H]3CO)[C@H](O)[C@@H](O)[C@H]2O)(C(=O)O)O[C@H]1C(O)[C@H](O)CNC(=O)OCc1cn(-c2c(C)cc(C)cc2C)nn1
REMARK SMILES IDX 9 1 8 2 6 3 5 4 42 5 41 6 10 7 11 8 12 9 14 10 13 11 32 12
REMARK SMILES IDX 34 13 36 14 15 15 16 16 29 17 28 18 21 19 17 20 19 21 30 22
REMARK SMILES IDX 31 23 22 25 23 26 24 27 25 28 26 29 27 30 18 31 20 33 33 35
REMARK SMILES IDX 35 37 37 39 38 41 39 42 40 43 7 45 43 47 44 48 45 50 46 51
REMARK SMILES IDX 47 53 48 54 49 55 50 57 51 58 52 59 53 60 54 61 66 62 55 63
REMARK SMILES IDX 65 64 56 65 57 66 63 67 58 68 59 69 62 70 64 71 60 72 61 73
REMARK SMILES IDX 4 74 2 75 1 77 3 78
REMARK H PARENT 31 24 18 32 20 34 33 36 35 38 37 40 40 44 7 46 44 49 46 52
REMARK H PARENT 48 56 4 76
REMARK Flexibility Score: inf
ROOT
ATOM      1  C   UNL     1      30.137  28.602  22.436  1.00  0.00     0.272 C 
ATOM      2  C   UNL     1      30.138  28.261  23.874  1.00  0.00     0.113 C 
ATOM      3  C   UNL     1      30.450  29.384  24.832  1.00  0.00     0.145 C 
ATOM      4  C   UNL     1      31.440  30.320  24.216  1.00  0.00     0.142 C 
ATOM      5  C   UNL     1      32.186  29.490  23.164  1.00  0.00     0.178 C 
ATOM      6  O   UNL     1      31.280  29.333  22.081  1.00  0.00    -0.332 OA
ENDROOT
BRANCH   1   7
ATOM      7  O   UNL     1      29.027  29.204  21.926  1.00  0.00    -0.338 OA
BRANCH   7   8
ATOM      8  C   UNL     1      27.810  28.655  22.096  1.00  0.00     0.199 C 
BRANCH   8   9
ATOM      9  C   UNL     1      26.938  29.084  20.906  1.00  0.00     0.179 C 
ATOM     10  C   UNL     1      27.267  29.700  18.713  1.00  0.00     0.282 C 
ATOM     11  O   UNL     1      27.661  29.872  20.032  1.00  0.00    -0.341 OA
ATOM     12  C   UNL     1      27.721  28.318  18.320  1.00  0.00     0.202 C 
ATOM     13  C   UNL     1      26.882  27.350  19.142  1.00  0.00     0.179 C 
ATOM     14  C   UNL     1      26.173  27.971  20.293  1.00  0.00     0.177 C 
BRANCH  10  15
ATOM     15  O   UNL     1      27.630  30.700  17.894  1.00  0.00    -0.341 OA
BRANCH  15  16
ATOM     16  C   UNL     1      28.938  30.962  17.704  1.00  0.00     0.184 C 
ATOM     17  C   UNL     1      29.315  32.227  18.454  1.00  0.00     0.178 C 
ATOM     18  O   UNL     1      29.436  33.316  17.643  1.00  0.00    -0.341 OA
ATOM     19  C   UNL     1      30.440  33.222  16.692  1.00  0.00     0.281 C 
ATOM     20  C   UNL     1      29.186  31.173  16.207  1.00  0.00     0.180 C 
ATOM     21  C   UNL     1      30.495  31.912  15.996  1.00  0.00     0.202 C 
BRANCH  17  22
ATOM     22  C   UNL     1      30.531  31.996  19.335  1.00  0.00     0.191 C 
BRANCH  22  23
ATOM     23  O   UNL     1      30.640  30.651  19.678  1.00  0.00    -0.394 OA
ATOM     24  H   UNL     1      29.856  30.114  19.424  1.00  0.00     0.210 HD
ENDBRANCH  22  23
ENDBRANCH  17  22
BRANCH  19  25
ATOM     25  O   UNL     1      31.694  33.503  17.253  1.00  0.00    -0.350 OA
BRANCH  25  26
ATOM     26  C   UNL     1      32.028  34.833  17.222  1.00  0.00     0.169 C 
BRANCH  26  27
ATOM     27  C   UNL     1      31.779  35.525  15.917  1.00  0.00     0.119 C 
BRANCH  27  28
ATOM     28  N   UNL     1      32.846  36.447  15.572  1.00  0.00    -0.092 NA
ATOM     29  N   UNL     1      32.978  37.528  16.181  1.00  0.00     0.001 N 
ATOM     30  N   UNL     1      32.976  38.506  16.937  1.00  0.00    -0.003 NA
ENDBRANCH  27  28
ENDBRANCH  26  27
ENDBRANCH  25  26
ENDBRANCH  19  25
BRANCH  20  31
ATOM     31  O   UNL     1      29.241  30.000  15.498  1.00  0.00    -0.387 OA
ATOM     32  H   UNL     1      28.738  29.246  15.898  1.00  0.00     0.211 HD
ENDBRANCH  20  31
BRANCH  21  33
ATOM     33  O   UNL     1      30.620  32.129  14.625  1.00  0.00    -0.385 OA
ATOM     34  H   UNL     1      30.887  31.293  14.152  1.00  0.00     0.211 HD
ENDBRANCH  21  33
ENDBRANCH  15  16
ENDBRANCH  10  15
BRANCH  12  35
ATOM     35  O   UNL     1      27.478  28.036  16.979  1.00  0.00    -0.385 OA
ATOM     36  H   UNL     1      27.568  28.903  16.479  1.00  0.00     0.211 HD
ENDBRANCH  12  35
BRANCH  13  37
ATOM     37  O   UNL     1      27.650  26.284  19.606  1.00  0.00    -0.387 OA
ATOM     38  H   UNL     1      27.126  25.453  19.738  1.00  0.00     0.211 HD
ENDBRANCH  13  37
BRANCH  14  39
ATOM     39  O   UNL     1      25.960  26.952  21.254  1.00  0.00    -0.387 OA
ATOM     40  H   UNL     1      26.400  26.116  20.977  1.00  0.00     0.211 HD
ENDBRANCH  14  39
ENDBRANCH   8   9
ENDBRANCH   7   8
ENDBRANCH   1   7
BRANCH   1  41
ATOM     41  C   UNL     1      30.348  27.298  21.698  1.00  0.00     0.364 C 
ATOM     42  O   UNL     1      30.470  26.257  22.350  1.00  0.00    -0.246 OA
BRANCH  41  43
ATOM     43  O   UNL     1      30.405  27.251  20.318  1.00  0.00    -0.477 OA
ATOM     44  H   UNL     1      30.837  27.947  19.737  1.00  0.00     0.296 HD
ENDBRANCH  41  43
ENDBRANCH   1  41
BRANCH   3  45
ATOM     45  O   UNL     1      29.238  29.984  25.168  1.00  0.00    -0.391 OA
ATOM     46  H   UNL     1      28.509  29.569  24.604  1.00  0.00     0.211 HD
ENDBRANCH   3  45
BRANCH   5  47
ATOM     47  C   UNL     1      33.362  30.153  22.564  1.00  0.00     0.176 C 
BRANCH  47  48
ATOM     48  O   UNL     1      33.288  29.898  21.146  1.00  0.00    -0.388 OA
ATOM     49  H   UNL     1      34.070  29.346  20.887  1.00  0.00     0.211 HD
ENDBRANCH  47  48
BRANCH  47  50
ATOM     50  C   UNL     1      34.731  29.598  22.904  1.00  0.00     0.165 C 
BRANCH  50  51
ATOM     51  O   UNL     1      34.653  29.490  24.345  1.00  0.00    -0.388 OA
ATOM     52  H   UNL     1      34.879  30.354  24.740  1.00  0.00     0.211 HD
ENDBRANCH  50  51
BRANCH  50  53
ATOM     53  C   UNL     1      35.816  30.629  22.710  1.00  0.00     0.154 C 
BRANCH  53  54
ATOM     54  N   UNL     1      35.393  31.911  22.236  1.00  0.00    -0.319 N 
ATOM     55  C   UNL     1      35.487  33.047  23.096  1.00  0.00     0.407 C 
ATOM     56  H   UNL     1      35.007  32.028  21.256  1.00  0.00     0.167 HD
ATOM     57  O   UNL     1      35.939  32.840  24.256  1.00  0.00    -0.225 OA
BRANCH  55  58
ATOM     58  O   UNL     1      35.105  34.322  22.695  1.00  0.00    -0.443 OA
BRANCH  58  59
ATOM     59  C   UNL     1      36.001  35.408  22.696  1.00  0.00     0.294 C 
BRANCH  59  60
ATOM     60  C   UNL     1      36.810  35.521  21.453  1.00  0.00     0.121 A 
ATOM     61  C   UNL     1      36.557  34.976  20.215  1.00  0.00     0.144 A 
ATOM     62  N   UNL     1      37.984  36.203  21.308  1.00  0.00    -0.131 NA
ATOM     63  N   UNL     1      37.545  35.322  19.373  1.00  0.00    -0.220 N 
ATOM     64  N   UNL     1      38.388  36.069  20.085  1.00  0.00    -0.062 NA
BRANCH  63  65
ATOM     65  C   UNL     1      37.707  34.977  17.984  1.00  0.00     0.072 A 
ATOM     66  C   UNL     1      37.152  35.831  17.064  1.00  0.00    -0.025 A 
ATOM     67  C   UNL     1      38.376  33.855  17.638  1.00  0.00    -0.025 A 
ATOM     68  C   UNL     1      36.413  37.069  17.492  1.00  0.00     0.047 C 
ATOM     69  C   UNL     1      37.294  35.515  15.727  1.00  0.00     0.009 A 
ATOM     70  C   UNL     1      38.493  33.577  16.271  1.00  0.00     0.009 A 
ATOM     71  C   UNL     1      38.991  32.910  18.604  1.00  0.00     0.047 C 
ATOM     72  C   UNL     1      37.960  34.394  15.305  1.00  0.00    -0.050 A 
ATOM     73  C   UNL     1      38.080  34.112  13.853  1.00  0.00     0.044 C 
ENDBRANCH  63  65
ENDBRANCH  59  60
ENDBRANCH  58  59
ENDBRANCH  55  58
ENDBRANCH  53  54
ENDBRANCH  50  53
ENDBRANCH  47  50
ENDBRANCH   5  47
BRANCH   4  74
ATOM     74  N   UNL     1      32.282  31.013  25.092  1.00  0.00    -0.348 N 
ATOM     75  C   UNL     1      32.230  32.425  25.280  1.00  0.00     0.217 C 
ATOM     76  H   UNL     1      32.974  30.497  25.664  1.00  0.00     0.163 HD
ATOM     77  C   UNL     1      33.143  33.134  26.227  1.00  0.00     0.114 C 
ATOM     78  O   UNL     1      31.388  33.059  24.623  1.00  0.00    -0.275 OA
ENDBRANCH   4  74
TORSDOF 30
BEGIN_RES LYS A 131
REMARK  4 active torsions:
REMARK  status: ('A' for Active; 'I' for Inactive)
REMARK    1  A    between atoms: CA   and  CB  
REMARK    2  A    between atoms: CB   and  CG  
REMARK    3  A    between atoms: CG   and  CD  
REMARK    4  A    between atoms: CD   and  CE  
ROOT
ATOM      1  CA  LYS A 131      29.867  25.555  16.977  1.00 20.52     0.186 C 
ENDROOT
BRANCH   1   2
ATOM      2  CB  LYS A 131      28.345  25.722  17.026  1.00 20.94     0.034 C 
BRANCH   2   3
ATOM      3  CG  LYS A 131      27.600  24.507  16.494  1.00 22.96     0.005 C 
BRANCH   3   4
ATOM      4  CD  LYS A 131      27.238  23.541  17.588  1.00 24.33     0.041 C 
BRANCH   4   5
ATOM      5  CE  LYS A 131      25.830  23.845  18.090  1.00 26.91     0.338 C 
ATOM      6  NZ  LYS A 131      24.931  24.161  16.955  1.00 27.40     0.618 N 
ENDBRANCH   4   5
ENDBRANCH   3   4
ENDBRANCH   2   3
ENDBRANCH   1   2
END_RES LYS A 131
BEGIN_RES LYS A 135
REMARK  4 active torsions:
REMARK  status: ('A' for Active; 'I' for Inactive)
REMARK    5  A    between atoms: CA   and  CB  
REMARK    6  A    between atoms: CB   and  CG  
REMARK    7  A    between atoms: CG   and  CD  
REMARK    8  A    between atoms: CD   and  CE  
ROOT
ATOM      7  CA  LYS A 135      33.193  34.663   9.290  1.00 25.02     0.186 C 
ENDROOT
BRANCH   7   8
ATOM      8  CB  LYS A 135      32.060  35.360  10.034  1.00 26.63     0.034 C 
BRANCH   8   9
ATOM      9  CG  LYS A 135      30.779  35.437   9.245  1.00 29.45     0.005 C 
BRANCH   9  10
ATOM     10  CD  LYS A 135      30.185  34.051   9.049  1.00 32.00     0.041 C 
BRANCH  10  11
ATOM     11  CE  LYS A 135      28.670  34.118   9.031  1.00 34.25     0.338 C 
ATOM     12  NZ  LYS A 135      28.183  34.956   7.901  1.00 35.99     0.618 N 
ENDBRANCH  10  11
ENDBRANCH   9  10
ENDBRANCH   8   9
ENDBRANCH   7   8
END_RES LYS A 135
