REMARK VINA RESULT:    -5.764      5.097      9.510
REMARK INTER + INTRA:         -24.703
REMARK INTER:                 -13.835
REMARK INTRA:                 -10.868
REMARK UNBOUND:                -9.504
REMARK SMILES CC(=O)N[C@@H]1[C@@H](O)C[C@](OC[C@H]2O[C@@H](O[C@H]3[C@H](O)[C@@H](O)[C@H](OCCN=[N+]=[N-])O[C@@H]3CO)[C@H](O)[C@@H](O)[C@H]2O)(C(=O)O)O[C@H]1C(O)[C@H](O)CNC(=O)OCc1cn(COCc2ccccc2)nn1
REMARK SMILES IDX 43 1 42 2 9 3 8 4 41 5 6 6 5 7 10 8 11 9 12 10 14 11 13 12
REMARK SMILES IDX 32 13 34 14 36 15 15 16 16 17 29 18 28 19 21 20 17 21 19 22
REMARK SMILES IDX 30 23 31 24 22 26 23 27 24 28 25 29 26 30 27 31 18 32 20 34
REMARK SMILES IDX 33 36 35 38 37 40 38 42 39 43 40 44 7 46 4 48 2 49 1 51 3 52
REMARK SMILES IDX 44 53 45 55 46 56 47 58 48 59 49 60 50 62 51 63 52 64 53 65
REMARK SMILES IDX 54 66 66 67 55 68 65 69 56 70 57 71 58 72 59 73 60 74 64 75
REMARK SMILES IDX 61 76 63 77 62 78
REMARK H PARENT 31 25 18 33 20 35 33 37 35 39 37 41 40 45 7 47 4 50 44 54
REMARK H PARENT 46 57 48 61
REMARK Flexibility Score: inf
ROOT
ATOM      1  C   UNL     1      21.064  32.277  16.154  1.00  0.00     0.176 C 
ENDROOT
BRANCH   1   2
ATOM      2  C   UNL     1      21.341  31.401  14.912  1.00  0.00     0.178 C 
ATOM      3  C   UNL     1      23.082  30.065  14.145  1.00  0.00     0.272 C 
ATOM      4  C   UNL     1      22.864  30.609  12.737  1.00  0.00     0.113 C 
ATOM      5  O   UNL     1      22.692  31.058  14.990  1.00  0.00    -0.332 OA
ATOM      6  C   UNL     1      22.432  32.054  12.813  1.00  0.00     0.145 C 
ATOM      7  C   UNL     1      21.109  32.142  13.634  1.00  0.00     0.142 C 
BRANCH   3   8
ATOM      8  O   UNL     1      24.443  29.751  14.328  1.00  0.00    -0.338 OA
BRANCH   8   9
ATOM      9  C   UNL     1      25.214  30.671  14.928  1.00  0.00     0.199 C 
BRANCH   9  10
ATOM     10  C   UNL     1      26.296  30.006  15.747  1.00  0.00     0.179 C 
ATOM     11  C   UNL     1      28.363  30.168  16.660  1.00  0.00     0.282 C 
ATOM     12  O   UNL     1      27.387  30.880  15.925  1.00  0.00    -0.341 OA
ATOM     13  C   UNL     1      27.950  30.064  18.124  1.00  0.00     0.202 C 
ATOM     14  C   UNL     1      26.448  30.385  18.151  1.00  0.00     0.179 C 
ATOM     15  C   UNL     1      25.834  29.518  17.071  1.00  0.00     0.177 C 
BRANCH  11  16
ATOM     16  O   UNL     1      29.529  30.880  16.603  1.00  0.00    -0.341 OA
BRANCH  16  17
ATOM     17  C   UNL     1      29.373  32.185  16.158  1.00  0.00     0.184 C 
ATOM     18  C   UNL     1      30.234  32.524  14.994  1.00  0.00     0.178 C 
ATOM     19  O   UNL     1      31.531  32.635  15.394  1.00  0.00    -0.341 OA
ATOM     20  C   UNL     1      31.801  33.707  16.212  1.00  0.00     0.281 C 
ATOM     21  C   UNL     1      29.588  33.118  17.299  1.00  0.00     0.180 C 
ATOM     22  C   UNL     1      30.774  34.007  17.232  1.00  0.00     0.202 C 
BRANCH  18  23
ATOM     23  C   UNL     1      29.694  33.750  14.296  1.00  0.00     0.191 C 
BRANCH  23  24
ATOM     24  O   UNL     1      28.298  33.815  14.391  1.00  0.00    -0.394 OA
ATOM     25  H   UNL     1      27.932  34.230  13.570  1.00  0.00     0.210 HD
ENDBRANCH  23  24
ENDBRANCH  18  23
BRANCH  20  26
ATOM     26  O   UNL     1      31.957  34.822  15.382  1.00  0.00    -0.350 OA
BRANCH  26  27
ATOM     27  C   UNL     1      33.260  35.211  15.198  1.00  0.00     0.169 C 
BRANCH  27  28
ATOM     28  C   UNL     1      33.606  34.910  13.750  1.00  0.00     0.119 C 
BRANCH  28  29
ATOM     29  N   UNL     1      32.522  35.234  12.851  1.00  0.00    -0.092 NA
ATOM     30  N   UNL     1      32.342  36.410  12.485  1.00  0.00     0.001 N 
ATOM     31  N   UNL     1      31.879  37.561  12.596  1.00  0.00    -0.003 NA
ENDBRANCH  28  29
ENDBRANCH  27  28
ENDBRANCH  26  27
ENDBRANCH  20  26
BRANCH  21  32
ATOM     32  O   UNL     1      28.455  33.965  17.444  1.00  0.00    -0.387 OA
ATOM     33  H   UNL     1      28.558  34.798  16.958  1.00  0.00     0.211 HD
ENDBRANCH  21  32
BRANCH  22  34
ATOM     34  O   UNL     1      31.429  33.946  18.491  1.00  0.00    -0.385 OA
ATOM     35  H   UNL     1      32.383  33.767  18.287  1.00  0.00     0.211 HD
ENDBRANCH  22  34
ENDBRANCH  16  17
ENDBRANCH  11  16
BRANCH  13  36
ATOM     36  O   UNL     1      28.062  28.759  18.605  1.00  0.00    -0.385 OA
ATOM     37  H   UNL     1      27.337  28.627  19.265  1.00  0.00     0.211 HD
ENDBRANCH  13  36
BRANCH  14  38
ATOM     38  O   UNL     1      26.354  31.713  17.756  1.00  0.00    -0.387 OA
ATOM     39  H   UNL     1      26.952  31.947  17.003  1.00  0.00     0.211 HD
ENDBRANCH  14  38
BRANCH  15  40
ATOM     40  O   UNL     1      24.457  29.423  17.193  1.00  0.00    -0.387 OA
ATOM     41  H   UNL     1      24.010  29.112  16.365  1.00  0.00     0.211 HD
ENDBRANCH  15  40
ENDBRANCH   9  10
ENDBRANCH   8   9
ENDBRANCH   3   8
BRANCH   3  42
ATOM     42  C   UNL     1      22.357  28.820  14.396  1.00  0.00     0.364 C 
ATOM     43  O   UNL     1      22.563  27.987  15.317  1.00  0.00    -0.246 OA
BRANCH  42  44
ATOM     44  O   UNL     1      21.293  28.467  13.531  1.00  0.00    -0.477 OA
ATOM     45  H   UNL     1      20.894  29.155  12.894  1.00  0.00     0.296 HD
ENDBRANCH  42  44
ENDBRANCH   3  42
BRANCH   6  46
ATOM     46  O   UNL     1      23.298  32.932  13.362  1.00  0.00    -0.391 OA
ATOM     47  H   UNL     1      22.985  33.290  14.250  1.00  0.00     0.211 HD
ENDBRANCH   6  46
BRANCH   7  48
ATOM     48  N   UNL     1      20.133  31.507  12.782  1.00  0.00    -0.348 N 
ATOM     49  C   UNL     1      18.830  32.042  12.725  1.00  0.00     0.217 C 
ATOM     50  H   UNL     1      20.377  30.681  12.231  1.00  0.00     0.163 HD
ATOM     51  C   UNL     1      17.809  31.413  11.844  1.00  0.00     0.114 C 
ATOM     52  O   UNL     1      18.511  33.062  13.414  1.00  0.00    -0.275 OA
ENDBRANCH   7  48
ENDBRANCH   1   2
BRANCH   1  53
ATOM     53  O   UNL     1      20.584  33.537  15.629  1.00  0.00    -0.388 OA
ATOM     54  H   UNL     1      20.494  34.137  16.428  1.00  0.00     0.211 HD
ENDBRANCH   1  53
BRANCH   1  55
ATOM     55  C   UNL     1      22.262  32.611  16.969  1.00  0.00     0.165 C 
BRANCH  55  56
ATOM     56  O   UNL     1      22.485  31.876  18.099  1.00  0.00    -0.388 OA
ATOM     57  H   UNL     1      22.030  31.006  18.124  1.00  0.00     0.211 HD
ENDBRANCH  55  56
BRANCH  55  58
ATOM     58  C   UNL     1      22.684  34.022  17.119  1.00  0.00     0.154 C 
BRANCH  58  59
ATOM     59  N   UNL     1      23.708  34.517  16.243  1.00  0.00    -0.319 N 
ATOM     60  C   UNL     1      25.068  34.690  16.610  1.00  0.00     0.407 C 
ATOM     61  H   UNL     1      23.474  34.765  15.256  1.00  0.00     0.167 HD
ATOM     62  O   UNL     1      25.446  34.398  17.750  1.00  0.00    -0.225 OA
BRANCH  60  63
ATOM     63  O   UNL     1      26.051  35.183  15.744  1.00  0.00    -0.443 OA
BRANCH  63  64
ATOM     64  C   UNL     1      25.723  36.219  14.815  1.00  0.00     0.294 C 
BRANCH  64  65
ATOM     65  C   UNL     1      25.352  35.687  13.484  1.00  0.00     0.120 A 
ATOM     66  C   UNL     1      24.409  36.269  12.664  1.00  0.00     0.141 A 
ATOM     67  N   UNL     1      25.801  34.607  12.833  1.00  0.00    -0.132 NA
ATOM     68  N   UNL     1      24.318  35.518  11.540  1.00  0.00    -0.226 N 
ATOM     69  N   UNL     1      25.176  34.518  11.676  1.00  0.00    -0.065 NA
BRANCH  68  70
ATOM     70  C   UNL     1      23.471  35.729  10.387  1.00  0.00     0.307 C 
BRANCH  70  71
ATOM     71  O   UNL     1      24.145  35.551   9.210  1.00  0.00    -0.355 OA
BRANCH  71  72
ATOM     72  C   UNL     1      24.799  36.721   8.857  1.00  0.00     0.198 C 
BRANCH  72  73
ATOM     73  C   UNL     1      26.014  36.370   8.039  1.00  0.00    -0.022 A 
ATOM     74  C   UNL     1      26.490  37.315   7.153  1.00  0.00     0.006 A 
ATOM     75  C   UNL     1      26.621  35.148   8.172  1.00  0.00     0.006 A 
ATOM     76  C   UNL     1      27.598  37.030   6.385  1.00  0.00     0.000 A 
ATOM     77  C   UNL     1      27.716  34.888   7.401  1.00  0.00     0.000 A 
ATOM     78  C   UNL     1      28.227  35.809   6.500  1.00  0.00     0.000 A 
ENDBRANCH  72  73
ENDBRANCH  71  72
ENDBRANCH  70  71
ENDBRANCH  68  70
ENDBRANCH  64  65
ENDBRANCH  63  64
ENDBRANCH  60  63
ENDBRANCH  58  59
ENDBRANCH  55  58
ENDBRANCH   1  55
TORSDOF 33
BEGIN_RES LYS A 131
REMARK  4 active torsions:
REMARK  status: ('A' for Active; 'I' for Inactive)
REMARK    1  A    between atoms: CA   and  CB  
REMARK    2  A    between atoms: CB   and  CG  
REMARK    3  A    between atoms: CG   and  CD  
REMARK    4  A    between atoms: CD   and  CE  
ROOT
ATOM      1  CA  LYS A 131      29.867  25.555  16.977  1.00 20.52     0.186 C 
ENDROOT
BRANCH   1   2
ATOM      2  CB  LYS A 131      28.345  25.722  17.026  1.00 20.94     0.034 C 
BRANCH   2   3
ATOM      3  CG  LYS A 131      27.602  24.400  16.915  1.00 22.96     0.005 C 
BRANCH   3   4
ATOM      4  CD  LYS A 131      26.242  24.459  17.553  1.00 24.33     0.041 C 
BRANCH   4   5
ATOM      5  CE  LYS A 131      26.215  25.575  18.592  1.00 26.91     0.338 C 
ATOM      6  NZ  LYS A 131      24.894  26.247  18.598  1.00 27.40     0.618 N 
ENDBRANCH   4   5
ENDBRANCH   3   4
ENDBRANCH   2   3
ENDBRANCH   1   2
END_RES LYS A 131
BEGIN_RES LYS A 135
REMARK  4 active torsions:
REMARK  status: ('A' for Active; 'I' for Inactive)
REMARK    5  A    between atoms: CA   and  CB  
REMARK    6  A    between atoms: CB   and  CG  
REMARK    7  A    between atoms: CG   and  CD  
REMARK    8  A    between atoms: CD   and  CE  
ROOT
ATOM      7  CA  LYS A 135      33.193  34.663   9.290  1.00 25.02     0.186 C 
ENDROOT
BRANCH   7   8
ATOM      8  CB  LYS A 135      32.060  35.360  10.034  1.00 26.63     0.034 C 
BRANCH   8   9
ATOM      9  CG  LYS A 135      30.728  35.256   9.337  1.00 29.45     0.005 C 
BRANCH   9  10
ATOM     10  CD  LYS A 135      29.729  36.230   9.941  1.00 32.00     0.041 C 
BRANCH  10  11
ATOM     11  CE  LYS A 135      28.953  35.570  11.065  1.00 34.25     0.338 C 
ATOM     12  NZ  LYS A 135      28.618  36.551  12.134  1.00 35.99     0.618 N 
ENDBRANCH  10  11
ENDBRANCH   9  10
ENDBRANCH   8   9
ENDBRANCH   7   8
END_RES LYS A 135
