REMARK VINA RESULT:    -4.836      4.140      8.887
REMARK INTER + INTRA:         -23.103
REMARK INTER:                 -10.148
REMARK INTRA:                 -12.955
REMARK UNBOUND:               -11.198
REMARK SMILES CC(=O)N[C@@H]1[C@@H](O)C[C@](OC[C@H]2O[C@@H](O[C@H]3[C@H](O)[C@@H](O)[C@H](OCCN=[N+]=[N-])O[C@@H]3CO)[C@H](O)[C@@H](O)[C@H]2O)(C(=O)O)O[C@H]1C(O)[C@H](O)CNC(=O)OCc1cn(C23CC4CC(CC(C4)C2)C3)nn1
REMARK SMILES IDX 9 1 8 2 6 3 5 4 42 5 41 6 10 7 11 8 12 9 14 10 13 11 32 12
REMARK SMILES IDX 34 13 36 14 15 15 16 16 29 17 28 18 21 19 17 20 19 21 30 22
REMARK SMILES IDX 31 23 22 25 23 26 24 27 25 28 26 29 27 30 18 31 20 33 33 35
REMARK SMILES IDX 35 37 37 39 38 41 39 42 40 43 7 45 43 47 44 48 45 50 46 51
REMARK SMILES IDX 47 53 48 54 49 55 50 57 51 58 52 59 53 60 54 61 67 62 55 63
REMARK SMILES IDX 66 64 56 65 65 66 64 67 57 68 60 69 62 70 58 71 59 72 61 73
REMARK SMILES IDX 63 74 4 75 2 76 1 78 3 79
REMARK H PARENT 31 24 18 32 20 34 33 36 35 38 37 40 40 44 7 46 44 49 46 52
REMARK H PARENT 48 56 4 77
REMARK Flexibility Score: inf
ROOT
ATOM      1  C   UNL     1      29.202  34.342  18.402  1.00  0.00     0.272 C 
ATOM      2  C   UNL     1      29.436  33.812  19.775  1.00  0.00     0.113 C 
ATOM      3  C   UNL     1      30.760  33.078  19.848  1.00  0.00     0.145 C 
ATOM      4  C   UNL     1      30.522  31.755  19.105  1.00  0.00     0.142 C 
ATOM      5  C   UNL     1      29.812  32.131  17.839  1.00  0.00     0.178 C 
ATOM      6  O   UNL     1      29.884  33.457  17.491  1.00  0.00    -0.332 OA
ENDROOT
BRANCH   1   7
ATOM      7  O   UNL     1      29.689  35.540  18.110  1.00  0.00    -0.338 OA
BRANCH   7   8
ATOM      8  C   UNL     1      29.245  36.733  18.414  1.00  0.00     0.199 C 
BRANCH   8   9
ATOM      9  C   UNL     1      28.771  37.728  17.408  1.00  0.00     0.179 C 
ATOM     10  C   UNL     1      28.094  38.084  15.295  1.00  0.00     0.282 C 
ATOM     11  O   UNL     1      28.518  37.053  16.159  1.00  0.00    -0.341 OA
ATOM     12  C   UNL     1      26.613  38.172  15.470  1.00  0.00     0.202 C 
ATOM     13  C   UNL     1      26.314  37.930  16.938  1.00  0.00     0.179 C 
ATOM     14  C   UNL     1      27.454  38.379  17.820  1.00  0.00     0.177 C 
BRANCH  10  15
ATOM     15  O   UNL     1      28.510  37.844  13.990  1.00  0.00    -0.341 OA
BRANCH  15  16
ATOM     16  C   UNL     1      29.695  37.169  14.006  1.00  0.00     0.184 C 
ATOM     17  C   UNL     1      30.807  37.718  13.189  1.00  0.00     0.178 C 
ATOM     18  O   UNL     1      31.991  37.137  13.699  1.00  0.00    -0.341 OA
ATOM     19  C   UNL     1      32.063  35.766  13.358  1.00  0.00     0.281 C 
ATOM     20  C   UNL     1      29.537  35.717  13.542  1.00  0.00     0.180 C 
ATOM     21  C   UNL     1      30.836  35.026  13.773  1.00  0.00     0.202 C 
BRANCH  17  22
ATOM     22  C   UNL     1      30.917  39.195  13.112  1.00  0.00     0.191 C 
BRANCH  22  23
ATOM     23  O   UNL     1      31.172  39.669  14.408  1.00  0.00    -0.394 OA
ATOM     24  H   UNL     1      30.993  40.642  14.483  1.00  0.00     0.210 HD
ENDBRANCH  22  23
ENDBRANCH  17  22
BRANCH  19  25
ATOM     25  O   UNL     1      33.134  35.281  14.072  1.00  0.00    -0.350 OA
BRANCH  25  26
ATOM     26  C   UNL     1      32.972  35.145  15.402  1.00  0.00     0.169 C 
BRANCH  26  27
ATOM     27  C   UNL     1      33.919  35.988  16.195  1.00  0.00     0.119 C 
BRANCH  27  28
ATOM     28  N   UNL     1      33.179  36.883  17.093  1.00  0.00    -0.092 NA
ATOM     29  N   UNL     1      33.444  38.077  17.041  1.00  0.00     0.001 N 
ATOM     30  N   UNL     1      33.750  39.257  17.316  1.00  0.00    -0.003 NA
ENDBRANCH  27  28
ENDBRANCH  26  27
ENDBRANCH  25  26
ENDBRANCH  19  25
BRANCH  20  31
ATOM     31  O   UNL     1      28.545  35.058  14.267  1.00  0.00    -0.387 OA
ATOM     32  H   UNL     1      28.874  34.887  15.176  1.00  0.00     0.211 HD
ENDBRANCH  20  31
BRANCH  21  33
ATOM     33  O   UNL     1      30.782  33.815  13.086  1.00  0.00    -0.385 OA
ATOM     34  H   UNL     1      31.357  33.836  12.297  1.00  0.00     0.211 HD
ENDBRANCH  21  33
ENDBRANCH  15  16
ENDBRANCH  10  15
BRANCH  12  35
ATOM     35  O   UNL     1      26.027  39.323  15.007  1.00  0.00    -0.385 OA
ATOM     36  H   UNL     1      26.507  40.115  15.347  1.00  0.00     0.211 HD
ENDBRANCH  12  35
BRANCH  13  37
ATOM     37  O   UNL     1      25.957  36.614  17.200  1.00  0.00    -0.387 OA
ATOM     38  H   UNL     1      25.584  36.203  16.354  1.00  0.00     0.211 HD
ENDBRANCH  13  37
BRANCH  14  39
ATOM     39  O   UNL     1      27.174  37.975  19.118  1.00  0.00    -0.387 OA
ATOM     40  H   UNL     1      27.060  38.750  19.728  1.00  0.00     0.211 HD
ENDBRANCH  14  39
ENDBRANCH   8   9
ENDBRANCH   7   8
ENDBRANCH   1   7
BRANCH   1  41
ATOM     41  C   UNL     1      27.794  34.146  18.021  1.00  0.00     0.364 C 
ATOM     42  O   UNL     1      26.843  33.957  18.791  1.00  0.00    -0.246 OA
BRANCH  41  43
ATOM     43  O   UNL     1      27.540  34.182  16.618  1.00  0.00    -0.477 OA
ATOM     44  H   UNL     1      27.364  33.320  16.148  1.00  0.00     0.296 HD
ENDBRANCH  41  43
ENDBRANCH   1  41
BRANCH   3  45
ATOM     45  O   UNL     1      31.719  33.783  19.133  1.00  0.00    -0.391 OA
ATOM     46  H   UNL     1      31.249  34.254  18.398  1.00  0.00     0.211 HD
ENDBRANCH   3  45
BRANCH   5  47
ATOM     47  C   UNL     1      30.460  31.400  16.602  1.00  0.00     0.176 C 
BRANCH  47  48
ATOM     48  O   UNL     1      31.410  32.361  16.199  1.00  0.00    -0.388 OA
ATOM     49  H   UNL     1      32.206  31.840  15.928  1.00  0.00     0.211 HD
ENDBRANCH  47  48
BRANCH  47  50
ATOM     50  C   UNL     1      29.463  31.209  15.549  1.00  0.00     0.165 C 
BRANCH  50  51
ATOM     51  O   UNL     1      28.960  32.388  14.969  1.00  0.00    -0.388 OA
ATOM     52  H   UNL     1      27.957  32.347  14.969  1.00  0.00     0.211 HD
ENDBRANCH  50  51
BRANCH  50  53
ATOM     53  C   UNL     1      28.331  30.295  15.822  1.00  0.00     0.154 C 
BRANCH  53  54
ATOM     54  N   UNL     1      27.053  30.906  15.822  1.00  0.00    -0.319 N 
ATOM     55  C   UNL     1      26.144  31.014  16.884  1.00  0.00     0.407 C 
ATOM     56  H   UNL     1      26.749  31.344  14.864  1.00  0.00     0.167 HD
ATOM     57  O   UNL     1      26.399  30.528  17.997  1.00  0.00    -0.225 OA
BRANCH  55  58
ATOM     58  O   UNL     1      24.922  31.694  16.661  1.00  0.00    -0.443 OA
BRANCH  58  59
ATOM     59  C   UNL     1      24.440  31.762  15.343  1.00  0.00     0.294 C 
BRANCH  59  60
ATOM     60  C   UNL     1      24.791  33.064  14.755  1.00  0.00     0.120 A 
ATOM     61  C   UNL     1      24.941  33.316  13.416  1.00  0.00     0.138 A 
ATOM     62  N   UNL     1      25.026  34.228  15.387  1.00  0.00    -0.132 NA
ATOM     63  N   UNL     1      25.257  34.607  13.282  1.00  0.00    -0.246 N 
ATOM     64  N   UNL     1      25.302  35.132  14.490  1.00  0.00    -0.066 NA
BRANCH  63  65
ATOM     65  C   UNL     1      25.493  35.240  11.999  1.00  0.00     0.065 C 
ATOM     66  C   UNL     1      26.681  34.597  11.357  1.00  0.00     0.034 C 
ATOM     67  C   UNL     1      24.242  35.170  11.147  1.00  0.00     0.034 C 
ATOM     68  C   UNL     1      25.808  36.711  12.207  1.00  0.00     0.034 C 
ATOM     69  C   UNL     1      26.942  35.203  10.001  1.00  0.00    -0.008 C 
ATOM     70  C   UNL     1      24.542  35.719   9.784  1.00  0.00    -0.008 C 
ATOM     71  C   UNL     1      26.039  37.322  10.845  1.00  0.00    -0.008 C 
ATOM     72  C   UNL     1      27.219  36.676  10.172  1.00  0.00     0.007 C 
ATOM     73  C   UNL     1      25.702  35.005   9.160  1.00  0.00     0.007 C 
ATOM     74  C   UNL     1      24.847  37.202   9.938  1.00  0.00     0.007 C 
ENDBRANCH  63  65
ENDBRANCH  59  60
ENDBRANCH  58  59
ENDBRANCH  55  58
ENDBRANCH  53  54
ENDBRANCH  50  53
ENDBRANCH  47  50
ENDBRANCH   5  47
BRANCH   4  75
ATOM     75  N   UNL     1      29.652  30.923  19.943  1.00  0.00    -0.348 N 
ATOM     76  C   UNL     1      30.124  29.714  20.524  1.00  0.00     0.217 C 
ATOM     77  H   UNL     1      28.658  31.213  20.121  1.00  0.00     0.163 HD
ATOM     78  C   UNL     1      29.211  28.868  21.376  1.00  0.00     0.114 C 
ATOM     79  O   UNL     1      31.308  29.376  20.307  1.00  0.00    -0.275 OA
ENDBRANCH   4  75
TORSDOF 30
BEGIN_RES LYS A 131
REMARK  4 active torsions:
REMARK  status: ('A' for Active; 'I' for Inactive)
REMARK    1  A    between atoms: CA   and  CB  
REMARK    2  A    between atoms: CB   and  CG  
REMARK    3  A    between atoms: CG   and  CD  
REMARK    4  A    between atoms: CD   and  CE  
ROOT
ATOM      1  CA  LYS A 131      29.867  25.555  16.977  1.00 20.52     0.186 C 
ENDROOT
BRANCH   1   2
ATOM      2  CB  LYS A 131      28.345  25.722  17.026  1.00 20.94     0.034 C 
BRANCH   2   3
ATOM      3  CG  LYS A 131      27.602  24.399  16.925  1.00 22.96     0.005 C 
BRANCH   3   4
ATOM      4  CD  LYS A 131      26.470  24.308  17.910  1.00 24.33     0.041 C 
BRANCH   4   5
ATOM      5  CE  LYS A 131      26.085  25.709  18.374  1.00 26.91     0.338 C 
ATOM      6  NZ  LYS A 131      25.848  25.724  19.837  1.00 27.40     0.618 N 
ENDBRANCH   4   5
ENDBRANCH   3   4
ENDBRANCH   2   3
ENDBRANCH   1   2
END_RES LYS A 131
BEGIN_RES LYS A 135
REMARK  4 active torsions:
REMARK  status: ('A' for Active; 'I' for Inactive)
REMARK    5  A    between atoms: CA   and  CB  
REMARK    6  A    between atoms: CB   and  CG  
REMARK    7  A    between atoms: CG   and  CD  
REMARK    8  A    between atoms: CD   and  CE  
ROOT
ATOM      7  CA  LYS A 135      33.193  34.663   9.290  1.00 25.02     0.186 C 
ENDROOT
BRANCH   7   8
ATOM      8  CB  LYS A 135      32.060  35.360  10.034  1.00 26.63     0.034 C 
BRANCH   8   9
ATOM      9  CG  LYS A 135      30.694  34.828   9.686  1.00 29.45     0.005 C 
BRANCH   9  10
ATOM     10  CD  LYS A 135      30.628  34.437   8.217  1.00 32.00     0.041 C 
BRANCH  10  11
ATOM     11  CE  LYS A 135      29.462  35.125   7.534  1.00 34.25     0.338 C 
ATOM     12  NZ  LYS A 135      29.580  36.606   7.632  1.00 35.99     0.618 N 
ENDBRANCH  10  11
ENDBRANCH   9  10
ENDBRANCH   8   9
ENDBRANCH   7   8
END_RES LYS A 135
