REMARK VINA RESULT:    -4.163      5.581     11.083
REMARK INTER + INTRA:         -22.881
REMARK INTER:                  -7.723
REMARK INTRA:                 -15.157
REMARK UNBOUND:               -12.269
REMARK SMILES CC(=O)N[C@@H]1[C@@H](O)C[C@](OC[C@H]2O[C@@H](O[C@H]3[C@H](O)[C@@H](O)[C@H](OCCN=[N+]=[N-])O[C@@H]3CO)[C@H](O)[C@@H](O)[C@H]2O)(C(=O)O)O[C@H]1C(O)[C@H](O)CNC(=O)OCc1cn(-c2cccc(S(N)(=O)=O)c2)nn1
REMARK SMILES IDX 9 1 8 2 6 3 5 4 42 5 41 6 10 7 11 8 12 9 14 10 13 11 32 12
REMARK SMILES IDX 34 13 36 14 15 15 16 16 29 17 28 18 21 19 17 20 19 21 30 22
REMARK SMILES IDX 31 23 22 25 23 26 24 27 25 28 26 29 27 30 18 31 20 33 33 35
REMARK SMILES IDX 35 37 37 39 38 41 39 42 40 43 7 45 43 47 44 48 45 50 46 51
REMARK SMILES IDX 47 53 48 54 49 55 50 57 51 58 52 59 53 60 54 61 67 62 55 63
REMARK SMILES IDX 66 64 56 65 65 66 57 67 60 68 58 69 59 70 61 71 63 72 64 73
REMARK SMILES IDX 62 74 4 77 2 78 1 80 3 81
REMARK H PARENT 31 24 18 32 20 34 33 36 35 38 37 40 40 44 7 46 44 49 46 52
REMARK H PARENT 48 56 62 75 62 76 4 79
REMARK Flexibility Score: inf
ROOT
ATOM      1  C   UNL     1      26.404  29.084  18.711  1.00  0.00     0.272 C 
ATOM      2  C   UNL     1      27.410  28.597  17.649  1.00  0.00     0.113 C 
ATOM      3  C   UNL     1      27.585  29.686  16.650  1.00  0.00     0.145 C 
ATOM      4  C   UNL     1      28.076  30.932  17.298  1.00  0.00     0.142 C 
ATOM      5  C   UNL     1      27.577  31.105  18.689  1.00  0.00     0.178 C 
ATOM      6  O   UNL     1      26.921  30.136  19.338  1.00  0.00    -0.332 OA
ENDROOT
BRANCH   1   7
ATOM      7  O   UNL     1      26.296  27.960  19.574  1.00  0.00    -0.338 OA
BRANCH   7   8
ATOM      8  C   UNL     1      25.317  28.204  20.487  1.00  0.00     0.199 C 
BRANCH   8   9
ATOM      9  C   UNL     1      25.820  28.172  21.915  1.00  0.00     0.179 C 
ATOM     10  C   UNL     1      27.320  27.105  23.185  1.00  0.00     0.282 C 
ATOM     11  O   UNL     1      27.170  27.835  21.979  1.00  0.00    -0.341 OA
ATOM     12  C   UNL     1      26.662  27.785  24.329  1.00  0.00     0.202 C 
ATOM     13  C   UNL     1      26.233  29.207  24.067  1.00  0.00     0.179 C 
ATOM     14  C   UNL     1      25.600  29.404  22.702  1.00  0.00     0.177 C 
BRANCH  10  15
ATOM     15  O   UNL     1      28.621  26.711  23.371  1.00  0.00    -0.341 OA
BRANCH  15  16
ATOM     16  C   UNL     1      29.574  27.624  22.987  1.00  0.00     0.184 C 
ATOM     17  C   UNL     1      30.710  26.899  22.307  1.00  0.00     0.178 C 
ATOM     18  O   UNL     1      31.947  27.408  22.722  1.00  0.00    -0.341 OA
ATOM     19  C   UNL     1      32.178  26.967  24.003  1.00  0.00     0.281 C 
ATOM     20  C   UNL     1      30.047  28.320  24.245  1.00  0.00     0.180 C 
ATOM     21  C   UNL     1      31.190  27.623  24.912  1.00  0.00     0.202 C 
BRANCH  17  22
ATOM     22  C   UNL     1      30.683  26.996  20.815  1.00  0.00     0.191 C 
BRANCH  22  23
ATOM     23  O   UNL     1      29.361  26.990  20.328  1.00  0.00    -0.394 OA
ATOM     24  H   UNL     1      28.802  27.646  20.808  1.00  0.00     0.210 HD
ENDBRANCH  22  23
ENDBRANCH  17  22
BRANCH  19  25
ATOM     25  O   UNL     1      33.464  27.269  24.450  1.00  0.00    -0.350 OA
BRANCH  25  26
ATOM     26  C   UNL     1      34.473  26.905  23.600  1.00  0.00     0.169 C 
BRANCH  26  27
ATOM     27  C   UNL     1      35.807  27.561  23.888  1.00  0.00     0.119 C 
BRANCH  27  28
ATOM     28  N   UNL     1      35.922  28.843  23.221  1.00  0.00    -0.092 NA
ATOM     29  N   UNL     1      34.963  29.404  22.698  1.00  0.00     0.001 N 
ATOM     30  N   UNL     1      34.084  30.037  22.141  1.00  0.00    -0.003 NA
ENDBRANCH  27  28
ENDBRANCH  26  27
ENDBRANCH  25  26
ENDBRANCH  19  25
BRANCH  20  31
ATOM     31  O   UNL     1      30.482  29.612  23.901  1.00  0.00    -0.387 OA
ATOM     32  H   UNL     1      30.776  29.669  22.958  1.00  0.00     0.211 HD
ENDBRANCH  20  31
BRANCH  21  33
ATOM     33  O   UNL     1      30.703  26.631  25.795  1.00  0.00    -0.385 OA
ATOM     34  H   UNL     1      30.416  27.092  26.617  1.00  0.00     0.211 HD
ENDBRANCH  21  33
ENDBRANCH  15  16
ENDBRANCH  10  15
BRANCH  12  35
ATOM     35  O   UNL     1      25.592  27.039  24.880  1.00  0.00    -0.385 OA
ATOM     36  H   UNL     1      24.806  27.299  24.301  1.00  0.00     0.211 HD
ENDBRANCH  12  35
BRANCH  13  37
ATOM     37  O   UNL     1      27.240  30.112  24.346  1.00  0.00    -0.387 OA
ATOM     38  H   UNL     1      27.123  30.871  23.689  1.00  0.00     0.211 HD
ENDBRANCH  13  37
BRANCH  14  39
ATOM     39  O   UNL     1      26.278  30.463  22.087  1.00  0.00    -0.387 OA
ATOM     40  H   UNL     1      26.074  30.521  21.120  1.00  0.00     0.211 HD
ENDBRANCH  14  39
ENDBRANCH   8   9
ENDBRANCH   7   8
ENDBRANCH   1   7
BRANCH   1  41
ATOM     41  C   UNL     1      25.123  29.276  17.988  1.00  0.00     0.364 C 
ATOM     42  O   UNL     1      24.657  28.286  17.313  1.00  0.00    -0.246 OA
BRANCH  41  43
ATOM     43  O   UNL     1      24.362  30.407  17.957  1.00  0.00    -0.477 OA
ATOM     44  H   UNL     1      23.665  30.594  17.225  1.00  0.00     0.296 HD
ENDBRANCH  41  43
ENDBRANCH   1  41
BRANCH   3  45
ATOM     45  O   UNL     1      28.537  29.194  15.712  1.00  0.00    -0.391 OA
ATOM     46  H   UNL     1      28.784  30.009  15.174  1.00  0.00     0.211 HD
ENDBRANCH   3  45
BRANCH   5  47
ATOM     47  C   UNL     1      28.769  31.590  19.548  1.00  0.00     0.176 C 
BRANCH  47  48
ATOM     48  O   UNL     1      29.598  32.359  18.754  1.00  0.00    -0.388 OA
ATOM     49  H   UNL     1      29.979  31.912  17.980  1.00  0.00     0.211 HD
ENDBRANCH  47  48
BRANCH  47  50
ATOM     50  C   UNL     1      29.404  30.450  20.247  1.00  0.00     0.165 C 
BRANCH  50  51
ATOM     51  O   UNL     1      28.931  30.398  21.557  1.00  0.00    -0.388 OA
ATOM     52  H   UNL     1      28.769  31.352  21.807  1.00  0.00     0.211 HD
ENDBRANCH  50  51
BRANCH  50  53
ATOM     53  C   UNL     1      30.916  30.578  20.317  1.00  0.00     0.154 C 
BRANCH  53  54
ATOM     54  N   UNL     1      31.249  31.285  21.531  1.00  0.00    -0.319 N 
ATOM     55  C   UNL     1      31.735  32.644  21.451  1.00  0.00     0.407 C 
ATOM     56  H   UNL     1      31.159  30.853  22.478  1.00  0.00     0.167 HD
ATOM     57  O   UNL     1      31.873  33.220  20.341  1.00  0.00    -0.225 OA
BRANCH  55  58
ATOM     58  O   UNL     1      32.030  33.260  22.650  1.00  0.00    -0.443 OA
BRANCH  58  59
ATOM     59  C   UNL     1      31.127  34.133  23.260  1.00  0.00     0.294 C 
BRANCH  59  60
ATOM     60  C   UNL     1      29.738  33.668  23.128  1.00  0.00     0.121 A 
ATOM     61  C   UNL     1      28.746  34.364  22.423  1.00  0.00     0.144 A 
ATOM     62  N   UNL     1      29.160  32.573  23.605  1.00  0.00    -0.131 NA
ATOM     63  N   UNL     1      27.628  33.653  22.515  1.00  0.00    -0.220 N 
ATOM     64  N   UNL     1      27.897  32.592  23.222  1.00  0.00    -0.062 NA
BRANCH  63  65
ATOM     65  C   UNL     1      26.386  34.038  21.909  1.00  0.00     0.068 A 
ATOM     66  C   UNL     1      26.314  34.120  20.516  1.00  0.00     0.050 A 
ATOM     67  C   UNL     1      25.292  34.320  22.670  1.00  0.00     0.028 A 
ATOM     68  C   UNL     1      25.149  34.482  19.888  1.00  0.00     0.084 A 
ATOM     69  C   UNL     1      24.133  34.680  22.060  1.00  0.00     0.004 A 
ATOM     70  C   UNL     1      24.037  34.767  20.669  1.00  0.00     0.022 A 
BRANCH  68  71
ATOM     71  S   UNL     1      24.987  34.601  18.159  1.00  0.00     0.238 S 
ATOM     72  O   UNL     1      23.640  35.187  17.841  1.00  0.00    -0.207 OA
ATOM     73  O   UNL     1      25.083  33.249  17.532  1.00  0.00    -0.207 OA
BRANCH  71  74
ATOM     74  N   UNL     1      26.247  35.639  17.555  1.00  0.00    -0.225 NA
ATOM     75  H   UNL     1      25.837  36.262  16.824  1.00  0.00     0.137 HD
ATOM     76  H   UNL     1      27.076  35.095  17.237  1.00  0.00     0.137 HD
ENDBRANCH  71  74
ENDBRANCH  68  71
ENDBRANCH  63  65
ENDBRANCH  59  60
ENDBRANCH  58  59
ENDBRANCH  55  58
ENDBRANCH  53  54
ENDBRANCH  50  53
ENDBRANCH  47  50
ENDBRANCH   5  47
BRANCH   4  77
ATOM     77  N   UNL     1      27.589  32.057  16.484  1.00  0.00    -0.348 N 
ATOM     78  C   UNL     1      28.442  32.823  15.645  1.00  0.00     0.217 C 
ATOM     79  H   UNL     1      26.580  32.308  16.520  1.00  0.00     0.163 HD
ATOM     80  C   UNL     1      27.891  33.947  14.846  1.00  0.00     0.114 C 
ATOM     81  O   UNL     1      29.669  32.516  15.607  1.00  0.00    -0.275 OA
ENDBRANCH   4  77
TORSDOF 32
BEGIN_RES LYS A 131
REMARK  4 active torsions:
REMARK  status: ('A' for Active; 'I' for Inactive)
REMARK    1  A    between atoms: CA   and  CB  
REMARK    2  A    between atoms: CB   and  CG  
REMARK    3  A    between atoms: CG   and  CD  
REMARK    4  A    between atoms: CD   and  CE  
ROOT
ATOM      1  CA  LYS A 131      29.867  25.555  16.977  1.00 20.52     0.186 C 
ENDROOT
BRANCH   1   2
ATOM      2  CB  LYS A 131      28.345  25.722  17.026  1.00 20.94     0.034 C 
BRANCH   2   3
ATOM      3  CG  LYS A 131      27.599  24.475  16.576  1.00 22.96     0.005 C 
BRANCH   3   4
ATOM      4  CD  LYS A 131      27.009  23.719  17.734  1.00 24.33     0.041 C 
BRANCH   4   5
ATOM      5  CE  LYS A 131      26.302  24.693  18.671  1.00 26.91     0.338 C 
ATOM      6  NZ  LYS A 131      25.421  23.961  19.611  1.00 27.40     0.618 N 
ENDBRANCH   4   5
ENDBRANCH   3   4
ENDBRANCH   2   3
ENDBRANCH   1   2
END_RES LYS A 131
BEGIN_RES LYS A 135
REMARK  4 active torsions:
REMARK  status: ('A' for Active; 'I' for Inactive)
REMARK    5  A    between atoms: CA   and  CB  
REMARK    6  A    between atoms: CB   and  CG  
REMARK    7  A    between atoms: CG   and  CD  
REMARK    8  A    between atoms: CD   and  CE  
ROOT
ATOM      7  CA  LYS A 135      33.193  34.663   9.290  1.00 25.02     0.186 C 
ENDROOT
BRANCH   7   8
ATOM      8  CB  LYS A 135      32.060  35.360  10.034  1.00 26.63     0.034 C 
BRANCH   8   9
ATOM      9  CG  LYS A 135      30.711  34.730   9.804  1.00 29.45     0.005 C 
BRANCH   9  10
ATOM     10  CD  LYS A 135      30.457  34.534   8.317  1.00 32.00     0.041 C 
BRANCH  10  11
ATOM     11  CE  LYS A 135      29.007  34.827   7.981  1.00 34.25     0.338 C 
ATOM     12  NZ  LYS A 135      28.892  35.546   6.682  1.00 35.99     0.618 N 
ENDBRANCH  10  11
ENDBRANCH   9  10
ENDBRANCH   8   9
ENDBRANCH   7   8
END_RES LYS A 135
