REMARK VINA RESULT:    -5.348      4.713      9.819
REMARK INTER + INTRA:         -21.270
REMARK INTER:                 -12.003
REMARK INTRA:                  -9.267
REMARK UNBOUND:                -8.107
REMARK SMILES CC(=O)N[C@@H]1[C@@H](O)C[C@](OC[C@H]2O[C@@H](O[C@H]3[C@H](O)[C@@H](O)[C@H](OCCN=[N+]=[N-])O[C@@H]3CO)[C@H](O)[C@@H](O)[C@H]2O)(C(=O)O)O[C@H]1C(O)[C@H](O)CNC(=O)OCc1cn(C2CCN(C)CC2)nn1
REMARK SMILES IDX 9 1 8 2 6 3 5 4 42 5 41 6 10 7 11 8 12 9 14 10 13 11 32 12
REMARK SMILES IDX 34 13 36 14 15 15 16 16 29 17 28 18 21 19 17 20 19 21 30 22
REMARK SMILES IDX 31 23 22 25 23 26 24 27 25 28 26 29 27 30 18 31 20 33 33 35
REMARK SMILES IDX 35 37 37 39 38 41 39 42 40 43 7 45 43 47 44 48 45 50 46 51
REMARK SMILES IDX 47 53 48 54 49 55 50 57 51 58 52 59 53 60 54 61 64 62 55 63
REMARK SMILES IDX 63 64 56 65 57 66 62 67 58 68 61 69 59 70 60 71 4 72 2 73
REMARK SMILES IDX 1 75 3 76
REMARK H PARENT 31 24 18 32 20 34 33 36 35 38 37 40 40 44 7 46 44 49 46 52
REMARK H PARENT 48 56 4 74
REMARK Flexibility Score: inf
ROOT
ATOM      1  C   UNL     1      27.529  35.344  12.798  1.00  0.00     0.272 C 
ATOM      2  C   UNL     1      28.865  34.982  12.174  1.00  0.00     0.113 C 
ATOM      3  C   UNL     1      30.027  34.973  13.078  1.00  0.00     0.145 C 
ATOM      4  C   UNL     1      29.753  34.422  14.460  1.00  0.00     0.142 C 
ATOM      5  C   UNL     1      28.323  34.459  14.838  1.00  0.00     0.178 C 
ATOM      6  O   UNL     1      27.372  34.457  13.912  1.00  0.00    -0.332 OA
ENDROOT
BRANCH   1   7
ATOM      7  O   UNL     1      26.553  34.940  11.970  1.00  0.00    -0.338 OA
BRANCH   7   8
ATOM      8  C   UNL     1      25.341  34.538  12.156  1.00  0.00     0.199 C 
BRANCH   8   9
ATOM      9  C   UNL     1      24.229  35.410  12.652  1.00  0.00     0.179 C 
ATOM     10  C   UNL     1      22.614  35.604  10.904  1.00  0.00     0.282 C 
ATOM     11  O   UNL     1      23.714  36.047  11.556  1.00  0.00    -0.341 OA
ATOM     12  C   UNL     1      22.054  34.351  11.421  1.00  0.00     0.202 C 
ATOM     13  C   UNL     1      21.861  34.573  12.931  1.00  0.00     0.179 C 
ATOM     14  C   UNL     1      23.228  34.701  13.500  1.00  0.00     0.177 C 
BRANCH  10  15
ATOM     15  O   UNL     1      22.967  35.659   9.562  1.00  0.00    -0.341 OA
BRANCH  15  16
ATOM     16  C   UNL     1      23.458  36.807   9.094  1.00  0.00     0.184 C 
ATOM     17  C   UNL     1      22.652  37.320   7.951  1.00  0.00     0.178 C 
ATOM     18  O   UNL     1      22.932  38.681   7.783  1.00  0.00    -0.341 OA
ATOM     19  C   UNL     1      24.228  38.841   7.353  1.00  0.00     0.281 C 
ATOM     20  C   UNL     1      24.878  36.691   8.519  1.00  0.00     0.180 C 
ATOM     21  C   UNL     1      25.266  38.126   8.175  1.00  0.00     0.202 C 
BRANCH  17  22
ATOM     22  C   UNL     1      21.191  37.043   8.025  1.00  0.00     0.191 C 
BRANCH  22  23
ATOM     23  O   UNL     1      20.940  35.803   7.455  1.00  0.00    -0.394 OA
ATOM     24  H   UNL     1      21.003  35.069   8.118  1.00  0.00     0.210 HD
ENDBRANCH  22  23
ENDBRANCH  17  22
BRANCH  19  25
ATOM     25  O   UNL     1      24.519  40.208   7.472  1.00  0.00    -0.350 OA
BRANCH  25  26
ATOM     26  C   UNL     1      24.324  40.926   6.321  1.00  0.00     0.169 C 
BRANCH  26  27
ATOM     27  C   UNL     1      23.521  42.195   6.525  1.00  0.00     0.119 C 
BRANCH  27  28
ATOM     28  N   UNL     1      22.097  41.924   6.478  1.00  0.00    -0.092 NA
ATOM     29  N   UNL     1      21.440  41.808   7.510  1.00  0.00     0.001 N 
ATOM     30  N   UNL     1      20.788  41.233   8.384  1.00  0.00    -0.003 NA
ENDBRANCH  27  28
ENDBRANCH  26  27
ENDBRANCH  25  26
ENDBRANCH  19  25
BRANCH  20  31
ATOM     31  O   UNL     1      25.795  36.245   9.432  1.00  0.00    -0.387 OA
ATOM     32  H   UNL     1      25.326  35.962  10.247  1.00  0.00     0.211 HD
ENDBRANCH  20  31
BRANCH  21  33
ATOM     33  O   UNL     1      26.475  38.126   7.525  1.00  0.00    -0.385 OA
ATOM     34  H   UNL     1      26.831  37.235   7.380  1.00  0.00     0.211 HD
ENDBRANCH  21  33
ENDBRANCH  15  16
ENDBRANCH  10  15
BRANCH  12  35
ATOM     35  O   UNL     1      20.768  34.051  10.978  1.00  0.00    -0.385 OA
ATOM     36  H   UNL     1      20.636  34.386  10.057  1.00  0.00     0.211 HD
ENDBRANCH  12  35
BRANCH  13  37
ATOM     37  O   UNL     1      21.126  33.576  13.521  1.00  0.00    -0.387 OA
ATOM     38  H   UNL     1      20.195  33.650  13.189  1.00  0.00     0.211 HD
ENDBRANCH  13  37
BRANCH  14  39
ATOM     39  O   UNL     1      23.705  33.425  13.789  1.00  0.00    -0.387 OA
ATOM     40  H   UNL     1      24.685  33.355  13.731  1.00  0.00     0.211 HD
ENDBRANCH  14  39
ENDBRANCH   8   9
ENDBRANCH   7   8
ENDBRANCH   1   7
BRANCH   1  41
ATOM     41  C   UNL     1      27.594  36.708  13.302  1.00  0.00     0.364 C 
ATOM     42  O   UNL     1      26.782  37.015  14.266  1.00  0.00    -0.246 OA
BRANCH  41  43
ATOM     43  O   UNL     1      28.380  37.765  12.928  1.00  0.00    -0.477 OA
ATOM     44  H   UNL     1      29.261  38.015  13.378  1.00  0.00     0.296 HD
ENDBRANCH  41  43
ENDBRANCH   1  41
BRANCH   3  45
ATOM     45  O   UNL     1      31.064  34.196  12.480  1.00  0.00    -0.391 OA
ATOM     46  H   UNL     1      30.783  33.849  11.608  1.00  0.00     0.211 HD
ENDBRANCH   3  45
BRANCH   5  47
ATOM     47  C   UNL     1      27.988  33.314  15.833  1.00  0.00     0.176 C 
BRANCH  47  48
ATOM     48  O   UNL     1      29.027  32.393  15.830  1.00  0.00    -0.388 OA
ATOM     49  H   UNL     1      28.898  31.669  15.182  1.00  0.00     0.211 HD
ENDBRANCH  47  48
BRANCH  47  50
ATOM     50  C   UNL     1      26.709  32.696  15.499  1.00  0.00     0.165 C 
BRANCH  50  51
ATOM     51  O   UNL     1      25.699  33.469  16.195  1.00  0.00    -0.388 OA
ATOM     52  H   UNL     1      25.068  33.838  15.531  1.00  0.00     0.211 HD
ENDBRANCH  50  51
BRANCH  50  53
ATOM     53  C   UNL     1      26.449  31.283  15.799  1.00  0.00     0.154 C 
BRANCH  53  54
ATOM     54  N   UNL     1      25.653  30.458  14.993  1.00  0.00    -0.319 N 
ATOM     55  C   UNL     1      24.386  29.907  15.311  1.00  0.00     0.407 C 
ATOM     56  H   UNL     1      26.038  30.204  14.020  1.00  0.00     0.167 HD
ATOM     57  O   UNL     1      23.820  30.160  16.392  1.00  0.00    -0.225 OA
BRANCH  55  58
ATOM     58  O   UNL     1      23.769  29.056  14.367  1.00  0.00    -0.443 OA
BRANCH  58  59
ATOM     59  C   UNL     1      23.726  29.455  13.021  1.00  0.00     0.294 C 
BRANCH  59  60
ATOM     60  C   UNL     1      22.346  29.891  12.700  1.00  0.00     0.120 A 
ATOM     61  C   UNL     1      21.213  29.060  12.644  1.00  0.00     0.138 A 
ATOM     62  N   UNL     1      21.863  31.108  12.410  1.00  0.00    -0.132 NA
ATOM     63  N   UNL     1      20.129  29.792  12.333  1.00  0.00    -0.249 N 
ATOM     64  N   UNL     1      20.550  31.022  12.198  1.00  0.00    -0.067 NA
BRANCH  63  65
ATOM     65  C   UNL     1      18.779  29.303  12.184  1.00  0.00     0.111 C 
ATOM     66  C   UNL     1      17.951  30.418  11.611  1.00  0.00     0.043 C 
ATOM     67  C   UNL     1      18.702  28.109  11.273  1.00  0.00     0.043 C 
ATOM     68  C   UNL     1      17.715  30.160  10.141  1.00  0.00     0.086 C 
ATOM     69  C   UNL     1      17.320  27.869  10.727  1.00  0.00     0.086 C 
ATOM     70  N   UNL     1      16.796  29.027  10.034  1.00  0.00    -0.306 NA
ATOM     71  C   UNL     1      15.540  29.420  10.648  1.00  0.00     0.105 C 
ENDBRANCH  63  65
ENDBRANCH  59  60
ENDBRANCH  58  59
ENDBRANCH  55  58
ENDBRANCH  53  54
ENDBRANCH  50  53
ENDBRANCH  47  50
ENDBRANCH   5  47
BRANCH   4  72
ATOM     72  N   UNL     1      30.584  35.060  15.463  1.00  0.00    -0.348 N 
ATOM     73  C   UNL     1      31.745  34.398  15.922  1.00  0.00     0.217 C 
ATOM     74  H   UNL     1      30.354  36.002  15.863  1.00  0.00     0.163 HD
ATOM     75  C   UNL     1      32.635  35.012  16.959  1.00  0.00     0.114 C 
ATOM     76  O   UNL     1      32.051  33.255  15.453  1.00  0.00    -0.275 OA
ENDBRANCH   4  72
TORSDOF 30
BEGIN_RES LYS A 131
REMARK  4 active torsions:
REMARK  status: ('A' for Active; 'I' for Inactive)
REMARK    1  A    between atoms: CA   and  CB  
REMARK    2  A    between atoms: CB   and  CG  
REMARK    3  A    between atoms: CG   and  CD  
REMARK    4  A    between atoms: CD   and  CE  
ROOT
ATOM      1  CA  LYS A 131      29.867  25.555  16.977  1.00 20.52     0.186 C 
ENDROOT
BRANCH   1   2
ATOM      2  CB  LYS A 131      28.345  25.722  17.026  1.00 20.94     0.034 C 
BRANCH   2   3
ATOM      3  CG  LYS A 131      27.602  24.399  16.926  1.00 22.96     0.005 C 
BRANCH   3   4
ATOM      4  CD  LYS A 131      26.151  24.534  17.297  1.00 24.33     0.041 C 
BRANCH   4   5
ATOM      5  CE  LYS A 131      25.962  25.772  18.168  1.00 26.91     0.338 C 
ATOM      6  NZ  LYS A 131      24.810  26.572  17.689  1.00 27.40     0.618 N 
ENDBRANCH   4   5
ENDBRANCH   3   4
ENDBRANCH   2   3
ENDBRANCH   1   2
END_RES LYS A 131
BEGIN_RES LYS A 135
REMARK  4 active torsions:
REMARK  status: ('A' for Active; 'I' for Inactive)
REMARK    5  A    between atoms: CA   and  CB  
REMARK    6  A    between atoms: CB   and  CG  
REMARK    7  A    between atoms: CG   and  CD  
REMARK    8  A    between atoms: CD   and  CE  
ROOT
ATOM      7  CA  LYS A 135      33.193  34.663   9.290  1.00 25.02     0.186 C 
ENDROOT
BRANCH   7   8
ATOM      8  CB  LYS A 135      32.060  35.360  10.034  1.00 26.63     0.034 C 
BRANCH   8   9
ATOM      9  CG  LYS A 135      30.852  35.631   9.175  1.00 29.45     0.005 C 
BRANCH   9  10
ATOM     10  CD  LYS A 135      30.212  34.327   8.723  1.00 32.00     0.041 C 
BRANCH  10  11
ATOM     11  CE  LYS A 135      28.736  34.529   8.439  1.00 34.25     0.338 C 
ATOM     12  NZ  LYS A 135      28.532  35.319   7.193  1.00 35.99     0.618 N 
ENDBRANCH  10  11
ENDBRANCH   9  10
ENDBRANCH   8   9
ENDBRANCH   7   8
END_RES LYS A 135
