REMARK VINA RESULT:    -5.316      3.931     10.284
REMARK INTER + INTRA:         -23.549
REMARK INTER:                 -12.473
REMARK INTRA:                 -11.075
REMARK UNBOUND:               -10.464
REMARK SMILES CC(=O)N[C@@H]1[C@@H](O)C[C@](OC[C@H]2O[C@@H](O[C@H]3[C@H](O)[C@@H](O)[C@H](OCCN=[N+]=[N-])O[C@@H]3CO)[C@H](O)[C@@H](O)[C@H]2O)(C(=O)O)O[C@H]1C(O)[C@H](O)CNC(=O)OCc1cn(-c2c3ccccc3nc3ccccc23)nn1
REMARK SMILES IDX 9 1 8 2 6 3 5 4 42 5 41 6 10 7 11 8 12 9 14 10 13 11 32 12
REMARK SMILES IDX 34 13 36 14 15 15 16 16 29 17 28 18 21 19 17 20 19 21 30 22
REMARK SMILES IDX 31 23 22 25 23 26 24 27 25 28 26 29 27 30 18 31 20 33 33 35
REMARK SMILES IDX 35 37 37 39 38 41 39 42 40 43 7 45 43 47 44 48 45 50 46 51
REMARK SMILES IDX 47 53 48 54 49 55 50 57 51 58 52 59 53 60 54 61 71 62 55 63
REMARK SMILES IDX 70 64 56 65 57 66 69 67 58 68 62 69 64 70 68 71 59 72 61 73
REMARK SMILES IDX 63 74 65 75 67 76 60 77 66 78 4 79 2 80 1 82 3 83
REMARK H PARENT 31 24 18 32 20 34 33 36 35 38 37 40 40 44 7 46 44 49 46 52
REMARK H PARENT 48 56 4 81
REMARK Flexibility Score: inf
ROOT
ATOM      1  C   UNL     1      20.993  36.720   8.909  1.00  0.00     0.272 C 
ATOM      2  C   UNL     1      20.399  36.150   7.529  1.00  0.00     0.113 C 
ATOM      3  C   UNL     1      19.705  34.903   7.939  1.00  0.00     0.145 C 
ATOM      4  C   UNL     1      18.675  35.080   9.035  1.00  0.00     0.142 C 
ATOM      5  C   UNL     1      18.931  36.215   9.936  1.00  0.00     0.178 C 
ATOM      6  O   UNL     1      19.905  37.086   9.583  1.00  0.00    -0.332 OA
ENDROOT
BRANCH   1   7
ATOM      7  O   UNL     1      21.636  37.855   8.410  1.00  0.00    -0.338 OA
BRANCH   7   8
ATOM      8  C   UNL     1      22.198  38.691   9.313  1.00  0.00     0.199 C 
BRANCH   8   9
ATOM      9  C   UNL     1      23.474  39.317   8.901  1.00  0.00     0.179 C 
ATOM     10  C   UNL     1      25.692  39.750   9.483  1.00  0.00     0.282 C 
ATOM     11  O   UNL     1      24.441  39.220   9.864  1.00  0.00    -0.341 OA
ATOM     12  C   UNL     1      25.675  40.502   8.219  1.00  0.00     0.202 C 
ATOM     13  C   UNL     1      25.050  39.710   7.094  1.00  0.00     0.179 C 
ATOM     14  C   UNL     1      23.985  38.775   7.564  1.00  0.00     0.177 C 
BRANCH  10  15
ATOM     15  O   UNL     1      26.654  38.749   9.520  1.00  0.00    -0.341 OA
BRANCH  15  16
ATOM     16  C   UNL     1      26.758  38.144  10.794  1.00  0.00     0.184 C 
ATOM     17  C   UNL     1      28.122  38.330  11.327  1.00  0.00     0.178 C 
ATOM     18  O   UNL     1      28.469  37.397  12.338  1.00  0.00    -0.341 OA
ATOM     19  C   UNL     1      28.475  36.145  11.735  1.00  0.00     0.281 C 
ATOM     20  C   UNL     1      26.453  36.664  10.520  1.00  0.00     0.180 C 
ATOM     21  C   UNL     1      26.991  35.769  11.602  1.00  0.00     0.202 C 
BRANCH  17  22
ATOM     22  C   UNL     1      28.300  39.708  11.945  1.00  0.00     0.191 C 
BRANCH  22  23
ATOM     23  O   UNL     1      28.634  40.677  11.035  1.00  0.00    -0.394 OA
ATOM     24  H   UNL     1      28.962  41.478  11.521  1.00  0.00     0.210 HD
ENDBRANCH  22  23
ENDBRANCH  17  22
BRANCH  19  25
ATOM     25  O   UNL     1      29.169  35.286  12.549  1.00  0.00    -0.350 OA
BRANCH  25  26
ATOM     26  C   UNL     1      29.119  35.607  13.902  1.00  0.00     0.169 C 
BRANCH  26  27
ATOM     27  C   UNL     1      30.257  34.981  14.680  1.00  0.00     0.119 C 
BRANCH  27  28
ATOM     28  N   UNL     1      30.362  33.594  14.239  1.00  0.00    -0.092 NA
ATOM     29  N   UNL     1      30.760  32.717  15.013  1.00  0.00     0.001 N 
ATOM     30  N   UNL     1      31.085  31.792  15.760  1.00  0.00    -0.003 NA
ENDBRANCH  27  28
ENDBRANCH  26  27
ENDBRANCH  25  26
ENDBRANCH  19  25
BRANCH  20  31
ATOM     31  O   UNL     1      25.094  36.495  10.309  1.00  0.00    -0.387 OA
ATOM     32  H   UNL     1      24.755  35.624  10.635  1.00  0.00     0.211 HD
ENDBRANCH  20  31
BRANCH  21  33
ATOM     33  O   UNL     1      26.843  34.453  11.226  1.00  0.00    -0.385 OA
ATOM     34  H   UNL     1      26.089  34.074  11.771  1.00  0.00     0.211 HD
ENDBRANCH  21  33
ENDBRANCH  15  16
ENDBRANCH  10  15
BRANCH  12  35
ATOM     35  O   UNL     1      25.067  41.755   8.387  1.00  0.00    -0.385 OA
ATOM     36  H   UNL     1      24.393  41.625   9.120  1.00  0.00     0.211 HD
ENDBRANCH  12  35
BRANCH  13  37
ATOM     37  O   UNL     1      26.087  39.022   6.434  1.00  0.00    -0.387 OA
ATOM     38  H   UNL     1      26.422  38.347   7.107  1.00  0.00     0.211 HD
ENDBRANCH  13  37
BRANCH  14  39
ATOM     39  O   UNL     1      24.403  37.463   7.654  1.00  0.00    -0.387 OA
ATOM     40  H   UNL     1      24.168  37.037   8.516  1.00  0.00     0.211 HD
ENDBRANCH  14  39
ENDBRANCH   8   9
ENDBRANCH   7   8
ENDBRANCH   1   7
BRANCH   1  41
ATOM     41  C   UNL     1      21.877  35.683   9.324  1.00  0.00     0.364 C 
ATOM     42  O   UNL     1      22.943  35.431   8.674  1.00  0.00    -0.246 OA
BRANCH  41  43
ATOM     43  O   UNL     1      21.709  34.852  10.438  1.00  0.00    -0.477 OA
ATOM     44  H   UNL     1      22.209  35.074  11.290  1.00  0.00     0.296 HD
ENDBRANCH  41  43
ENDBRANCH   1  41
BRANCH   3  45
ATOM     45  O   UNL     1      19.092  34.382   6.775  1.00  0.00    -0.391 OA
ATOM     46  H   UNL     1      19.779  34.285   6.065  1.00  0.00     0.211 HD
ENDBRANCH   3  45
BRANCH   5  47
ATOM     47  C   UNL     1      17.664  37.095  10.120  1.00  0.00     0.176 C 
BRANCH  47  48
ATOM     48  O   UNL     1      16.745  36.824   9.149  1.00  0.00    -0.388 OA
ATOM     49  H   UNL     1      17.062  36.172   8.450  1.00  0.00     0.211 HD
ENDBRANCH  47  48
BRANCH  47  50
ATOM     50  C   UNL     1      17.231  37.219  11.510  1.00  0.00     0.165 C 
BRANCH  50  51
ATOM     51  O   UNL     1      15.855  37.270  11.744  1.00  0.00    -0.388 OA
ATOM     52  H   UNL     1      15.618  36.877  12.621  1.00  0.00     0.211 HD
ENDBRANCH  50  51
BRANCH  50  53
ATOM     53  C   UNL     1      18.027  38.050  12.440  1.00  0.00     0.154 C 
BRANCH  53  54
ATOM     54  N   UNL     1      19.353  37.684  12.769  1.00  0.00    -0.319 N 
ATOM     55  C   UNL     1      20.483  38.523  12.676  1.00  0.00     0.407 C 
ATOM     56  H   UNL     1      19.524  36.670  13.127  1.00  0.00     0.167 HD
ATOM     57  O   UNL     1      20.464  39.693  12.265  1.00  0.00    -0.225 OA
BRANCH  55  58
ATOM     58  O   UNL     1      21.755  38.058  13.064  1.00  0.00    -0.443 OA
BRANCH  58  59
ATOM     59  C   UNL     1      21.950  37.164  14.146  1.00  0.00     0.294 C 
BRANCH  59  60
ATOM     60  C   UNL     1      22.686  35.959  13.666  1.00  0.00     0.121 A 
ATOM     61  C   UNL     1      22.817  34.734  14.284  1.00  0.00     0.144 A 
ATOM     62  N   UNL     1      23.383  35.850  12.526  1.00  0.00    -0.131 NA
ATOM     63  N   UNL     1      23.577  33.910  13.527  1.00  0.00    -0.219 N 
ATOM     64  N   UNL     1      23.907  34.621  12.462  1.00  0.00    -0.062 NA
BRANCH  63  65
ATOM     65  C   UNL     1      23.941  32.552  13.837  1.00  0.00     0.085 A 
ATOM     66  C   UNL     1      25.088  32.292  14.571  1.00  0.00     0.027 A 
ATOM     67  C   UNL     1      23.186  31.480  13.423  1.00  0.00     0.027 A 
ATOM     68  C   UNL     1      25.886  33.324  15.016  1.00  0.00     0.012 A 
ATOM     69  C   UNL     1      25.486  30.996  14.893  1.00  0.00     0.073 A 
ATOM     70  C   UNL     1      23.614  30.215  13.762  1.00  0.00     0.073 A 
ATOM     71  C   UNL     1      22.045  31.663  12.698  1.00  0.00     0.012 A 
ATOM     72  C   UNL     1      27.026  33.066  15.747  1.00  0.00     0.001 A 
ATOM     73  C   UNL     1      26.626  30.743  15.624  1.00  0.00     0.029 A 
ATOM     74  N   UNL     1      24.729  29.975  14.474  1.00  0.00    -0.248 NA
ATOM     75  C   UNL     1      22.883  29.115  13.364  1.00  0.00     0.029 A 
ATOM     76  C   UNL     1      21.328  30.538  12.312  1.00  0.00     0.001 A 
ATOM     77  C   UNL     1      27.423  31.770  16.068  1.00  0.00     0.002 A 
ATOM     78  C   UNL     1      21.720  29.255  12.629  1.00  0.00     0.002 A 
ENDBRANCH  63  65
ENDBRANCH  59  60
ENDBRANCH  58  59
ENDBRANCH  55  58
ENDBRANCH  53  54
ENDBRANCH  50  53
ENDBRANCH  47  50
ENDBRANCH   5  47
BRANCH   4  79
ATOM     79  N   UNL     1      18.493  33.817   9.716  1.00  0.00    -0.348 N 
ATOM     80  C   UNL     1      17.224  33.253  10.041  1.00  0.00     0.217 C 
ATOM     81  H   UNL     1      19.318  33.246  10.014  1.00  0.00     0.163 HD
ATOM     82  C   UNL     1      17.167  31.934  10.757  1.00  0.00     0.114 C 
ATOM     83  O   UNL     1      16.207  33.884   9.714  1.00  0.00    -0.275 OA
ENDBRANCH   4  79
TORSDOF 30
BEGIN_RES LYS A 131
REMARK  4 active torsions:
REMARK  status: ('A' for Active; 'I' for Inactive)
REMARK    1  A    between atoms: CA   and  CB  
REMARK    2  A    between atoms: CB   and  CG  
REMARK    3  A    between atoms: CG   and  CD  
REMARK    4  A    between atoms: CD   and  CE  
ROOT
ATOM      1  CA  LYS A 131      29.867  25.555  16.977  1.00 20.52     0.186 C 
ENDROOT
BRANCH   1   2
ATOM      2  CB  LYS A 131      28.345  25.722  17.026  1.00 20.94     0.034 C 
BRANCH   2   3
ATOM      3  CG  LYS A 131      27.602  24.400  16.916  1.00 22.96     0.005 C 
BRANCH   3   4
ATOM      4  CD  LYS A 131      26.458  24.311  17.888  1.00 24.33     0.041 C 
BRANCH   4   5
ATOM      5  CE  LYS A 131      26.056  25.714  18.331  1.00 26.91     0.338 C 
ATOM      6  NZ  LYS A 131      25.887  25.764  19.802  1.00 27.40     0.618 N 
ENDBRANCH   4   5
ENDBRANCH   3   4
ENDBRANCH   2   3
ENDBRANCH   1   2
END_RES LYS A 131
BEGIN_RES LYS A 135
REMARK  4 active torsions:
REMARK  status: ('A' for Active; 'I' for Inactive)
REMARK    5  A    between atoms: CA   and  CB  
REMARK    6  A    between atoms: CB   and  CG  
REMARK    7  A    between atoms: CG   and  CD  
REMARK    8  A    between atoms: CD   and  CE  
ROOT
ATOM      7  CA  LYS A 135      33.193  34.663   9.290  1.00 25.02     0.186 C 
ENDROOT
BRANCH   7   8
ATOM      8  CB  LYS A 135      32.060  35.360  10.034  1.00 26.63     0.034 C 
BRANCH   8   9
ATOM      9  CG  LYS A 135      30.829  35.574   9.192  1.00 29.45     0.005 C 
BRANCH   9  10
ATOM     10  CD  LYS A 135      30.073  34.268   9.004  1.00 32.00     0.041 C 
BRANCH  10  11
ATOM     11  CE  LYS A 135      28.761  34.511   8.283  1.00 34.25     0.338 C 
ATOM     12  NZ  LYS A 135      28.702  35.891   7.726  1.00 35.99     0.618 N 
ENDBRANCH  10  11
ENDBRANCH   9  10
ENDBRANCH   8   9
ENDBRANCH   7   8
END_RES LYS A 135
