REMARK VINA RESULT:    -4.514      6.594     11.345
REMARK INTER + INTRA:         -23.146
REMARK INTER:                 -12.216
REMARK INTRA:                 -10.930
REMARK UNBOUND:               -11.507
REMARK SMILES COc1ccc(Cn2cc(COC(=O)NC[C@@H](O)C(O)[C@@H]3O[C@@](OC[C@H]4O[C@@H](O[C@H]5[C@H](O)[C@@H](O)[C@H](OCCN=[N+]=[N-])O[C@@H]5CO)[C@H](O)[C@@H](O)[C@H]4O)(C(=O)O)C[C@H](O)[C@H]3NC(C)=O)nn2)cc1
REMARK SMILES IDX 23 1 55 2 56 3 58 4 21 5 22 6 24 7 25 8 26 9 28 10 27 11
REMARK SMILES IDX 46 12 48 13 50 14 29 15 30 16 43 17 42 18 35 19 31 20 33 21
REMARK SMILES IDX 44 22 45 23 36 25 37 26 38 27 39 28 40 29 41 30 32 31 34 33
REMARK SMILES IDX 47 35 49 37 51 39 52 41 53 42 54 43 57 45 19 47 20 48 17 50
REMARK SMILES IDX 18 51 16 53 15 54 13 55 14 57 12 58 11 59 10 60 9 61 63 62
REMARK SMILES IDX 8 63 64 64 7 65 6 66 5 67 65 68 4 69 66 70 3 71 2 72 1 73
REMARK SMILES IDX 59 74 60 75 61 77 62 78
REMARK H PARENT 45 24 32 32 34 34 47 36 49 38 51 40 54 44 57 46 20 49 18 52
REMARK H PARENT 15 56 59 76
REMARK Flexibility Score: inf
ROOT
ATOM      1  C   UNL     1      30.425  32.622  20.800  1.00  0.00     0.272 C 
ATOM      2  C   UNL     1      28.950  32.851  20.545  1.00  0.00     0.113 C 
ATOM      3  C   UNL     1      28.769  33.994  19.567  1.00  0.00     0.145 C 
ATOM      4  C   UNL     1      29.673  33.913  18.372  1.00  0.00     0.142 C 
ATOM      5  C   UNL     1      30.653  32.754  18.435  1.00  0.00     0.178 C 
ATOM      6  O   UNL     1      31.182  32.593  19.700  1.00  0.00    -0.332 OA
ENDROOT
BRANCH   1   7
ATOM      7  O   UNL     1      30.639  31.686  21.754  1.00  0.00    -0.338 OA
BRANCH   7   8
ATOM      8  C   UNL     1      29.689  30.867  22.218  1.00  0.00     0.199 C 
BRANCH   8   9
ATOM      9  C   UNL     1      29.910  29.419  21.836  1.00  0.00     0.179 C 
ATOM     10  C   UNL     1      28.806  27.762  20.732  1.00  0.00     0.282 C 
ATOM     11  O   UNL     1      29.173  29.123  20.655  1.00  0.00    -0.341 OA
ATOM     12  C   UNL     1      29.915  26.918  21.244  1.00  0.00     0.202 C 
ATOM     13  C   UNL     1      31.275  27.527  21.261  1.00  0.00     0.179 C 
ATOM     14  C   UNL     1      31.308  29.014  21.557  1.00  0.00     0.177 C 
BRANCH  10  15
ATOM     15  O   UNL     1      28.156  27.341  19.607  1.00  0.00    -0.341 OA
BRANCH  15  16
ATOM     16  C   UNL     1      26.846  27.743  19.457  1.00  0.00     0.184 C 
ATOM     17  C   UNL     1      25.826  26.632  19.509  1.00  0.00     0.178 C 
ATOM     18  O   UNL     1      24.703  26.952  18.748  1.00  0.00    -0.341 OA
ATOM     19  C   UNL     1      24.431  28.331  18.730  1.00  0.00     0.281 C 
ATOM     20  C   UNL     1      26.745  28.237  18.000  1.00  0.00     0.180 C 
ATOM     21  C   UNL     1      25.507  29.088  17.929  1.00  0.00     0.202 C 
BRANCH  17  22
ATOM     22  C   UNL     1      25.341  26.284  20.881  1.00  0.00     0.191 C 
BRANCH  22  23
ATOM     23  O   UNL     1      26.252  25.423  21.489  1.00  0.00    -0.394 OA
ATOM     24  H   UNL     1      26.631  25.906  22.278  1.00  0.00     0.210 HD
ENDBRANCH  22  23
ENDBRANCH  17  22
BRANCH  19  25
ATOM     25  O   UNL     1      24.254  28.888  19.955  1.00  0.00    -0.350 OA
BRANCH  25  26
ATOM     26  C   UNL     1      24.376  30.235  20.103  1.00  0.00     0.169 C 
BRANCH  26  27
ATOM     27  C   UNL     1      23.140  31.054  20.066  1.00  0.00     0.119 C 
BRANCH  27  28
ATOM     28  N   UNL     1      22.776  31.524  18.774  1.00  0.00    -0.092 NA
ATOM     29  N   UNL     1      21.817  31.098  18.115  1.00  0.00     0.001 N 
ATOM     30  N   UNL     1      20.690  31.075  17.570  1.00  0.00    -0.003 NA
ENDBRANCH  27  28
ENDBRANCH  26  27
ENDBRANCH  25  26
ENDBRANCH  19  25
BRANCH  20  31
ATOM     31  O   UNL     1      27.890  28.852  17.577  1.00  0.00    -0.387 OA
ATOM     32  H   UNL     1      28.608  28.187  17.325  1.00  0.00     0.211 HD
ENDBRANCH  20  31
BRANCH  21  33
ATOM     33  O   UNL     1      25.107  29.300  16.610  1.00  0.00    -0.385 OA
ATOM     34  H   UNL     1      25.910  29.304  16.026  1.00  0.00     0.211 HD
ENDBRANCH  21  33
ENDBRANCH  15  16
ENDBRANCH  10  15
BRANCH  12  35
ATOM     35  O   UNL     1      29.616  26.362  22.514  1.00  0.00    -0.385 OA
ATOM     36  H   UNL     1      29.610  27.098  23.200  1.00  0.00     0.211 HD
ENDBRANCH  12  35
BRANCH  13  37
ATOM     37  O   UNL     1      31.996  27.232  20.079  1.00  0.00    -0.387 OA
ATOM     38  H   UNL     1      31.588  26.427  19.669  1.00  0.00     0.211 HD
ENDBRANCH  13  37
BRANCH  14  39
ATOM     39  O   UNL     1      31.895  29.732  20.520  1.00  0.00    -0.387 OA
ATOM     40  H   UNL     1      31.224  30.169  19.941  1.00  0.00     0.211 HD
ENDBRANCH  14  39
ENDBRANCH   8   9
ENDBRANCH   7   8
ENDBRANCH   1   7
BRANCH   1  41
ATOM     41  C   UNL     1      30.799  33.899  21.623  1.00  0.00     0.364 C 
ATOM     42  O   UNL     1      31.777  34.595  21.273  1.00  0.00    -0.246 OA
BRANCH  41  43
ATOM     43  O   UNL     1      30.107  34.301  22.713  1.00  0.00    -0.477 OA
ATOM     44  H   UNL     1      29.298  34.868  22.770  1.00  0.00     0.296 HD
ENDBRANCH  41  43
ENDBRANCH   1  41
BRANCH   3  45
ATOM     45  O   UNL     1      27.410  33.867  19.152  1.00  0.00    -0.391 OA
ATOM     46  H   UNL     1      27.128  34.679  18.658  1.00  0.00     0.211 HD
ENDBRANCH   3  45
BRANCH   5  47
ATOM     47  C   UNL     1      30.009  31.588  17.793  1.00  0.00     0.176 C 
BRANCH  47  48
ATOM     48  O   UNL     1      30.425  30.335  18.332  1.00  0.00    -0.388 OA
ATOM     49  H   UNL     1      30.991  29.900  17.659  1.00  0.00     0.211 HD
ENDBRANCH  47  48
BRANCH  47  50
ATOM     50  C   UNL     1      30.477  31.343  16.328  1.00  0.00     0.165 C 
BRANCH  50  51
ATOM     51  O   UNL     1      31.307  32.238  15.783  1.00  0.00    -0.388 OA
ATOM     52  H   UNL     1      31.776  31.863  14.997  1.00  0.00     0.211 HD
ENDBRANCH  50  51
BRANCH  50  53
ATOM     53  C   UNL     1      29.191  31.185  15.487  1.00  0.00     0.154 C 
BRANCH  53  54
ATOM     54  N   UNL     1      28.432  32.389  15.403  1.00  0.00    -0.319 N 
ATOM     55  C   UNL     1      27.275  32.555  16.233  1.00  0.00     0.407 C 
ATOM     56  H   UNL     1      28.691  33.143  14.759  1.00  0.00     0.167 HD
ATOM     57  O   UNL     1      26.952  31.630  17.028  1.00  0.00    -0.225 OA
BRANCH  55  58
ATOM     58  O   UNL     1      26.557  33.733  16.128  1.00  0.00    -0.443 OA
BRANCH  58  59
ATOM     59  C   UNL     1      25.756  33.970  14.954  1.00  0.00     0.294 C 
BRANCH  59  60
ATOM     60  C   UNL     1      24.936  32.766  14.709  1.00  0.00     0.120 A 
ATOM     61  C   UNL     1      24.879  32.013  13.532  1.00  0.00     0.138 A 
ATOM     62  N   UNL     1      24.084  32.173  15.554  1.00  0.00    -0.132 NA
ATOM     63  N   UNL     1      24.003  31.022  13.737  1.00  0.00    -0.248 N 
ATOM     64  N   UNL     1      23.529  31.131  14.969  1.00  0.00    -0.067 NA
BRANCH  63  65
ATOM     65  C   UNL     1      23.634  30.007  12.783  1.00  0.00     0.181 C 
BRANCH  65  66
ATOM     66  C   UNL     1      22.180  30.092  12.526  1.00  0.00    -0.026 A 
ATOM     67  C   UNL     1      21.452  28.927  12.300  1.00  0.00     0.009 A 
ATOM     68  C   UNL     1      21.494  31.278  12.513  1.00  0.00     0.009 A 
ATOM     69  C   UNL     1      20.092  28.946  12.071  1.00  0.00     0.047 A 
ATOM     70  C   UNL     1      20.115  31.296  12.281  1.00  0.00     0.047 A 
ATOM     71  C   UNL     1      19.402  30.150  12.060  1.00  0.00     0.118 A 
BRANCH  71  72
ATOM     72  O   UNL     1      18.040  30.116  11.827  1.00  0.00    -0.497 OA
ATOM     73  C   UNL     1      17.169  29.135  12.308  1.00  0.00     0.278 C 
ENDBRANCH  71  72
ENDBRANCH  65  66
ENDBRANCH  63  65
ENDBRANCH  59  60
ENDBRANCH  58  59
ENDBRANCH  55  58
ENDBRANCH  53  54
ENDBRANCH  50  53
ENDBRANCH  47  50
ENDBRANCH   5  47
BRANCH   4  74
ATOM     74  N   UNL     1      30.321  35.154  18.007  1.00  0.00    -0.348 N 
ATOM     75  C   UNL     1      30.495  35.613  16.672  1.00  0.00     0.217 C 
ATOM     76  H   UNL     1      30.703  35.754  18.753  1.00  0.00     0.163 HD
ATOM     77  C   UNL     1      31.196  36.927  16.409  1.00  0.00     0.114 C 
ATOM     78  O   UNL     1      30.066  34.926  15.715  1.00  0.00    -0.275 OA
ENDBRANCH   4  74
TORSDOF 32
BEGIN_RES LYS A 131
REMARK  4 active torsions:
REMARK  status: ('A' for Active; 'I' for Inactive)
REMARK    1  A    between atoms: CA   and  CB  
REMARK    2  A    between atoms: CB   and  CG  
REMARK    3  A    between atoms: CG   and  CD  
REMARK    4  A    between atoms: CD   and  CE  
ROOT
ATOM      1  CA  LYS A 131      29.867  25.555  16.977  1.00 20.52     0.186 C 
ENDROOT
BRANCH   1   2
ATOM      2  CB  LYS A 131      28.345  25.722  17.026  1.00 20.94     0.034 C 
BRANCH   2   3
ATOM      3  CG  LYS A 131      27.599  24.472  16.584  1.00 22.96     0.005 C 
BRANCH   3   4
ATOM      4  CD  LYS A 131      27.303  23.552  17.736  1.00 24.33     0.041 C 
BRANCH   4   5
ATOM      5  CE  LYS A 131      25.795  23.358  17.858  1.00 26.91     0.338 C 
ATOM      6  NZ  LYS A 131      25.081  24.213  16.880  1.00 27.40     0.618 N 
ENDBRANCH   4   5
ENDBRANCH   3   4
ENDBRANCH   2   3
ENDBRANCH   1   2
END_RES LYS A 131
BEGIN_RES LYS A 135
REMARK  4 active torsions:
REMARK  status: ('A' for Active; 'I' for Inactive)
REMARK    5  A    between atoms: CA   and  CB  
REMARK    6  A    between atoms: CB   and  CG  
REMARK    7  A    between atoms: CG   and  CD  
REMARK    8  A    between atoms: CD   and  CE  
ROOT
ATOM      7  CA  LYS A 135      33.193  34.663   9.290  1.00 25.02     0.186 C 
ENDROOT
BRANCH   7   8
ATOM      8  CB  LYS A 135      32.060  35.360  10.034  1.00 26.63     0.034 C 
BRANCH   8   9
ATOM      9  CG  LYS A 135      30.735  34.652   9.915  1.00 29.45     0.005 C 
BRANCH   9  10
ATOM     10  CD  LYS A 135      30.331  34.511   8.455  1.00 32.00     0.041 C 
BRANCH  10  11
ATOM     11  CE  LYS A 135      28.821  34.527   8.317  1.00 34.25     0.338 C 
ATOM     12  NZ  LYS A 135      28.171  33.804   9.445  1.00 35.99     0.618 N 
ENDBRANCH  10  11
ENDBRANCH   9  10
ENDBRANCH   8   9
ENDBRANCH   7   8
END_RES LYS A 135
