REMARK VINA RESULT:    -3.820      4.460      8.533
REMARK INTER + INTRA:         -22.440
REMARK INTER:                 -11.975
REMARK INTRA:                 -10.465
REMARK UNBOUND:               -13.037
REMARK SMILES CC(=O)N[C@@H]1[C@@H](O)C[C@](OC[C@H]2O[C@@H](O[C@H]3[C@H](O)[C@@H](O)[C@H](OCCN=[N+]=[N-])O[C@@H]3CO)[C@H](O)[C@@H](O)[C@H]2O)(C(=O)O)O[C@H]1C(O)[C@H](O)CNC(=O)OCc1cn([C@H]2C[C@H]3CC[C@@H](C2)N3C)nn1
REMARK SMILES IDX 9 1 8 2 6 3 5 4 42 5 41 6 10 7 11 8 12 9 14 10 13 11 32 12
REMARK SMILES IDX 34 13 36 14 15 15 16 16 29 17 28 18 21 19 17 20 19 21 30 22
REMARK SMILES IDX 31 23 22 25 23 26 24 27 25 28 26 29 27 30 18 31 20 33 33 35
REMARK SMILES IDX 35 37 37 39 38 41 39 42 40 43 7 45 43 47 44 48 45 50 46 51
REMARK SMILES IDX 47 53 48 54 49 55 50 57 51 58 52 59 53 60 54 61 66 62 55 63
REMARK SMILES IDX 65 64 56 65 62 66 57 67 61 68 58 69 63 70 60 71 59 72 64 73
REMARK SMILES IDX 4 74 2 75 1 77 3 78
REMARK H PARENT 31 24 18 32 20 34 33 36 35 38 37 40 40 44 7 46 44 49 46 52
REMARK H PARENT 48 56 4 76
REMARK Flexibility Score: inf
ROOT
ATOM      1  C   UNL     1      22.457  34.327  15.803  1.00  0.00     0.272 C 
ATOM      2  C   UNL     1      22.150  33.105  16.651  1.00  0.00     0.113 C 
ATOM      3  C   UNL     1      22.554  31.798  16.039  1.00  0.00     0.145 C 
ATOM      4  C   UNL     1      22.435  31.912  14.565  1.00  0.00     0.142 C 
ATOM      5  C   UNL     1      21.349  32.951  14.271  1.00  0.00     0.178 C 
ATOM      6  O   UNL     1      22.079  34.189  14.496  1.00  0.00    -0.332 OA
ENDROOT
BRANCH   1   7
ATOM      7  O   UNL     1      23.769  34.646  15.983  1.00  0.00    -0.338 OA
BRANCH   7   8
ATOM      8  C   UNL     1      24.321  35.667  15.299  1.00  0.00     0.199 C 
BRANCH   8   9
ATOM      9  C   UNL     1      25.480  35.405  14.412  1.00  0.00     0.179 C 
ATOM     10  C   UNL     1      27.496  34.394  14.524  1.00  0.00     0.282 C 
ATOM     11  O   UNL     1      26.153  34.233  14.885  1.00  0.00    -0.341 OA
ATOM     12  C   UNL     1      27.704  34.655  13.093  1.00  0.00     0.202 C 
ATOM     13  C   UNL     1      26.536  35.033  12.264  1.00  0.00     0.179 C 
ATOM     14  C   UNL     1      25.205  35.082  12.981  1.00  0.00     0.177 C 
BRANCH  10  15
ATOM     15  O   UNL     1      28.153  33.279  14.985  1.00  0.00    -0.341 OA
BRANCH  15  16
ATOM     16  C   UNL     1      27.474  32.652  16.035  1.00  0.00     0.184 C 
ATOM     17  C   UNL     1      28.044  32.910  17.390  1.00  0.00     0.178 C 
ATOM     18  O   UNL     1      29.167  32.227  17.733  1.00  0.00    -0.341 OA
ATOM     19  C   UNL     1      29.174  30.916  17.405  1.00  0.00     0.281 C 
ATOM     20  C   UNL     1      27.501  31.178  15.696  1.00  0.00     0.180 C 
ATOM     21  C   UNL     1      28.952  30.748  15.903  1.00  0.00     0.202 C 
BRANCH  17  22
ATOM     22  C   UNL     1      26.949  32.904  18.463  1.00  0.00     0.191 C 
BRANCH  22  23
ATOM     23  O   UNL     1      25.680  33.079  17.960  1.00  0.00    -0.394 OA
ATOM     24  H   UNL     1      25.490  32.503  17.190  1.00  0.00     0.210 HD
ENDBRANCH  22  23
ENDBRANCH  17  22
BRANCH  19  25
ATOM     25  O   UNL     1      28.406  30.065  18.143  1.00  0.00    -0.350 OA
BRANCH  25  26
ATOM     26  C   UNL     1      28.677  29.936  19.470  1.00  0.00     0.169 C 
BRANCH  26  27
ATOM     27  C   UNL     1      27.494  29.482  20.254  1.00  0.00     0.119 C 
BRANCH  27  28
ATOM     28  N   UNL     1      26.451  28.919  19.386  1.00  0.00    -0.092 NA
ATOM     29  N   UNL     1      25.334  29.462  19.324  1.00  0.00     0.001 N 
ATOM     30  N   UNL     1      24.525  30.347  18.980  1.00  0.00    -0.003 NA
ENDBRANCH  27  28
ENDBRANCH  26  27
ENDBRANCH  25  26
ENDBRANCH  19  25
BRANCH  20  31
ATOM     31  O   UNL     1      26.685  30.411  16.492  1.00  0.00    -0.387 OA
ATOM     32  H   UNL     1      26.808  29.456  16.369  1.00  0.00     0.211 HD
ENDBRANCH  20  31
BRANCH  21  33
ATOM     33  O   UNL     1      29.824  31.577  15.201  1.00  0.00    -0.385 OA
ATOM     34  H   UNL     1      29.267  32.119  14.581  1.00  0.00     0.211 HD
ENDBRANCH  21  33
ENDBRANCH  15  16
ENDBRANCH  10  15
BRANCH  12  35
ATOM     35  O   UNL     1      28.655  35.703  12.992  1.00  0.00    -0.385 OA
ATOM     36  H   UNL     1      29.123  35.865  13.839  1.00  0.00     0.211 HD
ENDBRANCH  12  35
BRANCH  13  37
ATOM     37  O   UNL     1      26.366  34.137  11.178  1.00  0.00    -0.387 OA
ATOM     38  H   UNL     1      26.512  33.206  11.543  1.00  0.00     0.211 HD
ENDBRANCH  13  37
BRANCH  14  39
ATOM     39  O   UNL     1      24.675  33.772  12.889  1.00  0.00    -0.387 OA
ATOM     40  H   UNL     1      24.135  33.683  13.736  1.00  0.00     0.211 HD
ENDBRANCH  14  39
ENDBRANCH   8   9
ENDBRANCH   7   8
ENDBRANCH   1   7
BRANCH   1  41
ATOM     41  C   UNL     1      21.587  35.395  16.390  1.00  0.00     0.364 C 
ATOM     42  O   UNL     1      20.783  36.025  15.709  1.00  0.00    -0.246 OA
BRANCH  41  43
ATOM     43  O   UNL     1      21.668  35.707  17.753  1.00  0.00    -0.477 OA
ATOM     44  H   UNL     1      21.136  36.529  18.070  1.00  0.00     0.296 HD
ENDBRANCH  41  43
ENDBRANCH   1  41
BRANCH   3  45
ATOM     45  O   UNL     1      23.885  31.558  16.456  1.00  0.00    -0.391 OA
ATOM     46  H   UNL     1      24.330  32.413  16.682  1.00  0.00     0.211 HD
ENDBRANCH   3  45
BRANCH   5  47
ATOM     47  C   UNL     1      20.890  32.986  12.868  1.00  0.00     0.176 C 
BRANCH  47  48
ATOM     48  O   UNL     1      22.102  33.005  12.051  1.00  0.00    -0.388 OA
ATOM     49  H   UNL     1      22.369  33.954  11.948  1.00  0.00     0.211 HD
ENDBRANCH  47  48
BRANCH  47  50
ATOM     50  C   UNL     1      20.286  34.302  12.401  1.00  0.00     0.165 C 
BRANCH  50  51
ATOM     51  O   UNL     1      19.320  34.644  13.378  1.00  0.00    -0.388 OA
ATOM     52  H   UNL     1      19.745  35.044  14.177  1.00  0.00     0.211 HD
ENDBRANCH  50  51
BRANCH  50  53
ATOM     53  C   UNL     1      19.686  34.342  11.054  1.00  0.00     0.154 C 
BRANCH  53  54
ATOM     54  N   UNL     1      20.630  35.080  10.190  1.00  0.00    -0.319 N 
ATOM     55  C   UNL     1      20.418  35.196   8.794  1.00  0.00     0.407 C 
ATOM     56  H   UNL     1      21.462  35.514  10.629  1.00  0.00     0.167 HD
ATOM     57  O   UNL     1      19.380  34.662   8.287  1.00  0.00    -0.225 OA
BRANCH  55  58
ATOM     58  O   UNL     1      21.321  35.880   7.998  1.00  0.00    -0.443 OA
BRANCH  58  59
ATOM     59  C   UNL     1      21.755  37.154   8.420  1.00  0.00     0.294 C 
BRANCH  59  60
ATOM     60  C   UNL     1      23.199  37.383   8.217  1.00  0.00     0.120 A 
ATOM     61  C   UNL     1      24.201  36.582   8.724  1.00  0.00     0.138 A 
ATOM     62  N   UNL     1      23.826  38.363   7.558  1.00  0.00    -0.132 NA
ATOM     63  N   UNL     1      25.392  37.081   8.373  1.00  0.00    -0.249 N 
ATOM     64  N   UNL     1      25.146  38.177   7.655  1.00  0.00    -0.067 NA
BRANCH  63  65
ATOM     65  C   UNL     1      26.671  36.495   8.746  1.00  0.00     0.112 C 
ATOM     66  C   UNL     1      27.682  37.590   8.721  1.00  0.00     0.046 C 
ATOM     67  C   UNL     1      26.939  35.338   7.839  1.00  0.00     0.046 C 
ATOM     68  C   UNL     1      28.986  37.231   8.084  1.00  0.00     0.058 C 
ATOM     69  C   UNL     1      28.355  35.201   7.373  1.00  0.00     0.058 C 
ATOM     70  N   UNL     1      29.309  35.848   8.249  1.00  0.00    -0.300 NA
ATOM     71  C   UNL     1      28.839  37.362   6.570  1.00  0.00     0.021 C 
ATOM     72  C   UNL     1      28.508  35.973   6.078  1.00  0.00     0.021 C 
ATOM     73  C   UNL     1      29.241  35.364   9.607  1.00  0.00     0.105 C 
ENDBRANCH  63  65
ENDBRANCH  59  60
ENDBRANCH  58  59
ENDBRANCH  55  58
ENDBRANCH  53  54
ENDBRANCH  50  53
ENDBRANCH  47  50
ENDBRANCH   5  47
BRANCH   4  74
ATOM     74  N   UNL     1      22.456  30.723  13.823  1.00  0.00    -0.348 N 
ATOM     75  C   UNL     1      23.666  30.161  13.291  1.00  0.00     0.217 C 
ATOM     76  H   UNL     1      21.586  30.170  13.656  1.00  0.00     0.163 HD
ATOM     77  C   UNL     1      23.588  28.874  12.522  1.00  0.00     0.114 C 
ATOM     78  O   UNL     1      24.761  30.712  13.453  1.00  0.00    -0.275 OA
ENDBRANCH   4  74
TORSDOF 30
BEGIN_RES LYS A 131
REMARK  4 active torsions:
REMARK  status: ('A' for Active; 'I' for Inactive)
REMARK    1  A    between atoms: CA   and  CB  
REMARK    2  A    between atoms: CB   and  CG  
REMARK    3  A    between atoms: CG   and  CD  
REMARK    4  A    between atoms: CD   and  CE  
ROOT
ATOM      1  CA  LYS A 131      29.867  25.555  16.977  1.00 20.52     0.186 C 
ENDROOT
BRANCH   1   2
ATOM      2  CB  LYS A 131      28.345  25.722  17.026  1.00 20.94     0.034 C 
BRANCH   2   3
ATOM      3  CG  LYS A 131      27.602  24.400  16.916  1.00 22.96     0.005 C 
BRANCH   3   4
ATOM      4  CD  LYS A 131      26.158  24.526  17.318  1.00 24.33     0.041 C 
BRANCH   4   5
ATOM      5  CE  LYS A 131      26.057  25.351  18.597  1.00 26.91     0.338 C 
ATOM      6  NZ  LYS A 131      24.663  25.808  18.811  1.00 27.40     0.618 N 
ENDBRANCH   4   5
ENDBRANCH   3   4
ENDBRANCH   2   3
ENDBRANCH   1   2
END_RES LYS A 131
BEGIN_RES LYS A 135
REMARK  4 active torsions:
REMARK  status: ('A' for Active; 'I' for Inactive)
REMARK    5  A    between atoms: CA   and  CB  
REMARK    6  A    between atoms: CB   and  CG  
REMARK    7  A    between atoms: CG   and  CD  
REMARK    8  A    between atoms: CD   and  CE  
ROOT
ATOM      7  CA  LYS A 135      33.193  34.663   9.290  1.00 25.02     0.186 C 
ENDROOT
BRANCH   7   8
ATOM      8  CB  LYS A 135      32.060  35.360  10.034  1.00 26.63     0.034 C 
BRANCH   8   9
ATOM      9  CG  LYS A 135      32.263  35.415  11.526  1.00 29.45     0.005 C 
BRANCH   9  10
ATOM     10  CD  LYS A 135      32.256  36.855  12.016  1.00 32.00     0.041 C 
BRANCH  10  11
ATOM     11  CE  LYS A 135      31.751  37.785  10.929  1.00 34.25     0.338 C 
ATOM     12  NZ  LYS A 135      30.432  38.372  11.294  1.00 35.99     0.618 N 
ENDBRANCH  10  11
ENDBRANCH   9  10
ENDBRANCH   8   9
ENDBRANCH   7   8
END_RES LYS A 135
