REMARK VINA RESULT:    -4.343      6.102     14.126
REMARK INTER + INTRA:         -21.932
REMARK INTER:                 -13.423
REMARK INTRA:                  -8.509
REMARK UNBOUND:               -11.242
REMARK SMILES CC(=O)N[C@@H]1[C@@H](O)C[C@](OC[C@H]2O[C@@H](O[C@H]3[C@H](O)[C@@H](O)[C@H](OCCN=[N+]=[N-])O[C@@H]3CO)[C@H](O)[C@@H](O)[C@H]2O)(C(=O)O)O[C@H]1C(O)[C@H](O)CNC(=O)OCc1cn(-c2c(C)cc(C)cc2C)nn1
REMARK SMILES IDX 9 1 8 2 6 3 5 4 42 5 41 6 10 7 11 8 12 9 14 10 13 11 32 12
REMARK SMILES IDX 34 13 36 14 15 15 16 16 29 17 28 18 21 19 17 20 19 21 30 22
REMARK SMILES IDX 31 23 22 25 23 26 24 27 25 28 26 29 27 30 18 31 20 33 33 35
REMARK SMILES IDX 35 37 37 39 38 41 39 42 40 43 7 45 43 47 44 48 45 50 46 51
REMARK SMILES IDX 47 53 48 54 49 55 50 57 51 58 52 59 53 60 54 61 66 62 55 63
REMARK SMILES IDX 65 64 56 65 57 66 63 67 58 68 59 69 62 70 64 71 60 72 61 73
REMARK SMILES IDX 4 74 2 75 1 77 3 78
REMARK H PARENT 31 24 18 32 20 34 33 36 35 38 37 40 40 44 7 46 44 49 46 52
REMARK H PARENT 48 56 4 76
REMARK Flexibility Score: inf
ROOT
ATOM      1  C   UNL     1      32.218  36.316  14.034  1.00  0.00     0.272 C 
ATOM      2  C   UNL     1      32.230  36.972  12.709  1.00  0.00     0.113 C 
ATOM      3  C   UNL     1      31.004  37.772  12.343  1.00  0.00     0.145 C 
ATOM      4  C   UNL     1      29.784  37.132  12.925  1.00  0.00     0.142 C 
ATOM      5  C   UNL     1      30.155  35.657  13.126  1.00  0.00     0.178 C 
ATOM      6  O   UNL     1      31.018  35.625  14.254  1.00  0.00    -0.332 OA
ENDROOT
BRANCH   1   7
ATOM      7  O   UNL     1      32.520  37.077  15.123  1.00  0.00    -0.338 OA
BRANCH   7   8
ATOM      8  C   UNL     1      31.561  37.783  15.752  1.00  0.00     0.199 C 
BRANCH   8   9
ATOM      9  C   UNL     1      31.541  37.328  17.219  1.00  0.00     0.179 C 
ATOM     10  C   UNL     1      32.227  35.490  18.422  1.00  0.00     0.282 C 
ATOM     11  O   UNL     1      31.551  35.950  17.302  1.00  0.00    -0.341 OA
ATOM     12  C   UNL     1      33.684  35.788  18.180  1.00  0.00     0.202 C 
ATOM     13  C   UNL     1      33.812  37.305  18.201  1.00  0.00     0.179 C 
ATOM     14  C   UNL     1      32.522  38.036  18.079  1.00  0.00     0.177 C 
BRANCH  10  15
ATOM     15  O   UNL     1      31.929  34.227  18.768  1.00  0.00    -0.341 OA
BRANCH  15  16
ATOM     16  C   UNL     1      30.781  33.672  18.332  1.00  0.00     0.184 C 
ATOM     17  C   UNL     1      30.093  32.962  19.484  1.00  0.00     0.178 C 
ATOM     18  O   UNL     1      30.242  31.608  19.446  1.00  0.00    -0.341 OA
ATOM     19  C   UNL     1      29.680  30.993  18.338  1.00  0.00     0.281 C 
ATOM     20  C   UNL     1      31.112  32.651  17.239  1.00  0.00     0.180 C 
ATOM     21  C   UNL     1      29.951  31.690  17.055  1.00  0.00     0.202 C 
BRANCH  17  22
ATOM     22  C   UNL     1      28.645  33.404  19.608  1.00  0.00     0.191 C 
BRANCH  22  23
ATOM     23  O   UNL     1      28.350  34.389  18.668  1.00  0.00    -0.394 OA
ATOM     24  H   UNL     1      28.022  34.032  17.812  1.00  0.00     0.210 HD
ENDBRANCH  22  23
ENDBRANCH  17  22
BRANCH  19  25
ATOM     25  O   UNL     1      28.295  30.835  18.497  1.00  0.00    -0.350 OA
BRANCH  25  26
ATOM     26  C   UNL     1      27.900  29.527  18.624  1.00  0.00     0.169 C 
BRANCH  26  27
ATOM     27  C   UNL     1      27.913  28.988  20.021  1.00  0.00     0.119 C 
BRANCH  27  28
ATOM     28  N   UNL     1      28.805  27.852  20.163  1.00  0.00    -0.092 NA
ATOM     29  N   UNL     1      29.214  27.497  21.287  1.00  0.00     0.001 N 
ATOM     30  N   UNL     1      29.452  27.272  22.479  1.00  0.00    -0.003 NA
ENDBRANCH  27  28
ENDBRANCH  26  27
ENDBRANCH  25  26
ENDBRANCH  19  25
BRANCH  20  31
ATOM     31  O   UNL     1      31.383  33.228  16.024  1.00  0.00    -0.387 OA
ATOM     32  H   UNL     1      31.184  34.198  15.969  1.00  0.00     0.211 HD
ENDBRANCH  20  31
BRANCH  21  33
ATOM     33  O   UNL     1      30.348  30.754  16.103  1.00  0.00    -0.385 OA
ATOM     34  H   UNL     1      29.565  30.240  15.758  1.00  0.00     0.211 HD
ENDBRANCH  21  33
ENDBRANCH  15  16
ENDBRANCH  10  15
BRANCH  12  35
ATOM     35  O   UNL     1      34.507  35.293  19.188  1.00  0.00    -0.385 OA
ATOM     36  H   UNL     1      34.231  35.751  20.039  1.00  0.00     0.211 HD
ENDBRANCH  12  35
BRANCH  13  37
ATOM     37  O   UNL     1      34.681  37.753  17.208  1.00  0.00    -0.387 OA
ATOM     38  H   UNL     1      35.422  38.309  17.558  1.00  0.00     0.211 HD
ENDBRANCH  13  37
BRANCH  14  39
ATOM     39  O   UNL     1      32.810  39.307  17.526  1.00  0.00    -0.387 OA
ATOM     40  H   UNL     1      32.789  39.272  16.542  1.00  0.00     0.211 HD
ENDBRANCH  14  39
ENDBRANCH   8   9
ENDBRANCH   7   8
ENDBRANCH   1   7
BRANCH   1  41
ATOM     41  C   UNL     1      33.226  35.191  13.951  1.00  0.00     0.364 C 
ATOM     42  O   UNL     1      33.668  34.709  14.998  1.00  0.00    -0.246 OA
BRANCH  41  43
ATOM     43  O   UNL     1      33.658  34.698  12.735  1.00  0.00    -0.477 OA
ATOM     44  H   UNL     1      33.917  33.742  12.562  1.00  0.00     0.296 HD
ENDBRANCH  41  43
ENDBRANCH   1  41
BRANCH   3  45
ATOM     45  O   UNL     1      31.221  39.078  12.782  1.00  0.00    -0.391 OA
ATOM     46  H   UNL     1      31.487  39.641  11.986  1.00  0.00     0.211 HD
ENDBRANCH   3  45
BRANCH   5  47
ATOM     47  C   UNL     1      29.030  34.776  13.502  1.00  0.00     0.176 C 
BRANCH  47  48
ATOM     48  O   UNL     1      28.154  34.730  12.355  1.00  0.00    -0.388 OA
ATOM     49  H   UNL     1      28.707  34.823  11.537  1.00  0.00     0.211 HD
ENDBRANCH  47  48
BRANCH  47  50
ATOM     50  C   UNL     1      28.088  35.264  14.585  1.00  0.00     0.165 C 
BRANCH  50  51
ATOM     51  O   UNL     1      28.872  35.031  15.780  1.00  0.00    -0.388 OA
ATOM     52  H   UNL     1      28.295  34.648  16.468  1.00  0.00     0.211 HD
ENDBRANCH  50  51
BRANCH  50  53
ATOM     53  C   UNL     1      26.919  34.328  14.773  1.00  0.00     0.154 C 
BRANCH  53  54
ATOM     54  N   UNL     1      25.770  34.581  13.959  1.00  0.00    -0.319 N 
ATOM     55  C   UNL     1      24.867  33.515  13.664  1.00  0.00     0.407 C 
ATOM     56  H   UNL     1      25.582  35.548  13.569  1.00  0.00     0.167 HD
ATOM     57  O   UNL     1      25.153  32.384  14.144  1.00  0.00    -0.225 OA
BRANCH  55  58
ATOM     58  O   UNL     1      23.725  33.694  12.891  1.00  0.00    -0.443 OA
BRANCH  58  59
ATOM     59  C   UNL     1      23.274  34.969  12.502  1.00  0.00     0.294 C 
BRANCH  59  60
ATOM     60  C   UNL     1      23.597  35.317  11.092  1.00  0.00     0.121 A 
ATOM     61  C   UNL     1      24.779  35.803  10.580  1.00  0.00     0.144 A 
ATOM     62  N   UNL     1      22.760  35.216  10.019  1.00  0.00    -0.131 NA
ATOM     63  N   UNL     1      24.641  35.982   9.256  1.00  0.00    -0.220 N 
ATOM     64  N   UNL     1      23.396  35.611   8.963  1.00  0.00    -0.062 NA
BRANCH  63  65
ATOM     65  C   UNL     1      25.607  36.478   8.309  1.00  0.00     0.072 A 
ATOM     66  C   UNL     1      26.565  35.593   7.879  1.00  0.00    -0.025 A 
ATOM     67  C   UNL     1      25.548  37.760   7.888  1.00  0.00    -0.025 A 
ATOM     68  C   UNL     1      26.597  34.173   8.374  1.00  0.00     0.047 C 
ATOM     69  C   UNL     1      27.502  36.050   6.974  1.00  0.00     0.009 A 
ATOM     70  C   UNL     1      26.519  38.178   6.971  1.00  0.00     0.009 A 
ATOM     71  C   UNL     1      24.526  38.745   8.329  1.00  0.00     0.047 C 
ATOM     72  C   UNL     1      27.501  37.338   6.504  1.00  0.00    -0.050 A 
ATOM     73  C   UNL     1      28.535  37.767   5.530  1.00  0.00     0.044 C 
ENDBRANCH  63  65
ENDBRANCH  59  60
ENDBRANCH  58  59
ENDBRANCH  55  58
ENDBRANCH  53  54
ENDBRANCH  50  53
ENDBRANCH  47  50
ENDBRANCH   5  47
BRANCH   4  74
ATOM     74  N   UNL     1      28.582  37.325  12.237  1.00  0.00    -0.348 N 
ATOM     75  C   UNL     1      27.789  38.503  12.356  1.00  0.00     0.217 C 
ATOM     76  H   UNL     1      28.235  36.601  11.583  1.00  0.00     0.163 HD
ATOM     77  C   UNL     1      26.509  38.679  11.604  1.00  0.00     0.114 C 
ATOM     78  O   UNL     1      28.200  39.396  13.115  1.00  0.00    -0.275 OA
ENDBRANCH   4  74
TORSDOF 30
BEGIN_RES LYS A 131
REMARK  4 active torsions:
REMARK  status: ('A' for Active; 'I' for Inactive)
REMARK    1  A    between atoms: CA   and  CB  
REMARK    2  A    between atoms: CB   and  CG  
REMARK    3  A    between atoms: CG   and  CD  
REMARK    4  A    between atoms: CD   and  CE  
ROOT
ATOM      1  CA  LYS A 131      29.867  25.555  16.977  1.00 20.52     0.186 C 
ENDROOT
BRANCH   1   2
ATOM      2  CB  LYS A 131      28.345  25.722  17.026  1.00 20.94     0.034 C 
BRANCH   2   3
ATOM      3  CG  LYS A 131      27.602  24.399  16.925  1.00 22.96     0.005 C 
BRANCH   3   4
ATOM      4  CD  LYS A 131      26.504  24.287  17.946  1.00 24.33     0.041 C 
BRANCH   4   5
ATOM      5  CE  LYS A 131      26.416  25.584  18.744  1.00 26.91     0.338 C 
ATOM      6  NZ  LYS A 131      25.615  25.383  19.975  1.00 27.40     0.618 N 
ENDBRANCH   4   5
ENDBRANCH   3   4
ENDBRANCH   2   3
ENDBRANCH   1   2
END_RES LYS A 131
BEGIN_RES LYS A 135
REMARK  4 active torsions:
REMARK  status: ('A' for Active; 'I' for Inactive)
REMARK    5  A    between atoms: CA   and  CB  
REMARK    6  A    between atoms: CB   and  CG  
REMARK    7  A    between atoms: CG   and  CD  
REMARK    8  A    between atoms: CD   and  CE  
ROOT
ATOM      7  CA  LYS A 135      33.193  34.663   9.290  1.00 25.02     0.186 C 
ENDROOT
BRANCH   7   8
ATOM      8  CB  LYS A 135      32.060  35.360  10.034  1.00 26.63     0.034 C 
BRANCH   8   9
ATOM      9  CG  LYS A 135      30.693  34.836   9.677  1.00 29.45     0.005 C 
BRANCH   9  10
ATOM     10  CD  LYS A 135      29.757  35.980   9.319  1.00 32.00     0.041 C 
BRANCH  10  11
ATOM     11  CE  LYS A 135      30.540  37.159   8.774  1.00 34.25     0.338 C 
ATOM     12  NZ  LYS A 135      29.862  38.446   9.092  1.00 35.99     0.618 N 
ENDBRANCH  10  11
ENDBRANCH   9  10
ENDBRANCH   8   9
ENDBRANCH   7   8
END_RES LYS A 135
