REMARK VINA RESULT:    -4.696      0.000      0.000
REMARK INTER + INTRA:         -24.241
REMARK INTER:                 -12.550
REMARK INTRA:                 -11.691
REMARK UNBOUND:               -12.270
REMARK SMILES CC(=O)N[C@@H]1[C@@H](O)C[C@](OC[C@H]2O[C@@H](O[C@H]3[C@H](O)[C@@H](O)[C@H](OCCN=[N+]=[N-])O[C@@H]3CO)[C@H](O)[C@@H](O)[C@H]2O)(C(=O)O)O[C@H]1C(O)[C@H](O)CNC(=O)OCc1cn(-c2ccc(S(N)(=O)=O)cc2)nn1
REMARK SMILES IDX 9 1 8 2 6 3 5 4 42 5 41 6 10 7 11 8 12 9 14 10 13 11 32 12
REMARK SMILES IDX 34 13 36 14 15 15 16 16 29 17 28 18 21 19 17 20 19 21 30 22
REMARK SMILES IDX 31 23 22 25 23 26 24 27 25 28 26 29 27 30 18 31 20 33 33 35
REMARK SMILES IDX 35 37 37 39 38 41 39 42 40 43 7 45 43 47 44 48 45 50 46 51
REMARK SMILES IDX 47 53 48 54 49 55 50 57 51 58 52 59 53 60 54 61 67 62 55 63
REMARK SMILES IDX 66 64 56 65 57 66 65 67 58 68 64 69 59 70 60 71 62 72 63 73
REMARK SMILES IDX 61 74 4 77 2 78 1 80 3 81
REMARK H PARENT 31 24 18 32 20 34 33 36 35 38 37 40 40 44 7 46 44 49 46 52
REMARK H PARENT 48 56 61 75 61 76 4 79
REMARK Flexibility Score: inf
ROOT
ATOM      1  C   UNL     1      25.758  36.700  10.630  1.00  0.00     0.272 C 
ATOM      2  C   UNL     1      25.793  35.696   9.467  1.00  0.00     0.113 C 
ATOM      3  C   UNL     1      24.534  35.712   8.675  1.00  0.00     0.145 C 
ATOM      4  C   UNL     1      23.362  35.859   9.611  1.00  0.00     0.142 C 
ATOM      5  C   UNL     1      23.877  35.389  10.976  1.00  0.00     0.178 C 
ATOM      6  O   UNL     1      24.685  36.423  11.444  1.00  0.00    -0.332 OA
ENDROOT
BRANCH   1   7
ATOM      7  O   UNL     1      25.721  37.955  10.036  1.00  0.00    -0.338 OA
BRANCH   7   8
ATOM      8  C   UNL     1      24.925  38.863  10.675  1.00  0.00     0.199 C 
BRANCH   8   9
ATOM      9  C   UNL     1      24.819  40.102   9.768  1.00  0.00     0.179 C 
ATOM     10  C   UNL     1      25.993  40.966   7.938  1.00  0.00     0.282 C 
ATOM     11  O   UNL     1      26.034  40.261   9.181  1.00  0.00    -0.341 OA
ATOM     12  C   UNL     1      25.244  40.031   7.033  1.00  0.00     0.202 C 
ATOM     13  C   UNL     1      23.782  39.965   7.457  1.00  0.00     0.179 C 
ATOM     14  C   UNL     1      23.610  40.104   8.925  1.00  0.00     0.177 C 
BRANCH  10  15
ATOM     15  O   UNL     1      27.271  41.139   7.537  1.00  0.00    -0.341 OA
BRANCH  15  16
ATOM     16  C   UNL     1      28.245  40.482   8.335  1.00  0.00     0.184 C 
ATOM     17  C   UNL     1      29.292  41.446   8.659  1.00  0.00     0.178 C 
ATOM     18  O   UNL     1      30.595  40.993   8.630  1.00  0.00    -0.341 OA
ATOM     19  C   UNL     1      30.786  39.654   8.818  1.00  0.00     0.281 C 
ATOM     20  C   UNL     1      28.699  39.226   7.629  1.00  0.00     0.180 C 
ATOM     21  C   UNL     1      30.148  38.936   7.659  1.00  0.00     0.202 C 
BRANCH  17  22
ATOM     22  C   UNL     1      29.113  42.134   9.997  1.00  0.00     0.191 C 
BRANCH  22  23
ATOM     23  O   UNL     1      28.282  41.388  10.822  1.00  0.00    -0.394 OA
ATOM     24  H   UNL     1      28.719  41.159  11.680  1.00  0.00     0.210 HD
ENDBRANCH  22  23
ENDBRANCH  17  22
BRANCH  19  25
ATOM     25  O   UNL     1      30.395  39.152  10.037  1.00  0.00    -0.350 OA
BRANCH  25  26
ATOM     26  C   UNL     1      31.493  39.026  10.879  1.00  0.00     0.169 C 
BRANCH  26  27
ATOM     27  C   UNL     1      31.224  39.862  12.127  1.00  0.00     0.119 C 
BRANCH  27  28
ATOM     28  N   UNL     1      29.865  39.634  12.535  1.00  0.00    -0.092 NA
ATOM     29  N   UNL     1      29.577  38.880  13.492  1.00  0.00     0.001 N 
ATOM     30  N   UNL     1      29.200  37.796  13.968  1.00  0.00    -0.003 NA
ENDBRANCH  27  28
ENDBRANCH  26  27
ENDBRANCH  25  26
ENDBRANCH  19  25
BRANCH  20  31
ATOM     31  O   UNL     1      28.029  38.103   8.123  1.00  0.00    -0.387 OA
ATOM     32  H   UNL     1      28.383  37.296   7.683  1.00  0.00     0.211 HD
ENDBRANCH  20  31
BRANCH  21  33
ATOM     33  O   UNL     1      30.820  39.253   6.484  1.00  0.00    -0.385 OA
ATOM     34  H   UNL     1      30.796  40.264   6.445  1.00  0.00     0.211 HD
ENDBRANCH  21  33
ENDBRANCH  15  16
ENDBRANCH  10  15
BRANCH  12  35
ATOM     35  O   UNL     1      25.406  40.249   5.697  1.00  0.00    -0.385 OA
ATOM     36  H   UNL     1      26.160  39.789   5.281  1.00  0.00     0.211 HD
ENDBRANCH  12  35
BRANCH  13  37
ATOM     37  O   UNL     1      23.137  38.881   6.886  1.00  0.00    -0.387 OA
ATOM     38  H   UNL     1      23.634  38.419   6.181  1.00  0.00     0.211 HD
ENDBRANCH  13  37
BRANCH  14  39
ATOM     39  O   UNL     1      22.796  39.026   9.351  1.00  0.00    -0.387 OA
ATOM     40  H   UNL     1      21.892  39.430   9.501  1.00  0.00     0.211 HD
ENDBRANCH  14  39
ENDBRANCH   8   9
ENDBRANCH   7   8
ENDBRANCH   1   7
BRANCH   1  41
ATOM     41  C   UNL     1      27.079  36.485  11.330  1.00  0.00     0.364 C 
ATOM     42  O   UNL     1      28.150  36.912  10.835  1.00  0.00    -0.246 OA
BRANCH  41  43
ATOM     43  O   UNL     1      27.151  35.816  12.536  1.00  0.00    -0.477 OA
ATOM     44  H   UNL     1      26.314  35.751  13.095  1.00  0.00     0.296 HD
ENDBRANCH  41  43
ENDBRANCH   1  41
BRANCH   3  45
ATOM     45  O   UNL     1      24.615  36.731   7.728  1.00  0.00    -0.391 OA
ATOM     46  H   UNL     1      23.830  37.320   7.819  1.00  0.00     0.211 HD
ENDBRANCH   3  45
BRANCH   5  47
ATOM     47  C   UNL     1      22.738  35.181  11.938  1.00  0.00     0.176 C 
BRANCH  47  48
ATOM     48  O   UNL     1      21.999  34.041  11.702  1.00  0.00    -0.388 OA
ATOM     49  H   UNL     1      21.263  33.914  12.352  1.00  0.00     0.211 HD
ENDBRANCH  47  48
BRANCH  47  50
ATOM     50  C   UNL     1      23.248  35.174  13.361  1.00  0.00     0.165 C 
BRANCH  50  51
ATOM     51  O   UNL     1      24.546  34.622  13.412  1.00  0.00    -0.388 OA
ATOM     52  H   UNL     1      25.216  35.292  13.092  1.00  0.00     0.211 HD
ENDBRANCH  50  51
BRANCH  50  53
ATOM     53  C   UNL     1      22.333  34.409  14.284  1.00  0.00     0.154 C 
BRANCH  53  54
ATOM     54  N   UNL     1      22.912  33.154  14.700  1.00  0.00    -0.319 N 
ATOM     55  C   UNL     1      23.381  33.001  16.030  1.00  0.00     0.407 C 
ATOM     56  H   UNL     1      23.003  32.342  14.058  1.00  0.00     0.167 HD
ATOM     57  O   UNL     1      23.281  33.981  16.825  1.00  0.00    -0.225 OA
BRANCH  55  58
ATOM     58  O   UNL     1      23.947  31.840  16.527  1.00  0.00    -0.443 OA
BRANCH  58  59
ATOM     59  C   UNL     1      24.526  30.862  15.696  1.00  0.00     0.294 C 
BRANCH  59  60
ATOM     60  C   UNL     1      26.007  30.938  15.819  1.00  0.00     0.121 A 
ATOM     61  C   UNL     1      26.814  31.992  15.374  1.00  0.00     0.144 A 
ATOM     62  N   UNL     1      26.874  30.061  16.352  1.00  0.00    -0.131 NA
ATOM     63  N   UNL     1      28.110  31.706  15.654  1.00  0.00    -0.220 N 
ATOM     64  N   UNL     1      28.119  30.546  16.239  1.00  0.00    -0.062 NA
BRANCH  63  65
ATOM     65  C   UNL     1      29.249  32.524  15.359  1.00  0.00     0.066 A 
ATOM     66  C   UNL     1      29.119  33.697  14.652  1.00  0.00     0.030 A 
ATOM     67  C   UNL     1      30.510  32.161  15.777  1.00  0.00     0.030 A 
ATOM     68  C   UNL     1      30.229  34.491  14.369  1.00  0.00     0.024 A 
ATOM     69  C   UNL     1      31.626  32.948  15.499  1.00  0.00     0.024 A 
ATOM     70  C   UNL     1      31.492  34.125  14.789  1.00  0.00     0.082 A 
BRANCH  70  71
ATOM     71  S   UNL     1      32.875  35.152  14.416  1.00  0.00     0.238 S 
ATOM     72  O   UNL     1      32.425  36.510  13.936  1.00  0.00    -0.207 OA
ATOM     73  O   UNL     1      33.711  35.369  15.640  1.00  0.00    -0.207 OA
BRANCH  71  74
ATOM     74  N   UNL     1      33.873  34.426  13.195  1.00  0.00    -0.225 NA
ATOM     75  H   UNL     1      34.155  35.195  12.522  1.00  0.00     0.137 HD
ATOM     76  H   UNL     1      33.378  33.658  12.684  1.00  0.00     0.137 HD
ENDBRANCH  71  74
ENDBRANCH  70  71
ENDBRANCH  63  65
ENDBRANCH  59  60
ENDBRANCH  58  59
ENDBRANCH  55  58
ENDBRANCH  53  54
ENDBRANCH  50  53
ENDBRANCH  47  50
ENDBRANCH   5  47
BRANCH   4  77
ATOM     77  N   UNL     1      22.192  35.117   9.221  1.00  0.00    -0.348 N 
ATOM     78  C   UNL     1      21.301  35.645   8.263  1.00  0.00     0.217 C 
ATOM     79  H   UNL     1      21.988  34.188   9.634  1.00  0.00     0.163 HD
ATOM     80  C   UNL     1      20.106  34.850   7.889  1.00  0.00     0.114 C 
ATOM     81  O   UNL     1      21.475  36.757   7.714  1.00  0.00    -0.275 OA
ENDBRANCH   4  77
TORSDOF 32
BEGIN_RES LYS A 131
REMARK  4 active torsions:
REMARK  status: ('A' for Active; 'I' for Inactive)
REMARK    1  A    between atoms: CA   and  CB  
REMARK    2  A    between atoms: CB   and  CG  
REMARK    3  A    between atoms: CG   and  CD  
REMARK    4  A    between atoms: CD   and  CE  
ROOT
ATOM      1  CA  LYS A 131      29.867  25.555  16.977  1.00 20.52     0.186 C 
ENDROOT
BRANCH   1   2
ATOM      2  CB  LYS A 131      28.345  25.722  17.026  1.00 20.94     0.034 C 
BRANCH   2   3
ATOM      3  CG  LYS A 131      27.601  24.402  16.890  1.00 22.96     0.005 C 
BRANCH   3   4
ATOM      4  CD  LYS A 131      26.149  24.530  17.257  1.00 24.33     0.041 C 
BRANCH   4   5
ATOM      5  CE  LYS A 131      25.714  23.302  18.049  1.00 26.91     0.338 C 
ATOM      6  NZ  LYS A 131      24.435  22.771  17.522  1.00 27.40     0.618 N 
ENDBRANCH   4   5
ENDBRANCH   3   4
ENDBRANCH   2   3
ENDBRANCH   1   2
END_RES LYS A 131
BEGIN_RES LYS A 135
REMARK  4 active torsions:
REMARK  status: ('A' for Active; 'I' for Inactive)
REMARK    5  A    between atoms: CA   and  CB  
REMARK    6  A    between atoms: CB   and  CG  
REMARK    7  A    between atoms: CG   and  CD  
REMARK    8  A    between atoms: CD   and  CE  
ROOT
ATOM      7  CA  LYS A 135      33.193  34.663   9.290  1.00 25.02     0.186 C 
ENDROOT
BRANCH   7   8
ATOM      8  CB  LYS A 135      32.060  35.360  10.034  1.00 26.63     0.034 C 
BRANCH   8   9
ATOM      9  CG  LYS A 135      30.898  35.732   9.150  1.00 29.45     0.005 C 
BRANCH   9  10
ATOM     10  CD  LYS A 135      30.447  34.537   8.324  1.00 32.00     0.041 C 
BRANCH  10  11
ATOM     11  CE  LYS A 135      28.936  34.414   8.346  1.00 34.25     0.338 C 
ATOM     12  NZ  LYS A 135      28.477  33.655   9.543  1.00 35.99     0.618 N 
ENDBRANCH  10  11
ENDBRANCH   9  10
ENDBRANCH   8   9
ENDBRANCH   7   8
END_RES LYS A 135
