REMARK VINA RESULT:    -4.932      3.341      8.554
REMARK INTER + INTRA:         -23.378
REMARK INTER:                  -9.539
REMARK INTRA:                 -13.839
REMARK UNBOUND:               -10.372
REMARK SMILES CC(=O)N[C@@H]1[C@@H](O)C[C@](OC[C@H]2O[C@@H](O[C@H]3[C@H](O)[C@@H](O)[C@H](OCCN=[N+]=[N-])O[C@@H]3CO)[C@H](O)[C@@H](O)[C@H]2O)(C(=O)O)O[C@H]1C(O)[C@H](O)CNC(=O)OCc1cn(CC(=O)NCc2cccs2)nn1
REMARK SMILES IDX 43 1 42 2 9 3 8 4 41 5 6 6 5 7 10 8 11 9 12 10 14 11 13 12
REMARK SMILES IDX 32 13 34 14 36 15 15 16 16 17 29 18 28 19 21 20 17 21 19 22
REMARK SMILES IDX 30 23 31 24 22 26 23 27 24 28 25 29 26 30 27 31 18 32 20 34
REMARK SMILES IDX 33 36 35 38 37 40 38 42 39 43 40 44 7 46 4 48 2 49 1 51 3 52
REMARK SMILES IDX 44 53 45 55 46 56 47 58 48 59 49 60 50 62 51 63 52 64 53 65
REMARK SMILES IDX 54 66 67 67 55 68 66 69 56 70 57 71 58 72 59 73 60 75 61 76
REMARK SMILES IDX 62 77 65 78 63 79 64 80
REMARK H PARENT 31 25 18 33 20 35 33 37 35 39 37 41 40 45 7 47 4 50 44 54
REMARK H PARENT 46 57 48 61 59 74
REMARK Flexibility Score: inf
ROOT
ATOM      1  C   UNL     1      28.811  35.339  15.414  1.00  0.00     0.176 C 
ENDROOT
BRANCH   1   2
ATOM      2  C   UNL     1      30.024  35.083  16.271  1.00  0.00     0.178 C 
ATOM      3  C   UNL     1      32.069  35.739  15.281  1.00  0.00     0.272 C 
ATOM      4  C   UNL     1      32.090  34.365  14.591  1.00  0.00     0.113 C 
ATOM      5  O   UNL     1      30.958  36.013  15.972  1.00  0.00    -0.332 OA
ATOM      6  C   UNL     1      31.697  33.339  15.575  1.00  0.00     0.145 C 
ATOM      7  C   UNL     1      30.463  33.675  16.371  1.00  0.00     0.142 C 
BRANCH   3   8
ATOM      8  O   UNL     1      32.251  36.630  14.250  1.00  0.00    -0.338 OA
BRANCH   8   9
ATOM      9  C   UNL     1      31.710  36.426  13.047  1.00  0.00     0.199 C 
BRANCH   9  10
ATOM     10  C   UNL     1      30.974  37.541  12.362  1.00  0.00     0.179 C 
ATOM     11  C   UNL     1      28.933  37.800  11.343  1.00  0.00     0.282 C 
ATOM     12  O   UNL     1      29.615  37.139  12.374  1.00  0.00    -0.341 OA
ATOM     13  C   UNL     1      29.282  39.250  11.288  1.00  0.00     0.202 C 
ATOM     14  C   UNL     1      30.005  39.780  12.481  1.00  0.00     0.179 C 
ATOM     15  C   UNL     1      30.976  38.846  13.128  1.00  0.00     0.177 C 
BRANCH  11  16
ATOM     16  O   UNL     1      27.579  37.627  11.410  1.00  0.00    -0.341 OA
BRANCH  16  17
ATOM     17  C   UNL     1      27.025  37.116  10.238  1.00  0.00     0.184 C 
ATOM     18  C   UNL     1      26.455  38.133   9.351  1.00  0.00     0.178 C 
ATOM     19  O   UNL     1      25.095  38.181   9.197  1.00  0.00    -0.341 OA
ATOM     20  C   UNL     1      24.328  37.438  10.035  1.00  0.00     0.281 C 
ATOM     21  C   UNL     1      26.140  35.967  10.626  1.00  0.00     0.180 C 
ATOM     22  C   UNL     1      24.811  35.981   9.912  1.00  0.00     0.202 C 
BRANCH  18  23
ATOM     23  C   UNL     1      27.006  37.958   7.921  1.00  0.00     0.191 C 
BRANCH  23  24
ATOM     24  O   UNL     1      28.262  38.507   7.773  1.00  0.00    -0.394 OA
ATOM     25  H   UNL     1      28.783  37.919   7.162  1.00  0.00     0.210 HD
ENDBRANCH  23  24
ENDBRANCH  18  23
BRANCH  20  26
ATOM     26  O   UNL     1      23.018  37.404   9.529  1.00  0.00    -0.350 OA
BRANCH  26  27
ATOM     27  C   UNL     1      22.978  37.704   8.183  1.00  0.00     0.169 C 
BRANCH  27  28
ATOM     28  C   UNL     1      21.961  36.757   7.539  1.00  0.00     0.119 C 
BRANCH  28  29
ATOM     29  N   UNL     1      21.470  35.828   8.545  1.00  0.00    -0.092 NA
ATOM     30  N   UNL     1      20.380  35.281   8.386  1.00  0.00     0.001 N 
ATOM     31  N   UNL     1      19.390  34.551   8.188  1.00  0.00    -0.003 NA
ENDBRANCH  28  29
ENDBRANCH  27  28
ENDBRANCH  26  27
ENDBRANCH  20  26
BRANCH  21  32
ATOM     32  O   UNL     1      26.767  34.724  10.494  1.00  0.00    -0.387 OA
ATOM     33  H   UNL     1      26.264  34.135   9.852  1.00  0.00     0.211 HD
ENDBRANCH  21  32
BRANCH  22  34
ATOM     34  O   UNL     1      23.954  35.122  10.571  1.00  0.00    -0.385 OA
ATOM     35  H   UNL     1      24.088  34.189  10.265  1.00  0.00     0.211 HD
ENDBRANCH  22  34
ENDBRANCH  16  17
ENDBRANCH  11  16
BRANCH  13  36
ATOM     36  O   UNL     1      29.999  39.568  10.112  1.00  0.00    -0.385 OA
ATOM     37  H   UNL     1      30.788  40.109  10.273  1.00  0.00     0.211 HD
ENDBRANCH  13  36
BRANCH  14  38
ATOM     38  O   UNL     1      29.090  40.312  13.420  1.00  0.00    -0.387 OA
ATOM     39  H   UNL     1      28.308  39.712  13.499  1.00  0.00     0.211 HD
ENDBRANCH  14  38
BRANCH  15  40
ATOM     40  O   UNL     1      30.484  38.602  14.433  1.00  0.00    -0.387 OA
ATOM     41  H   UNL     1      30.433  37.641  14.638  1.00  0.00     0.211 HD
ENDBRANCH  15  40
ENDBRANCH   9  10
ENDBRANCH   8   9
ENDBRANCH   3   8
BRANCH   3  42
ATOM     42  C   UNL     1      33.255  35.708  16.193  1.00  0.00     0.364 C 
ATOM     43  O   UNL     1      33.192  35.745  17.443  1.00  0.00    -0.246 OA
BRANCH  42  44
ATOM     44  O   UNL     1      34.529  35.629  15.642  1.00  0.00    -0.477 OA
ATOM     45  H   UNL     1      35.174  34.910  15.943  1.00  0.00     0.296 HD
ENDBRANCH  42  44
ENDBRANCH   3  42
BRANCH   6  46
ATOM     46  O   UNL     1      31.548  32.087  14.910  1.00  0.00    -0.391 OA
ATOM     47  H   UNL     1      31.184  31.405  15.515  1.00  0.00     0.211 HD
ENDBRANCH   6  46
BRANCH   7  48
ATOM     48  N   UNL     1      30.607  33.248  17.749  1.00  0.00    -0.348 N 
ATOM     49  C   UNL     1      30.317  31.916  18.113  1.00  0.00     0.217 C 
ATOM     50  H   UNL     1      30.921  33.909  18.508  1.00  0.00     0.163 HD
ATOM     51  C   UNL     1      30.470  31.495  19.537  1.00  0.00     0.114 C 
ATOM     52  O   UNL     1      29.930  31.040  17.305  1.00  0.00    -0.275 OA
ENDBRANCH   7  48
ENDBRANCH   1   2
BRANCH   1  53
ATOM     53  O   UNL     1      28.695  36.603  14.913  1.00  0.00    -0.388 OA
ATOM     54  H   UNL     1      27.786  36.922  14.733  1.00  0.00     0.211 HD
ENDBRANCH   1  53
BRANCH   1  55
ATOM     55  C   UNL     1      28.507  34.260  14.397  1.00  0.00     0.165 C 
BRANCH  55  56
ATOM     56  O   UNL     1      28.537  34.703  13.110  1.00  0.00    -0.388 OA
ATOM     57  H   UNL     1      27.897  34.271  12.502  1.00  0.00     0.211 HD
ENDBRANCH  55  56
BRANCH  55  58
ATOM     58  C   UNL     1      27.178  33.600  14.721  1.00  0.00     0.154 C 
BRANCH  58  59
ATOM     59  N   UNL     1      26.158  34.539  15.082  1.00  0.00    -0.319 N 
ATOM     60  C   UNL     1      24.978  34.837  14.358  1.00  0.00     0.407 C 
ATOM     61  H   UNL     1      26.242  35.115  15.996  1.00  0.00     0.167 HD
ATOM     62  O   UNL     1      24.703  34.278  13.296  1.00  0.00    -0.225 OA
BRANCH  60  63
ATOM     63  O   UNL     1      24.057  35.797  14.822  1.00  0.00    -0.443 OA
BRANCH  63  64
ATOM     64  C   UNL     1      24.301  36.713  15.839  1.00  0.00     0.294 C 
BRANCH  64  65
ATOM     65  C   UNL     1      25.177  37.832  15.465  1.00  0.00     0.120 A 
ATOM     66  C   UNL     1      25.203  39.090  16.026  1.00  0.00     0.138 A 
ATOM     67  N   UNL     1      26.131  37.836  14.497  1.00  0.00    -0.132 NA
ATOM     68  N   UNL     1      26.145  39.813  15.406  1.00  0.00    -0.243 N 
ATOM     69  N   UNL     1      26.680  39.032  14.498  1.00  0.00    -0.067 NA
BRANCH  68  70
ATOM     70  C   UNL     1      26.571  41.179  15.617  1.00  0.00     0.245 C 
BRANCH  70  71
ATOM     71  C   UNL     1      27.699  41.175  16.566  1.00  0.00     0.242 C 
ATOM     72  O   UNL     1      27.723  41.977  17.517  1.00  0.00    -0.273 OA
ATOM     73  N   UNL     1      28.768  40.260  16.407  1.00  0.00    -0.350 N 
ATOM     74  H   UNL     1      28.787  39.562  15.611  1.00  0.00     0.163 HD
BRANCH  73  75
ATOM     75  C   UNL     1      29.879  40.222  17.306  1.00  0.00     0.162 C 
BRANCH  75  76
ATOM     76  C   UNL     1      29.832  38.976  18.084  1.00  0.00     0.024 A 
ATOM     77  C   UNL     1      28.831  38.086  18.300  1.00  0.00     0.017 A 
ATOM     78  S   UNL     1      31.183  38.296  18.979  1.00  0.00    -0.147 S 
ATOM     79  C   UNL     1      29.062  37.006  19.062  1.00  0.00     0.012 A 
ATOM     80  C   UNL     1      30.277  36.810  19.605  1.00  0.00     0.065 A 
ENDBRANCH  75  76
ENDBRANCH  73  75
ENDBRANCH  70  71
ENDBRANCH  68  70
ENDBRANCH  64  65
ENDBRANCH  63  64
ENDBRANCH  60  63
ENDBRANCH  58  59
ENDBRANCH  55  58
ENDBRANCH   1  55
TORSDOF 33
BEGIN_RES LYS A 131
REMARK  4 active torsions:
REMARK  status: ('A' for Active; 'I' for Inactive)
REMARK    1  A    between atoms: CA   and  CB  
REMARK    2  A    between atoms: CB   and  CG  
REMARK    3  A    between atoms: CG   and  CD  
REMARK    4  A    between atoms: CD   and  CE  
ROOT
ATOM      1  CA  LYS A 131      29.867  25.555  16.977  1.00 20.52     0.186 C 
ENDROOT
BRANCH   1   2
ATOM      2  CB  LYS A 131      28.345  25.722  17.026  1.00 20.94     0.034 C 
BRANCH   2   3
ATOM      3  CG  LYS A 131      27.601  24.403  16.888  1.00 22.96     0.005 C 
BRANCH   3   4
ATOM      4  CD  LYS A 131      26.146  24.532  17.246  1.00 24.33     0.041 C 
BRANCH   4   5
ATOM      5  CE  LYS A 131      25.574  23.154  17.559  1.00 26.91     0.338 C 
ATOM      6  NZ  LYS A 131      24.163  23.065  17.116  1.00 27.40     0.618 N 
ENDBRANCH   4   5
ENDBRANCH   3   4
ENDBRANCH   2   3
ENDBRANCH   1   2
END_RES LYS A 131
BEGIN_RES LYS A 135
REMARK  4 active torsions:
REMARK  status: ('A' for Active; 'I' for Inactive)
REMARK    5  A    between atoms: CA   and  CB  
REMARK    6  A    between atoms: CB   and  CG  
REMARK    7  A    between atoms: CG   and  CD  
REMARK    8  A    between atoms: CD   and  CE  
ROOT
ATOM      7  CA  LYS A 135      33.193  34.663   9.290  1.00 25.02     0.186 C 
ENDROOT
BRANCH   7   8
ATOM      8  CB  LYS A 135      32.060  35.360  10.034  1.00 26.63     0.034 C 
BRANCH   8   9
ATOM      9  CG  LYS A 135      30.705  34.756   9.771  1.00 29.45     0.005 C 
BRANCH   9  10
ATOM     10  CD  LYS A 135      30.500  34.524   8.282  1.00 32.00     0.041 C 
BRANCH  10  11
ATOM     11  CE  LYS A 135      29.097  34.924   7.868  1.00 34.25     0.338 C 
ATOM     12  NZ  LYS A 135      29.067  35.395   6.456  1.00 35.99     0.618 N 
ENDBRANCH  10  11
ENDBRANCH   9  10
ENDBRANCH   8   9
ENDBRANCH   7   8
END_RES LYS A 135
