REMARK VINA RESULT:    -5.385      5.712     11.739
REMARK INTER + INTRA:         -22.664
REMARK INTER:                 -12.494
REMARK INTRA:                 -10.170
REMARK UNBOUND:                -9.408
REMARK SMILES CC(=O)N[C@@H]1[C@@H](O)C[C@](OC[C@H]2O[C@@H](O[C@H]3[C@H](O)[C@@H](O)[C@H](OCCN=[N+]=[N-])O[C@@H]3CO)[C@H](O)[C@@H](O)[C@H]2O)(C(=O)O)O[C@H]1C(O)[C@H](O)CNC(=O)OCc1cn(-c2cccc(Cl)c2)nn1
REMARK SMILES IDX 9 1 8 2 6 3 5 4 42 5 41 6 10 7 11 8 12 9 14 10 13 11 32 12
REMARK SMILES IDX 34 13 36 14 15 15 16 16 29 17 28 18 21 19 17 20 19 21 30 22
REMARK SMILES IDX 31 23 22 25 23 26 24 27 25 28 26 29 27 30 18 31 20 33 33 35
REMARK SMILES IDX 35 37 37 39 38 41 39 42 40 43 7 45 43 47 44 48 45 50 46 51
REMARK SMILES IDX 47 53 48 54 49 55 50 57 51 58 52 59 53 60 54 61 64 62 55 63
REMARK SMILES IDX 63 64 56 65 57 66 62 67 58 68 60 69 59 70 61 71 4 72 2 73
REMARK SMILES IDX 1 75 3 76
REMARK H PARENT 31 24 18 32 20 34 33 36 35 38 37 40 40 44 7 46 44 49 46 52
REMARK H PARENT 48 56 4 74
REMARK Flexibility Score: inf
ROOT
ATOM      1  C   UNL     1      18.407  34.928   9.200  1.00  0.00     0.272 C 
ATOM      2  C   UNL     1      17.741  33.777   8.588  1.00  0.00     0.113 C 
ATOM      3  C   UNL     1      17.286  32.658   9.464  1.00  0.00     0.145 C 
ATOM      4  C   UNL     1      17.644  32.850  10.916  1.00  0.00     0.142 C 
ATOM      5  C   UNL     1      19.011  33.553  10.895  1.00  0.00     0.178 C 
ATOM      6  O   UNL     1      18.727  34.842  10.556  1.00  0.00    -0.332 OA
ENDROOT
BRANCH   1   7
ATOM      7  O   UNL     1      17.914  36.183   9.016  1.00  0.00    -0.338 OA
BRANCH   7   8
ATOM      8  C   UNL     1      17.967  37.154   9.926  1.00  0.00     0.199 C 
BRANCH   8   9
ATOM      9  C   UNL     1      18.243  38.562   9.513  1.00  0.00     0.179 C 
ATOM     10  C   UNL     1      19.934  40.129   9.378  1.00  0.00     0.282 C 
ATOM     11  O   UNL     1      19.635  38.773   9.602  1.00  0.00    -0.341 OA
ATOM     12  C   UNL     1      19.499  40.505   7.994  1.00  0.00     0.202 C 
ATOM     13  C   UNL     1      18.112  40.116   7.591  1.00  0.00     0.179 C 
ATOM     14  C   UNL     1      17.877  38.683   8.015  1.00  0.00     0.177 C 
BRANCH  10  15
ATOM     15  O   UNL     1      21.302  40.192   9.405  1.00  0.00    -0.341 OA
BRANCH  15  16
ATOM     16  C   UNL     1      22.003  39.004   9.606  1.00  0.00     0.184 C 
ATOM     17  C   UNL     1      22.829  38.970  10.806  1.00  0.00     0.178 C 
ATOM     18  O   UNL     1      24.101  38.489  10.608  1.00  0.00    -0.341 OA
ATOM     19  C   UNL     1      24.669  38.812   9.379  1.00  0.00     0.281 C 
ATOM     20  C   UNL     1      22.561  38.633   8.276  1.00  0.00     0.180 C 
ATOM     21  C   UNL     1      23.890  37.955   8.387  1.00  0.00     0.202 C 
BRANCH  17  22
ATOM     22  C   UNL     1      22.219  38.032  11.862  1.00  0.00     0.191 C 
BRANCH  22  23
ATOM     23  O   UNL     1      23.223  37.088  12.198  1.00  0.00    -0.394 OA
ATOM     24  H   UNL     1      23.332  37.074  13.166  1.00  0.00     0.210 HD
ENDBRANCH  22  23
ENDBRANCH  17  22
BRANCH  19  25
ATOM     25  O   UNL     1      25.981  38.437   9.395  1.00  0.00    -0.350 OA
BRANCH  25  26
ATOM     26  C   UNL     1      26.908  39.444   9.312  1.00  0.00     0.169 C 
BRANCH  26  27
ATOM     27  C   UNL     1      27.798  39.398   8.097  1.00  0.00     0.119 C 
BRANCH  27  28
ATOM     28  N   UNL     1      26.942  39.655   6.929  1.00  0.00    -0.092 NA
ATOM     29  N   UNL     1      27.429  39.362   5.817  1.00  0.00     0.001 N 
ATOM     30  N   UNL     1      27.650  38.739   4.763  1.00  0.00    -0.003 NA
ENDBRANCH  27  28
ENDBRANCH  26  27
ENDBRANCH  25  26
ENDBRANCH  19  25
BRANCH  20  31
ATOM     31  O   UNL     1      21.641  37.839   7.563  1.00  0.00    -0.387 OA
ATOM     32  H   UNL     1      20.753  38.055   7.943  1.00  0.00     0.211 HD
ENDBRANCH  20  31
BRANCH  21  33
ATOM     33  O   UNL     1      24.511  38.013   7.134  1.00  0.00    -0.385 OA
ATOM     34  H   UNL     1      24.664  37.130   6.759  1.00  0.00     0.211 HD
ENDBRANCH  21  33
ENDBRANCH  15  16
ENDBRANCH  10  15
BRANCH  12  35
ATOM     35  O   UNL     1      19.571  41.893   7.795  1.00  0.00    -0.385 OA
ATOM     36  H   UNL     1      19.726  42.376   8.638  1.00  0.00     0.211 HD
ENDBRANCH  12  35
BRANCH  13  37
ATOM     37  O   UNL     1      18.034  40.153   6.197  1.00  0.00    -0.387 OA
ATOM     38  H   UNL     1      17.425  40.826   5.847  1.00  0.00     0.211 HD
ENDBRANCH  13  37
BRANCH  14  39
ATOM     39  O   UNL     1      18.886  37.927   7.373  1.00  0.00    -0.387 OA
ATOM     40  H   UNL     1      19.529  38.477   6.901  1.00  0.00     0.211 HD
ENDBRANCH  14  39
ENDBRANCH   8   9
ENDBRANCH   7   8
ENDBRANCH   1   7
BRANCH   1  41
ATOM     41  C   UNL     1      19.796  35.003   8.547  1.00  0.00     0.364 C 
ATOM     42  O   UNL     1      20.707  35.728   8.982  1.00  0.00    -0.246 OA
BRANCH  41  43
ATOM     43  O   UNL     1      20.051  34.222   7.413  1.00  0.00    -0.477 OA
ATOM     44  H   UNL     1      19.464  33.393   7.260  1.00  0.00     0.296 HD
ENDBRANCH  41  43
ENDBRANCH   1  41
BRANCH   3  45
ATOM     45  O   UNL     1      15.932  32.391   9.374  1.00  0.00    -0.391 OA
ATOM     46  H   UNL     1      15.498  32.350  10.258  1.00  0.00     0.211 HD
ENDBRANCH   3  45
BRANCH   5  47
ATOM     47  C   UNL     1      19.745  33.376  12.214  1.00  0.00     0.176 C 
BRANCH  47  48
ATOM     48  O   UNL     1      20.641  32.307  11.953  1.00  0.00    -0.388 OA
ATOM     49  H   UNL     1      21.514  32.720  11.681  1.00  0.00     0.211 HD
ENDBRANCH  47  48
BRANCH  47  50
ATOM     50  C   UNL     1      20.616  34.590  12.453  1.00  0.00     0.165 C 
BRANCH  50  51
ATOM     51  O   UNL     1      21.611  34.649  11.492  1.00  0.00    -0.388 OA
ATOM     52  H   UNL     1      21.531  35.423  10.891  1.00  0.00     0.211 HD
ENDBRANCH  50  51
BRANCH  50  53
ATOM     53  C   UNL     1      21.309  34.441  13.812  1.00  0.00     0.154 C 
BRANCH  53  54
ATOM     54  N   UNL     1      22.719  34.201  13.674  1.00  0.00    -0.319 N 
ATOM     55  C   UNL     1      23.369  32.973  13.865  1.00  0.00     0.407 C 
ATOM     56  H   UNL     1      23.334  35.032  13.401  1.00  0.00     0.167 HD
ATOM     57  O   UNL     1      22.706  31.952  14.163  1.00  0.00    -0.225 OA
BRANCH  55  58
ATOM     58  O   UNL     1      24.781  32.844  13.728  1.00  0.00    -0.443 OA
BRANCH  58  59
ATOM     59  C   UNL     1      25.562  33.983  13.484  1.00  0.00     0.294 C 
BRANCH  59  60
ATOM     60  C   UNL     1      25.584  34.410  12.061  1.00  0.00     0.121 A 
ATOM     61  C   UNL     1      26.688  34.443  11.202  1.00  0.00     0.144 A 
ATOM     62  N   UNL     1      24.576  34.863  11.296  1.00  0.00    -0.131 NA
ATOM     63  N   UNL     1      26.310  34.901   9.995  1.00  0.00    -0.220 N 
ATOM     64  N   UNL     1      25.029  35.152  10.065  1.00  0.00    -0.062 NA
BRANCH  63  65
ATOM     65  C   UNL     1      27.213  35.061   8.909  1.00  0.00     0.068 A 
ATOM     66  C   UNL     1      26.860  35.602   7.694  1.00  0.00     0.028 A 
ATOM     67  C   UNL     1      28.553  34.657   9.038  1.00  0.00     0.049 A 
ATOM     68  C   UNL     1      27.782  35.737   6.661  1.00  0.00     0.004 A 
ATOM     69  C   UNL     1      29.461  34.791   8.016  1.00  0.00     0.043 A 
ATOM     70  C   UNL     1      29.092  35.335   6.807  1.00  0.00     0.020 A 
ATOM     71  Cl  UNL     1      31.134  34.282   8.195  1.00  0.00    -0.084 Cl
ENDBRANCH  63  65
ENDBRANCH  59  60
ENDBRANCH  58  59
ENDBRANCH  55  58
ENDBRANCH  53  54
ENDBRANCH  50  53
ENDBRANCH  47  50
ENDBRANCH   5  47
BRANCH   4  72
ATOM     72  N   UNL     1      17.642  31.635  11.662  1.00  0.00    -0.348 N 
ATOM     73  C   UNL     1      16.497  31.233  12.438  1.00  0.00     0.217 C 
ATOM     74  H   UNL     1      18.438  30.956  11.706  1.00  0.00     0.163 HD
ATOM     75  C   UNL     1      16.469  29.985  13.215  1.00  0.00     0.114 C 
ATOM     76  O   UNL     1      15.497  31.981  12.442  1.00  0.00    -0.275 OA
ENDBRANCH   4  72
TORSDOF 30
BEGIN_RES LYS A 131
REMARK  4 active torsions:
REMARK  status: ('A' for Active; 'I' for Inactive)
REMARK    1  A    between atoms: CA   and  CB  
REMARK    2  A    between atoms: CB   and  CG  
REMARK    3  A    between atoms: CG   and  CD  
REMARK    4  A    between atoms: CD   and  CE  
ROOT
ATOM      1  CA  LYS A 131      29.867  25.555  16.977  1.00 20.52     0.186 C 
ENDROOT
BRANCH   1   2
ATOM      2  CB  LYS A 131      28.345  25.722  17.026  1.00 20.94     0.034 C 
BRANCH   2   3
ATOM      3  CG  LYS A 131      27.599  24.427  16.742  1.00 22.96     0.005 C 
BRANCH   3   4
ATOM      4  CD  LYS A 131      26.735  24.006  17.898  1.00 24.33     0.041 C 
BRANCH   4   5
ATOM      5  CE  LYS A 131      25.302  23.805  17.415  1.00 26.91     0.338 C 
ATOM      6  NZ  LYS A 131      24.588  25.102  17.351  1.00 27.40     0.618 N 
ENDBRANCH   4   5
ENDBRANCH   3   4
ENDBRANCH   2   3
ENDBRANCH   1   2
END_RES LYS A 131
BEGIN_RES LYS A 135
REMARK  4 active torsions:
REMARK  status: ('A' for Active; 'I' for Inactive)
REMARK    5  A    between atoms: CA   and  CB  
REMARK    6  A    between atoms: CB   and  CG  
REMARK    7  A    between atoms: CG   and  CD  
REMARK    8  A    between atoms: CD   and  CE  
ROOT
ATOM      7  CA  LYS A 135      33.193  34.663   9.290  1.00 25.02     0.186 C 
ENDROOT
BRANCH   7   8
ATOM      8  CB  LYS A 135      32.060  35.360  10.034  1.00 26.63     0.034 C 
BRANCH   8   9
ATOM      9  CG  LYS A 135      32.399  35.705  11.461  1.00 29.45     0.005 C 
BRANCH   9  10
ATOM     10  CD  LYS A 135      31.905  37.101  11.808  1.00 32.00     0.041 C 
BRANCH  10  11
ATOM     11  CE  LYS A 135      31.860  37.973  10.568  1.00 34.25     0.338 C 
ATOM     12  NZ  LYS A 135      30.561  38.696  10.467  1.00 35.99     0.618 N 
ENDBRANCH  10  11
ENDBRANCH   9  10
ENDBRANCH   8   9
ENDBRANCH   7   8
END_RES LYS A 135
