REMARK VINA RESULT:    -4.272      2.694      4.457
REMARK INTER + INTRA:         -22.016
REMARK INTER:                 -11.338
REMARK INTRA:                 -10.678
REMARK UNBOUND:               -11.125
REMARK SMILES CC(=O)N[C@@H]1[C@@H](O)C[C@](OC[C@H]2O[C@@H](O[C@H]3[C@H](O)[C@@H](O)[C@H](OCCN=[N+]=[N-])O[C@@H]3CO)[C@H](O)[C@@H](O)[C@H]2O)(C(=O)O)O[C@H]1C(O)[C@H](O)CNC(=O)OCc1cn([C@@H](C)C(=O)O)nn1
REMARK SMILES IDX 9 1 8 2 6 3 5 4 42 5 41 6 10 7 11 8 12 9 14 10 13 11 32 12
REMARK SMILES IDX 34 13 36 14 15 15 16 16 29 17 28 18 21 19 17 20 19 21 30 22
REMARK SMILES IDX 31 23 22 25 23 26 24 27 25 28 26 29 27 30 18 31 20 33 33 35
REMARK SMILES IDX 35 37 37 39 38 41 39 42 40 43 7 45 43 47 44 48 45 50 46 51
REMARK SMILES IDX 47 53 48 54 49 55 50 57 51 58 52 59 53 60 54 61 62 62 55 63
REMARK SMILES IDX 61 64 56 65 57 66 58 67 59 68 60 69 4 71 2 72 1 74 3 75
REMARK H PARENT 31 24 18 32 20 34 33 36 35 38 37 40 40 44 7 46 44 49 46 52
REMARK H PARENT 48 56 60 70 4 73
REMARK Flexibility Score: inf
ROOT
ATOM      1  C   UNL     1      30.886  36.218  14.023  1.00  0.00     0.272 C 
ATOM      2  C   UNL     1      31.702  37.446  14.149  1.00  0.00     0.113 C 
ATOM      3  C   UNL     1      30.742  38.606  14.281  1.00  0.00     0.145 C 
ATOM      4  C   UNL     1      30.168  38.742  12.825  1.00  0.00     0.142 C 
ATOM      5  C   UNL     1      29.858  37.435  12.272  1.00  0.00     0.178 C 
ATOM      6  O   UNL     1      29.823  36.366  13.127  1.00  0.00    -0.332 OA
ENDROOT
BRANCH   1   7
ATOM      7  O   UNL     1      30.453  35.745  15.223  1.00  0.00    -0.338 OA
BRANCH   7   8
ATOM      8  C   UNL     1      31.178  34.814  15.869  1.00  0.00     0.199 C 
BRANCH   8   9
ATOM      9  C   UNL     1      30.272  33.676  16.403  1.00  0.00     0.179 C 
ATOM     10  C   UNL     1      28.049  33.053  16.408  1.00  0.00     0.282 C 
ATOM     11  O   UNL     1      29.023  33.897  15.885  1.00  0.00    -0.341 OA
ATOM     12  C   UNL     1      28.627  31.949  17.244  1.00  0.00     0.202 C 
ATOM     13  C   UNL     1      29.809  31.306  16.544  1.00  0.00     0.179 C 
ATOM     14  C   UNL     1      30.793  32.336  16.013  1.00  0.00     0.177 C 
BRANCH  10  15
ATOM     15  O   UNL     1      27.262  32.451  15.416  1.00  0.00    -0.341 OA
BRANCH  15  16
ATOM     16  C   UNL     1      25.913  32.718  15.598  1.00  0.00     0.184 C 
ATOM     17  C   UNL     1      25.096  31.937  14.619  1.00  0.00     0.178 C 
ATOM     18  O   UNL     1      24.501  32.752  13.655  1.00  0.00    -0.341 OA
ATOM     19  C   UNL     1      25.443  33.588  13.049  1.00  0.00     0.281 C 
ATOM     20  C   UNL     1      25.705  34.201  15.400  1.00  0.00     0.180 C 
ATOM     21  C   UNL     1      25.928  34.657  13.985  1.00  0.00     0.202 C 
BRANCH  17  22
ATOM     22  C   UNL     1      23.999  31.149  15.297  1.00  0.00     0.191 C 
BRANCH  22  23
ATOM     23  O   UNL     1      23.509  31.800  16.427  1.00  0.00    -0.394 OA
ATOM     24  H   UNL     1      23.789  31.321  17.233  1.00  0.00     0.210 HD
ENDBRANCH  22  23
ENDBRANCH  17  22
BRANCH  19  25
ATOM     25  O   UNL     1      24.799  34.188  11.981  1.00  0.00    -0.350 OA
BRANCH  25  26
ATOM     26  C   UNL     1      23.458  34.320  12.273  1.00  0.00     0.169 C 
BRANCH  26  27
ATOM     27  C   UNL     1      22.910  35.610  11.697  1.00  0.00     0.119 C 
BRANCH  27  28
ATOM     28  N   UNL     1      22.177  35.293  10.474  1.00  0.00    -0.092 NA
ATOM     29  N   UNL     1      20.970  35.509  10.357  1.00  0.00     0.001 N 
ATOM     30  N   UNL     1      19.851  35.978  10.250  1.00  0.00    -0.003 NA
ENDBRANCH  27  28
ENDBRANCH  26  27
ENDBRANCH  25  26
ENDBRANCH  19  25
BRANCH  20  31
ATOM     31  O   UNL     1      24.444  34.615  15.827  1.00  0.00    -0.387 OA
ATOM     32  H   UNL     1      23.937  35.106  15.145  1.00  0.00     0.211 HD
ENDBRANCH  20  31
BRANCH  21  33
ATOM     33  O   UNL     1      27.287  34.860  13.754  1.00  0.00    -0.385 OA
ATOM     34  H   UNL     1      27.828  34.123  14.121  1.00  0.00     0.211 HD
ENDBRANCH  21  33
ENDBRANCH  15  16
ENDBRANCH  10  15
BRANCH  12  35
ATOM     35  O   UNL     1      28.891  32.299  18.546  1.00  0.00    -0.385 OA
ATOM     36  H   UNL     1      29.788  32.754  18.605  1.00  0.00     0.211 HD
ENDBRANCH  12  35
BRANCH  13  37
ATOM     37  O   UNL     1      29.285  30.577  15.454  1.00  0.00    -0.387 OA
ATOM     38  H   UNL     1      29.895  29.836  15.199  1.00  0.00     0.211 HD
ENDBRANCH  13  37
BRANCH  14  39
ATOM     39  O   UNL     1      30.932  32.224  14.630  1.00  0.00    -0.387 OA
ATOM     40  H   UNL     1      31.462  32.988  14.287  1.00  0.00     0.211 HD
ENDBRANCH  14  39
ENDBRANCH   8   9
ENDBRANCH   7   8
ENDBRANCH   1   7
BRANCH   1  41
ATOM     41  C   UNL     1      31.731  35.187  13.366  1.00  0.00     0.364 C 
ATOM     42  O   UNL     1      32.966  35.243  13.456  1.00  0.00    -0.246 OA
BRANCH  41  43
ATOM     43  O   UNL     1      31.165  34.146  12.643  1.00  0.00    -0.477 OA
ATOM     44  H   UNL     1      30.982  34.243  11.633  1.00  0.00     0.296 HD
ENDBRANCH  41  43
ENDBRANCH   1  41
BRANCH   3  45
ATOM     45  O   UNL     1      29.663  38.183  15.047  1.00  0.00    -0.391 OA
ATOM     46  H   UNL     1      29.855  37.402  15.593  1.00  0.00     0.211 HD
ENDBRANCH   3  45
BRANCH   5  47
ATOM     47  C   UNL     1      28.612  37.341  11.407  1.00  0.00     0.176 C 
BRANCH  47  48
ATOM     48  O   UNL     1      28.816  38.242  10.300  1.00  0.00    -0.388 OA
ATOM     49  H   UNL     1      29.239  39.054  10.624  1.00  0.00     0.211 HD
ENDBRANCH  47  48
BRANCH  47  50
ATOM     50  C   UNL     1      27.364  37.899  12.063  1.00  0.00     0.165 C 
BRANCH  50  51
ATOM     51  O   UNL     1      27.325  37.828  13.421  1.00  0.00    -0.388 OA
ATOM     52  H   UNL     1      27.271  38.675  13.917  1.00  0.00     0.211 HD
ENDBRANCH  50  51
BRANCH  50  53
ATOM     53  C   UNL     1      26.119  37.498  11.348  1.00  0.00     0.154 C 
BRANCH  53  54
ATOM     54  N   UNL     1      25.999  37.872   9.989  1.00  0.00    -0.319 N 
ATOM     55  C   UNL     1      25.612  37.049   8.899  1.00  0.00     0.407 C 
ATOM     56  H   UNL     1      26.226  38.889   9.758  1.00  0.00     0.167 HD
ATOM     57  O   UNL     1      25.329  35.863   9.109  1.00  0.00    -0.225 OA
BRANCH  55  58
ATOM     58  O   UNL     1      25.558  37.588   7.602  1.00  0.00    -0.443 OA
BRANCH  58  59
ATOM     59  C   UNL     1      25.762  38.959   7.387  1.00  0.00     0.294 C 
BRANCH  59  60
ATOM     60  C   UNL     1      27.179  39.341   7.357  1.00  0.00     0.120 A 
ATOM     61  C   UNL     1      28.124  39.115   6.380  1.00  0.00     0.139 A 
ATOM     62  N   UNL     1      27.789  40.020   8.363  1.00  0.00    -0.132 NA
ATOM     63  N   UNL     1      29.263  39.657   6.813  1.00  0.00    -0.238 N 
ATOM     64  N   UNL     1      29.068  40.202   8.007  1.00  0.00    -0.066 NA
BRANCH  63  65
ATOM     65  C   UNL     1      30.525  39.652   6.101  1.00  0.00     0.215 C 
ATOM     66  C   UNL     1      30.596  40.839   5.191  1.00  0.00     0.046 C 
BRANCH  65  67
ATOM     67  C   UNL     1      31.673  39.656   7.038  1.00  0.00     0.328 C 
ATOM     68  O   UNL     1      32.484  40.613   6.988  1.00  0.00    -0.250 OA
BRANCH  67  69
ATOM     69  O   UNL     1      31.880  38.646   7.965  1.00  0.00    -0.480 OA
ATOM     70  H   UNL     1      31.917  38.832   8.960  1.00  0.00     0.296 HD
ENDBRANCH  67  69
ENDBRANCH  65  67
ENDBRANCH  63  65
ENDBRANCH  59  60
ENDBRANCH  58  59
ENDBRANCH  55  58
ENDBRANCH  53  54
ENDBRANCH  50  53
ENDBRANCH  47  50
ENDBRANCH   5  47
BRANCH   4  71
ATOM     71  N   UNL     1      31.104  39.555  12.071  1.00  0.00    -0.348 N 
ATOM     72  C   UNL     1      30.810  40.688  11.314  1.00  0.00     0.217 C 
ATOM     73  H   UNL     1      32.116  39.242  12.110  1.00  0.00     0.163 HD
ATOM     74  C   UNL     1      31.861  41.436  10.582  1.00  0.00     0.114 C 
ATOM     75  O   UNL     1      29.632  41.084  11.248  1.00  0.00    -0.275 OA
ENDBRANCH   4  71
TORSDOF 32
BEGIN_RES LYS A 131
REMARK  4 active torsions:
REMARK  status: ('A' for Active; 'I' for Inactive)
REMARK    1  A    between atoms: CA   and  CB  
REMARK    2  A    between atoms: CB   and  CG  
REMARK    3  A    between atoms: CG   and  CD  
REMARK    4  A    between atoms: CD   and  CE  
ROOT
ATOM      1  CA  LYS A 131      29.867  25.555  16.977  1.00 20.52     0.186 C 
ENDROOT
BRANCH   1   2
ATOM      2  CB  LYS A 131      28.345  25.722  17.026  1.00 20.94     0.034 C 
BRANCH   2   3
ATOM      3  CG  LYS A 131      27.601  24.402  16.889  1.00 22.96     0.005 C 
BRANCH   3   4
ATOM      4  CD  LYS A 131      26.177  24.503  17.361  1.00 24.33     0.041 C 
BRANCH   4   5
ATOM      5  CE  LYS A 131      25.633  23.106  17.641  1.00 26.91     0.338 C 
ATOM      6  NZ  LYS A 131      24.253  22.972  17.119  1.00 27.40     0.618 N 
ENDBRANCH   4   5
ENDBRANCH   3   4
ENDBRANCH   2   3
ENDBRANCH   1   2
END_RES LYS A 131
BEGIN_RES LYS A 135
REMARK  4 active torsions:
REMARK  status: ('A' for Active; 'I' for Inactive)
REMARK    5  A    between atoms: CA   and  CB  
REMARK    6  A    between atoms: CB   and  CG  
REMARK    7  A    between atoms: CG   and  CD  
REMARK    8  A    between atoms: CD   and  CE  
ROOT
ATOM      7  CA  LYS A 135      33.193  34.663   9.290  1.00 25.02     0.186 C 
ENDROOT
BRANCH   7   8
ATOM      8  CB  LYS A 135      32.060  35.360  10.034  1.00 26.63     0.034 C 
BRANCH   8   9
ATOM      9  CG  LYS A 135      30.795  35.484   9.225  1.00 29.45     0.005 C 
BRANCH   9  10
ATOM     10  CD  LYS A 135      30.123  34.129   9.069  1.00 32.00     0.041 C 
BRANCH  10  11
ATOM     11  CE  LYS A 135      28.654  34.298   8.731  1.00 34.25     0.338 C 
ATOM     12  NZ  LYS A 135      27.789  33.686   9.777  1.00 35.99     0.618 N 
ENDBRANCH  10  11
ENDBRANCH   9  10
ENDBRANCH   8   9
ENDBRANCH   7   8
END_RES LYS A 135
