REMARK VINA RESULT:    -4.273      4.341      8.273
REMARK INTER + INTRA:         -22.386
REMARK INTER:                 -10.316
REMARK INTRA:                 -12.070
REMARK UNBOUND:               -11.119
REMARK SMILES CC(=O)N[C@@H]1[C@@H](O)C[C@](OC[C@H]2O[C@@H](O[C@H]3[C@H](O)[C@@H](O)[C@H](OCCN=[N+]=[N-])O[C@@H]3CO)[C@H](O)[C@@H](O)[C@H]2O)(C(=O)O)O[C@H]1C(O)[C@H](O)CNC(=O)OCc1cn(CC(O)CO)nn1
REMARK SMILES IDX 43 1 42 2 9 3 8 4 41 5 6 6 5 7 10 8 11 9 12 10 14 11 13 12
REMARK SMILES IDX 32 13 34 14 36 15 15 16 16 17 29 18 28 19 21 20 17 21 19 22
REMARK SMILES IDX 30 23 31 24 22 26 23 27 24 28 25 29 26 30 27 31 18 32 20 34
REMARK SMILES IDX 33 36 35 38 37 40 38 42 39 43 40 44 7 46 4 48 2 49 1 51 3 52
REMARK SMILES IDX 44 53 45 55 46 56 47 58 48 59 49 60 50 62 51 63 52 64 53 65
REMARK SMILES IDX 54 66 62 67 55 68 61 69 56 70 57 71 58 72 59 74 60 75
REMARK H PARENT 31 25 18 33 20 35 33 37 35 39 37 41 40 45 7 47 4 50 44 54
REMARK H PARENT 46 57 48 61 58 73 60 76
REMARK Flexibility Score: inf
ROOT
ATOM      1  C   UNL     1      28.919  37.895  10.715  1.00  0.00     0.176 C 
ENDROOT
BRANCH   1   2
ATOM      2  C   UNL     1      28.762  36.493  10.098  1.00  0.00     0.178 C 
ATOM      3  C   UNL     1      28.872  35.323   8.048  1.00  0.00     0.272 C 
ATOM      4  C   UNL     1      27.531  34.697   8.313  1.00  0.00     0.113 C 
ATOM      5  O   UNL     1      28.972  36.513   8.784  1.00  0.00    -0.332 OA
ATOM      6  C   UNL     1      26.712  35.281   9.401  1.00  0.00     0.145 C 
ATOM      7  C   UNL     1      27.448  35.941  10.506  1.00  0.00     0.142 C 
BRANCH   3   8
ATOM      8  O   UNL     1      29.006  35.628   6.774  1.00  0.00    -0.338 OA
BRANCH   8   9
ATOM      9  C   UNL     1      28.421  36.073   5.745  1.00  0.00     0.199 C 
BRANCH   9  10
ATOM     10  C   UNL     1      28.126  37.513   5.476  1.00  0.00     0.179 C 
ATOM     11  C   UNL     1      26.595  39.139   5.972  1.00  0.00     0.282 C 
ATOM     12  O   UNL     1      27.192  37.987   6.475  1.00  0.00    -0.341 OA
ATOM     13  C   UNL     1      27.402  39.888   4.967  1.00  0.00     0.202 C 
ATOM     14  C   UNL     1      28.888  39.785   5.126  1.00  0.00     0.179 C 
ATOM     15  C   UNL     1      29.305  38.454   5.731  1.00  0.00     0.177 C 
BRANCH  11  16
ATOM     16  O   UNL     1      26.138  40.014   6.935  1.00  0.00    -0.341 OA
BRANCH  16  17
ATOM     17  C   UNL     1      24.750  40.121   6.990  1.00  0.00     0.184 C 
ATOM     18  C   UNL     1      24.373  41.495   7.454  1.00  0.00     0.178 C 
ATOM     19  O   UNL     1      23.709  41.504   8.671  1.00  0.00    -0.341 OA
ATOM     20  C   UNL     1      24.316  40.622   9.581  1.00  0.00     0.281 C 
ATOM     21  C   UNL     1      24.183  39.002   7.761  1.00  0.00     0.180 C 
ATOM     22  C   UNL     1      23.831  39.248   9.187  1.00  0.00     0.202 C 
BRANCH  18  23
ATOM     23  C   UNL     1      23.495  42.215   6.450  1.00  0.00     0.191 C 
BRANCH  23  24
ATOM     24  O   UNL     1      23.395  43.570   6.731  1.00  0.00    -0.394 OA
ATOM     25  H   UNL     1      24.280  43.984   6.474  1.00  0.00     0.210 HD
ENDBRANCH  23  24
ENDBRANCH  18  23
BRANCH  20  26
ATOM     26  O   UNL     1      23.848  40.979  10.835  1.00  0.00    -0.350 OA
BRANCH  26  27
ATOM     27  C   UNL     1      23.136  42.168  10.862  1.00  0.00     0.169 C 
BRANCH  27  28
ATOM     28  C   UNL     1      23.757  43.207  11.768  1.00  0.00     0.119 C 
BRANCH  28  29
ATOM     29  N   UNL     1      24.017  44.447  11.089  1.00  0.00    -0.092 NA
ATOM     30  N   UNL     1      24.600  44.563  10.017  1.00  0.00     0.001 N 
ATOM     31  N   UNL     1      25.282  44.543   8.993  1.00  0.00    -0.003 NA
ENDBRANCH  28  29
ENDBRANCH  27  28
ENDBRANCH  26  27
ENDBRANCH  20  26
BRANCH  21  32
ATOM     32  O   UNL     1      23.041  38.451   7.126  1.00  0.00    -0.387 OA
ATOM     33  H   UNL     1      23.147  38.730   6.160  1.00  0.00     0.211 HD
ENDBRANCH  21  32
BRANCH  22  34
ATOM     34  O   UNL     1      24.292  38.264  10.057  1.00  0.00    -0.385 OA
ATOM     35  H   UNL     1      23.675  38.068  10.781  1.00  0.00     0.211 HD
ENDBRANCH  22  34
ENDBRANCH  16  17
ENDBRANCH  11  16
BRANCH  13  36
ATOM     36  O   UNL     1      26.974  39.631   3.644  1.00  0.00    -0.385 OA
ATOM     37  H   UNL     1      27.712  39.550   3.013  1.00  0.00     0.211 HD
ENDBRANCH  13  36
BRANCH  14  38
ATOM     38  O   UNL     1      29.448  40.848   5.831  1.00  0.00    -0.387 OA
ATOM     39  H   UNL     1      28.786  41.577   5.894  1.00  0.00     0.211 HD
ENDBRANCH  14  38
BRANCH  15  40
ATOM     40  O   UNL     1      29.346  38.651   7.138  1.00  0.00    -0.387 OA
ATOM     41  H   UNL     1      28.807  37.965   7.599  1.00  0.00     0.211 HD
ENDBRANCH  15  40
ENDBRANCH   9  10
ENDBRANCH   8   9
ENDBRANCH   3   8
BRANCH   3  42
ATOM     42  C   UNL     1      29.984  34.428   8.508  1.00  0.00     0.364 C 
ATOM     43  O   UNL     1      31.080  34.521   7.872  1.00  0.00    -0.246 OA
BRANCH  42  44
ATOM     44  O   UNL     1      29.870  33.543   9.548  1.00  0.00    -0.477 OA
ATOM     45  H   UNL     1      28.959  33.273   9.935  1.00  0.00     0.296 HD
ENDBRANCH  42  44
ENDBRANCH   3  42
BRANCH   6  46
ATOM     46  O   UNL     1      25.858  36.241   8.806  1.00  0.00    -0.391 OA
ATOM     47  H   UNL     1      25.869  37.060   9.339  1.00  0.00     0.211 HD
ENDBRANCH   6  46
BRANCH   7  48
ATOM     48  N   UNL     1      27.528  35.026  11.642  1.00  0.00    -0.348 N 
ATOM     49  C   UNL     1      26.834  35.270  12.854  1.00  0.00     0.217 C 
ATOM     50  H   UNL     1      28.101  34.160  11.603  1.00  0.00     0.163 HD
ATOM     51  C   UNL     1      26.912  34.344  14.013  1.00  0.00     0.114 C 
ATOM     52  O   UNL     1      26.135  36.312  12.924  1.00  0.00    -0.275 OA
ENDBRANCH   7  48
ENDBRANCH   1   2
BRANCH   1  53
ATOM     53  O   UNL     1      29.852  38.609   9.990  1.00  0.00    -0.388 OA
ATOM     54  H   UNL     1      30.708  38.116   9.940  1.00  0.00     0.211 HD
ENDBRANCH   1  53
BRANCH   1  55
ATOM     55  C   UNL     1      27.584  38.623  10.692  1.00  0.00     0.165 C 
BRANCH  55  56
ATOM     56  O   UNL     1      27.445  39.073   9.356  1.00  0.00    -0.388 OA
ATOM     57  H   UNL     1      27.352  38.295   8.755  1.00  0.00     0.211 HD
ENDBRANCH  55  56
BRANCH  55  58
ATOM     58  C   UNL     1      27.522  39.805  11.596  1.00  0.00     0.154 C 
BRANCH  58  59
ATOM     59  N   UNL     1      28.642  40.702  11.403  1.00  0.00    -0.319 N 
ATOM     60  C   UNL     1      28.433  42.071  11.119  1.00  0.00     0.407 C 
ATOM     61  H   UNL     1      29.645  40.370  11.469  1.00  0.00     0.167 HD
ATOM     62  O   UNL     1      27.284  42.559  11.010  1.00  0.00    -0.225 OA
BRANCH  60  63
ATOM     63  O   UNL     1      29.495  42.936  10.954  1.00  0.00    -0.443 OA
BRANCH  63  64
ATOM     64  C   UNL     1      30.052  43.380   9.766  1.00  0.00     0.294 C 
BRANCH  64  65
ATOM     65  C   UNL     1      30.759  42.355   8.966  1.00  0.00     0.120 A 
ATOM     66  C   UNL     1      31.976  42.530   8.371  1.00  0.00     0.138 A 
ATOM     67  N   UNL     1      30.312  41.093   8.690  1.00  0.00    -0.132 NA
ATOM     68  N   UNL     1      32.248  41.372   7.742  1.00  0.00    -0.249 N 
ATOM     69  N   UNL     1      31.256  40.539   7.941  1.00  0.00    -0.067 NA
BRANCH  68  70
ATOM     70  C   UNL     1      33.426  41.070   6.958  1.00  0.00     0.180 C 
BRANCH  70  71
ATOM     71  C   UNL     1      34.353  40.233   7.851  1.00  0.00     0.161 C 
BRANCH  71  72
ATOM     72  O   UNL     1      33.608  39.191   8.346  1.00  0.00    -0.389 OA
ATOM     73  H   UNL     1      33.660  39.123   9.331  1.00  0.00     0.211 HD
ENDBRANCH  71  72
BRANCH  71  74
ATOM     74  C   UNL     1      35.532  39.747   7.043  1.00  0.00     0.189 C 
BRANCH  74  75
ATOM     75  O   UNL     1      35.245  38.528   6.471  1.00  0.00    -0.394 OA
ATOM     76  H   UNL     1      34.278  38.482   6.258  1.00  0.00     0.210 HD
ENDBRANCH  74  75
ENDBRANCH  71  74
ENDBRANCH  70  71
ENDBRANCH  68  70
ENDBRANCH  64  65
ENDBRANCH  63  64
ENDBRANCH  60  63
ENDBRANCH  58  59
ENDBRANCH  55  58
ENDBRANCH   1  55
TORSDOF 34
BEGIN_RES LYS A 131
REMARK  4 active torsions:
REMARK  status: ('A' for Active; 'I' for Inactive)
REMARK    1  A    between atoms: CA   and  CB  
REMARK    2  A    between atoms: CB   and  CG  
REMARK    3  A    between atoms: CG   and  CD  
REMARK    4  A    between atoms: CD   and  CE  
ROOT
ATOM      1  CA  LYS A 131      29.867  25.555  16.977  1.00 20.52     0.186 C 
ENDROOT
BRANCH   1   2
ATOM      2  CB  LYS A 131      28.345  25.722  17.026  1.00 20.94     0.034 C 
BRANCH   2   3
ATOM      3  CG  LYS A 131      27.601  24.404  16.875  1.00 22.96     0.005 C 
BRANCH   3   4
ATOM      4  CD  LYS A 131      26.147  24.530  17.237  1.00 24.33     0.041 C 
BRANCH   4   5
ATOM      5  CE  LYS A 131      25.621  23.178  17.709  1.00 26.91     0.338 C 
ATOM      6  NZ  LYS A 131      24.276  22.919  17.144  1.00 27.40     0.618 N 
ENDBRANCH   4   5
ENDBRANCH   3   4
ENDBRANCH   2   3
ENDBRANCH   1   2
END_RES LYS A 131
BEGIN_RES LYS A 135
REMARK  4 active torsions:
REMARK  status: ('A' for Active; 'I' for Inactive)
REMARK    5  A    between atoms: CA   and  CB  
REMARK    6  A    between atoms: CB   and  CG  
REMARK    7  A    between atoms: CG   and  CD  
REMARK    8  A    between atoms: CD   and  CE  
ROOT
ATOM      7  CA  LYS A 135      33.193  34.663   9.290  1.00 25.02     0.186 C 
ENDROOT
BRANCH   7   8
ATOM      8  CB  LYS A 135      32.060  35.360  10.034  1.00 26.63     0.034 C 
BRANCH   8   9
ATOM      9  CG  LYS A 135      32.250  35.391  11.529  1.00 29.45     0.005 C 
BRANCH   9  10
ATOM     10  CD  LYS A 135      32.209  36.820  12.046  1.00 32.00     0.041 C 
BRANCH  10  11
ATOM     11  CE  LYS A 135      31.907  36.841  13.532  1.00 34.25     0.338 C 
ATOM     12  NZ  LYS A 135      30.440  36.765  13.782  1.00 35.99     0.618 N 
ENDBRANCH  10  11
ENDBRANCH   9  10
ENDBRANCH   8   9
ENDBRANCH   7   8
END_RES LYS A 135
