REMARK VINA RESULT:    -5.139      3.206      5.961
REMARK INTER + INTRA:         -24.576
REMARK INTER:                 -12.874
REMARK INTRA:                 -11.702
REMARK UNBOUND:               -11.174
REMARK SMILES CC(=O)N[C@@H]1[C@@H](O)C[C@](OC[C@H]2O[C@@H](O[C@H]3[C@H](O)[C@@H](O)[C@H](OCCN=[N+]=[N-])O[C@@H]3CO)[C@H](O)[C@@H](O)[C@H]2O)(C(=O)O)O[C@H]1C(O)[C@H](O)CNC(=O)OCc1cn(-c2cc(C(=O)O)nc(-c3ccccc3)c2)nn1
REMARK SMILES IDX 9 1 8 2 6 3 5 4 42 5 41 6 10 7 11 8 12 9 14 10 13 11 32 12
REMARK SMILES IDX 34 13 36 14 15 15 16 16 29 17 28 18 21 19 17 20 19 21 30 22
REMARK SMILES IDX 31 23 22 25 23 26 24 27 25 28 26 29 27 30 18 31 20 33 33 35
REMARK SMILES IDX 35 37 37 39 38 41 39 42 40 43 7 45 43 47 44 48 45 50 46 51
REMARK SMILES IDX 47 53 48 54 49 55 50 57 51 58 52 59 53 60 54 61 72 62 55 63
REMARK SMILES IDX 71 64 56 65 57 66 70 67 58 68 63 69 62 70 59 71 60 72 61 73
REMARK SMILES IDX 64 75 65 76 69 77 66 78 68 79 67 80 4 81 2 82 1 84 3 85
REMARK H PARENT 31 24 18 32 20 34 33 36 35 38 37 40 40 44 7 46 44 49 46 52
REMARK H PARENT 48 56 61 74 4 83
REMARK Flexibility Score: inf
ROOT
ATOM      1  C   UNL     1      27.241  37.367  16.526  1.00  0.00     0.272 C 
ATOM      2  C   UNL     1      28.320  38.291  17.125  1.00  0.00     0.113 C 
ATOM      3  C   UNL     1      28.650  37.998  18.544  1.00  0.00     0.145 C 
ATOM      4  C   UNL     1      27.427  37.670  19.392  1.00  0.00     0.142 C 
ATOM      5  C   UNL     1      26.240  37.946  18.464  1.00  0.00     0.178 C 
ATOM      6  O   UNL     1      26.306  36.980  17.485  1.00  0.00    -0.332 OA
ENDROOT
BRANCH   1   7
ATOM      7  O   UNL     1      27.913  36.273  16.083  1.00  0.00    -0.338 OA
BRANCH   7   8
ATOM      8  C   UNL     1      29.007  36.429  15.294  1.00  0.00     0.199 C 
BRANCH   8   9
ATOM      9  C   UNL     1      30.178  35.558  15.813  1.00  0.00     0.179 C 
ATOM     10  C   UNL     1      30.528  33.747  17.251  1.00  0.00     0.282 C 
ATOM     11  O   UNL     1      29.671  34.670  16.706  1.00  0.00    -0.341 OA
ATOM     12  C   UNL     1      31.823  33.756  16.461  1.00  0.00     0.202 C 
ATOM     13  C   UNL     1      31.608  33.723  14.968  1.00  0.00     0.179 C 
ATOM     14  C   UNL     1      30.669  34.810  14.584  1.00  0.00     0.177 C 
BRANCH  10  15
ATOM     15  O   UNL     1      29.909  32.512  17.196  1.00  0.00    -0.341 OA
BRANCH  15  16
ATOM     16  C   UNL     1      28.529  32.553  17.099  1.00  0.00     0.184 C 
ATOM     17  C   UNL     1      27.830  32.145  18.344  1.00  0.00     0.178 C 
ATOM     18  O   UNL     1      27.044  31.021  18.154  1.00  0.00    -0.341 OA
ATOM     19  C   UNL     1      27.750  29.973  17.566  1.00  0.00     0.281 C 
ATOM     20  C   UNL     1      28.140  31.765  15.881  1.00  0.00     0.180 C 
ATOM     21  C   UNL     1      27.883  30.316  16.099  1.00  0.00     0.202 C 
BRANCH  17  22
ATOM     22  C   UNL     1      26.905  33.257  18.791  1.00  0.00     0.191 C 
BRANCH  22  23
ATOM     23  O   UNL     1      26.678  34.185  17.791  1.00  0.00    -0.394 OA
ATOM     24  H   UNL     1      27.539  34.409  17.349  1.00  0.00     0.210 HD
ENDBRANCH  22  23
ENDBRANCH  17  22
BRANCH  19  25
ATOM     25  O   UNL     1      26.968  28.836  17.699  1.00  0.00    -0.350 OA
BRANCH  25  26
ATOM     26  C   UNL     1      25.649  29.146  18.034  1.00  0.00     0.169 C 
BRANCH  26  27
ATOM     27  C   UNL     1      24.688  28.338  17.198  1.00  0.00     0.119 C 
BRANCH  27  28
ATOM     28  N   UNL     1      23.920  29.230  16.359  1.00  0.00    -0.092 NA
ATOM     29  N   UNL     1      24.497  29.839  15.469  1.00  0.00     0.001 N 
ATOM     30  N   UNL     1      24.735  30.365  14.369  1.00  0.00    -0.003 NA
ENDBRANCH  27  28
ENDBRANCH  26  27
ENDBRANCH  25  26
ENDBRANCH  19  25
BRANCH  20  31
ATOM     31  O   UNL     1      26.935  32.326  15.398  1.00  0.00    -0.387 OA
ATOM     32  H   UNL     1      26.421  31.652  14.887  1.00  0.00     0.211 HD
ENDBRANCH  20  31
BRANCH  21  33
ATOM     33  O   UNL     1      28.925  29.585  15.493  1.00  0.00    -0.385 OA
ATOM     34  H   UNL     1      29.754  30.133  15.408  1.00  0.00     0.211 HD
ENDBRANCH  21  33
ENDBRANCH  15  16
ENDBRANCH  10  15
BRANCH  12  35
ATOM     35  O   UNL     1      32.641  34.838  16.758  1.00  0.00    -0.385 OA
ATOM     36  H   UNL     1      33.299  34.882  16.008  1.00  0.00     0.211 HD
ENDBRANCH  12  35
BRANCH  13  37
ATOM     37  O   UNL     1      31.125  32.450  14.660  1.00  0.00    -0.387 OA
ATOM     38  H   UNL     1      30.155  32.547  14.477  1.00  0.00     0.211 HD
ENDBRANCH  13  37
BRANCH  14  39
ATOM     39  O   UNL     1      29.555  34.192  13.980  1.00  0.00    -0.387 OA
ATOM     40  H   UNL     1      29.746  33.865  13.086  1.00  0.00     0.211 HD
ENDBRANCH  14  39
ENDBRANCH   8   9
ENDBRANCH   7   8
ENDBRANCH   1   7
BRANCH   1  41
ATOM     41  C   UNL     1      26.502  38.128  15.487  1.00  0.00     0.364 C 
ATOM     42  O   UNL     1      26.870  39.270  15.100  1.00  0.00    -0.246 OA
BRANCH  41  43
ATOM     43  O   UNL     1      25.374  37.598  14.903  1.00  0.00    -0.477 OA
ATOM     44  H   UNL     1      25.189  36.590  14.833  1.00  0.00     0.296 HD
ENDBRANCH  41  43
ENDBRANCH   1  41
BRANCH   3  45
ATOM     45  O   UNL     1      29.667  37.081  18.700  1.00  0.00    -0.391 OA
ATOM     46  H   UNL     1      30.518  37.557  18.783  1.00  0.00     0.211 HD
ENDBRANCH   3  45
BRANCH   5  47
ATOM     47  C   UNL     1      24.945  38.085  19.170  1.00  0.00     0.176 C 
BRANCH  47  48
ATOM     48  O   UNL     1      25.016  39.205  20.029  1.00  0.00    -0.388 OA
ATOM     49  H   UNL     1      25.903  39.207  20.509  1.00  0.00     0.211 HD
ENDBRANCH  47  48
BRANCH  47  50
ATOM     50  C   UNL     1      24.477  36.879  19.937  1.00  0.00     0.165 C 
BRANCH  50  51
ATOM     51  O   UNL     1      25.523  35.993  20.095  1.00  0.00    -0.388 OA
ATOM     52  H   UNL     1      25.410  35.408  20.891  1.00  0.00     0.211 HD
ENDBRANCH  50  51
BRANCH  50  53
ATOM     53  C   UNL     1      23.337  36.279  19.150  1.00  0.00     0.154 C 
BRANCH  53  54
ATOM     54  N   UNL     1      23.691  35.336  18.152  1.00  0.00    -0.319 N 
ATOM     55  C   UNL     1      23.326  33.968  18.249  1.00  0.00     0.407 C 
ATOM     56  H   UNL     1      24.239  35.627  17.305  1.00  0.00     0.167 HD
ATOM     57  O   UNL     1      22.693  33.575  19.246  1.00  0.00    -0.225 OA
BRANCH  55  58
ATOM     58  O   UNL     1      23.667  33.054  17.233  1.00  0.00    -0.443 OA
BRANCH  58  59
ATOM     59  C   UNL     1      23.015  33.154  15.992  1.00  0.00     0.294 C 
BRANCH  59  60
ATOM     60  C   UNL     1      23.880  33.806  14.980  1.00  0.00     0.121 A 
ATOM     61  C   UNL     1      23.739  33.888  13.615  1.00  0.00     0.144 A 
ATOM     62  N   UNL     1      25.054  34.458  15.222  1.00  0.00    -0.131 NA
ATOM     63  N   UNL     1      24.778  34.553  13.065  1.00  0.00    -0.220 N 
ATOM     64  N   UNL     1      25.565  34.888  14.087  1.00  0.00    -0.062 NA
BRANCH  63  65
ATOM     65  C   UNL     1      24.991  34.806  11.687  1.00  0.00     0.071 A 
ATOM     66  C   UNL     1      23.896  35.195  10.932  1.00  0.00     0.064 A 
ATOM     67  C   UNL     1      26.205  34.712  11.038  1.00  0.00     0.057 A 
ATOM     68  C   UNL     1      24.065  35.467   9.587  1.00  0.00     0.151 A 
ATOM     69  C   UNL     1      26.363  34.982   9.715  1.00  0.00     0.073 A 
ATOM     70  N   UNL     1      25.279  35.358   9.009  1.00  0.00    -0.241 NA
BRANCH  68  71
ATOM     71  C   UNL     1      22.934  35.881   8.768  1.00  0.00     0.354 C 
ATOM     72  O   UNL     1      23.022  36.970   8.147  1.00  0.00    -0.245 OA
BRANCH  71  73
ATOM     73  O   UNL     1      21.776  35.153   8.634  1.00  0.00    -0.477 OA
ATOM     74  H   UNL     1      21.440  34.802   7.729  1.00  0.00     0.297 HD
ENDBRANCH  71  73
ENDBRANCH  68  71
BRANCH  69  75
ATOM     75  C   UNL     1      27.657  34.883   9.051  1.00  0.00     0.000 A 
ATOM     76  C   UNL     1      28.695  34.254   9.735  1.00  0.00     0.010 A 
ATOM     77  C   UNL     1      27.912  35.370   7.802  1.00  0.00     0.010 A 
ATOM     78  C   UNL     1      29.943  34.113   9.188  1.00  0.00     0.001 A 
ATOM     79  C   UNL     1      29.177  35.224   7.259  1.00  0.00     0.001 A 
ATOM     80  C   UNL     1      30.198  34.608   7.921  1.00  0.00     0.000 A 
ENDBRANCH  69  75
ENDBRANCH  63  65
ENDBRANCH  59  60
ENDBRANCH  58  59
ENDBRANCH  55  58
ENDBRANCH  53  54
ENDBRANCH  50  53
ENDBRANCH  47  50
ENDBRANCH   5  47
BRANCH   4  81
ATOM     81  N   UNL     1      27.389  38.427  20.600  1.00  0.00    -0.348 N 
ATOM     82  C   UNL     1      27.691  37.805  21.839  1.00  0.00     0.217 C 
ATOM     83  H   UNL     1      27.137  39.441  20.555  1.00  0.00     0.163 HD
ATOM     84  C   UNL     1      27.669  38.542  23.129  1.00  0.00     0.114 C 
ATOM     85  O   UNL     1      27.998  36.566  21.887  1.00  0.00    -0.275 OA
ENDBRANCH   4  81
TORSDOF 33
BEGIN_RES LYS A 131
REMARK  4 active torsions:
REMARK  status: ('A' for Active; 'I' for Inactive)
REMARK    1  A    between atoms: CA   and  CB  
REMARK    2  A    between atoms: CB   and  CG  
REMARK    3  A    between atoms: CG   and  CD  
REMARK    4  A    between atoms: CD   and  CE  
ROOT
ATOM      1  CA  LYS A 131      29.867  25.555  16.977  1.00 20.52     0.186 C 
ENDROOT
BRANCH   1   2
ATOM      2  CB  LYS A 131      28.345  25.722  17.026  1.00 20.94     0.034 C 
BRANCH   2   3
ATOM      3  CG  LYS A 131      27.600  24.417  16.789  1.00 22.96     0.005 C 
BRANCH   3   4
ATOM      4  CD  LYS A 131      26.866  23.954  18.017  1.00 24.33     0.041 C 
BRANCH   4   5
ATOM      5  CE  LYS A 131      25.724  24.918  18.322  1.00 26.91     0.338 C 
ATOM      6  NZ  LYS A 131      24.569  24.652  17.433  1.00 27.40     0.618 N 
ENDBRANCH   4   5
ENDBRANCH   3   4
ENDBRANCH   2   3
ENDBRANCH   1   2
END_RES LYS A 131
BEGIN_RES LYS A 135
REMARK  4 active torsions:
REMARK  status: ('A' for Active; 'I' for Inactive)
REMARK    5  A    between atoms: CA   and  CB  
REMARK    6  A    between atoms: CB   and  CG  
REMARK    7  A    between atoms: CG   and  CD  
REMARK    8  A    between atoms: CD   and  CE  
ROOT
ATOM      7  CA  LYS A 135      33.193  34.663   9.290  1.00 25.02     0.186 C 
ENDROOT
BRANCH   7   8
ATOM      8  CB  LYS A 135      32.060  35.360  10.034  1.00 26.63     0.034 C 
BRANCH   8   9
ATOM      9  CG  LYS A 135      32.510  36.078  11.280  1.00 29.45     0.005 C 
BRANCH   9  10
ATOM     10  CD  LYS A 135      31.893  37.466  11.352  1.00 32.00     0.041 C 
BRANCH  10  11
ATOM     11  CE  LYS A 135      31.490  37.797  12.777  1.00 34.25     0.338 C 
ATOM     12  NZ  LYS A 135      30.505  38.914  12.810  1.00 35.99     0.618 N 
ENDBRANCH  10  11
ENDBRANCH   9  10
ENDBRANCH   8   9
ENDBRANCH   7   8
END_RES LYS A 135
