REMARK VINA RESULT:    -3.775      2.557      7.338
REMARK INTER + INTRA:         -21.835
REMARK INTER:                  -9.566
REMARK INTRA:                 -12.269
REMARK UNBOUND:               -12.543
REMARK SMILES CC(=O)N[C@@H]1[C@@H](O)C[C@](OC[C@H]2O[C@@H](O[C@H]3[C@H](O)[C@@H](O)[C@H](OCCN=[N+]=[N-])O[C@@H]3CO)[C@H](O)[C@@H](O)[C@H]2O)(C(=O)O)O[C@H]1C(O)[C@H](O)CNC(=O)OCc1cn(-c2ccncc2)nn1
REMARK SMILES IDX 9 1 8 2 6 3 5 4 42 5 41 6 10 7 11 8 12 9 14 10 13 11 32 12
REMARK SMILES IDX 34 13 36 14 15 15 16 16 29 17 28 18 21 19 17 20 19 21 30 22
REMARK SMILES IDX 31 23 22 25 23 26 24 27 25 28 26 29 27 30 18 31 20 33 33 35
REMARK SMILES IDX 35 37 37 39 38 41 39 42 40 43 7 45 43 47 44 48 45 50 46 51
REMARK SMILES IDX 47 53 48 54 49 55 50 57 51 58 52 59 53 60 54 61 63 62 55 63
REMARK SMILES IDX 62 64 56 65 57 66 61 67 58 68 60 69 59 70 4 71 2 72 1 74
REMARK SMILES IDX 3 75
REMARK H PARENT 31 24 18 32 20 34 33 36 35 38 37 40 40 44 7 46 44 49 46 52
REMARK H PARENT 48 56 4 73
REMARK Flexibility Score: inf
ROOT
ATOM      1  C   UNL     1      29.443  35.407  14.090  1.00  0.00     0.272 C 
ATOM      2  C   UNL     1      30.546  36.332  13.536  1.00  0.00     0.113 C 
ATOM      3  C   UNL     1      31.837  35.537  13.309  1.00  0.00     0.145 C 
ATOM      4  C   UNL     1      32.357  35.157  14.737  1.00  0.00     0.142 C 
ATOM      5  C   UNL     1      31.197  34.507  15.431  1.00  0.00     0.178 C 
ATOM      6  O   UNL     1      30.187  34.285  14.503  1.00  0.00    -0.332 OA
ENDROOT
BRANCH   1   7
ATOM      7  O   UNL     1      28.669  34.970  13.116  1.00  0.00    -0.338 OA
BRANCH   7   8
ATOM      8  C   UNL     1      28.303  35.195  11.933  1.00  0.00     0.199 C 
BRANCH   8   9
ATOM      9  C   UNL     1      26.958  34.767  11.431  1.00  0.00     0.179 C 
ATOM     10  C   UNL     1      24.997  33.885  12.381  1.00  0.00     0.282 C 
ATOM     11  O   UNL     1      26.276  34.334  12.613  1.00  0.00    -0.341 OA
ATOM     12  C   UNL     1      24.128  34.985  11.857  1.00  0.00     0.202 C 
ATOM     13  C   UNL     1      24.779  35.607  10.620  1.00  0.00     0.179 C 
ATOM     14  C   UNL     1      26.177  36.007  10.984  1.00  0.00     0.177 C 
BRANCH  10  15
ATOM     15  O   UNL     1      24.545  33.490  13.667  1.00  0.00    -0.341 OA
BRANCH  15  16
ATOM     16  C   UNL     1      25.027  32.287  14.061  1.00  0.00     0.184 C 
ATOM     17  C   UNL     1      23.994  31.259  14.293  1.00  0.00     0.178 C 
ATOM     18  O   UNL     1      24.596  30.018  14.587  1.00  0.00    -0.341 OA
ATOM     19  C   UNL     1      24.964  30.189  15.975  1.00  0.00     0.281 C 
ATOM     20  C   UNL     1      25.801  32.504  15.398  1.00  0.00     0.180 C 
ATOM     21  C   UNL     1      26.101  31.141  15.991  1.00  0.00     0.202 C 
BRANCH  17  22
ATOM     22  C   UNL     1      23.048  31.095  13.165  1.00  0.00     0.191 C 
BRANCH  22  23
ATOM     23  O   UNL     1      22.101  32.129  13.103  1.00  0.00    -0.394 OA
ATOM     24  H   UNL     1      22.603  32.957  12.845  1.00  0.00     0.210 HD
ENDBRANCH  22  23
ENDBRANCH  17  22
BRANCH  19  25
ATOM     25  O   UNL     1      25.338  28.941  16.389  1.00  0.00    -0.350 OA
BRANCH  25  26
ATOM     26  C   UNL     1      24.457  28.378  17.261  1.00  0.00     0.169 C 
BRANCH  26  27
ATOM     27  C   UNL     1      24.739  28.570  18.715  1.00  0.00     0.119 C 
BRANCH  27  28
ATOM     28  N   UNL     1      25.406  27.432  19.317  1.00  0.00    -0.092 NA
ATOM     29  N   UNL     1      26.610  27.370  19.522  1.00  0.00     0.001 N 
ATOM     30  N   UNL     1      27.840  27.293  19.444  1.00  0.00    -0.003 NA
ENDBRANCH  27  28
ENDBRANCH  26  27
ENDBRANCH  25  26
ENDBRANCH  19  25
BRANCH  20  31
ATOM     31  O   UNL     1      26.989  33.106  15.060  1.00  0.00    -0.387 OA
ATOM     32  H   UNL     1      27.650  33.068  15.822  1.00  0.00     0.211 HD
ENDBRANCH  20  31
BRANCH  21  33
ATOM     33  O   UNL     1      26.592  31.278  17.281  1.00  0.00    -0.385 OA
ATOM     34  H   UNL     1      26.815  32.232  17.440  1.00  0.00     0.211 HD
ENDBRANCH  21  33
ENDBRANCH  15  16
ENDBRANCH  10  15
BRANCH  12  35
ATOM     35  O   UNL     1      22.873  34.481  11.439  1.00  0.00    -0.385 OA
ATOM     36  H   UNL     1      22.203  34.979  11.965  1.00  0.00     0.211 HD
ENDBRANCH  12  35
BRANCH  13  37
ATOM     37  O   UNL     1      24.087  36.695  10.143  1.00  0.00    -0.387 OA
ATOM     38  H   UNL     1      23.982  37.394  10.863  1.00  0.00     0.211 HD
ENDBRANCH  13  37
BRANCH  14  39
ATOM     39  O   UNL     1      26.184  36.875  12.088  1.00  0.00    -0.387 OA
ATOM     40  H   UNL     1      25.327  36.761  12.602  1.00  0.00     0.211 HD
ENDBRANCH  14  39
ENDBRANCH   8   9
ENDBRANCH   7   8
ENDBRANCH   1   7
BRANCH   1  41
ATOM     41  C   UNL     1      28.737  36.045  15.206  1.00  0.00     0.364 C 
ATOM     42  O   UNL     1      28.564  37.306  15.260  1.00  0.00    -0.246 OA
BRANCH  41  43
ATOM     43  O   UNL     1      28.215  35.344  16.266  1.00  0.00    -0.477 OA
ATOM     44  H   UNL     1      27.570  34.585  16.221  1.00  0.00     0.296 HD
ENDBRANCH  41  43
ENDBRANCH   1  41
BRANCH   3  45
ATOM     45  O   UNL     1      31.550  34.368  12.659  1.00  0.00    -0.391 OA
ATOM     46  H   UNL     1      30.624  34.086  12.787  1.00  0.00     0.211 HD
ENDBRANCH   3  45
BRANCH   5  47
ATOM     47  C   UNL     1      31.500  33.085  15.922  1.00  0.00     0.176 C 
BRANCH  47  48
ATOM     48  O   UNL     1      31.477  32.358  14.652  1.00  0.00    -0.388 OA
ATOM     49  H   UNL     1      30.714  32.741  14.124  1.00  0.00     0.211 HD
ENDBRANCH  47  48
BRANCH  47  50
ATOM     50  C   UNL     1      30.509  32.448  16.795  1.00  0.00     0.165 C 
BRANCH  50  51
ATOM     51  O   UNL     1      29.441  31.809  16.214  1.00  0.00    -0.388 OA
ATOM     52  H   UNL     1      29.719  31.292  15.412  1.00  0.00     0.211 HD
ENDBRANCH  50  51
BRANCH  50  53
ATOM     53  C   UNL     1      30.273  33.102  18.101  1.00  0.00     0.154 C 
BRANCH  53  54
ATOM     54  N   UNL     1      28.897  33.221  18.507  1.00  0.00    -0.319 N 
ATOM     55  C   UNL     1      28.415  32.549  19.656  1.00  0.00     0.407 C 
ATOM     56  H   UNL     1      28.274  33.803  17.920  1.00  0.00     0.167 HD
ATOM     57  O   UNL     1      29.235  31.855  20.298  1.00  0.00    -0.225 OA
BRANCH  55  58
ATOM     58  O   UNL     1      27.124  32.612  20.099  1.00  0.00    -0.443 OA
BRANCH  58  59
ATOM     59  C   UNL     1      26.414  33.785  20.434  1.00  0.00     0.294 C 
BRANCH  59  60
ATOM     60  C   UNL     1      25.851  34.461  19.219  1.00  0.00     0.121 A 
ATOM     61  C   UNL     1      24.668  34.226  18.554  1.00  0.00     0.144 A 
ATOM     62  N   UNL     1      26.450  35.467  18.538  1.00  0.00    -0.131 NA
ATOM     63  N   UNL     1      24.580  35.073  17.513  1.00  0.00    -0.220 N 
ATOM     64  N   UNL     1      25.683  35.824  17.524  1.00  0.00    -0.062 NA
BRANCH  63  65
ATOM     65  C   UNL     1      23.501  35.132  16.590  1.00  0.00     0.069 A 
ATOM     66  C   UNL     1      23.341  36.125  15.647  1.00  0.00     0.048 A 
ATOM     67  C   UNL     1      22.557  34.131  16.635  1.00  0.00     0.048 A 
ATOM     68  C   UNL     1      22.276  36.141  14.763  1.00  0.00     0.113 A 
ATOM     69  C   UNL     1      21.495  34.154  15.747  1.00  0.00     0.113 A 
ATOM     70  N   UNL     1      21.373  35.136  14.844  1.00  0.00    -0.265 NA
ENDBRANCH  63  65
ENDBRANCH  59  60
ENDBRANCH  58  59
ENDBRANCH  55  58
ENDBRANCH  53  54
ENDBRANCH  50  53
ENDBRANCH  47  50
ENDBRANCH   5  47
BRANCH   4  71
ATOM     71  N   UNL     1      32.727  36.438  15.288  1.00  0.00    -0.348 N 
ATOM     72  C   UNL     1      33.594  36.623  16.388  1.00  0.00     0.217 C 
ATOM     73  H   UNL     1      32.336  37.297  14.859  1.00  0.00     0.163 HD
ATOM     74  C   UNL     1      33.898  37.981  16.863  1.00  0.00     0.114 C 
ATOM     75  O   UNL     1      34.103  35.637  16.956  1.00  0.00    -0.275 OA
ENDBRANCH   4  71
TORSDOF 30
BEGIN_RES LYS A 131
REMARK  4 active torsions:
REMARK  status: ('A' for Active; 'I' for Inactive)
REMARK    1  A    between atoms: CA   and  CB  
REMARK    2  A    between atoms: CB   and  CG  
REMARK    3  A    between atoms: CG   and  CD  
REMARK    4  A    between atoms: CD   and  CE  
ROOT
ATOM      1  CA  LYS A 131      29.867  25.555  16.977  1.00 20.52     0.186 C 
ENDROOT
BRANCH   1   2
ATOM      2  CB  LYS A 131      28.345  25.722  17.026  1.00 20.94     0.034 C 
BRANCH   2   3
ATOM      3  CG  LYS A 131      27.600  24.408  16.845  1.00 22.96     0.005 C 
BRANCH   3   4
ATOM      4  CD  LYS A 131      26.604  24.166  17.945  1.00 24.33     0.041 C 
BRANCH   4   5
ATOM      5  CE  LYS A 131      25.312  23.616  17.350  1.00 26.91     0.338 C 
ATOM      6  NZ  LYS A 131      24.425  24.724  16.923  1.00 27.40     0.618 N 
ENDBRANCH   4   5
ENDBRANCH   3   4
ENDBRANCH   2   3
ENDBRANCH   1   2
END_RES LYS A 131
BEGIN_RES LYS A 135
REMARK  4 active torsions:
REMARK  status: ('A' for Active; 'I' for Inactive)
REMARK    5  A    between atoms: CA   and  CB  
REMARK    6  A    between atoms: CB   and  CG  
REMARK    7  A    between atoms: CG   and  CD  
REMARK    8  A    between atoms: CD   and  CE  
ROOT
ATOM      7  CA  LYS A 135      33.193  34.663   9.290  1.00 25.02     0.186 C 
ENDROOT
BRANCH   7   8
ATOM      8  CB  LYS A 135      32.060  35.360  10.034  1.00 26.63     0.034 C 
BRANCH   8   9
ATOM      9  CG  LYS A 135      30.836  35.592   9.186  1.00 29.45     0.005 C 
BRANCH   9  10
ATOM     10  CD  LYS A 135      30.188  34.270   8.806  1.00 32.00     0.041 C 
BRANCH  10  11
ATOM     11  CE  LYS A 135      28.783  34.497   8.280  1.00 34.25     0.338 C 
ATOM     12  NZ  LYS A 135      28.797  35.364   7.070  1.00 35.99     0.618 N 
ENDBRANCH  10  11
ENDBRANCH   9  10
ENDBRANCH   8   9
ENDBRANCH   7   8
END_RES LYS A 135
