REMARK VINA RESULT:    -4.343      2.787      7.211
REMARK INTER + INTRA:         -22.794
REMARK INTER:                 -12.398
REMARK INTRA:                 -10.396
REMARK UNBOUND:               -11.851
REMARK SMILES CC(=O)N[C@@H]1[C@@H](O)C[C@](OC[C@H]2O[C@@H](O[C@H]3[C@H](O)[C@@H](O)[C@H](OCCN=[N+]=[N-])O[C@@H]3CO)[C@H](O)[C@@H](O)[C@H]2O)(C(=O)O)O[C@H]1C(O)[C@H](O)CNC(=O)OCc1cn(Cc2ccccc2)nn1
REMARK SMILES IDX 9 1 8 2 6 3 5 4 42 5 41 6 10 7 11 8 12 9 14 10 13 11 32 12
REMARK SMILES IDX 34 13 36 14 15 15 16 16 29 17 28 18 21 19 17 20 19 21 30 22
REMARK SMILES IDX 31 23 22 25 23 26 24 27 25 28 26 29 27 30 18 31 20 33 33 35
REMARK SMILES IDX 35 37 37 39 38 41 39 42 40 43 7 45 43 47 44 48 45 50 46 51
REMARK SMILES IDX 47 53 48 54 49 55 50 57 51 58 52 59 53 60 54 61 64 62 55 63
REMARK SMILES IDX 63 64 56 65 57 66 58 67 62 68 59 69 61 70 60 71 4 72 2 73
REMARK SMILES IDX 1 75 3 76
REMARK H PARENT 31 24 18 32 20 34 33 36 35 38 37 40 40 44 7 46 44 49 46 52
REMARK H PARENT 48 56 4 74
REMARK Flexibility Score: inf
ROOT
ATOM      1  C   UNL     1      29.301  32.014  20.657  1.00  0.00     0.272 C 
ATOM      2  C   UNL     1      29.764  32.751  21.858  1.00  0.00     0.113 C 
ATOM      3  C   UNL     1      30.912  32.038  22.464  1.00  0.00     0.145 C 
ATOM      4  C   UNL     1      31.244  30.697  21.790  1.00  0.00     0.142 C 
ATOM      5  C   UNL     1      30.023  29.944  21.472  1.00  0.00     0.178 C 
ATOM      6  O   UNL     1      28.920  30.730  21.089  1.00  0.00    -0.332 OA
ENDROOT
BRANCH   1   7
ATOM      7  O   UNL     1      30.186  31.950  19.601  1.00  0.00    -0.338 OA
BRANCH   7   8
ATOM      8  C   UNL     1      30.368  33.209  19.053  1.00  0.00     0.199 C 
BRANCH   8   9
ATOM      9  C   UNL     1      30.693  33.153  17.578  1.00  0.00     0.179 C 
ATOM     10  C   UNL     1      29.595  33.126  15.519  1.00  0.00     0.282 C 
ATOM     11  O   UNL     1      29.662  32.638  16.826  1.00  0.00    -0.341 OA
ATOM     12  C   UNL     1      30.929  33.302  14.894  1.00  0.00     0.202 C 
ATOM     13  C   UNL     1      31.732  34.313  15.649  1.00  0.00     0.179 C 
ATOM     14  C   UNL     1      31.200  34.470  17.054  1.00  0.00     0.177 C 
BRANCH  10  15
ATOM     15  O   UNL     1      28.862  34.300  15.460  1.00  0.00    -0.341 OA
BRANCH  15  16
ATOM     16  C   UNL     1      27.604  34.146  14.892  1.00  0.00     0.184 C 
ATOM     17  C   UNL     1      27.424  35.086  13.759  1.00  0.00     0.178 C 
ATOM     18  O   UNL     1      26.113  34.906  13.268  1.00  0.00    -0.341 OA
ATOM     19  C   UNL     1      25.284  35.583  14.185  1.00  0.00     0.281 C 
ATOM     20  C   UNL     1      26.622  34.550  16.004  1.00  0.00     0.180 C 
ATOM     21  C   UNL     1      25.243  34.805  15.492  1.00  0.00     0.202 C 
BRANCH  17  22
ATOM     22  C   UNL     1      28.421  34.838  12.632  1.00  0.00     0.191 C 
BRANCH  22  23
ATOM     23  O   UNL     1      29.502  35.722  12.846  1.00  0.00    -0.394 OA
ATOM     24  H   UNL     1      29.666  35.786  13.816  1.00  0.00     0.210 HD
ENDBRANCH  22  23
ENDBRANCH  17  22
BRANCH  19  25
ATOM     25  O   UNL     1      24.021  35.688  13.658  1.00  0.00    -0.350 OA
BRANCH  25  26
ATOM     26  C   UNL     1      24.094  35.870  12.291  1.00  0.00     0.169 C 
BRANCH  26  27
ATOM     27  C   UNL     1      23.165  35.011  11.487  1.00  0.00     0.119 C 
BRANCH  27  28
ATOM     28  N   UNL     1      23.472  35.281  10.073  1.00  0.00    -0.092 NA
ATOM     29  N   UNL     1      22.513  35.420   9.316  1.00  0.00     0.001 N 
ATOM     30  N   UNL     1      21.805  35.764   8.359  1.00  0.00    -0.003 NA
ENDBRANCH  27  28
ENDBRANCH  26  27
ENDBRANCH  25  26
ENDBRANCH  19  25
BRANCH  20  31
ATOM     31  O   UNL     1      26.582  33.433  16.864  1.00  0.00    -0.387 OA
ATOM     32  H   UNL     1      25.653  33.112  17.015  1.00  0.00     0.211 HD
ENDBRANCH  20  31
BRANCH  21  33
ATOM     33  O   UNL     1      24.542  35.578  16.416  1.00  0.00    -0.385 OA
ATOM     34  H   UNL     1      24.449  35.129  17.299  1.00  0.00     0.211 HD
ENDBRANCH  21  33
ENDBRANCH  15  16
ENDBRANCH  10  15
BRANCH  12  35
ATOM     35  O   UNL     1      31.620  32.086  14.759  1.00  0.00    -0.385 OA
ATOM     36  H   UNL     1      32.340  32.105  15.439  1.00  0.00     0.211 HD
ENDBRANCH  12  35
BRANCH  13  37
ATOM     37  O   UNL     1      31.682  35.525  14.971  1.00  0.00    -0.387 OA
ATOM     38  H   UNL     1      31.955  36.291  15.544  1.00  0.00     0.211 HD
ENDBRANCH  13  37
BRANCH  14  39
ATOM     39  O   UNL     1      30.348  35.529  17.213  1.00  0.00    -0.387 OA
ATOM     40  H   UNL     1      30.724  36.356  17.576  1.00  0.00     0.211 HD
ENDBRANCH  14  39
ENDBRANCH   8   9
ENDBRANCH   7   8
ENDBRANCH   1   7
BRANCH   1  41
ATOM     41  C   UNL     1      28.009  32.563  20.117  1.00  0.00     0.364 C 
ATOM     42  O   UNL     1      27.482  33.529  20.671  1.00  0.00    -0.246 OA
BRANCH  41  43
ATOM     43  O   UNL     1      27.426  31.986  19.011  1.00  0.00    -0.477 OA
ATOM     44  H   UNL     1      27.517  32.382  18.073  1.00  0.00     0.296 HD
ENDBRANCH  41  43
ENDBRANCH   1  41
BRANCH   3  45
ATOM     45  O   UNL     1      32.115  32.769  22.454  1.00  0.00    -0.391 OA
ATOM     46  H   UNL     1      32.009  33.687  22.742  1.00  0.00     0.211 HD
ENDBRANCH   3  45
BRANCH   5  47
ATOM     47  C   UNL     1      30.072  28.838  20.502  1.00  0.00     0.176 C 
BRANCH  47  48
ATOM     48  O   UNL     1      31.329  28.353  20.215  1.00  0.00    -0.388 OA
ATOM     49  H   UNL     1      31.647  28.531  19.303  1.00  0.00     0.211 HD
ENDBRANCH  47  48
BRANCH  47  50
ATOM     50  C   UNL     1      29.126  27.687  20.687  1.00  0.00     0.165 C 
BRANCH  50  51
ATOM     51  O   UNL     1      29.722  26.532  21.089  1.00  0.00    -0.388 OA
ATOM     52  H   UNL     1      29.180  25.976  21.683  1.00  0.00     0.211 HD
ENDBRANCH  50  51
BRANCH  50  53
ATOM     53  C   UNL     1      28.102  27.598  19.593  1.00  0.00     0.154 C 
BRANCH  53  54
ATOM     54  N   UNL     1      27.353  28.808  19.375  1.00  0.00    -0.319 N 
ATOM     55  C   UNL     1      25.953  28.961  19.637  1.00  0.00     0.407 C 
ATOM     56  H   UNL     1      27.808  29.692  18.996  1.00  0.00     0.167 HD
ATOM     57  O   UNL     1      25.301  27.988  20.083  1.00  0.00    -0.225 OA
BRANCH  55  58
ATOM     58  O   UNL     1      25.300  30.157  19.406  1.00  0.00    -0.443 OA
BRANCH  58  59
ATOM     59  C   UNL     1      24.325  30.228  18.394  1.00  0.00     0.294 C 
BRANCH  59  60
ATOM     60  C   UNL     1      24.934  30.523  17.080  1.00  0.00     0.120 A 
ATOM     61  C   UNL     1      24.211  30.974  15.967  1.00  0.00     0.138 A 
ATOM     62  N   UNL     1      26.201  30.445  16.659  1.00  0.00    -0.132 NA
ATOM     63  N   UNL     1      25.066  31.145  14.946  1.00  0.00    -0.248 N 
ATOM     64  N   UNL     1      26.252  30.825  15.374  1.00  0.00    -0.067 NA
BRANCH  63  65
ATOM     65  C   UNL     1      24.706  31.608  13.625  1.00  0.00     0.181 C 
BRANCH  65  66
ATOM     66  C   UNL     1      23.573  30.799  13.112  1.00  0.00    -0.026 A 
ATOM     67  C   UNL     1      22.325  31.351  12.881  1.00  0.00     0.005 A 
ATOM     68  C   UNL     1      23.777  29.452  12.859  1.00  0.00     0.005 A 
ATOM     69  C   UNL     1      21.298  30.554  12.402  1.00  0.00     0.000 A 
ATOM     70  C   UNL     1      22.745  28.667  12.381  1.00  0.00     0.000 A 
ATOM     71  C   UNL     1      21.512  29.221  12.155  1.00  0.00     0.000 A 
ENDBRANCH  65  66
ENDBRANCH  63  65
ENDBRANCH  59  60
ENDBRANCH  58  59
ENDBRANCH  55  58
ENDBRANCH  53  54
ENDBRANCH  50  53
ENDBRANCH  47  50
ENDBRANCH   5  47
BRANCH   4  72
ATOM     72  N   UNL     1      31.990  30.022  22.871  1.00  0.00    -0.348 N 
ATOM     73  C   UNL     1      33.383  29.792  22.822  1.00  0.00     0.217 C 
ATOM     74  H   UNL     1      31.471  29.693  23.714  1.00  0.00     0.163 HD
ATOM     75  C   UNL     1      34.111  29.101  23.929  1.00  0.00     0.114 C 
ATOM     76  O   UNL     1      34.019  30.186  21.814  1.00  0.00    -0.275 OA
ENDBRANCH   4  72
TORSDOF 31
BEGIN_RES LYS A 131
REMARK  4 active torsions:
REMARK  status: ('A' for Active; 'I' for Inactive)
REMARK    1  A    between atoms: CA   and  CB  
REMARK    2  A    between atoms: CB   and  CG  
REMARK    3  A    between atoms: CG   and  CD  
REMARK    4  A    between atoms: CD   and  CE  
ROOT
ATOM      1  CA  LYS A 131      29.867  25.555  16.977  1.00 20.52     0.186 C 
ENDROOT
BRANCH   1   2
ATOM      2  CB  LYS A 131      28.345  25.722  17.026  1.00 20.94     0.034 C 
BRANCH   2   3
ATOM      3  CG  LYS A 131      27.603  24.396  16.970  1.00 22.96     0.005 C 
BRANCH   3   4
ATOM      4  CD  LYS A 131      26.459  24.344  17.945  1.00 24.33     0.041 C 
BRANCH   4   5
ATOM      5  CE  LYS A 131      25.140  24.471  17.189  1.00 26.91     0.338 C 
ATOM      6  NZ  LYS A 131      24.100  25.069  18.059  1.00 27.40     0.618 N 
ENDBRANCH   4   5
ENDBRANCH   3   4
ENDBRANCH   2   3
ENDBRANCH   1   2
END_RES LYS A 131
BEGIN_RES LYS A 135
REMARK  4 active torsions:
REMARK  status: ('A' for Active; 'I' for Inactive)
REMARK    5  A    between atoms: CA   and  CB  
REMARK    6  A    between atoms: CB   and  CG  
REMARK    7  A    between atoms: CG   and  CD  
REMARK    8  A    between atoms: CD   and  CE  
ROOT
ATOM      7  CA  LYS A 135      33.193  34.663   9.290  1.00 25.02     0.186 C 
ENDROOT
BRANCH   7   8
ATOM      8  CB  LYS A 135      32.060  35.360  10.034  1.00 26.63     0.034 C 
BRANCH   8   9
ATOM      9  CG  LYS A 135      30.776  35.429   9.248  1.00 29.45     0.005 C 
BRANCH   9  10
ATOM     10  CD  LYS A 135      30.172  34.043   9.084  1.00 32.00     0.041 C 
BRANCH  10  11
ATOM     11  CE  LYS A 135      28.660  34.128   8.992  1.00 34.25     0.338 C 
ATOM     12  NZ  LYS A 135      28.205  35.546   8.946  1.00 35.99     0.618 N 
ENDBRANCH  10  11
ENDBRANCH   9  10
ENDBRANCH   8   9
ENDBRANCH   7   8
END_RES LYS A 135
