REMARK VINA RESULT:    -4.132      2.806      8.083
REMARK INTER + INTRA:         -22.014
REMARK INTER:                 -10.010
REMARK INTRA:                 -12.003
REMARK UNBOUND:               -11.119
REMARK SMILES CC(=O)N[C@@H]1[C@@H](O)C[C@](OC[C@H]2O[C@@H](O[C@H]3[C@H](O)[C@@H](O)[C@H](OCCN=[N+]=[N-])O[C@@H]3CO)[C@H](O)[C@@H](O)[C@H]2O)(C(=O)O)O[C@H]1C(O)[C@H](O)CNC(=O)OCc1cn(CC(O)CO)nn1
REMARK SMILES IDX 43 1 42 2 9 3 8 4 41 5 6 6 5 7 10 8 11 9 12 10 14 11 13 12
REMARK SMILES IDX 32 13 34 14 36 15 15 16 16 17 29 18 28 19 21 20 17 21 19 22
REMARK SMILES IDX 30 23 31 24 22 26 23 27 24 28 25 29 26 30 27 31 18 32 20 34
REMARK SMILES IDX 33 36 35 38 37 40 38 42 39 43 40 44 7 46 4 48 2 49 1 51 3 52
REMARK SMILES IDX 44 53 45 55 46 56 47 58 48 59 49 60 50 62 51 63 52 64 53 65
REMARK SMILES IDX 54 66 62 67 55 68 61 69 56 70 57 71 58 72 59 74 60 75
REMARK H PARENT 31 25 18 33 20 35 33 37 35 39 37 41 40 45 7 47 4 50 44 54
REMARK H PARENT 46 57 48 61 58 73 60 76
REMARK Flexibility Score: inf
ROOT
ATOM      1  C   UNL     1      27.129  34.146   9.167  1.00  0.00     0.176 C 
ENDROOT
BRANCH   1   2
ATOM      2  C   UNL     1      26.461  34.907  10.328  1.00  0.00     0.178 C 
ATOM      3  C   UNL     1      25.210  34.589  12.306  1.00  0.00     0.272 C 
ATOM      4  C   UNL     1      24.200  35.606  11.854  1.00  0.00     0.113 C 
ATOM      5  O   UNL     1      25.873  34.074  11.182  1.00  0.00    -0.332 OA
ATOM      6  C   UNL     1      24.246  36.023  10.432  1.00  0.00     0.145 C 
ATOM      7  C   UNL     1      25.566  35.943   9.759  1.00  0.00     0.142 C 
BRANCH   3   8
ATOM      8  O   UNL     1      24.622  33.582  12.919  1.00  0.00    -0.338 OA
BRANCH   8   9
ATOM      9  C   UNL     1      24.688  32.347  13.187  1.00  0.00     0.199 C 
BRANCH   9  10
ATOM     10  C   UNL     1      24.942  31.772  14.542  1.00  0.00     0.179 C 
ATOM     11  C   UNL     1      26.662  31.164  15.923  1.00  0.00     0.282 C 
ATOM     12  O   UNL     1      26.312  32.056  14.915  1.00  0.00    -0.341 OA
ATOM     13  C   UNL     1      25.527  30.643  16.735  1.00  0.00     0.202 C 
ATOM     14  C   UNL     1      24.360  31.571  16.884  1.00  0.00     0.179 C 
ATOM     15  C   UNL     1      24.196  32.478  15.675  1.00  0.00     0.177 C 
BRANCH  11  16
ATOM     16  O   UNL     1      27.658  31.614  16.765  1.00  0.00    -0.341 OA
BRANCH  16  17
ATOM     17  C   UNL     1      28.322  32.748  16.303  1.00  0.00     0.184 C 
ATOM     18  C   UNL     1      29.782  32.445  16.152  1.00  0.00     0.178 C 
ATOM     19  O   UNL     1      30.589  33.189  16.998  1.00  0.00    -0.341 OA
ATOM     20  C   UNL     1      30.039  33.256  18.289  1.00  0.00     0.281 C 
ATOM     21  C   UNL     1      27.987  33.911  17.141  1.00  0.00     0.180 C 
ATOM     22  C   UNL     1      28.954  34.303  18.204  1.00  0.00     0.202 C 
BRANCH  18  23
ATOM     23  C   UNL     1      30.269  32.675  14.736  1.00  0.00     0.191 C 
BRANCH  23  24
ATOM     24  O   UNL     1      29.744  33.840  14.193  1.00  0.00    -0.394 OA
ATOM     25  H   UNL     1      28.739  33.761  14.257  1.00  0.00     0.210 HD
ENDBRANCH  23  24
ENDBRANCH  18  23
BRANCH  20  26
ATOM     26  O   UNL     1      31.065  33.664  19.126  1.00  0.00    -0.350 OA
BRANCH  26  27
ATOM     27  C   UNL     1      31.941  34.573  18.553  1.00  0.00     0.169 C 
BRANCH  27  28
ATOM     28  C   UNL     1      32.269  35.732  19.468  1.00  0.00     0.119 C 
BRANCH  28  29
ATOM     29  N   UNL     1      31.397  36.857  19.266  1.00  0.00    -0.092 NA
ATOM     30  N   UNL     1      31.072  37.320  18.179  1.00  0.00     0.001 N 
ATOM     31  N   UNL     1      30.906  37.741  17.034  1.00  0.00    -0.003 NA
ENDBRANCH  28  29
ENDBRANCH  27  28
ENDBRANCH  26  27
ENDBRANCH  20  26
BRANCH  21  32
ATOM     32  O   UNL     1      27.721  35.063  16.359  1.00  0.00    -0.387 OA
ATOM     33  H   UNL     1      27.965  34.777  15.421  1.00  0.00     0.211 HD
ENDBRANCH  21  32
BRANCH  22  34
ATOM     34  O   UNL     1      28.361  34.539  19.442  1.00  0.00    -0.385 OA
ATOM     35  H   UNL     1      27.410  34.342  19.458  1.00  0.00     0.211 HD
ENDBRANCH  22  34
ENDBRANCH  16  17
ENDBRANCH  11  16
BRANCH  13  36
ATOM     36  O   UNL     1      25.143  29.341  16.337  1.00  0.00    -0.385 OA
ATOM     37  H   UNL     1      25.176  29.212  15.371  1.00  0.00     0.211 HD
ENDBRANCH  13  36
BRANCH  14  38
ATOM     38  O   UNL     1      24.387  32.313  18.063  1.00  0.00    -0.387 OA
ATOM     39  H   UNL     1      25.075  31.939  18.664  1.00  0.00     0.211 HD
ENDBRANCH  14  38
BRANCH  15  40
ATOM     40  O   UNL     1      24.942  33.654  15.957  1.00  0.00    -0.387 OA
ATOM     41  H   UNL     1      25.894  33.434  16.100  1.00  0.00     0.211 HD
ENDBRANCH  15  40
ENDBRANCH   9  10
ENDBRANCH   8   9
ENDBRANCH   3   8
BRANCH   3  42
ATOM     42  C   UNL     1      26.253  35.217  13.181  1.00  0.00     0.364 C 
ATOM     43  O   UNL     1      25.828  35.986  14.099  1.00  0.00    -0.246 OA
BRANCH  42  44
ATOM     44  O   UNL     1      27.599  35.004  13.036  1.00  0.00    -0.477 OA
ATOM     45  H   UNL     1      28.026  34.088  13.214  1.00  0.00     0.296 HD
ENDBRANCH  42  44
ENDBRANCH   3  42
BRANCH   6  46
ATOM     46  O   UNL     1      23.342  35.193   9.728  1.00  0.00    -0.391 OA
ATOM     47  H   UNL     1      22.447  35.290  10.109  1.00  0.00     0.211 HD
ENDBRANCH   6  46
BRANCH   7  48
ATOM     48  N   UNL     1      26.166  37.274   9.721  1.00  0.00    -0.348 N 
ATOM     49  C   UNL     1      26.114  38.090   8.563  1.00  0.00     0.217 C 
ATOM     50  H   UNL     1      26.656  37.673  10.546  1.00  0.00     0.163 HD
ATOM     51  C   UNL     1      26.723  39.444   8.518  1.00  0.00     0.114 C 
ATOM     52  O   UNL     1      25.527  37.628   7.552  1.00  0.00    -0.275 OA
ENDBRANCH   7  48
ENDBRANCH   1   2
BRANCH   1  53
ATOM     53  O   UNL     1      26.932  34.845   7.992  1.00  0.00    -0.388 OA
ATOM     54  H   UNL     1      27.110  35.809   8.126  1.00  0.00     0.211 HD
ENDBRANCH   1  53
BRANCH   1  55
ATOM     55  C   UNL     1      28.618  33.999   9.434  1.00  0.00     0.165 C 
BRANCH  55  56
ATOM     56  O   UNL     1      28.855  34.788  10.585  1.00  0.00    -0.388 OA
ATOM     57  H   UNL     1      29.578  34.380  11.121  1.00  0.00     0.211 HD
ENDBRANCH  55  56
BRANCH  55  58
ATOM     58  C   UNL     1      29.484  34.503   8.331  1.00  0.00     0.154 C 
BRANCH  58  59
ATOM     59  N   UNL     1      29.963  35.846   8.581  1.00  0.00    -0.319 N 
ATOM     60  C   UNL     1      29.549  36.925   7.767  1.00  0.00     0.407 C 
ATOM     61  H   UNL     1      30.630  36.066   9.372  1.00  0.00     0.167 HD
ATOM     62  O   UNL     1      28.770  36.767   6.798  1.00  0.00    -0.225 OA
BRANCH  60  63
ATOM     63  O   UNL     1      29.985  38.212   8.011  1.00  0.00    -0.443 OA
BRANCH  63  64
ATOM     64  C   UNL     1      30.635  38.688   9.137  1.00  0.00     0.294 C 
BRANCH  64  65
ATOM     65  C   UNL     1      29.928  38.482  10.421  1.00  0.00     0.120 A 
ATOM     66  C   UNL     1      30.195  39.158  11.578  1.00  0.00     0.138 A 
ATOM     67  N   UNL     1      28.920  37.589  10.655  1.00  0.00    -0.132 NA
ATOM     68  N   UNL     1      29.344  38.664  12.497  1.00  0.00    -0.249 N 
ATOM     69  N   UNL     1      28.602  37.742  11.935  1.00  0.00    -0.067 NA
BRANCH  68  70
ATOM     70  C   UNL     1      29.248  39.058  13.886  1.00  0.00     0.180 C 
BRANCH  70  71
ATOM     71  C   UNL     1      28.250  38.101  14.552  1.00  0.00     0.161 C 
BRANCH  71  72
ATOM     72  O   UNL     1      28.914  36.923  14.792  1.00  0.00    -0.389 OA
ATOM     73  H   UNL     1      29.882  37.058  14.939  1.00  0.00     0.211 HD
ENDBRANCH  71  72
BRANCH  71  74
ATOM     74  C   UNL     1      27.727  38.721  15.826  1.00  0.00     0.189 C 
BRANCH  74  75
ATOM     75  O   UNL     1      27.873  37.842  16.876  1.00  0.00    -0.394 OA
ATOM     76  H   UNL     1      27.219  37.103  16.782  1.00  0.00     0.210 HD
ENDBRANCH  74  75
ENDBRANCH  71  74
ENDBRANCH  70  71
ENDBRANCH  68  70
ENDBRANCH  64  65
ENDBRANCH  63  64
ENDBRANCH  60  63
ENDBRANCH  58  59
ENDBRANCH  55  58
ENDBRANCH   1  55
TORSDOF 34
BEGIN_RES LYS A 131
REMARK  4 active torsions:
REMARK  status: ('A' for Active; 'I' for Inactive)
REMARK    1  A    between atoms: CA   and  CB  
REMARK    2  A    between atoms: CB   and  CG  
REMARK    3  A    between atoms: CG   and  CD  
REMARK    4  A    between atoms: CD   and  CE  
ROOT
ATOM      1  CA  LYS A 131      29.867  25.555  16.977  1.00 20.52     0.186 C 
ENDROOT
BRANCH   1   2
ATOM      2  CB  LYS A 131      28.345  25.722  17.026  1.00 20.94     0.034 C 
BRANCH   2   3
ATOM      3  CG  LYS A 131      27.602  24.399  16.926  1.00 22.96     0.005 C 
BRANCH   3   4
ATOM      4  CD  LYS A 131      26.153  24.533  17.303  1.00 24.33     0.041 C 
BRANCH   4   5
ATOM      5  CE  LYS A 131      25.942  25.843  18.055  1.00 26.91     0.338 C 
ATOM      6  NZ  LYS A 131      25.262  25.594  19.348  1.00 27.40     0.618 N 
ENDBRANCH   4   5
ENDBRANCH   3   4
ENDBRANCH   2   3
ENDBRANCH   1   2
END_RES LYS A 131
BEGIN_RES LYS A 135
REMARK  4 active torsions:
REMARK  status: ('A' for Active; 'I' for Inactive)
REMARK    5  A    between atoms: CA   and  CB  
REMARK    6  A    between atoms: CB   and  CG  
REMARK    7  A    between atoms: CG   and  CD  
REMARK    8  A    between atoms: CD   and  CE  
ROOT
ATOM      7  CA  LYS A 135      33.193  34.663   9.290  1.00 25.02     0.186 C 
ENDROOT
BRANCH   7   8
ATOM      8  CB  LYS A 135      32.060  35.360  10.034  1.00 26.63     0.034 C 
BRANCH   8   9
ATOM      9  CG  LYS A 135      32.528  36.203  11.192  1.00 29.45     0.005 C 
BRANCH   9  10
ATOM     10  CD  LYS A 135      31.901  35.724  12.492  1.00 32.00     0.041 C 
BRANCH  10  11
ATOM     11  CE  LYS A 135      32.970  35.236  13.452  1.00 34.25     0.338 C 
ATOM     12  NZ  LYS A 135      32.638  35.602  14.856  1.00 35.99     0.618 N 
ENDBRANCH  10  11
ENDBRANCH   9  10
ENDBRANCH   8   9
ENDBRANCH   7   8
END_RES LYS A 135
