REMARK VINA RESULT:    -4.247      3.394      7.657
REMARK INTER + INTRA:         -24.520
REMARK INTER:                 -15.327
REMARK INTRA:                  -9.193
REMARK UNBOUND:               -13.073
REMARK SMILES CC(=O)N[C@@H]1[C@@H](O)C[C@](OC[C@H]2O[C@@H](O[C@H]3[C@H](O)[C@@H](O)[C@H](OCCN=[N+]=[N-])O[C@@H]3CO)[C@H](O)[C@@H](O)[C@H]2O)(C(=O)O)O[C@H]1C(O)[C@H](O)CNC(=O)OCc1cn(C[C@@H](C)CN2CCN(c3ccc(Cl)cc3)CC2)nn1
REMARK SMILES IDX 43 1 42 2 9 3 8 4 41 5 6 6 5 7 10 8 11 9 12 10 14 11 13 12
REMARK SMILES IDX 32 13 34 14 36 15 15 16 16 17 29 18 28 19 21 20 17 21 19 22
REMARK SMILES IDX 30 23 31 24 22 26 23 27 24 28 25 29 26 30 27 31 18 32 20 34
REMARK SMILES IDX 33 36 35 38 37 40 38 42 39 43 40 44 7 46 4 48 2 49 1 51 3 52
REMARK SMILES IDX 44 53 45 55 46 56 47 58 48 59 49 60 50 62 51 63 52 64 53 65
REMARK SMILES IDX 54 66 74 67 55 68 73 69 56 70 57 71 58 72 59 73 60 74 61 75
REMARK SMILES IDX 72 76 62 77 71 78 63 79 64 80 65 81 70 82 66 83 69 84 67 85
REMARK SMILES IDX 68 86
REMARK H PARENT 31 25 18 33 20 35 33 37 35 39 37 41 40 45 7 47 4 50 44 54
REMARK H PARENT 46 57 48 61
REMARK Flexibility Score: inf
ROOT
ATOM      1  C   UNL     1      27.101  36.953  10.377  1.00  0.00     0.176 C 
ENDROOT
BRANCH   1   2
ATOM      2  C   UNL     1      27.619  37.436   9.030  1.00  0.00     0.178 C 
ATOM      3  C   UNL     1      27.528  39.213   7.477  1.00  0.00     0.272 C 
ATOM      4  C   UNL     1      27.935  38.222   6.503  1.00  0.00     0.113 C 
ATOM      5  O   UNL     1      26.989  38.569   8.633  1.00  0.00    -0.332 OA
ATOM      6  C   UNL     1      27.243  36.884   6.684  1.00  0.00     0.145 C 
ATOM      7  C   UNL     1      27.709  36.328   8.036  1.00  0.00     0.142 C 
BRANCH   3   8
ATOM      8  O   UNL     1      26.629  40.150   7.189  1.00  0.00    -0.338 OA
BRANCH   8   9
ATOM      9  C   UNL     1      25.588  40.090   6.400  1.00  0.00     0.199 C 
BRANCH   9  10
ATOM     10  C   UNL     1      24.177  39.999   6.903  1.00  0.00     0.179 C 
ATOM     11  C   UNL     1      23.190  38.949   8.739  1.00  0.00     0.282 C 
ATOM     12  O   UNL     1      23.891  38.841   7.568  1.00  0.00    -0.341 OA
ATOM     13  C   UNL     1      24.030  39.705   9.751  1.00  0.00     0.202 C 
ATOM     14  C   UNL     1      24.344  41.053   9.188  1.00  0.00     0.179 C 
ATOM     15  C   UNL     1      23.899  41.232   7.776  1.00  0.00     0.177 C 
BRANCH  11  16
ATOM     16  O   UNL     1      23.036  37.628   9.224  1.00  0.00    -0.341 OA
BRANCH  16  17
ATOM     17  C   UNL     1      21.727  37.239   9.088  1.00  0.00     0.184 C 
ATOM     18  C   UNL     1      21.097  36.838  10.406  1.00  0.00     0.178 C 
ATOM     19  O   UNL     1      20.819  35.511  10.527  1.00  0.00    -0.341 OA
ATOM     20  C   UNL     1      20.029  34.954   9.537  1.00  0.00     0.281 C 
ATOM     21  C   UNL     1      21.569  36.131   8.053  1.00  0.00     0.180 C 
ATOM     22  C   UNL     1      20.157  35.609   8.189  1.00  0.00     0.202 C 
BRANCH  18  23
ATOM     23  C   UNL     1      19.926  37.736  10.774  1.00  0.00     0.191 C 
BRANCH  23  24
ATOM     24  O   UNL     1      20.302  39.049  10.918  1.00  0.00    -0.394 OA
ATOM     25  H   UNL     1      20.836  39.290  10.101  1.00  0.00     0.210 HD
ENDBRANCH  23  24
ENDBRANCH  18  23
BRANCH  20  26
ATOM     26  O   UNL     1      18.690  34.887   9.902  1.00  0.00    -0.350 OA
BRANCH  26  27
ATOM     27  C   UNL     1      18.190  33.633  10.103  1.00  0.00     0.169 C 
BRANCH  27  28
ATOM     28  C   UNL     1      16.729  33.548   9.763  1.00  0.00     0.119 C 
BRANCH  28  29
ATOM     29  N   UNL     1      16.563  32.744   8.563  1.00  0.00    -0.092 NA
ATOM     30  N   UNL     1      16.881  31.541   8.585  1.00  0.00     0.001 N 
ATOM     31  N   UNL     1      17.231  30.378   8.739  1.00  0.00    -0.003 NA
ENDBRANCH  28  29
ENDBRANCH  27  28
ENDBRANCH  26  27
ENDBRANCH  20  26
BRANCH  21  32
ATOM     32  O   UNL     1      21.706  36.637   6.763  1.00  0.00    -0.387 OA
ATOM     33  H   UNL     1      20.771  36.781   6.432  1.00  0.00     0.211 HD
ENDBRANCH  21  32
BRANCH  22  34
ATOM     34  O   UNL     1      19.963  34.610   7.204  1.00  0.00    -0.385 OA
ATOM     35  H   UNL     1      19.104  34.166   7.274  1.00  0.00     0.211 HD
ENDBRANCH  22  34
ENDBRANCH  16  17
ENDBRANCH  11  16
BRANCH  13  36
ATOM     36  O   UNL     1      23.327  39.754  10.943  1.00  0.00    -0.385 OA
ATOM     37  H   UNL     1      23.296  40.717  11.218  1.00  0.00     0.211 HD
ENDBRANCH  13  36
BRANCH  14  38
ATOM     38  O   UNL     1      25.692  41.407   9.333  1.00  0.00    -0.387 OA
ATOM     39  H   UNL     1      25.789  42.369   9.514  1.00  0.00     0.211 HD
ENDBRANCH  14  38
BRANCH  15  40
ATOM     40  O   UNL     1      24.500  42.324   7.201  1.00  0.00    -0.387 OA
ATOM     41  H   UNL     1      25.413  42.474   7.537  1.00  0.00     0.211 HD
ENDBRANCH  15  40
ENDBRANCH   9  10
ENDBRANCH   8   9
ENDBRANCH   3   8
BRANCH   3  42
ATOM     42  C   UNL     1      28.749  39.875   8.086  1.00  0.00     0.364 C 
ATOM     43  O   UNL     1      28.613  40.820   8.939  1.00  0.00    -0.246 OA
BRANCH  42  44
ATOM     44  O   UNL     1      30.043  39.536   7.783  1.00  0.00    -0.477 OA
ATOM     45  H   UNL     1      30.829  40.064   8.143  1.00  0.00     0.296 HD
ENDBRANCH  42  44
ENDBRANCH   3  42
BRANCH   6  46
ATOM     46  O   UNL     1      25.871  37.136   6.714  1.00  0.00    -0.391 OA
ATOM     47  H   UNL     1      25.381  36.553   6.084  1.00  0.00     0.211 HD
ENDBRANCH   6  46
BRANCH   7  48
ATOM     48  N   UNL     1      29.065  35.848   7.854  1.00  0.00    -0.348 N 
ATOM     49  C   UNL     1      29.491  34.660   8.499  1.00  0.00     0.217 C 
ATOM     50  H   UNL     1      29.771  36.354   7.251  1.00  0.00     0.163 HD
ATOM     51  C   UNL     1      30.908  34.196   8.284  1.00  0.00     0.114 C 
ATOM     52  O   UNL     1      28.741  33.970   9.246  1.00  0.00    -0.275 OA
ENDBRANCH   7  48
ENDBRANCH   1   2
BRANCH   1  53
ATOM     53  O   UNL     1      26.754  35.611  10.228  1.00  0.00    -0.388 OA
ATOM     54  H   UNL     1      26.712  35.354   9.278  1.00  0.00     0.211 HD
ENDBRANCH   1  53
BRANCH   1  55
ATOM     55  C   UNL     1      28.119  37.012  11.480  1.00  0.00     0.165 C 
BRANCH  55  56
ATOM     56  O   UNL     1      28.854  35.870  11.665  1.00  0.00    -0.388 OA
ATOM     57  H   UNL     1      29.040  35.683  12.601  1.00  0.00     0.211 HD
ENDBRANCH  55  56
BRANCH  55  58
ATOM     58  C   UNL     1      27.602  37.535  12.776  1.00  0.00     0.154 C 
BRANCH  58  59
ATOM     59  N   UNL     1      26.191  37.160  12.897  1.00  0.00    -0.319 N 
ATOM     60  C   UNL     1      25.802  35.942  13.501  1.00  0.00     0.407 C 
ATOM     61  H   UNL     1      25.466  37.808  12.530  1.00  0.00     0.167 HD
ATOM     62  O   UNL     1      26.704  35.180  13.929  1.00  0.00    -0.225 OA
BRANCH  60  63
ATOM     63  O   UNL     1      24.459  35.609  13.611  1.00  0.00    -0.443 OA
BRANCH  63  64
ATOM     64  C   UNL     1      23.839  34.960  12.501  1.00  0.00     0.294 C 
BRANCH  64  65
ATOM     65  C   UNL     1      23.535  33.538  12.779  1.00  0.00     0.120 A 
ATOM     66  C   UNL     1      24.356  32.615  13.387  1.00  0.00     0.138 A 
ATOM     67  N   UNL     1      22.396  32.866  12.487  1.00  0.00    -0.132 NA
ATOM     68  N   UNL     1      23.695  31.462  13.433  1.00  0.00    -0.252 N 
ATOM     69  N   UNL     1      22.509  31.618  12.887  1.00  0.00    -0.067 NA
BRANCH  68  70
ATOM     70  C   UNL     1      24.232  30.223  13.998  1.00  0.00     0.150 C 
BRANCH  70  71
ATOM     71  C   UNL     1      23.958  30.154  15.503  1.00  0.00     0.022 C 
ATOM     72  C   UNL     1      22.673  29.367  15.652  1.00  0.00     0.011 C 
BRANCH  71  73
ATOM     73  C   UNL     1      25.106  29.471  16.178  1.00  0.00     0.089 C 
BRANCH  73  74
ATOM     74  N   UNL     1      26.273  30.209  16.429  1.00  0.00    -0.299 NA
ATOM     75  C   UNL     1      26.230  31.596  16.630  1.00  0.00     0.106 C 
ATOM     76  C   UNL     1      27.464  29.676  15.852  1.00  0.00     0.106 C 
ATOM     77  C   UNL     1      27.207  32.351  15.729  1.00  0.00     0.132 C 
ATOM     78  C   UNL     1      28.667  30.437  16.383  1.00  0.00     0.132 C 
ATOM     79  N   UNL     1      28.546  31.788  15.903  1.00  0.00    -0.369 N 
BRANCH  79  80
ATOM     80  C   UNL     1      29.663  32.573  15.594  1.00  0.00     0.037 A 
ATOM     81  C   UNL     1      29.711  33.383  14.462  1.00  0.00     0.027 A 
ATOM     82  C   UNL     1      30.798  32.611  16.394  1.00  0.00     0.027 A 
ATOM     83  C   UNL     1      30.792  34.168  14.140  1.00  0.00     0.022 A 
ATOM     84  C   UNL     1      31.885  33.398  16.074  1.00  0.00     0.022 A 
ATOM     85  C   UNL     1      31.901  34.187  14.945  1.00  0.00     0.041 A 
ATOM     86  Cl  UNL     1      33.264  35.177  14.541  1.00  0.00    -0.084 Cl
ENDBRANCH  79  80
ENDBRANCH  73  74
ENDBRANCH  71  73
ENDBRANCH  70  71
ENDBRANCH  68  70
ENDBRANCH  64  65
ENDBRANCH  63  64
ENDBRANCH  60  63
ENDBRANCH  58  59
ENDBRANCH  55  58
ENDBRANCH   1  55
TORSDOF 34
BEGIN_RES LYS A 131
REMARK  4 active torsions:
REMARK  status: ('A' for Active; 'I' for Inactive)
REMARK    1  A    between atoms: CA   and  CB  
REMARK    2  A    between atoms: CB   and  CG  
REMARK    3  A    between atoms: CG   and  CD  
REMARK    4  A    between atoms: CD   and  CE  
ROOT
ATOM      1  CA  LYS A 131      29.867  25.555  16.977  1.00 20.52     0.186 C 
ENDROOT
BRANCH   1   2
ATOM      2  CB  LYS A 131      28.345  25.722  17.026  1.00 20.94     0.034 C 
BRANCH   2   3
ATOM      3  CG  LYS A 131      27.603  24.397  16.952  1.00 22.96     0.005 C 
BRANCH   3   4
ATOM      4  CD  LYS A 131      26.123  24.564  17.163  1.00 24.33     0.041 C 
BRANCH   4   5
ATOM      5  CE  LYS A 131      25.691  23.768  18.391  1.00 26.91     0.338 C 
ATOM      6  NZ  LYS A 131      25.664  24.638  19.590  1.00 27.40     0.618 N 
ENDBRANCH   4   5
ENDBRANCH   3   4
ENDBRANCH   2   3
ENDBRANCH   1   2
END_RES LYS A 131
BEGIN_RES LYS A 135
REMARK  4 active torsions:
REMARK  status: ('A' for Active; 'I' for Inactive)
REMARK    5  A    between atoms: CA   and  CB  
REMARK    6  A    between atoms: CB   and  CG  
REMARK    7  A    between atoms: CG   and  CD  
REMARK    8  A    between atoms: CD   and  CE  
ROOT
ATOM      7  CA  LYS A 135      33.193  34.663   9.290  1.00 25.02     0.186 C 
ENDROOT
BRANCH   7   8
ATOM      8  CB  LYS A 135      32.060  35.360  10.034  1.00 26.63     0.034 C 
BRANCH   8   9
ATOM      9  CG  LYS A 135      32.530  36.445  10.968  1.00 29.45     0.005 C 
BRANCH   9  10
ATOM     10  CD  LYS A 135      31.896  37.779  10.603  1.00 32.00     0.041 C 
BRANCH  10  11
ATOM     11  CE  LYS A 135      31.476  38.528  11.853  1.00 34.25     0.338 C 
ATOM     12  NZ  LYS A 135      31.461  37.628  13.039  1.00 35.99     0.618 N 
ENDBRANCH  10  11
ENDBRANCH   9  10
ENDBRANCH   8   9
ENDBRANCH   7   8
END_RES LYS A 135
