REMARK VINA RESULT:    -4.488      2.640      9.436
REMARK INTER + INTRA:         -22.878
REMARK INTER:                 -11.700
REMARK INTRA:                 -11.178
REMARK UNBOUND:               -11.308
REMARK SMILES CC(=O)N[C@@H]1[C@@H](O)C[C@](OC[C@H]2O[C@@H](O[C@H]3[C@H](O)[C@@H](O)[C@H](OCCN=[N+]=[N-])O[C@@H]3CO)[C@H](O)[C@@H](O)[C@H]2O)(C(=O)O)O[C@H]1C(O)[C@H](O)CNC(=O)OCc1cn(CCN2CCCC2)nn1
REMARK SMILES IDX 9 1 8 2 6 3 5 4 42 5 41 6 10 7 11 8 12 9 14 10 13 11 32 12
REMARK SMILES IDX 34 13 36 14 15 15 16 16 29 17 28 18 21 19 17 20 19 21 30 22
REMARK SMILES IDX 31 23 22 25 23 26 24 27 25 28 26 29 27 30 18 31 20 33 33 35
REMARK SMILES IDX 35 37 37 39 38 41 39 42 40 43 7 45 43 47 44 48 45 50 46 51
REMARK SMILES IDX 47 53 48 54 49 55 50 57 51 58 52 59 53 60 54 61 64 62 55 63
REMARK SMILES IDX 63 64 56 65 57 66 58 67 59 68 62 69 60 70 61 71 4 72 2 73
REMARK SMILES IDX 1 75 3 76
REMARK H PARENT 31 24 18 32 20 34 33 36 35 38 37 40 40 44 7 46 44 49 46 52
REMARK H PARENT 48 56 4 74
REMARK Flexibility Score: inf
ROOT
ATOM      1  C   UNL     1      27.903  35.527  13.540  1.00  0.00     0.272 C 
ATOM      2  C   UNL     1      27.711  36.777  14.339  1.00  0.00     0.113 C 
ATOM      3  C   UNL     1      27.483  36.444  15.820  1.00  0.00     0.145 C 
ATOM      4  C   UNL     1      26.134  35.671  15.863  1.00  0.00     0.142 C 
ATOM      5  C   UNL     1      26.271  34.527  14.927  1.00  0.00     0.178 C 
ATOM      6  O   UNL     1      27.556  34.461  14.380  1.00  0.00    -0.332 OA
ENDROOT
BRANCH   1   7
ATOM      7  O   UNL     1      29.252  35.282  13.271  1.00  0.00    -0.338 OA
BRANCH   7   8
ATOM      8  C   UNL     1      30.124  36.296  13.438  1.00  0.00     0.199 C 
BRANCH   8   9
ATOM      9  C   UNL     1      31.243  35.966  14.422  1.00  0.00     0.179 C 
ATOM     10  C   UNL     1      31.722  34.826  16.353  1.00  0.00     0.282 C 
ATOM     11  O   UNL     1      30.975  34.857  15.206  1.00  0.00    -0.341 OA
ATOM     12  C   UNL     1      33.112  35.294  16.090  1.00  0.00     0.202 C 
ATOM     13  C   UNL     1      33.456  35.032  14.634  1.00  0.00     0.179 C 
ATOM     14  C   UNL     1      32.572  35.837  13.704  1.00  0.00     0.177 C 
BRANCH  10  15
ATOM     15  O   UNL     1      31.625  33.681  17.087  1.00  0.00    -0.341 OA
BRANCH  15  16
ATOM     16  C   UNL     1      30.559  32.889  17.047  1.00  0.00     0.184 C 
ATOM     17  C   UNL     1      29.929  32.492  18.367  1.00  0.00     0.178 C 
ATOM     18  O   UNL     1      28.597  32.164  18.096  1.00  0.00    -0.341 OA
ATOM     19  C   UNL     1      28.640  30.869  17.502  1.00  0.00     0.281 C 
ATOM     20  C   UNL     1      30.715  31.588  16.279  1.00  0.00     0.180 C 
ATOM     21  C   UNL     1      29.304  31.047  16.152  1.00  0.00     0.202 C 
BRANCH  17  22
ATOM     22  C   UNL     1      30.026  33.526  19.437  1.00  0.00     0.191 C 
BRANCH  22  23
ATOM     23  O   UNL     1      29.444  34.697  18.959  1.00  0.00    -0.394 OA
ATOM     24  H   UNL     1      29.087  34.549  18.040  1.00  0.00     0.210 HD
ENDBRANCH  22  23
ENDBRANCH  17  22
BRANCH  19  25
ATOM     25  O   UNL     1      27.344  30.524  17.287  1.00  0.00    -0.350 OA
BRANCH  25  26
ATOM     26  C   UNL     1      26.739  29.622  18.093  1.00  0.00     0.169 C 
BRANCH  26  27
ATOM     27  C   UNL     1      27.234  28.219  18.070  1.00  0.00     0.119 C 
BRANCH  27  28
ATOM     28  N   UNL     1      27.767  27.750  19.326  1.00  0.00    -0.092 NA
ATOM     29  N   UNL     1      28.471  28.493  19.996  1.00  0.00     0.001 N 
ATOM     30  N   UNL     1      29.091  29.365  20.612  1.00  0.00    -0.003 NA
ENDBRANCH  27  28
ENDBRANCH  26  27
ENDBRANCH  25  26
ENDBRANCH  19  25
BRANCH  20  31
ATOM     31  O   UNL     1      31.166  31.815  14.987  1.00  0.00    -0.387 OA
ATOM     32  H   UNL     1      32.046  32.237  14.934  1.00  0.00     0.211 HD
ENDBRANCH  20  31
BRANCH  21  33
ATOM     33  O   UNL     1      29.223  29.925  15.363  1.00  0.00    -0.385 OA
ATOM     34  H   UNL     1      28.657  29.204  15.686  1.00  0.00     0.211 HD
ENDBRANCH  21  33
ENDBRANCH  15  16
ENDBRANCH  10  15
BRANCH  12  35
ATOM     35  O   UNL     1      33.286  36.667  16.304  1.00  0.00    -0.385 OA
ATOM     36  H   UNL     1      32.980  37.185  15.504  1.00  0.00     0.211 HD
ENDBRANCH  12  35
BRANCH  13  37
ATOM     37  O   UNL     1      33.242  33.684  14.333  1.00  0.00    -0.387 OA
ATOM     38  H   UNL     1      32.259  33.469  14.408  1.00  0.00     0.211 HD
ENDBRANCH  13  37
BRANCH  14  39
ATOM     39  O   UNL     1      32.455  35.097  12.529  1.00  0.00    -0.387 OA
ATOM     40  H   UNL     1      31.866  34.322  12.766  1.00  0.00     0.211 HD
ENDBRANCH  14  39
ENDBRANCH   8   9
ENDBRANCH   7   8
ENDBRANCH   1   7
BRANCH   1  41
ATOM     41  C   UNL     1      27.095  35.472  12.294  1.00  0.00     0.364 C 
ATOM     42  O   UNL     1      26.431  36.506  11.976  1.00  0.00    -0.246 OA
BRANCH  41  43
ATOM     43  O   UNL     1      26.993  34.402  11.445  1.00  0.00    -0.477 OA
ATOM     44  H   UNL     1      26.241  34.167  10.839  1.00  0.00     0.296 HD
ENDBRANCH  41  43
ENDBRANCH   1  41
BRANCH   3  45
ATOM     45  O   UNL     1      28.439  35.583  16.295  1.00  0.00    -0.391 OA
ATOM     46  H   UNL     1      28.152  35.092  17.112  1.00  0.00     0.211 HD
ENDBRANCH   3  45
BRANCH   5  47
ATOM     47  C   UNL     1      26.131  33.214  15.662  1.00  0.00     0.176 C 
BRANCH  47  48
ATOM     48  O   UNL     1      26.222  33.312  17.037  1.00  0.00    -0.388 OA
ATOM     49  H   UNL     1      25.788  34.098  17.436  1.00  0.00     0.211 HD
ENDBRANCH  47  48
BRANCH  47  50
ATOM     50  C   UNL     1      25.059  32.280  15.254  1.00  0.00     0.165 C 
BRANCH  50  51
ATOM     51  O   UNL     1      25.453  31.037  14.816  1.00  0.00    -0.388 OA
ATOM     52  H   UNL     1      24.914  30.279  15.133  1.00  0.00     0.211 HD
ENDBRANCH  50  51
BRANCH  50  53
ATOM     53  C   UNL     1      23.842  32.877  14.627  1.00  0.00     0.154 C 
BRANCH  53  54
ATOM     54  N   UNL     1      23.960  33.094  13.234  1.00  0.00    -0.319 N 
ATOM     55  C   UNL     1      23.670  34.361  12.618  1.00  0.00     0.407 C 
ATOM     56  H   UNL     1      24.274  32.319  12.601  1.00  0.00     0.167 HD
ATOM     57  O   UNL     1      23.294  35.359  13.261  1.00  0.00    -0.225 OA
BRANCH  55  58
ATOM     58  O   UNL     1      23.807  34.518  11.238  1.00  0.00    -0.443 OA
BRANCH  58  59
ATOM     59  C   UNL     1      22.934  35.402  10.528  1.00  0.00     0.294 C 
BRANCH  59  60
ATOM     60  C   UNL     1      23.680  36.172   9.513  1.00  0.00     0.120 A 
ATOM     61  C   UNL     1      24.940  36.052   9.000  1.00  0.00     0.138 A 
ATOM     62  N   UNL     1      23.148  37.246   8.860  1.00  0.00    -0.132 NA
ATOM     63  N   UNL     1      25.144  37.004   8.090  1.00  0.00    -0.251 N 
ATOM     64  N   UNL     1      24.012  37.735   8.023  1.00  0.00    -0.067 NA
BRANCH  63  65
ATOM     65  C   UNL     1      26.293  37.287   7.289  1.00  0.00     0.161 C 
BRANCH  65  66
ATOM     66  C   UNL     1      26.722  38.707   7.302  1.00  0.00     0.108 C 
BRANCH  66  67
ATOM     67  N   UNL     1      27.590  39.163   8.305  1.00  0.00    -0.301 NA
ATOM     68  C   UNL     1      27.118  39.973   9.356  1.00  0.00     0.084 C 
ATOM     69  C   UNL     1      28.555  38.218   8.780  1.00  0.00     0.084 C 
ATOM     70  C   UNL     1      27.650  39.401  10.661  1.00  0.00     0.017 C 
ATOM     71  C   UNL     1      28.744  38.460  10.246  1.00  0.00     0.017 C 
ENDBRANCH  66  67
ENDBRANCH  65  66
ENDBRANCH  63  65
ENDBRANCH  59  60
ENDBRANCH  58  59
ENDBRANCH  55  58
ENDBRANCH  53  54
ENDBRANCH  50  53
ENDBRANCH  47  50
ENDBRANCH   5  47
BRANCH   4  72
ATOM     72  N   UNL     1      25.113  36.636  15.503  1.00  0.00    -0.348 N 
ATOM     73  C   UNL     1      24.322  37.344  16.454  1.00  0.00     0.217 C 
ATOM     74  H   UNL     1      24.918  36.851  14.509  1.00  0.00     0.163 HD
ATOM     75  C   UNL     1      23.282  38.317  15.968  1.00  0.00     0.114 C 
ATOM     76  O   UNL     1      24.502  37.148  17.657  1.00  0.00    -0.275 OA
ENDBRANCH   4  72
TORSDOF 32
BEGIN_RES LYS A 131
REMARK  4 active torsions:
REMARK  status: ('A' for Active; 'I' for Inactive)
REMARK    1  A    between atoms: CA   and  CB  
REMARK    2  A    between atoms: CB   and  CG  
REMARK    3  A    between atoms: CG   and  CD  
REMARK    4  A    between atoms: CD   and  CE  
ROOT
ATOM      1  CA  LYS A 131      29.867  25.555  16.977  1.00 20.52     0.186 C 
ENDROOT
BRANCH   1   2
ATOM      2  CB  LYS A 131      28.345  25.722  17.026  1.00 20.94     0.034 C 
BRANCH   2   3
ATOM      3  CG  LYS A 131      27.599  24.478  16.569  1.00 22.96     0.005 C 
BRANCH   3   4
ATOM      4  CD  LYS A 131      26.992  23.726  17.721  1.00 24.33     0.041 C 
BRANCH   4   5
ATOM      5  CE  LYS A 131      25.478  23.660  17.544  1.00 26.91     0.338 C 
ATOM      6  NZ  LYS A 131      25.004  22.260  17.651  1.00 27.40     0.618 N 
ENDBRANCH   4   5
ENDBRANCH   3   4
ENDBRANCH   2   3
ENDBRANCH   1   2
END_RES LYS A 131
BEGIN_RES LYS A 135
REMARK  4 active torsions:
REMARK  status: ('A' for Active; 'I' for Inactive)
REMARK    5  A    between atoms: CA   and  CB  
REMARK    6  A    between atoms: CB   and  CG  
REMARK    7  A    between atoms: CG   and  CD  
REMARK    8  A    between atoms: CD   and  CE  
ROOT
ATOM      7  CA  LYS A 135      33.193  34.663   9.290  1.00 25.02     0.186 C 
ENDROOT
BRANCH   7   8
ATOM      8  CB  LYS A 135      32.060  35.360  10.034  1.00 26.63     0.034 C 
BRANCH   8   9
ATOM      9  CG  LYS A 135      30.690  34.879   9.632  1.00 29.45     0.005 C 
BRANCH   9  10
ATOM     10  CD  LYS A 135      30.662  34.510   8.157  1.00 32.00     0.041 C 
BRANCH  10  11
ATOM     11  CE  LYS A 135      29.340  34.912   7.531  1.00 34.25     0.338 C 
ATOM     12  NZ  LYS A 135      28.193  34.487   8.381  1.00 35.99     0.618 N 
ENDBRANCH  10  11
ENDBRANCH   9  10
ENDBRANCH   8   9
ENDBRANCH   7   8
END_RES LYS A 135
