REMARK VINA RESULT:    -4.268      4.787     10.560
REMARK INTER + INTRA:         -24.576
REMARK INTER:                 -12.260
REMARK INTRA:                 -12.316
REMARK UNBOUND:               -13.073
REMARK SMILES CC(=O)N[C@@H]1[C@@H](O)C[C@](OC[C@H]2O[C@@H](O[C@H]3[C@H](O)[C@@H](O)[C@H](OCCN=[N+]=[N-])O[C@@H]3CO)[C@H](O)[C@@H](O)[C@H]2O)(C(=O)O)O[C@H]1C(O)[C@H](O)CNC(=O)OCc1cn(C[C@@H](C)CN2CCN(c3ccc(Cl)cc3)CC2)nn1
REMARK SMILES IDX 43 1 42 2 9 3 8 4 41 5 6 6 5 7 10 8 11 9 12 10 14 11 13 12
REMARK SMILES IDX 32 13 34 14 36 15 15 16 16 17 29 18 28 19 21 20 17 21 19 22
REMARK SMILES IDX 30 23 31 24 22 26 23 27 24 28 25 29 26 30 27 31 18 32 20 34
REMARK SMILES IDX 33 36 35 38 37 40 38 42 39 43 40 44 7 46 4 48 2 49 1 51 3 52
REMARK SMILES IDX 44 53 45 55 46 56 47 58 48 59 49 60 50 62 51 63 52 64 53 65
REMARK SMILES IDX 54 66 74 67 55 68 73 69 56 70 57 71 58 72 59 73 60 74 61 75
REMARK SMILES IDX 72 76 62 77 71 78 63 79 64 80 65 81 70 82 66 83 69 84 67 85
REMARK SMILES IDX 68 86
REMARK H PARENT 31 25 18 33 20 35 33 37 35 39 37 41 40 45 7 47 4 50 44 54
REMARK H PARENT 46 57 48 61
REMARK Flexibility Score: inf
ROOT
ATOM      1  C   UNL     1      29.181  36.116  17.446  1.00  0.00     0.176 C 
ENDROOT
BRANCH   1   2
ATOM      2  C   UNL     1      29.903  34.942  16.801  1.00  0.00     0.178 C 
ATOM      3  C   UNL     1      29.581  32.892  15.671  1.00  0.00     0.272 C 
ATOM      4  C   UNL     1      30.913  32.567  16.137  1.00  0.00     0.113 C 
ATOM      5  O   UNL     1      29.037  33.958  16.454  1.00  0.00    -0.332 OA
ATOM      6  C   UNL     1      31.172  33.004  17.566  1.00  0.00     0.145 C 
ATOM      7  C   UNL     1      31.113  34.538  17.573  1.00  0.00     0.142 C 
BRANCH   3   8
ATOM      8  O   UNL     1      28.606  31.988  15.647  1.00  0.00    -0.338 OA
BRANCH   8   9
ATOM      9  C   UNL     1      28.681  30.684  15.688  1.00  0.00     0.199 C 
BRANCH   9  10
ATOM     10  C   UNL     1      28.089  29.858  16.794  1.00  0.00     0.179 C 
ATOM     11  C   UNL     1      27.727  30.243  19.067  1.00  0.00     0.282 C 
ATOM     12  O   UNL     1      28.611  30.119  18.028  1.00  0.00    -0.341 OA
ATOM     13  C   UNL     1      26.847  31.454  18.826  1.00  0.00     0.202 C 
ATOM     14  C   UNL     1      26.128  31.261  17.530  1.00  0.00     0.179 C 
ATOM     15  C   UNL     1      26.566  30.053  16.774  1.00  0.00     0.177 C 
BRANCH  11  16
ATOM     16  O   UNL     1      28.511  30.514  20.214  1.00  0.00    -0.341 OA
BRANCH  16  17
ATOM     17  C   UNL     1      29.312  29.435  20.489  1.00  0.00     0.184 C 
ATOM     18  C   UNL     1      28.960  28.764  21.801  1.00  0.00     0.178 C 
ATOM     19  O   UNL     1      29.890  28.906  22.784  1.00  0.00    -0.341 OA
ATOM     20  C   UNL     1      31.177  28.500  22.479  1.00  0.00     0.281 C 
ATOM     21  C   UNL     1      30.792  29.802  20.450  1.00  0.00     0.180 C 
ATOM     22  C   UNL     1      31.545  28.626  21.026  1.00  0.00     0.202 C 
BRANCH  18  23
ATOM     23  C   UNL     1      28.505  27.326  21.601  1.00  0.00     0.191 C 
BRANCH  23  24
ATOM     24  O   UNL     1      28.751  26.874  20.329  1.00  0.00    -0.394 OA
ATOM     25  H   UNL     1      28.860  25.876  20.391  1.00  0.00     0.210 HD
ENDBRANCH  23  24
ENDBRANCH  18  23
BRANCH  20  26
ATOM     26  O   UNL     1      31.446  27.211  22.922  1.00  0.00    -0.350 OA
BRANCH  26  27
ATOM     27  C   UNL     1      32.271  27.115  24.005  1.00  0.00     0.169 C 
BRANCH  27  28
ATOM     28  C   UNL     1      32.755  28.461  24.465  1.00  0.00     0.119 C 
BRANCH  28  29
ATOM     29  N   UNL     1      34.206  28.445  24.550  1.00  0.00    -0.092 NA
ATOM     30  N   UNL     1      34.875  29.043  23.688  1.00  0.00     0.001 N 
ATOM     31  N   UNL     1      35.412  29.665  22.780  1.00  0.00    -0.003 NA
ENDBRANCH  28  29
ENDBRANCH  27  28
ENDBRANCH  26  27
ENDBRANCH  20  26
BRANCH  21  32
ATOM     32  O   UNL     1      31.222  29.974  19.137  1.00  0.00    -0.387 OA
ATOM     33  H   UNL     1      30.386  30.040  18.588  1.00  0.00     0.211 HD
ENDBRANCH  21  32
BRANCH  22  34
ATOM     34  O   UNL     1      32.930  28.917  20.956  1.00  0.00    -0.385 OA
ATOM     35  H   UNL     1      33.140  29.835  21.188  1.00  0.00     0.211 HD
ENDBRANCH  22  34
ENDBRANCH  16  17
ENDBRANCH  11  16
BRANCH  13  36
ATOM     36  O   UNL     1      26.000  31.593  19.912  1.00  0.00    -0.385 OA
ATOM     37  H   UNL     1      25.256  32.197  19.621  1.00  0.00     0.211 HD
ENDBRANCH  13  36
BRANCH  14  38
ATOM     38  O   UNL     1      26.159  32.399  16.712  1.00  0.00    -0.387 OA
ATOM     39  H   UNL     1      26.916  32.364  16.084  1.00  0.00     0.211 HD
ENDBRANCH  14  38
BRANCH  15  40
ATOM     40  O   UNL     1      26.145  30.104  15.468  1.00  0.00    -0.387 OA
ATOM     41  H   UNL     1      26.680  29.529  14.875  1.00  0.00     0.211 HD
ENDBRANCH  15  40
ENDBRANCH   9  10
ENDBRANCH   8   9
ENDBRANCH   3   8
BRANCH   3  42
ATOM     42  C   UNL     1      29.656  33.570  14.316  1.00  0.00     0.364 C 
ATOM     43  O   UNL     1      28.606  34.079  13.790  1.00  0.00    -0.246 OA
BRANCH  42  44
ATOM     44  O   UNL     1      30.802  33.684  13.572  1.00  0.00    -0.477 OA
ATOM     45  H   UNL     1      30.948  34.458  12.936  1.00  0.00     0.296 HD
ENDBRANCH  42  44
ENDBRANCH   3  42
BRANCH   6  46
ATOM     46  O   UNL     1      30.142  32.479  18.346  1.00  0.00    -0.391 OA
ATOM     47  H   UNL     1      30.077  32.937  19.219  1.00  0.00     0.211 HD
ENDBRANCH   6  46
BRANCH   7  48
ATOM     48  N   UNL     1      32.343  35.014  16.974  1.00  0.00    -0.348 N 
ATOM     49  C   UNL     1      33.194  35.888  17.696  1.00  0.00     0.217 C 
ATOM     50  H   UNL     1      32.646  34.738  15.999  1.00  0.00     0.163 HD
ATOM     51  C   UNL     1      34.464  36.360  17.037  1.00  0.00     0.114 C 
ATOM     52  O   UNL     1      32.940  36.292  18.866  1.00  0.00    -0.275 OA
ENDBRANCH   7  48
ENDBRANCH   1   2
BRANCH   1  53
ATOM     53  O   UNL     1      30.132  37.108  17.680  1.00  0.00    -0.388 OA
ATOM     54  H   UNL     1      29.797  37.784  18.313  1.00  0.00     0.211 HD
ENDBRANCH   1  53
BRANCH   1  55
ATOM     55  C   UNL     1      28.123  36.736  16.576  1.00  0.00     0.165 C 
BRANCH  55  56
ATOM     56  O   UNL     1      28.143  38.104  16.509  1.00  0.00    -0.388 OA
ATOM     57  H   UNL     1      28.170  38.440  15.597  1.00  0.00     0.211 HD
ENDBRANCH  55  56
BRANCH  55  58
ATOM     58  C   UNL     1      26.743  36.228  16.819  1.00  0.00     0.154 C 
BRANCH  58  59
ATOM     59  N   UNL     1      26.397  35.296  15.743  1.00  0.00    -0.319 N 
ATOM     60  C   UNL     1      25.561  35.685  14.670  1.00  0.00     0.407 C 
ATOM     61  H   UNL     1      26.777  34.329  15.774  1.00  0.00     0.167 HD
ATOM     62  O   UNL     1      25.115  36.859  14.666  1.00  0.00    -0.225 OA
BRANCH  60  63
ATOM     63  O   UNL     1      25.251  34.787  13.658  1.00  0.00    -0.443 OA
BRANCH  63  64
ATOM     64  C   UNL     1      23.894  34.363  13.535  1.00  0.00     0.294 C 
BRANCH  64  65
ATOM     65  C   UNL     1      23.773  32.892  13.416  1.00  0.00     0.120 A 
ATOM     66  C   UNL     1      22.763  32.186  12.804  1.00  0.00     0.138 A 
ATOM     67  N   UNL     1      24.629  31.954  13.888  1.00  0.00    -0.132 NA
ATOM     68  N   UNL     1      23.045  30.894  12.931  1.00  0.00    -0.252 N 
ATOM     69  N   UNL     1      24.175  30.757  13.588  1.00  0.00    -0.067 NA
BRANCH  68  70
ATOM     70  C   UNL     1      22.204  29.810  12.420  1.00  0.00     0.150 C 
BRANCH  70  71
ATOM     71  C   UNL     1      20.848  29.799  13.132  1.00  0.00     0.022 C 
ATOM     72  C   UNL     1      19.807  29.818  12.033  1.00  0.00     0.011 C 
BRANCH  71  73
ATOM     73  C   UNL     1      20.745  28.563  13.969  1.00  0.00     0.089 C 
BRANCH  73  74
ATOM     74  N   UNL     1      21.773  28.282  14.883  1.00  0.00    -0.299 NA
ATOM     75  C   UNL     1      22.355  27.010  14.957  1.00  0.00     0.106 C 
ATOM     76  C   UNL     1      21.743  29.051  16.085  1.00  0.00     0.106 C 
ATOM     77  C   UNL     1      22.370  26.453  16.381  1.00  0.00     0.132 C 
ATOM     78  C   UNL     1      23.021  28.810  16.870  1.00  0.00     0.132 C 
ATOM     79  N   UNL     1      23.007  27.427  17.266  1.00  0.00    -0.369 N 
BRANCH  79  80
ATOM     80  C   UNL     1      23.577  26.989  18.468  1.00  0.00     0.037 A 
ATOM     81  C   UNL     1      24.675  27.624  19.042  1.00  0.00     0.027 A 
ATOM     82  C   UNL     1      23.086  25.901  19.178  1.00  0.00     0.027 A 
ATOM     83  C   UNL     1      25.248  27.218  20.224  1.00  0.00     0.022 A 
ATOM     84  C   UNL     1      23.659  25.491  20.365  1.00  0.00     0.022 A 
ATOM     85  C   UNL     1      24.746  26.141  20.906  1.00  0.00     0.041 A 
ATOM     86  Cl  UNL     1      25.468  25.631  22.396  1.00  0.00    -0.084 Cl
ENDBRANCH  79  80
ENDBRANCH  73  74
ENDBRANCH  71  73
ENDBRANCH  70  71
ENDBRANCH  68  70
ENDBRANCH  64  65
ENDBRANCH  63  64
ENDBRANCH  60  63
ENDBRANCH  58  59
ENDBRANCH  55  58
ENDBRANCH   1  55
TORSDOF 34
BEGIN_RES LYS A 131
REMARK  4 active torsions:
REMARK  status: ('A' for Active; 'I' for Inactive)
REMARK    1  A    between atoms: CA   and  CB  
REMARK    2  A    between atoms: CB   and  CG  
REMARK    3  A    between atoms: CG   and  CD  
REMARK    4  A    between atoms: CD   and  CE  
ROOT
ATOM      1  CA  LYS A 131      29.867  25.555  16.977  1.00 20.52     0.186 C 
ENDROOT
BRANCH   1   2
ATOM      2  CB  LYS A 131      28.345  25.722  17.026  1.00 20.94     0.034 C 
BRANCH   2   3
ATOM      3  CG  LYS A 131      27.602  24.399  16.926  1.00 22.96     0.005 C 
BRANCH   3   4
ATOM      4  CD  LYS A 131      26.367  24.377  17.784  1.00 24.33     0.041 C 
BRANCH   4   5
ATOM      5  CE  LYS A 131      25.646  23.044  17.604  1.00 26.91     0.338 C 
ATOM      6  NZ  LYS A 131      25.025  22.615  18.879  1.00 27.40     0.618 N 
ENDBRANCH   4   5
ENDBRANCH   3   4
ENDBRANCH   2   3
ENDBRANCH   1   2
END_RES LYS A 131
BEGIN_RES LYS A 135
REMARK  4 active torsions:
REMARK  status: ('A' for Active; 'I' for Inactive)
REMARK    5  A    between atoms: CA   and  CB  
REMARK    6  A    between atoms: CB   and  CG  
REMARK    7  A    between atoms: CG   and  CD  
REMARK    8  A    between atoms: CD   and  CE  
ROOT
ATOM      7  CA  LYS A 135      33.193  34.663   9.290  1.00 25.02     0.186 C 
ENDROOT
BRANCH   7   8
ATOM      8  CB  LYS A 135      32.060  35.360  10.034  1.00 26.63     0.034 C 
BRANCH   8   9
ATOM      9  CG  LYS A 135      30.714  34.718   9.819  1.00 29.45     0.005 C 
BRANCH   9  10
ATOM     10  CD  LYS A 135      30.382  34.649   8.337  1.00 32.00     0.041 C 
BRANCH  10  11
ATOM     11  CE  LYS A 135      28.881  34.585   8.128  1.00 34.25     0.338 C 
ATOM     12  NZ  LYS A 135      28.209  33.911   9.274  1.00 35.99     0.618 N 
ENDBRANCH  10  11
ENDBRANCH   9  10
ENDBRANCH   8   9
ENDBRANCH   7   8
END_RES LYS A 135
