REMARK VINA RESULT:    -3.888      3.070      7.677
REMARK INTER + INTRA:         -22.981
REMARK INTER:                 -10.259
REMARK INTRA:                 -12.722
REMARK UNBOUND:               -13.184
REMARK SMILES CC(=O)N[C@@H]1[C@@H](O)C[C@](OC[C@H]2O[C@@H](O[C@H]3[C@H](O)[C@@H](O)[C@H](OCCN=[N+]=[N-])O[C@@H]3CO)[C@H](O)[C@@H](O)[C@H]2O)(C(=O)O)O[C@H]1C(O)[C@H](O)CNC(=O)OCc1cn(-c2cc(Cl)ccc2C(=O)N(C)C)nn1
REMARK SMILES IDX 9 1 8 2 6 3 5 4 42 5 41 6 10 7 11 8 12 9 14 10 13 11 32 12
REMARK SMILES IDX 34 13 36 14 15 15 16 16 29 17 28 18 21 19 17 20 19 21 30 22
REMARK SMILES IDX 31 23 22 25 23 26 24 27 25 28 26 29 27 30 18 31 20 33 33 35
REMARK SMILES IDX 35 37 37 39 38 41 39 42 40 43 7 45 43 47 44 48 45 50 46 51
REMARK SMILES IDX 47 53 48 54 49 55 50 57 51 58 52 59 53 60 54 61 69 62 55 63
REMARK SMILES IDX 68 64 56 65 57 66 62 67 58 68 61 69 59 70 60 71 63 72 64 73
REMARK SMILES IDX 65 74 66 75 67 76 4 77 2 78 1 80 3 81
REMARK H PARENT 31 24 18 32 20 34 33 36 35 38 37 40 40 44 7 46 44 49 46 52
REMARK H PARENT 48 56 4 79
REMARK Flexibility Score: inf
ROOT
ATOM      1  C   UNL     1      29.332  33.077  17.772  1.00  0.00     0.272 C 
ATOM      2  C   UNL     1      30.348  32.145  18.316  1.00  0.00     0.113 C 
ATOM      3  C   UNL     1      30.078  30.742  17.834  1.00  0.00     0.145 C 
ATOM      4  C   UNL     1      28.697  30.375  18.321  1.00  0.00     0.142 C 
ATOM      5  C   UNL     1      27.689  31.351  17.878  1.00  0.00     0.178 C 
ATOM      6  O   UNL     1      28.065  32.623  17.584  1.00  0.00    -0.332 OA
ENDROOT
BRANCH   1   7
ATOM      7  O   UNL     1      29.739  33.637  16.572  1.00  0.00    -0.338 OA
BRANCH   7   8
ATOM      8  C   UNL     1      31.061  33.722  16.309  1.00  0.00     0.199 C 
BRANCH   8   9
ATOM      9  C   UNL     1      31.277  34.524  15.016  1.00  0.00     0.179 C 
ATOM     10  C   UNL     1      29.937  35.460  13.389  1.00  0.00     0.282 C 
ATOM     11  O   UNL     1      30.225  34.287  14.181  1.00  0.00    -0.341 OA
ATOM     12  C   UNL     1      31.265  35.994  12.905  1.00  0.00     0.202 C 
ATOM     13  C   UNL     1      32.068  36.587  14.044  1.00  0.00     0.179 C 
ATOM     14  C   UNL     1      31.642  35.912  15.336  1.00  0.00     0.177 C 
BRANCH  10  15
ATOM     15  O   UNL     1      29.233  36.264  14.179  1.00  0.00    -0.341 OA
BRANCH  15  16
ATOM     16  C   UNL     1      27.853  36.200  14.262  1.00  0.00     0.184 C 
ATOM     17  C   UNL     1      27.409  37.489  14.874  1.00  0.00     0.178 C 
ATOM     18  O   UNL     1      26.010  37.501  15.014  1.00  0.00    -0.341 OA
ATOM     19  C   UNL     1      25.834  36.643  16.154  1.00  0.00     0.281 C 
ATOM     20  C   UNL     1      27.428  35.035  15.118  1.00  0.00     0.180 C 
ATOM     21  C   UNL     1      26.071  35.246  15.716  1.00  0.00     0.202 C 
BRANCH  17  22
ATOM     22  C   UNL     1      27.848  38.675  14.041  1.00  0.00     0.191 C 
BRANCH  22  23
ATOM     23  O   UNL     1      26.725  39.299  13.540  1.00  0.00    -0.394 OA
ATOM     24  H   UNL     1      26.599  40.176  13.982  1.00  0.00     0.210 HD
ENDBRANCH  22  23
ENDBRANCH  17  22
BRANCH  19  25
ATOM     25  O   UNL     1      24.613  36.871  16.658  1.00  0.00    -0.350 OA
BRANCH  25  26
ATOM     26  C   UNL     1      23.714  37.478  15.798  1.00  0.00     0.169 C 
BRANCH  26  27
ATOM     27  C   UNL     1      22.324  36.877  15.848  1.00  0.00     0.119 C 
BRANCH  27  28
ATOM     28  N   UNL     1      22.281  35.620  15.133  1.00  0.00    -0.092 NA
ATOM     29  N   UNL     1      22.576  34.571  15.696  1.00  0.00     0.001 N 
ATOM     30  N   UNL     1      22.819  33.608  16.453  1.00  0.00    -0.003 NA
ENDBRANCH  27  28
ENDBRANCH  26  27
ENDBRANCH  25  26
ENDBRANCH  19  25
BRANCH  20  31
ATOM     31  O   UNL     1      27.367  33.848  14.379  1.00  0.00    -0.387 OA
ATOM     32  H   UNL     1      26.526  33.347  14.590  1.00  0.00     0.211 HD
ENDBRANCH  20  31
BRANCH  21  33
ATOM     33  O   UNL     1      25.917  34.379  16.796  1.00  0.00    -0.385 OA
ATOM     34  H   UNL     1      25.412  33.567  16.580  1.00  0.00     0.211 HD
ENDBRANCH  21  33
ENDBRANCH  15  16
ENDBRANCH  10  15
BRANCH  12  35
ATOM     35  O   UNL     1      31.991  34.882  12.434  1.00  0.00    -0.385 OA
ATOM     36  H   UNL     1      32.684  34.587  13.108  1.00  0.00     0.211 HD
ENDBRANCH  12  35
BRANCH  13  37
ATOM     37  O   UNL     1      31.935  37.942  14.192  1.00  0.00    -0.387 OA
ATOM     38  H   UNL     1      32.727  38.379  14.588  1.00  0.00     0.211 HD
ENDBRANCH  13  37
BRANCH  14  39
ATOM     39  O   UNL     1      30.789  36.648  16.108  1.00  0.00    -0.387 OA
ATOM     40  H   UNL     1      30.168  37.226  15.612  1.00  0.00     0.211 HD
ENDBRANCH  14  39
ENDBRANCH   8   9
ENDBRANCH   7   8
ENDBRANCH   1   7
BRANCH   1  41
ATOM     41  C   UNL     1      29.251  34.289  18.720  1.00  0.00     0.364 C 
ATOM     42  O   UNL     1      29.479  34.051  19.928  1.00  0.00    -0.246 OA
BRANCH  41  43
ATOM     43  O   UNL     1      28.950  35.548  18.307  1.00  0.00    -0.477 OA
ATOM     44  H   UNL     1      29.045  36.378  18.849  1.00  0.00     0.296 HD
ENDBRANCH  41  43
ENDBRANCH   1  41
BRANCH   3  45
ATOM     45  O   UNL     1      30.254  30.671  16.482  1.00  0.00    -0.391 OA
ATOM     46  H   UNL     1      31.126  30.434  16.149  1.00  0.00     0.211 HD
ENDBRANCH   3  45
BRANCH   5  47
ATOM     47  C   UNL     1      26.802  30.896  16.725  1.00  0.00     0.176 C 
BRANCH  47  48
ATOM     48  O   UNL     1      27.415  30.077  15.819  1.00  0.00    -0.388 OA
ATOM     49  H   UNL     1      28.274  30.421  15.456  1.00  0.00     0.211 HD
ENDBRANCH  47  48
BRANCH  47  50
ATOM     50  C   UNL     1      25.473  30.357  17.105  1.00  0.00     0.165 C 
BRANCH  50  51
ATOM     51  O   UNL     1      25.485  28.951  17.262  1.00  0.00    -0.388 OA
ATOM     52  H   UNL     1      26.361  28.573  17.013  1.00  0.00     0.211 HD
ENDBRANCH  50  51
BRANCH  50  53
ATOM     53  C   UNL     1      24.567  30.548  15.867  1.00  0.00     0.154 C 
BRANCH  53  54
ATOM     54  N   UNL     1      24.904  31.767  15.188  1.00  0.00    -0.319 N 
ATOM     55  C   UNL     1      24.740  31.903  13.795  1.00  0.00     0.407 C 
ATOM     56  H   UNL     1      25.287  32.608  15.713  1.00  0.00     0.167 HD
ATOM     57  O   UNL     1      24.272  30.968  13.106  1.00  0.00    -0.225 OA
BRANCH  55  58
ATOM     58  O   UNL     1      25.096  33.086  13.136  1.00  0.00    -0.443 OA
BRANCH  58  59
ATOM     59  C   UNL     1      24.152  33.870  12.461  1.00  0.00     0.294 C 
BRANCH  59  60
ATOM     60  C   UNL     1      24.731  35.191  12.069  1.00  0.00     0.121 A 
ATOM     61  C   UNL     1      25.797  35.347  11.159  1.00  0.00     0.144 A 
ATOM     62  N   UNL     1      24.407  36.418  12.445  1.00  0.00    -0.131 NA
ATOM     63  N   UNL     1      26.061  36.640  11.032  1.00  0.00    -0.219 N 
ATOM     64  N   UNL     1      25.192  37.268  11.834  1.00  0.00    -0.062 NA
BRANCH  63  65
ATOM     65  C   UNL     1      27.011  37.348  10.259  1.00  0.00     0.081 A 
ATOM     66  C   UNL     1      28.244  37.686  10.832  1.00  0.00     0.049 A 
ATOM     67  C   UNL     1      26.816  37.772   8.976  1.00  0.00     0.065 A 
ATOM     68  C   UNL     1      29.176  38.393  10.146  1.00  0.00     0.043 A 
ATOM     69  C   UNL     1      27.782  38.507   8.263  1.00  0.00     0.017 A 
ATOM     70  Cl  UNL     1      30.703  38.785  10.925  1.00  0.00    -0.084 Cl
ATOM     71  C   UNL     1      28.978  38.820   8.861  1.00  0.00     0.021 A 
BRANCH  67  72
ATOM     72  C   UNL     1      25.593  37.445   8.235  1.00  0.00     0.255 C 
ATOM     73  O   UNL     1      25.563  36.391   7.568  1.00  0.00    -0.269 OA
ATOM     74  N   UNL     1      24.489  38.300   8.282  1.00  0.00    -0.345 N 
ATOM     75  C   UNL     1      24.539  39.531   9.066  1.00  0.00     0.146 C 
ATOM     76  C   UNL     1      23.256  37.993   7.562  1.00  0.00     0.146 C 
ENDBRANCH  67  72
ENDBRANCH  63  65
ENDBRANCH  59  60
ENDBRANCH  58  59
ENDBRANCH  55  58
ENDBRANCH  53  54
ENDBRANCH  50  53
ENDBRANCH  47  50
ENDBRANCH   5  47
BRANCH   4  77
ATOM     77  N   UNL     1      28.791  30.265  19.779  1.00  0.00    -0.348 N 
ATOM     78  C   UNL     1      27.994  29.372  20.526  1.00  0.00     0.217 C 
ATOM     79  H   UNL     1      29.464  30.863  20.297  1.00  0.00     0.163 HD
ATOM     80  C   UNL     1      28.083  29.256  22.001  1.00  0.00     0.114 C 
ATOM     81  O   UNL     1      27.171  28.640  19.914  1.00  0.00    -0.275 OA
ENDBRANCH   4  77
TORSDOF 31
BEGIN_RES LYS A 131
REMARK  4 active torsions:
REMARK  status: ('A' for Active; 'I' for Inactive)
REMARK    1  A    between atoms: CA   and  CB  
REMARK    2  A    between atoms: CB   and  CG  
REMARK    3  A    between atoms: CG   and  CD  
REMARK    4  A    between atoms: CD   and  CE  
ROOT
ATOM      1  CA  LYS A 131      29.867  25.555  16.977  1.00 20.52     0.186 C 
ENDROOT
BRANCH   1   2
ATOM      2  CB  LYS A 131      28.345  25.722  17.026  1.00 20.94     0.034 C 
BRANCH   2   3
ATOM      3  CG  LYS A 131      27.601  24.402  16.896  1.00 22.96     0.005 C 
BRANCH   3   4
ATOM      4  CD  LYS A 131      26.634  24.183  18.026  1.00 24.33     0.041 C 
BRANCH   4   5
ATOM      5  CE  LYS A 131      25.988  25.511  18.408  1.00 26.91     0.338 C 
ATOM      6  NZ  LYS A 131      25.606  25.508  19.840  1.00 27.40     0.618 N 
ENDBRANCH   4   5
ENDBRANCH   3   4
ENDBRANCH   2   3
ENDBRANCH   1   2
END_RES LYS A 131
BEGIN_RES LYS A 135
REMARK  4 active torsions:
REMARK  status: ('A' for Active; 'I' for Inactive)
REMARK    5  A    between atoms: CA   and  CB  
REMARK    6  A    between atoms: CB   and  CG  
REMARK    7  A    between atoms: CG   and  CD  
REMARK    8  A    between atoms: CD   and  CE  
ROOT
ATOM      7  CA  LYS A 135      33.193  34.663   9.290  1.00 25.02     0.186 C 
ENDROOT
BRANCH   7   8
ATOM      8  CB  LYS A 135      32.060  35.360  10.034  1.00 26.63     0.034 C 
BRANCH   8   9
ATOM      9  CG  LYS A 135      30.815  35.541   9.204  1.00 29.45     0.005 C 
BRANCH   9  10
ATOM     10  CD  LYS A 135      30.033  34.239   9.119  1.00 32.00     0.041 C 
BRANCH  10  11
ATOM     11  CE  LYS A 135      28.669  34.477   8.501  1.00 34.25     0.338 C 
ATOM     12  NZ  LYS A 135      28.784  35.221   7.216  1.00 35.99     0.618 N 
ENDBRANCH  10  11
ENDBRANCH   9  10
ENDBRANCH   8   9
ENDBRANCH   7   8
END_RES LYS A 135
