REMARK VINA RESULT:    -7.578      4.548      8.527
REMARK INTER + INTRA:         -21.631
REMARK INTER:                  -8.502
REMARK INTRA:                 -13.129
REMARK UNBOUND:                -1.206
REMARK SMILES CC(=O)N[C@@H]1[C@@H](O)C[C@](OC[C@H]2O[C@@H](O[C@H]3[C@H](O)[C@@H](O)[C@H](OCCN=[N+]=[N-])O[C@@H]3CO)[C@H](O)[C@@H](O)[C@H]2O)(C(=O)O)O[C@H]1C(O)[C@H](O)CNC(=O)OCc1cn(C2CCc3ccccc3NC2=O)nn1
REMARK SMILES IDX 43 1 42 2 9 3 8 4 41 5 6 6 5 7 10 8 11 9 12 10 14 11 13 12
REMARK SMILES IDX 32 13 34 14 36 15 15 16 16 17 29 18 28 19 21 20 17 21 19 22
REMARK SMILES IDX 30 23 31 24 22 26 23 27 24 28 25 29 26 30 27 31 18 32 20 34
REMARK SMILES IDX 33 36 35 38 37 40 38 42 39 43 40 44 7 46 4 48 2 49 1 51 3 52
REMARK SMILES IDX 44 53 45 55 46 56 47 58 48 59 49 60 50 62 51 63 52 64 53 65
REMARK SMILES IDX 54 66 69 67 55 68 68 69 56 70 57 71 66 73 65 74 67 75 64 77
REMARK SMILES IDX 59 78 63 79 60 80 62 81 61 82 58 83
REMARK H PARENT 31 25 18 33 20 35 33 37 35 39 37 41 40 45 7 47 4 50 44 54
REMARK H PARENT 46 57 48 61 65 76
REMARK Flexibility Score: 90.00
ROOT
ATOM      1  C   UNL     1      30.242  33.068  14.611  1.00  0.00     0.176 C 
ENDROOT
BRANCH   1   2
ATOM      2  C   UNL     1      30.490  34.555  14.933  1.00  0.00     0.178 C 
ATOM      3  C   UNL     1      29.920  36.313  13.425  1.00  0.00     0.272 C 
ATOM      4  C   UNL     1      31.347  36.622  13.216  1.00  0.00     0.113 C 
ATOM      5  O   UNL     1      29.599  35.377  14.411  1.00  0.00    -0.332 OA
ATOM      6  C   UNL     1      32.228  35.430  13.378  1.00  0.00     0.145 C 
ATOM      7  C   UNL     1      31.955  34.848  14.758  1.00  0.00     0.142 C 
BRANCH   3   8
ATOM      8  O   UNL     1      29.231  35.921  12.332  1.00  0.00    -0.338 OA
BRANCH   8   9
ATOM      9  C   UNL     1      28.170  35.131  12.335  1.00  0.00     0.199 C 
BRANCH   9  10
ATOM     10  C   UNL     1      26.814  35.504  11.922  1.00  0.00     0.179 C 
ATOM     11  C   UNL     1      24.867  36.336  12.856  1.00  0.00     0.282 C 
ATOM     12  O   UNL     1      26.241  36.190  13.046  1.00  0.00    -0.341 OA
ATOM     13  C   UNL     1      24.379  36.176  11.472  1.00  0.00     0.202 C 
ATOM     14  C   UNL     1      25.304  36.559  10.368  1.00  0.00     0.179 C 
ATOM     15  C   UNL     1      26.735  36.583  10.844  1.00  0.00     0.177 C 
BRANCH  11  16
ATOM     16  O   UNL     1      24.463  37.536  13.478  1.00  0.00    -0.341 OA
BRANCH  16  17
ATOM     17  C   UNL     1      25.373  37.983  14.398  1.00  0.00     0.184 C 
ATOM     18  C   UNL     1      24.992  37.779  15.841  1.00  0.00     0.178 C 
ATOM     19  O   UNL     1      26.107  38.165  16.588  1.00  0.00    -0.341 OA
ATOM     20  C   UNL     1      26.217  39.545  16.668  1.00  0.00     0.281 C 
ATOM     21  C   UNL     1      25.642  39.471  14.228  1.00  0.00     0.180 C 
ATOM     22  C   UNL     1      25.605  40.249  15.493  1.00  0.00     0.202 C 
BRANCH  18  23
ATOM     23  C   UNL     1      24.742  36.319  16.159  1.00  0.00     0.191 C 
BRANCH  23  24
ATOM     24  O   UNL     1      25.885  35.544  15.971  1.00  0.00    -0.394 OA
ATOM     25  H   UNL     1      26.408  35.813  15.185  1.00  0.00     0.210 HD
ENDBRANCH  23  24
ENDBRANCH  18  23
BRANCH  20  26
ATOM     26  O   UNL     1      27.549  39.870  16.845  1.00  0.00    -0.350 OA
BRANCH  26  27
ATOM     27  C   UNL     1      27.811  41.181  16.489  1.00  0.00     0.169 C 
BRANCH  27  28
ATOM     28  C   UNL     1      29.237  41.604  16.641  1.00  0.00     0.119 C 
BRANCH  28  29
ATOM     29  N   UNL     1      29.826  41.771  15.323  1.00  0.00    -0.092 NA
ATOM     30  N   UNL     1      29.269  42.440  14.434  1.00  0.00     0.001 N 
ATOM     31  N   UNL     1      28.878  43.471  13.870  1.00  0.00    -0.003 NA
ENDBRANCH  28  29
ENDBRANCH  27  28
ENDBRANCH  26  27
ENDBRANCH  20  26
BRANCH  21  32
ATOM     32  O   UNL     1      26.814  39.697  13.489  1.00  0.00    -0.387 OA
ATOM     33  H   UNL     1      26.559  40.000  12.580  1.00  0.00     0.211 HD
ENDBRANCH  21  32
BRANCH  22  34
ATOM     34  O   UNL     1      24.298  40.669  15.833  1.00  0.00    -0.385 OA
ATOM     35  H   UNL     1      24.199  41.638  15.790  1.00  0.00     0.211 HD
ENDBRANCH  22  34
ENDBRANCH  16  17
ENDBRANCH  11  16
BRANCH  13  36
ATOM     36  O   UNL     1      23.836  34.898  11.304  1.00  0.00    -0.385 OA
ATOM     37  H   UNL     1      24.474  34.218  11.642  1.00  0.00     0.211 HD
ENDBRANCH  13  36
BRANCH  14  38
ATOM     38  O   UNL     1      24.934  37.740   9.728  1.00  0.00    -0.387 OA
ATOM     39  H   UNL     1      23.962  37.659   9.541  1.00  0.00     0.211 HD
ENDBRANCH  14  38
BRANCH  15  40
ATOM     40  O   UNL     1      27.021  37.840  11.433  1.00  0.00    -0.387 OA
ATOM     41  H   UNL     1      27.993  37.954  11.353  1.00  0.00     0.211 HD
ENDBRANCH  15  40
ENDBRANCH   9  10
ENDBRANCH   8   9
ENDBRANCH   3   8
BRANCH   3  42
ATOM     42  C   UNL     1      29.311  37.557  14.034  1.00  0.00     0.364 C 
ATOM     43  O   UNL     1      29.657  38.667  13.704  1.00  0.00    -0.246 OA
BRANCH  42  44
ATOM     44  O   UNL     1      28.319  37.431  15.012  1.00  0.00    -0.477 OA
ATOM     45  H   UNL     1      28.527  37.172  15.962  1.00  0.00     0.296 HD
ENDBRANCH  42  44
ENDBRANCH   3  42
BRANCH   6  46
ATOM     46  O   UNL     1      31.864  34.501  12.389  1.00  0.00    -0.391 OA
ATOM     47  H   UNL     1      32.490  33.763  12.309  1.00  0.00     0.211 HD
ENDBRANCH   6  46
BRANCH   7  48
ATOM     48  N   UNL     1      32.519  35.725  15.729  1.00  0.00    -0.348 N 
ATOM     49  C   UNL     1      33.929  35.801  15.907  1.00  0.00     0.217 C 
ATOM     50  H   UNL     1      31.915  36.329  16.335  1.00  0.00     0.163 HD
ATOM     51  C   UNL     1      34.565  36.699  16.909  1.00  0.00     0.114 C 
ATOM     52  O   UNL     1      34.639  35.085  15.191  1.00  0.00    -0.275 OA
ENDBRANCH   7  48
ENDBRANCH   1   2
BRANCH   1  53
ATOM     53  O   UNL     1      31.329  32.310  15.059  1.00  0.00    -0.388 OA
ATOM     54  H   UNL     1      32.096  32.857  15.342  1.00  0.00     0.211 HD
ENDBRANCH   1  53
BRANCH   1  55
ATOM     55  C   UNL     1      29.011  32.529  15.243  1.00  0.00     0.165 C 
BRANCH  55  56
ATOM     56  O   UNL     1      28.573  33.222  16.365  1.00  0.00    -0.388 OA
ATOM     57  H   UNL     1      27.704  33.647  16.136  1.00  0.00     0.211 HD
ENDBRANCH  55  56
BRANCH  55  58
ATOM     58  C   UNL     1      29.024  31.076  15.587  1.00  0.00     0.154 C 
BRANCH  58  59
ATOM     59  N   UNL     1      29.555  30.751  16.876  1.00  0.00    -0.319 N 
ATOM     60  C   UNL     1      28.778  30.628  18.051  1.00  0.00     0.407 C 
ATOM     61  H   UNL     1      30.580  30.595  16.957  1.00  0.00     0.167 HD
ATOM     62  O   UNL     1      27.535  30.803  18.026  1.00  0.00    -0.225 OA
BRANCH  60  63
ATOM     63  O   UNL     1      29.400  30.311  19.235  1.00  0.00    -0.443 OA
BRANCH  63  64
ATOM     64  C   UNL     1      30.505  30.983  19.732  1.00  0.00     0.294 C 
BRANCH  64  65
ATOM     65  C   UNL     1      30.504  32.380  19.294  1.00  0.00     0.120 A 
ATOM     66  C   UNL     1      29.836  33.423  19.887  1.00  0.00     0.139 A 
ATOM     67  N   UNL     1      31.143  32.929  18.233  1.00  0.00    -0.132 NA
ATOM     68  N   UNL     1      30.075  34.563  19.193  1.00  0.00    -0.240 N 
ATOM     69  N   UNL     1      30.870  34.223  18.199  1.00  0.00    -0.066 NA
BRANCH  68  70
ATOM     70  C   UNL     1      29.553  35.907  19.493  1.00  0.00     0.198 C 
BRANCH  70  71
ATOM     71  C   UNL     1      30.624  36.615  20.235  1.00  0.00     0.042 CG0
ATOM     72  G   UNL     1      30.492  38.092  20.365  1.00  0.00     0.000 G0
ENDBRANCH  70  71
BRANCH  70  73
ATOM     73  C   UNL     1      29.163  36.480  18.202  1.00  0.00     0.249 C 
ATOM     74  N   UNL     1      29.845  37.403  17.366  1.00  0.00    -0.324 N 
ATOM     75  O   UNL     1      28.046  36.090  17.768  1.00  0.00    -0.272 OA
ATOM     76  H   UNL     1      29.618  37.420  16.348  1.00  0.00     0.170 HD
BRANCH  74  77
ATOM     77  C   UNL     1      30.845  38.330  17.840  1.00  0.00     0.044 A 
ATOM     78  C   UNL     1      31.173  38.674  19.146  1.00  0.00    -0.024 A 
ATOM     79  C   UNL     1      31.528  38.918  16.797  1.00  0.00     0.026 A 
ATOM     80  C   UNL     1      32.164  39.585  19.426  1.00  0.00     0.006 A 
ATOM     81  C   UNL     1      32.528  39.837  17.049  1.00  0.00     0.002 A 
ATOM     82  C   UNL     1      32.835  40.161  18.375  1.00  0.00     0.000 A 
BRANCH  78  83
ATOM     83  C   UNL     1      30.495  38.095  20.341  1.00  0.00     0.040 CG0
ATOM     84  G   UNL     1      30.617  36.615  20.234  1.00  0.00     0.000 G0
ENDBRANCH  78  83
ENDBRANCH  74  77
ENDBRANCH  70  73
ENDBRANCH  68  70
ENDBRANCH  64  65
ENDBRANCH  63  64
ENDBRANCH  60  63
ENDBRANCH  58  59
ENDBRANCH  55  58
ENDBRANCH   1  55
TORSDOF 30
BEGIN_RES LYS A 131
REMARK  4 active torsions:
REMARK  status: ('A' for Active; 'I' for Inactive)
REMARK    1  A    between atoms: CA   and  CB  
REMARK    2  A    between atoms: CB   and  CG  
REMARK    3  A    between atoms: CG   and  CD  
REMARK    4  A    between atoms: CD   and  CE  
ROOT
ATOM      1  CA  LYS A 131      29.867  25.555  16.977  1.00 20.52     0.186 C 
ENDROOT
BRANCH   1   2
ATOM      2  CB  LYS A 131      28.345  25.722  17.026  1.00 20.94     0.034 C 
BRANCH   2   3
ATOM      3  CG  LYS A 131      27.602  24.398  16.935  1.00 22.96     0.005 C 
BRANCH   3   4
ATOM      4  CD  LYS A 131      26.153  24.534  17.311  1.00 24.33     0.041 C 
BRANCH   4   5
ATOM      5  CE  LYS A 131      25.593  23.166  17.684  1.00 26.91     0.338 C 
ATOM      6  NZ  LYS A 131      24.169  23.062  17.288  1.00 27.40     0.618 N 
ENDBRANCH   4   5
ENDBRANCH   3   4
ENDBRANCH   2   3
ENDBRANCH   1   2
END_RES LYS A 131
BEGIN_RES LYS A 135
REMARK  4 active torsions:
REMARK  status: ('A' for Active; 'I' for Inactive)
REMARK    5  A    between atoms: CA   and  CB  
REMARK    6  A    between atoms: CB   and  CG  
REMARK    7  A    between atoms: CG   and  CD  
REMARK    8  A    between atoms: CD   and  CE  
ROOT
ATOM      7  CA  LYS A 135      33.193  34.663   9.290  1.00 25.02     0.186 C 
ENDROOT
BRANCH   7   8
ATOM      8  CB  LYS A 135      32.060  35.360  10.034  1.00 26.63     0.034 C 
BRANCH   8   9
ATOM      9  CG  LYS A 135      30.834  35.587   9.188  1.00 29.45     0.005 C 
BRANCH   9  10
ATOM     10  CD  LYS A 135      30.161  34.266   8.852  1.00 32.00     0.041 C 
BRANCH  10  11
ATOM     11  CE  LYS A 135      28.764  34.502   8.310  1.00 34.25     0.338 C 
ATOM     12  NZ  LYS A 135      27.748  33.752   9.099  1.00 35.99     0.618 N 
ENDBRANCH  10  11
ENDBRANCH   9  10
ENDBRANCH   8   9
ENDBRANCH   7   8
END_RES LYS A 135
