REMARK VINA RESULT:    -5.548      4.001      9.290
REMARK INTER + INTRA:         -21.557
REMARK INTER:                 -10.997
REMARK INTRA:                 -10.560
REMARK UNBOUND:                -7.575
REMARK SMILES CC(=O)N[C@@H]1[C@@H](O)C[C@](OC[C@H]2O[C@@H](O[C@H]3[C@H](O)[C@@H](O)[C@H](OCCN=[N+]=[N-])O[C@@H]3CO)[C@H](O)[C@@H](O)[C@H]2O)(C(=O)O)O[C@H]1C(O)[C@H](O)CNC(=O)OCc1cn(Cc2ccccc2Br)nn1
REMARK SMILES IDX 9 1 8 2 6 3 5 4 42 5 41 6 10 7 11 8 12 9 14 10 13 11 32 12
REMARK SMILES IDX 34 13 36 14 15 15 16 16 29 17 28 18 21 19 17 20 19 21 30 22
REMARK SMILES IDX 31 23 22 25 23 26 24 27 25 28 26 29 27 30 18 31 20 33 33 35
REMARK SMILES IDX 35 37 37 39 38 41 39 42 40 43 7 45 43 47 44 48 45 50 46 51
REMARK SMILES IDX 47 53 48 54 49 55 50 57 51 58 52 59 53 60 54 61 65 62 55 63
REMARK SMILES IDX 64 64 56 65 57 66 58 67 62 68 59 69 61 70 63 71 60 72 4 73
REMARK SMILES IDX 2 74 1 76 3 77
REMARK H PARENT 31 24 18 32 20 34 33 36 35 38 37 40 40 44 7 46 44 49 46 52
REMARK H PARENT 48 56 4 75
REMARK Flexibility Score: inf
ROOT
ATOM      1  C   UNL     1      27.896  38.287   7.154  1.00  0.00     0.272 C 
ATOM      2  C   UNL     1      28.722  37.921   8.323  1.00  0.00     0.113 C 
ATOM      3  C   UNL     1      30.173  38.064   8.036  1.00  0.00     0.145 C 
ATOM      4  C   UNL     1      30.456  39.473   7.595  1.00  0.00     0.142 C 
ATOM      5  C   UNL     1      29.373  40.090   6.797  1.00  0.00     0.178 C 
ATOM      6  O   UNL     1      28.095  39.744   7.060  1.00  0.00    -0.332 OA
ENDROOT
BRANCH   1   7
ATOM      7  O   UNL     1      26.565  38.161   7.312  1.00  0.00    -0.338 OA
BRANCH   7   8
ATOM      8  C   UNL     1      25.846  37.141   7.654  1.00  0.00     0.199 C 
BRANCH   8   9
ATOM      9  C   UNL     1      24.704  37.041   8.564  1.00  0.00     0.179 C 
ATOM     10  C   UNL     1      23.844  36.944  10.688  1.00  0.00     0.282 C 
ATOM     11  O   UNL     1      24.900  37.445   9.889  1.00  0.00    -0.341 OA
ATOM     12  C   UNL     1      22.664  37.840  10.432  1.00  0.00     0.202 C 
ATOM     13  C   UNL     1      22.406  38.004   8.974  1.00  0.00     0.179 C 
ATOM     14  C   UNL     1      23.336  37.281   8.040  1.00  0.00     0.177 C 
BRANCH  10  15
ATOM     15  O   UNL     1      24.282  36.978  11.978  1.00  0.00    -0.341 OA
BRANCH  15  16
ATOM     16  C   UNL     1      24.658  35.807  12.561  1.00  0.00     0.184 C 
ATOM     17  C   UNL     1      24.899  35.847  14.029  1.00  0.00     0.178 C 
ATOM     18  O   UNL     1      26.128  35.245  14.288  1.00  0.00    -0.341 OA
ATOM     19  C   UNL     1      27.101  36.074  13.675  1.00  0.00     0.281 C 
ATOM     20  C   UNL     1      25.820  35.130  11.850  1.00  0.00     0.180 C 
ATOM     21  C   UNL     1      27.134  35.802  12.195  1.00  0.00     0.202 C 
BRANCH  17  22
ATOM     22  C   UNL     1      23.858  35.048  14.810  1.00  0.00     0.191 C 
BRANCH  22  23
ATOM     23  O   UNL     1      24.141  33.684  14.748  1.00  0.00    -0.394 OA
ATOM     24  H   UNL     1      24.575  33.351  15.566  1.00  0.00     0.210 HD
ENDBRANCH  22  23
ENDBRANCH  17  22
BRANCH  19  25
ATOM     25  O   UNL     1      28.302  35.783  14.316  1.00  0.00    -0.350 OA
BRANCH  25  26
ATOM     26  C   UNL     1      28.169  35.819  15.704  1.00  0.00     0.169 C 
BRANCH  26  27
ATOM     27  C   UNL     1      28.233  37.273  16.138  1.00  0.00     0.119 C 
BRANCH  27  28
ATOM     28  N   UNL     1      27.142  37.515  17.048  1.00  0.00    -0.092 NA
ATOM     29  N   UNL     1      26.053  37.945  16.656  1.00  0.00     0.001 N 
ATOM     30  N   UNL     1      25.207  38.757  16.229  1.00  0.00    -0.003 NA
ENDBRANCH  27  28
ENDBRANCH  26  27
ENDBRANCH  25  26
ENDBRANCH  19  25
BRANCH  20  31
ATOM     31  O   UNL     1      25.945  33.801  12.257  1.00  0.00    -0.387 OA
ATOM     32  H   UNL     1      26.839  33.493  11.940  1.00  0.00     0.211 HD
ENDBRANCH  20  31
BRANCH  21  33
ATOM     33  O   UNL     1      27.397  36.905  11.424  1.00  0.00    -0.385 OA
ATOM     34  H   UNL     1      27.524  36.630  10.486  1.00  0.00     0.211 HD
ENDBRANCH  21  33
ENDBRANCH  15  16
ENDBRANCH  10  15
BRANCH  12  35
ATOM     35  O   UNL     1      21.488  37.303  10.982  1.00  0.00    -0.385 OA
ATOM     36  H   UNL     1      20.758  37.915  10.735  1.00  0.00     0.211 HD
ENDBRANCH  12  35
BRANCH  13  37
ATOM     37  O   UNL     1      22.449  39.369   8.656  1.00  0.00    -0.387 OA
ATOM     38  H   UNL     1      21.561  39.778   8.655  1.00  0.00     0.211 HD
ENDBRANCH  13  37
BRANCH  14  39
ATOM     39  O   UNL     1      23.326  37.986   6.845  1.00  0.00    -0.387 OA
ATOM     40  H   UNL     1      24.163  38.395   6.582  1.00  0.00     0.211 HD
ENDBRANCH  14  39
ENDBRANCH   8   9
ENDBRANCH   7   8
ENDBRANCH   1   7
BRANCH   1  41
ATOM     41  C   UNL     1      28.370  37.874   5.817  1.00  0.00     0.364 C 
ATOM     42  O   UNL     1      28.071  38.407   4.724  1.00  0.00    -0.246 OA
BRANCH  41  43
ATOM     43  O   UNL     1      29.225  36.788   5.724  1.00  0.00    -0.477 OA
ATOM     44  H   UNL     1      29.682  36.390   6.545  1.00  0.00     0.296 HD
ENDBRANCH  41  43
ENDBRANCH   1  41
BRANCH   3  45
ATOM     45  O   UNL     1      30.826  37.858   9.294  1.00  0.00    -0.391 OA
ATOM     46  H   UNL     1      31.697  38.300   9.307  1.00  0.00     0.211 HD
ENDBRANCH   3  45
BRANCH   5  47
ATOM     47  C   UNL     1      29.448  41.614   6.932  1.00  0.00     0.176 C 
BRANCH  47  48
ATOM     48  O   UNL     1      30.549  41.903   7.723  1.00  0.00    -0.388 OA
ATOM     49  H   UNL     1      30.746  41.219   8.386  1.00  0.00     0.211 HD
ENDBRANCH  47  48
BRANCH  47  50
ATOM     50  C   UNL     1      28.226  42.198   7.549  1.00  0.00     0.165 C 
BRANCH  50  51
ATOM     51  O   UNL     1      27.854  43.407   6.936  1.00  0.00    -0.388 OA
ATOM     52  H   UNL     1      26.879  43.557   7.038  1.00  0.00     0.211 HD
ENDBRANCH  50  51
BRANCH  50  53
ATOM     53  C   UNL     1      28.472  42.537   8.996  1.00  0.00     0.154 C 
BRANCH  53  54
ATOM     54  N   UNL     1      28.168  41.431   9.832  1.00  0.00    -0.319 N 
ATOM     55  C   UNL     1      29.106  40.780  10.660  1.00  0.00     0.407 C 
ATOM     56  H   UNL     1      27.167  41.075   9.830  1.00  0.00     0.167 HD
ATOM     57  O   UNL     1      30.306  41.152  10.710  1.00  0.00    -0.225 OA
BRANCH  55  58
ATOM     58  O   UNL     1      28.741  39.690  11.460  1.00  0.00    -0.443 OA
BRANCH  58  59
ATOM     59  C   UNL     1      29.196  39.557  12.780  1.00  0.00     0.294 C 
BRANCH  59  60
ATOM     60  C   UNL     1      30.136  38.432  12.989  1.00  0.00     0.120 A 
ATOM     61  C   UNL     1      30.935  38.284  14.133  1.00  0.00     0.138 A 
ATOM     62  N   UNL     1      30.424  37.383  12.212  1.00  0.00    -0.132 NA
ATOM     63  N   UNL     1      31.653  37.175  13.993  1.00  0.00    -0.248 N 
ATOM     64  N   UNL     1      31.327  36.639  12.813  1.00  0.00    -0.067 NA
BRANCH  63  65
ATOM     65  C   UNL     1      32.623  36.577  14.911  1.00  0.00     0.182 C 
BRANCH  65  66
ATOM     66  C   UNL     1      32.109  35.386  15.618  1.00  0.00    -0.012 A 
ATOM     67  C   UNL     1      32.121  34.169  14.915  1.00  0.00     0.007 A 
ATOM     68  C   UNL     1      31.603  35.399  16.889  1.00  0.00     0.023 A 
ATOM     69  C   UNL     1      31.630  33.052  15.519  1.00  0.00     0.000 A 
ATOM     70  C   UNL     1      31.105  34.253  17.489  1.00  0.00     0.016 A 
ATOM     71  Br  UNL     1      31.613  36.998  17.915  1.00  0.00    -0.050 Br
ATOM     72  C   UNL     1      31.124  33.075  16.790  1.00  0.00     0.001 A 
ENDBRANCH  65  66
ENDBRANCH  63  65
ENDBRANCH  59  60
ENDBRANCH  58  59
ENDBRANCH  55  58
ENDBRANCH  53  54
ENDBRANCH  50  53
ENDBRANCH  47  50
ENDBRANCH   5  47
BRANCH   4  73
ATOM     73  N   UNL     1      31.694  39.493   6.859  1.00  0.00    -0.348 N 
ATOM     74  C   UNL     1      32.955  39.802   7.452  1.00  0.00     0.217 C 
ATOM     75  H   UNL     1      31.732  39.281   5.840  1.00  0.00     0.163 HD
ATOM     76  C   UNL     1      34.203  39.806   6.625  1.00  0.00     0.114 C 
ATOM     77  O   UNL     1      32.984  40.065   8.661  1.00  0.00    -0.275 OA
ENDBRANCH   4  73
TORSDOF 31
BEGIN_RES LYS A 131
REMARK  4 active torsions:
REMARK  status: ('A' for Active; 'I' for Inactive)
REMARK    1  A    between atoms: CA   and  CB  
REMARK    2  A    between atoms: CB   and  CG  
REMARK    3  A    between atoms: CG   and  CD  
REMARK    4  A    between atoms: CD   and  CE  
ROOT
ATOM      1  CA  LYS A 131      29.867  25.555  16.977  1.00 20.52     0.186 C 
ENDROOT
BRANCH   1   2
ATOM      2  CB  LYS A 131      28.345  25.722  17.026  1.00 20.94     0.034 C 
BRANCH   2   3
ATOM      3  CG  LYS A 131      27.605  24.393  17.034  1.00 22.96     0.005 C 
BRANCH   3   4
ATOM      4  CD  LYS A 131      26.115  24.574  16.937  1.00 24.33     0.041 C 
BRANCH   4   5
ATOM      5  CE  LYS A 131      25.415  23.427  17.659  1.00 26.91     0.338 C 
ATOM      6  NZ  LYS A 131      25.864  23.351  19.069  1.00 27.40     0.618 N 
ENDBRANCH   4   5
ENDBRANCH   3   4
ENDBRANCH   2   3
ENDBRANCH   1   2
END_RES LYS A 131
BEGIN_RES LYS A 135
REMARK  4 active torsions:
REMARK  status: ('A' for Active; 'I' for Inactive)
REMARK    5  A    between atoms: CA   and  CB  
REMARK    6  A    between atoms: CB   and  CG  
REMARK    7  A    between atoms: CG   and  CD  
REMARK    8  A    between atoms: CD   and  CE  
ROOT
ATOM      7  CA  LYS A 135      33.193  34.663   9.290  1.00 25.02     0.186 C 
ENDROOT
BRANCH   7   8
ATOM      8  CB  LYS A 135      32.060  35.360  10.034  1.00 26.63     0.034 C 
BRANCH   8   9
ATOM      9  CG  LYS A 135      30.748  34.623   9.961  1.00 29.45     0.005 C 
BRANCH   9  10
ATOM     10  CD  LYS A 135      30.342  34.391   8.514  1.00 32.00     0.041 C 
BRANCH  10  11
ATOM     11  CE  LYS A 135      28.832  34.424   8.372  1.00 34.25     0.338 C 
ATOM     12  NZ  LYS A 135      28.172  33.707   9.498  1.00 35.99     0.618 N 
ENDBRANCH  10  11
ENDBRANCH   9  10
ENDBRANCH   8   9
ENDBRANCH   7   8
END_RES LYS A 135
