REMARK VINA RESULT:    -4.591      3.701      9.514
REMARK INTER + INTRA:         -22.782
REMARK INTER:                 -12.193
REMARK INTRA:                 -10.589
REMARK UNBOUND:               -11.213
REMARK SMILES CC(=O)N[C@@H]1[C@@H](O)C[C@](OC[C@H]2O[C@@H](O[C@H]3[C@H](O)[C@@H](O)[C@H](OCCN=[N+]=[N-])O[C@@H]3CO)[C@H](O)[C@@H](O)[C@H]2O)(C(=O)O)O[C@H]1C(O)[C@H](O)CNC(=O)OCc1cn(CC2=CC[C@H]3C[C@@H]2C3(C)C)nn1
REMARK SMILES IDX 9 1 8 2 6 3 5 4 42 5 41 6 10 7 11 8 12 9 14 10 13 11 32 12
REMARK SMILES IDX 34 13 36 14 15 15 16 16 29 17 28 18 21 19 17 20 19 21 30 22
REMARK SMILES IDX 31 23 22 25 23 26 24 27 25 28 26 29 27 30 18 31 20 33 33 35
REMARK SMILES IDX 35 37 37 39 38 41 39 42 40 43 7 45 43 47 44 48 45 50 46 51
REMARK SMILES IDX 47 53 48 54 49 55 50 57 51 58 52 59 53 60 54 61 67 62 55 63
REMARK SMILES IDX 66 64 56 65 57 66 58 67 62 68 59 69 61 70 63 71 60 72 64 73
REMARK SMILES IDX 65 74 4 75 2 76 1 78 3 79
REMARK H PARENT 31 24 18 32 20 34 33 36 35 38 37 40 40 44 7 46 44 49 46 52
REMARK H PARENT 48 56 4 77
REMARK Flexibility Score: inf
ROOT
ATOM      1  C   UNL     1      26.909  36.075  14.365  1.00  0.00     0.272 C 
ATOM      2  C   UNL     1      25.785  35.502  15.166  1.00  0.00     0.113 C 
ATOM      3  C   UNL     1      25.684  33.985  14.927  1.00  0.00     0.145 C 
ATOM      4  C   UNL     1      25.377  33.699  13.502  1.00  0.00     0.142 C 
ATOM      5  C   UNL     1      25.636  34.977  12.730  1.00  0.00     0.178 C 
ATOM      6  O   UNL     1      26.825  35.530  13.039  1.00  0.00    -0.332 OA
ENDROOT
BRANCH   1   7
ATOM      7  O   UNL     1      28.140  35.785  14.757  1.00  0.00    -0.338 OA
BRANCH   7   8
ATOM      8  C   UNL     1      29.188  36.559  14.875  1.00  0.00     0.199 C 
BRANCH   8   9
ATOM      9  C   UNL     1      30.596  36.138  14.913  1.00  0.00     0.179 C 
ATOM     10  C   UNL     1      31.925  34.617  16.039  1.00  0.00     0.282 C 
ATOM     11  O   UNL     1      30.625  34.916  15.654  1.00  0.00    -0.341 OA
ATOM     12  C   UNL     1      32.959  34.839  15.029  1.00  0.00     0.202 C 
ATOM     13  C   UNL     1      32.601  35.486  13.750  1.00  0.00     0.179 C 
ATOM     14  C   UNL     1      31.115  35.640  13.549  1.00  0.00     0.177 C 
BRANCH  10  15
ATOM     15  O   UNL     1      31.880  33.250  16.378  1.00  0.00    -0.341 OA
BRANCH  15  16
ATOM     16  C   UNL     1      30.641  32.862  16.856  1.00  0.00     0.184 C 
ATOM     17  C   UNL     1      30.755  32.413  18.284  1.00  0.00     0.178 C 
ATOM     18  O   UNL     1      29.673  31.677  18.735  1.00  0.00    -0.341 OA
ATOM     19  C   UNL     1      28.578  31.646  17.922  1.00  0.00     0.281 C 
ATOM     20  C   UNL     1      30.223  31.631  16.045  1.00  0.00     0.180 C 
ATOM     21  C   UNL     1      28.876  31.176  16.519  1.00  0.00     0.202 C 
BRANCH  17  22
ATOM     22  C   UNL     1      30.898  33.663  19.160  1.00  0.00     0.191 C 
BRANCH  22  23
ATOM     23  O   UNL     1      30.141  34.674  18.587  1.00  0.00    -0.394 OA
ATOM     24  H   UNL     1      30.752  35.452  18.406  1.00  0.00     0.210 HD
ENDBRANCH  22  23
ENDBRANCH  17  22
BRANCH  19  25
ATOM     25  O   UNL     1      27.942  32.893  17.852  1.00  0.00    -0.350 OA
BRANCH  25  26
ATOM     26  C   UNL     1      26.986  33.046  18.858  1.00  0.00     0.169 C 
BRANCH  26  27
ATOM     27  C   UNL     1      26.369  34.428  18.628  1.00  0.00     0.119 C 
BRANCH  27  28
ATOM     28  N   UNL     1      27.268  35.444  19.132  1.00  0.00    -0.092 NA
ATOM     29  N   UNL     1      27.389  36.531  18.597  1.00  0.00     0.001 N 
ATOM     30  N   UNL     1      27.585  37.564  17.946  1.00  0.00    -0.003 NA
ENDBRANCH  27  28
ENDBRANCH  26  27
ENDBRANCH  25  26
ENDBRANCH  19  25
BRANCH  20  31
ATOM     31  O   UNL     1      30.118  31.973  14.685  1.00  0.00    -0.387 OA
ATOM     32  H   UNL     1      30.090  31.164  14.129  1.00  0.00     0.211 HD
ENDBRANCH  20  31
BRANCH  21  33
ATOM     33  O   UNL     1      28.711  29.795  16.423  1.00  0.00    -0.385 OA
ATOM     34  H   UNL     1      28.125  29.503  17.178  1.00  0.00     0.211 HD
ENDBRANCH  21  33
ENDBRANCH  15  16
ENDBRANCH  10  15
BRANCH  12  35
ATOM     35  O   UNL     1      33.977  35.625  15.633  1.00  0.00    -0.385 OA
ATOM     36  H   UNL     1      33.710  35.924  16.539  1.00  0.00     0.211 HD
ENDBRANCH  12  35
BRANCH  13  37
ATOM     37  O   UNL     1      33.226  34.876  12.657  1.00  0.00    -0.387 OA
ATOM     38  H   UNL     1      33.108  35.436  11.841  1.00  0.00     0.211 HD
ENDBRANCH  13  37
BRANCH  14  39
ATOM     39  O   UNL     1      30.580  34.350  13.354  1.00  0.00    -0.387 OA
ATOM     40  H   UNL     1      29.839  34.191  13.989  1.00  0.00     0.211 HD
ENDBRANCH  14  39
ENDBRANCH   8   9
ENDBRANCH   7   8
ENDBRANCH   1   7
BRANCH   1  41
ATOM     41  C   UNL     1      26.663  37.515  14.094  1.00  0.00     0.364 C 
ATOM     42  O   UNL     1      26.136  38.254  14.998  1.00  0.00    -0.246 OA
BRANCH  41  43
ATOM     43  O   UNL     1      26.961  38.121  12.920  1.00  0.00    -0.477 OA
ATOM     44  H   UNL     1      27.797  38.626  12.675  1.00  0.00     0.296 HD
ENDBRANCH  41  43
ENDBRANCH   1  41
BRANCH   3  45
ATOM     45  O   UNL     1      26.988  33.527  15.166  1.00  0.00    -0.391 OA
ATOM     46  H   UNL     1      26.976  32.540  15.102  1.00  0.00     0.211 HD
ENDBRANCH   3  45
BRANCH   5  47
ATOM     47  C   UNL     1      25.631  34.700  11.224  1.00  0.00     0.176 C 
BRANCH  47  48
ATOM     48  O   UNL     1      26.815  34.127  10.836  1.00  0.00    -0.388 OA
ATOM     49  H   UNL     1      26.768  33.605   9.987  1.00  0.00     0.211 HD
ENDBRANCH  47  48
BRANCH  47  50
ATOM     50  C   UNL     1      25.354  35.957  10.454  1.00  0.00     0.165 C 
BRANCH  50  51
ATOM     51  O   UNL     1      24.694  36.823  11.372  1.00  0.00    -0.388 OA
ATOM     52  H   UNL     1      25.334  36.856  12.150  1.00  0.00     0.211 HD
ENDBRANCH  50  51
BRANCH  50  53
ATOM     53  C   UNL     1      24.384  35.732   9.338  1.00  0.00     0.154 C 
BRANCH  53  54
ATOM     54  N   UNL     1      24.457  36.677   8.272  1.00  0.00    -0.319 N 
ATOM     55  C   UNL     1      23.588  37.795   8.247  1.00  0.00     0.407 C 
ATOM     56  H   UNL     1      25.168  36.539   7.512  1.00  0.00     0.167 HD
ATOM     57  O   UNL     1      22.758  37.960   9.151  1.00  0.00    -0.225 OA
BRANCH  55  58
ATOM     58  O   UNL     1      23.652  38.718   7.222  1.00  0.00    -0.443 OA
BRANCH  58  59
ATOM     59  C   UNL     1      24.325  39.933   7.235  1.00  0.00     0.294 C 
BRANCH  59  60
ATOM     60  C   UNL     1      25.724  39.872   6.723  1.00  0.00     0.120 A 
ATOM     61  C   UNL     1      26.798  39.209   7.268  1.00  0.00     0.138 A 
ATOM     62  N   UNL     1      26.195  40.469   5.593  1.00  0.00    -0.132 NA
ATOM     63  N   UNL     1      27.864  39.408   6.489  1.00  0.00    -0.248 N 
ATOM     64  N   UNL     1      27.474  40.171   5.487  1.00  0.00    -0.067 NA
BRANCH  63  65
ATOM     65  C   UNL     1      29.226  38.878   6.693  1.00  0.00     0.177 C 
BRANCH  65  66
ATOM     66  C   UNL     1      29.661  39.422   8.022  1.00  0.00    -0.049 C 
ATOM     67  C   UNL     1      29.759  40.752   8.222  1.00  0.00    -0.025 C 
ATOM     68  C   UNL     1      29.994  38.554   9.160  1.00  0.00     0.023 C 
ATOM     69  C   UNL     1      30.340  41.246   9.490  1.00  0.00     0.031 C 
ATOM     70  C   UNL     1      29.352  39.192  10.400  1.00  0.00     0.013 C 
ATOM     71  C   UNL     1      31.322  38.954   9.726  1.00  0.00    -0.026 C 
ATOM     72  C   UNL     1      30.586  40.102  10.432  1.00  0.00    -0.000 C 
ATOM     73  C   UNL     1      31.877  38.009  10.764  1.00  0.00     0.012 C 
ATOM     74  C   UNL     1      32.381  39.377   8.764  1.00  0.00     0.012 C 
ENDBRANCH  65  66
ENDBRANCH  63  65
ENDBRANCH  59  60
ENDBRANCH  58  59
ENDBRANCH  55  58
ENDBRANCH  53  54
ENDBRANCH  50  53
ENDBRANCH  47  50
ENDBRANCH   5  47
BRANCH   4  75
ATOM     75  N   UNL     1      24.057  33.266  13.199  1.00  0.00    -0.348 N 
ATOM     76  C   UNL     1      23.600  31.942  13.140  1.00  0.00     0.217 C 
ATOM     77  H   UNL     1      23.357  34.038  12.999  1.00  0.00     0.163 HD
ATOM     78  C   UNL     1      22.186  31.629  12.810  1.00  0.00     0.114 C 
ATOM     79  O   UNL     1      24.432  31.048  13.376  1.00  0.00    -0.275 OA
ENDBRANCH   4  75
TORSDOF 31
BEGIN_RES LYS A 131
REMARK  4 active torsions:
REMARK  status: ('A' for Active; 'I' for Inactive)
REMARK    1  A    between atoms: CA   and  CB  
REMARK    2  A    between atoms: CB   and  CG  
REMARK    3  A    between atoms: CG   and  CD  
REMARK    4  A    between atoms: CD   and  CE  
ROOT
ATOM      1  CA  LYS A 131      29.867  25.555  16.977  1.00 20.52     0.186 C 
ENDROOT
BRANCH   1   2
ATOM      2  CB  LYS A 131      28.345  25.722  17.026  1.00 20.94     0.034 C 
BRANCH   2   3
ATOM      3  CG  LYS A 131      27.602  24.398  16.936  1.00 22.96     0.005 C 
BRANCH   3   4
ATOM      4  CD  LYS A 131      26.152  24.536  17.307  1.00 24.33     0.041 C 
BRANCH   4   5
ATOM      5  CE  LYS A 131      25.967  24.183  18.779  1.00 26.91     0.338 C 
ATOM      6  NZ  LYS A 131      25.869  25.413  19.600  1.00 27.40     0.618 N 
ENDBRANCH   4   5
ENDBRANCH   3   4
ENDBRANCH   2   3
ENDBRANCH   1   2
END_RES LYS A 131
BEGIN_RES LYS A 135
REMARK  4 active torsions:
REMARK  status: ('A' for Active; 'I' for Inactive)
REMARK    5  A    between atoms: CA   and  CB  
REMARK    6  A    between atoms: CB   and  CG  
REMARK    7  A    between atoms: CG   and  CD  
REMARK    8  A    between atoms: CD   and  CE  
ROOT
ATOM      7  CA  LYS A 135      33.193  34.663   9.290  1.00 25.02     0.186 C 
ENDROOT
BRANCH   7   8
ATOM      8  CB  LYS A 135      32.060  35.360  10.034  1.00 26.63     0.034 C 
BRANCH   8   9
ATOM      9  CG  LYS A 135      30.689  34.884   9.627  1.00 29.45     0.005 C 
BRANCH   9  10
ATOM     10  CD  LYS A 135      30.669  34.503   8.155  1.00 32.00     0.041 C 
BRANCH  10  11
ATOM     11  CE  LYS A 135      29.570  35.251   7.425  1.00 34.25     0.338 C 
ATOM     12  NZ  LYS A 135      28.260  35.087   8.115  1.00 35.99     0.618 N 
ENDBRANCH  10  11
ENDBRANCH   9  10
ENDBRANCH   8   9
ENDBRANCH   7   8
END_RES LYS A 135
