REMARK VINA RESULT:    -4.883      5.994     11.346
REMARK INTER + INTRA:         -22.087
REMARK INTER:                 -10.674
REMARK INTRA:                 -11.413
REMARK UNBOUND:               -10.068
REMARK SMILES CC(=O)N[C@@H]1[C@@H](O)C[C@](OC[C@H]2O[C@@H](O[C@H]3[C@H](O)[C@@H](O)[C@H](OCCN=[N+]=[N-])O[C@@H]3CO)[C@H](O)[C@@H](O)[C@H]2O)(C(=O)O)O[C@H]1C(O)[C@H](O)CNC(=O)OCc1cn(-c2cnc3ccccc3c2)nn1
REMARK SMILES IDX 9 1 8 2 6 3 5 4 42 5 41 6 10 7 11 8 12 9 14 10 13 11 32 12
REMARK SMILES IDX 34 13 36 14 15 15 16 16 29 17 28 18 21 19 17 20 19 21 30 22
REMARK SMILES IDX 31 23 22 25 23 26 24 27 25 28 26 29 27 30 18 31 20 33 33 35
REMARK SMILES IDX 35 37 37 39 38 41 39 42 40 43 7 45 43 47 44 48 45 50 46 51
REMARK SMILES IDX 47 53 48 54 49 55 50 57 51 58 52 59 53 60 54 61 67 62 55 63
REMARK SMILES IDX 66 64 56 65 57 66 65 67 58 68 64 69 59 70 63 71 60 72 62 73
REMARK SMILES IDX 61 74 4 75 2 76 1 78 3 79
REMARK H PARENT 31 24 18 32 20 34 33 36 35 38 37 40 40 44 7 46 44 49 46 52
REMARK H PARENT 48 56 4 77
REMARK Flexibility Score: inf
ROOT
ATOM      1  C   UNL     1      26.281  38.179   7.295  1.00  0.00     0.272 C 
ATOM      2  C   UNL     1      26.434  36.721   7.050  1.00  0.00     0.113 C 
ATOM      3  C   UNL     1      27.745  36.181   7.588  1.00  0.00     0.145 C 
ATOM      4  C   UNL     1      27.835  36.705   9.022  1.00  0.00     0.142 C 
ATOM      5  C   UNL     1      28.009  38.227   8.900  1.00  0.00     0.178 C 
ATOM      6  O   UNL     1      26.726  38.651   8.495  1.00  0.00    -0.332 OA
ENDROOT
BRANCH   1   7
ATOM      7  O   UNL     1      24.926  38.566   7.234  1.00  0.00    -0.338 OA
BRANCH   7   8
ATOM      8  C   UNL     1      24.064  37.709   7.859  1.00  0.00     0.199 C 
BRANCH   8   9
ATOM      9  C   UNL     1      22.917  38.514   8.432  1.00  0.00     0.179 C 
ATOM     10  C   UNL     1      20.946  38.414   9.604  1.00  0.00     0.282 C 
ATOM     11  O   UNL     1      22.187  37.837   9.387  1.00  0.00    -0.341 OA
ATOM     12  C   UNL     1      20.929  39.882   9.292  1.00  0.00     0.202 C 
ATOM     13  C   UNL     1      22.227  40.569   9.526  1.00  0.00     0.179 C 
ATOM     14  C   UNL     1      23.312  39.898   8.735  1.00  0.00     0.177 C 
BRANCH  10  15
ATOM     15  O   UNL     1      20.528  38.129  10.885  1.00  0.00    -0.341 OA
BRANCH  15  16
ATOM     16  C   UNL     1      21.154  37.005  11.424  1.00  0.00     0.184 C 
ATOM     17  C   UNL     1      20.203  35.858  11.664  1.00  0.00     0.178 C 
ATOM     18  O   UNL     1      20.284  35.269  12.887  1.00  0.00    -0.341 OA
ATOM     19  C   UNL     1      21.528  35.000  13.387  1.00  0.00     0.281 C 
ATOM     20  C   UNL     1      22.010  37.342  12.613  1.00  0.00     0.180 C 
ATOM     21  C   UNL     1      22.547  36.085  13.221  1.00  0.00     0.202 C 
BRANCH  17  22
ATOM     22  C   UNL     1      20.240  34.873  10.494  1.00  0.00     0.191 C 
BRANCH  22  23
ATOM     23  O   UNL     1      21.450  34.919   9.808  1.00  0.00    -0.394 OA
ATOM     24  H   UNL     1      22.135  35.437  10.277  1.00  0.00     0.210 HD
ENDBRANCH  22  23
ENDBRANCH  17  22
BRANCH  19  25
ATOM     25  O   UNL     1      22.026  33.758  12.985  1.00  0.00    -0.350 OA
BRANCH  25  26
ATOM     26  C   UNL     1      23.365  33.802  12.660  1.00  0.00     0.169 C 
BRANCH  26  27
ATOM     27  C   UNL     1      24.103  32.571  13.131  1.00  0.00     0.119 C 
BRANCH  27  28
ATOM     28  N   UNL     1      23.189  31.463  13.320  1.00  0.00    -0.092 NA
ATOM     29  N   UNL     1      23.368  30.365  12.793  1.00  0.00     0.001 N 
ATOM     30  N   UNL     1      23.742  29.205  12.615  1.00  0.00    -0.003 NA
ENDBRANCH  27  28
ENDBRANCH  26  27
ENDBRANCH  25  26
ENDBRANCH  19  25
BRANCH  20  31
ATOM     31  O   UNL     1      23.112  38.095  12.152  1.00  0.00    -0.387 OA
ATOM     32  H   UNL     1      23.641  38.431  12.926  1.00  0.00     0.211 HD
ENDBRANCH  20  31
BRANCH  21  33
ATOM     33  O   UNL     1      23.141  36.449  14.453  1.00  0.00    -0.385 OA
ATOM     34  H   UNL     1      23.960  35.891  14.604  1.00  0.00     0.211 HD
ENDBRANCH  21  33
ENDBRANCH  15  16
ENDBRANCH  10  15
BRANCH  12  35
ATOM     35  O   UNL     1      20.493  40.172   8.002  1.00  0.00    -0.385 OA
ATOM     36  H   UNL     1      20.494  41.143   7.822  1.00  0.00     0.211 HD
ENDBRANCH  12  35
BRANCH  13  37
ATOM     37  O   UNL     1      22.530  40.610  10.890  1.00  0.00    -0.387 OA
ATOM     38  H   UNL     1      22.158  39.830  11.334  1.00  0.00     0.211 HD
ENDBRANCH  13  37
BRANCH  14  39
ATOM     39  O   UNL     1      24.486  40.017   9.471  1.00  0.00    -0.387 OA
ATOM     40  H   UNL     1      24.733  40.941   9.661  1.00  0.00     0.211 HD
ENDBRANCH  14  39
ENDBRANCH   8   9
ENDBRANCH   7   8
ENDBRANCH   1   7
BRANCH   1  41
ATOM     41  C   UNL     1      27.044  38.918   6.230  1.00  0.00     0.364 C 
ATOM     42  O   UNL     1      27.481  40.096   6.442  1.00  0.00    -0.246 OA
BRANCH  41  43
ATOM     43  O   UNL     1      27.325  38.409   4.983  1.00  0.00    -0.477 OA
ATOM     44  H   UNL     1      28.211  38.592   4.488  1.00  0.00     0.296 HD
ENDBRANCH  41  43
ENDBRANCH   1  41
BRANCH   3  45
ATOM     45  O   UNL     1      27.810  34.809   7.540  1.00  0.00    -0.391 OA
ATOM     46  H   UNL     1      28.189  34.490   8.385  1.00  0.00     0.211 HD
ENDBRANCH   3  45
BRANCH   5  47
ATOM     47  C   UNL     1      28.235  38.865  10.242  1.00  0.00     0.176 C 
BRANCH  47  48
ATOM     48  O   UNL     1      27.285  38.301  11.135  1.00  0.00    -0.388 OA
ATOM     49  H   UNL     1      26.696  37.659  10.664  1.00  0.00     0.211 HD
ENDBRANCH  47  48
BRANCH  47  50
ATOM     50  C   UNL     1      27.986  40.366  10.281  1.00  0.00     0.165 C 
BRANCH  50  51
ATOM     51  O   UNL     1      28.643  40.814   9.080  1.00  0.00    -0.388 OA
ATOM     52  H   UNL     1      28.949  40.006   8.606  1.00  0.00     0.211 HD
ENDBRANCH  50  51
BRANCH  50  53
ATOM     53  C   UNL     1      28.820  41.010  11.369  1.00  0.00     0.154 C 
BRANCH  53  54
ATOM     54  N   UNL     1      28.430  40.749  12.703  1.00  0.00    -0.319 N 
ATOM     55  C   UNL     1      27.425  41.454  13.400  1.00  0.00     0.407 C 
ATOM     56  H   UNL     1      28.942  39.960  13.211  1.00  0.00     0.167 HD
ATOM     57  O   UNL     1      26.830  42.386  12.826  1.00  0.00    -0.225 OA
BRANCH  55  58
ATOM     58  O   UNL     1      27.148  41.078  14.694  1.00  0.00    -0.443 OA
BRANCH  58  59
ATOM     59  C   UNL     1      26.020  40.319  15.039  1.00  0.00     0.294 C 
BRANCH  59  60
ATOM     60  C   UNL     1      26.233  38.888  14.654  1.00  0.00     0.121 A 
ATOM     61  C   UNL     1      27.111  37.996  15.173  1.00  0.00     0.144 A 
ATOM     62  N   UNL     1      25.540  38.259  13.675  1.00  0.00    -0.131 NA
ATOM     63  N   UNL     1      26.929  36.847  14.495  1.00  0.00    -0.219 N 
ATOM     64  N   UNL     1      25.968  37.018  13.583  1.00  0.00    -0.062 NA
BRANCH  63  65
ATOM     65  C   UNL     1      27.664  35.649  14.732  1.00  0.00     0.085 A 
ATOM     66  C   UNL     1      27.016  34.456  14.777  1.00  0.00     0.140 A 
ATOM     67  C   UNL     1      29.036  35.734  14.904  1.00  0.00     0.040 A 
ATOM     68  N   UNL     1      27.727  33.332  14.996  1.00  0.00    -0.254 NA
ATOM     69  C   UNL     1      29.738  34.584  15.124  1.00  0.00     0.002 A 
ATOM     70  C   UNL     1      29.052  33.404  15.164  1.00  0.00     0.070 A 
ATOM     71  C   UNL     1      31.105  34.642  15.299  1.00  0.00     0.010 A 
ATOM     72  C   UNL     1      29.777  32.233  15.389  1.00  0.00     0.029 A 
ATOM     73  C   UNL     1      31.805  33.468  15.521  1.00  0.00     0.001 A 
ATOM     74  C   UNL     1      31.131  32.246  15.566  1.00  0.00     0.002 A 
ENDBRANCH  63  65
ENDBRANCH  59  60
ENDBRANCH  58  59
ENDBRANCH  55  58
ENDBRANCH  53  54
ENDBRANCH  50  53
ENDBRANCH  47  50
ENDBRANCH   5  47
BRANCH   4  75
ATOM     75  N   UNL     1      28.829  36.037   9.772  1.00  0.00    -0.348 N 
ATOM     76  C   UNL     1      28.465  35.189  10.885  1.00  0.00     0.217 C 
ATOM     77  H   UNL     1      29.850  36.087   9.580  1.00  0.00     0.163 HD
ATOM     78  C   UNL     1      29.482  34.491  11.672  1.00  0.00     0.114 C 
ATOM     79  O   UNL     1      27.228  35.087  11.139  1.00  0.00    -0.275 OA
ENDBRANCH   4  75
TORSDOF 30
BEGIN_RES LYS A 131
REMARK  4 active torsions:
REMARK  status: ('A' for Active; 'I' for Inactive)
REMARK    1  A    between atoms: CA   and  CB  
REMARK    2  A    between atoms: CB   and  CG  
REMARK    3  A    between atoms: CG   and  CD  
REMARK    4  A    between atoms: CD   and  CE  
ROOT
ATOM      1  CA  LYS A 131      29.867  25.555  16.977  1.00 20.52     0.186 C 
ENDROOT
BRANCH   1   2
ATOM      2  CB  LYS A 131      28.345  25.722  17.026  1.00 20.94     0.034 C 
BRANCH   2   3
ATOM      3  CG  LYS A 131      27.601  24.403  16.883  1.00 22.96     0.005 C 
BRANCH   3   4
ATOM      4  CD  LYS A 131      26.640  24.169  18.016  1.00 24.33     0.041 C 
BRANCH   4   5
ATOM      5  CE  LYS A 131      25.423  25.072  17.846  1.00 26.91     0.338 C 
ATOM      6  NZ  LYS A 131      24.498  24.510  16.833  1.00 27.40     0.618 N 
ENDBRANCH   4   5
ENDBRANCH   3   4
ENDBRANCH   2   3
ENDBRANCH   1   2
END_RES LYS A 131
BEGIN_RES LYS A 135
REMARK  4 active torsions:
REMARK  status: ('A' for Active; 'I' for Inactive)
REMARK    5  A    between atoms: CA   and  CB  
REMARK    6  A    between atoms: CB   and  CG  
REMARK    7  A    between atoms: CG   and  CD  
REMARK    8  A    between atoms: CD   and  CE  
ROOT
ATOM      7  CA  LYS A 135      33.193  34.663   9.290  1.00 25.02     0.186 C 
ENDROOT
BRANCH   7   8
ATOM      8  CB  LYS A 135      32.060  35.360  10.034  1.00 26.63     0.034 C 
BRANCH   8   9
ATOM      9  CG  LYS A 135      32.500  36.032  11.309  1.00 29.45     0.005 C 
BRANCH   9  10
ATOM     10  CD  LYS A 135      31.885  37.418  11.425  1.00 32.00     0.041 C 
BRANCH  10  11
ATOM     11  CE  LYS A 135      31.745  38.055  10.056  1.00 34.25     0.338 C 
ATOM     12  NZ  LYS A 135      31.850  39.538  10.141  1.00 35.99     0.618 N 
ENDBRANCH  10  11
ENDBRANCH   9  10
ENDBRANCH   8   9
ENDBRANCH   7   8
END_RES LYS A 135
