REMARK VINA RESULT:    -4.580      2.636      8.015
REMARK INTER + INTRA:         -23.081
REMARK INTER:                 -10.500
REMARK INTRA:                 -12.581
REMARK UNBOUND:               -10.737
REMARK SMILES CC(=O)N[C@@H]1[C@@H](O)C[C@](OC[C@H]2O[C@@H](O[C@H]3[C@H](O)[C@@H](O)[C@H](OCCN=[N+]=[N-])O[C@@H]3CO)[C@H](O)[C@@H](O)[C@H]2O)(C(=O)O)O[C@H]1C(O)[C@H](O)CNC(=O)OCc1cn(CCNC(=O)NCc2ccco2)nn1
REMARK SMILES IDX 43 1 42 2 9 3 8 4 41 5 6 6 5 7 10 8 11 9 12 10 14 11 13 12
REMARK SMILES IDX 32 13 34 14 36 15 15 16 16 17 29 18 28 19 21 20 17 21 19 22
REMARK SMILES IDX 30 23 31 24 22 26 23 27 24 28 25 29 26 30 27 31 18 32 20 34
REMARK SMILES IDX 33 36 35 38 37 40 38 42 39 43 40 44 7 46 4 48 2 49 1 51 3 52
REMARK SMILES IDX 44 53 45 55 46 56 47 58 48 59 49 60 50 62 51 63 52 64 53 65
REMARK SMILES IDX 54 66 69 67 55 68 68 69 56 70 57 71 58 72 59 73 60 75 61 76
REMARK SMILES IDX 62 78 63 79 64 80 67 81 65 82 66 83
REMARK H PARENT 31 25 18 33 20 35 33 37 35 39 37 41 40 45 7 47 4 50 44 54
REMARK H PARENT 46 57 48 61 58 74 61 77
REMARK Flexibility Score: inf
ROOT
ATOM      1  C   UNL     1      29.164  35.586  14.070  1.00  0.00     0.176 C 
ENDROOT
BRANCH   1   2
ATOM      2  C   UNL     1      30.410  35.994  13.350  1.00  0.00     0.178 C 
ATOM      3  C   UNL     1      32.221  34.806  14.330  1.00  0.00     0.272 C 
ATOM      4  C   UNL     1      32.081  35.929  15.409  1.00  0.00     0.113 C 
ATOM      5  O   UNL     1      31.369  35.030  13.309  1.00  0.00    -0.332 OA
ATOM      6  C   UNL     1      31.899  37.270  14.817  1.00  0.00     0.145 C 
ATOM      7  C   UNL     1      30.930  37.350  13.663  1.00  0.00     0.142 C 
BRANCH   3   8
ATOM      8  O   UNL     1      31.812  33.672  14.999  1.00  0.00    -0.338 OA
BRANCH   8   9
ATOM      9  C   UNL     1      31.903  33.582  16.322  1.00  0.00     0.199 C 
BRANCH   9  10
ATOM     10  C   UNL     1      30.853  33.222  17.255  1.00  0.00     0.179 C 
ATOM     11  C   UNL     1      28.928  33.755  18.384  1.00  0.00     0.282 C 
ATOM     12  O   UNL     1      29.741  34.045  17.287  1.00  0.00    -0.341 OA
ATOM     13  C   UNL     1      29.100  32.395  18.954  1.00  0.00     0.202 C 
ATOM     14  C   UNL     1      29.497  31.320  17.984  1.00  0.00     0.179 C 
ATOM     15  C   UNL     1      30.301  31.847  16.832  1.00  0.00     0.177 C 
BRANCH  11  16
ATOM     16  O   UNL     1      27.588  33.977  18.116  1.00  0.00    -0.341 OA
BRANCH  16  17
ATOM     17  C   UNL     1      27.171  35.276  18.469  1.00  0.00     0.184 C 
ATOM     18  C   UNL     1      26.716  35.956  17.211  1.00  0.00     0.178 C 
ATOM     19  O   UNL     1      26.989  37.322  17.221  1.00  0.00    -0.341 OA
ATOM     20  C   UNL     1      28.372  37.449  17.183  1.00  0.00     0.281 C 
ATOM     21  C   UNL     1      28.303  35.935  19.184  1.00  0.00     0.180 C 
ATOM     22  C   UNL     1      28.940  37.095  18.516  1.00  0.00     0.202 C 
BRANCH  18  23
ATOM     23  C   UNL     1      25.195  35.829  17.128  1.00  0.00     0.191 C 
BRANCH  23  24
ATOM     24  O   UNL     1      24.850  34.613  17.756  1.00  0.00    -0.394 OA
ATOM     25  H   UNL     1      23.926  34.416  17.424  1.00  0.00     0.210 HD
ENDBRANCH  23  24
ENDBRANCH  18  23
BRANCH  20  26
ATOM     26  O   UNL     1      28.633  38.803  16.959  1.00  0.00    -0.350 OA
BRANCH  26  27
ATOM     27  C   UNL     1      27.579  39.424  16.290  1.00  0.00     0.169 C 
BRANCH  27  28
ATOM     28  C   UNL     1      28.193  40.140  15.084  1.00  0.00     0.119 C 
BRANCH  28  29
ATOM     29  N   UNL     1      27.658  39.488  13.902  1.00  0.00    -0.092 NA
ATOM     30  N   UNL     1      27.344  40.146  12.899  1.00  0.00     0.001 N 
ATOM     31  N   UNL     1      27.334  40.773  11.826  1.00  0.00    -0.003 NA
ENDBRANCH  28  29
ENDBRANCH  27  28
ENDBRANCH  26  27
ENDBRANCH  20  26
BRANCH  21  32
ATOM     32  O   UNL     1      27.828  36.312  20.456  1.00  0.00    -0.387 OA
ATOM     33  H   UNL     1      27.463  37.215  20.462  1.00  0.00     0.211 HD
ENDBRANCH  21  32
BRANCH  22  34
ATOM     34  O   UNL     1      30.303  36.779  18.289  1.00  0.00    -0.385 OA
ATOM     35  H   UNL     1      30.792  37.652  18.391  1.00  0.00     0.211 HD
ENDBRANCH  22  34
ENDBRANCH  16  17
ENDBRANCH  11  16
BRANCH  13  36
ATOM     36  O   UNL     1      29.897  32.383  20.107  1.00  0.00    -0.385 OA
ATOM     37  H   UNL     1      30.825  32.647  19.916  1.00  0.00     0.211 HD
ENDBRANCH  13  36
BRANCH  14  38
ATOM     38  O   UNL     1      28.388  30.598  17.523  1.00  0.00    -0.387 OA
ATOM     39  H   UNL     1      28.305  29.824  18.146  1.00  0.00     0.211 HD
ENDBRANCH  14  38
BRANCH  15  40
ATOM     40  O   UNL     1      29.602  31.932  15.652  1.00  0.00    -0.387 OA
ATOM     41  H   UNL     1      29.257  32.840  15.566  1.00  0.00     0.211 HD
ENDBRANCH  15  40
ENDBRANCH   9  10
ENDBRANCH   8   9
ENDBRANCH   3   8
BRANCH   3  42
ATOM     42  C   UNL     1      33.654  34.785  14.050  1.00  0.00     0.364 C 
ATOM     43  O   UNL     1      34.490  35.065  14.922  1.00  0.00    -0.246 OA
BRANCH  42  44
ATOM     44  O   UNL     1      34.189  34.456  12.800  1.00  0.00    -0.477 OA
ATOM     45  H   UNL     1      34.682  33.568  12.691  1.00  0.00     0.296 HD
ENDBRANCH  42  44
ENDBRANCH   3  42
BRANCH   6  46
ATOM     46  O   UNL     1      31.449  38.125  15.840  1.00  0.00    -0.391 OA
ATOM     47  H   UNL     1      32.233  38.527  16.293  1.00  0.00     0.211 HD
ENDBRANCH   6  46
BRANCH   7  48
ATOM     48  N   UNL     1      31.621  37.940  12.516  1.00  0.00    -0.348 N 
ATOM     49  C   UNL     1      30.918  38.356  11.377  1.00  0.00     0.217 C 
ATOM     50  H   UNL     1      32.656  38.044  12.571  1.00  0.00     0.163 HD
ATOM     51  C   UNL     1      31.578  38.962  10.181  1.00  0.00     0.114 C 
ATOM     52  O   UNL     1      29.656  38.199  11.379  1.00  0.00    -0.275 OA
ENDBRANCH   7  48
ENDBRANCH   1   2
BRANCH   1  53
ATOM     53  O   UNL     1      29.166  34.149  14.165  1.00  0.00    -0.388 OA
ATOM     54  H   UNL     1      29.638  33.841  13.376  1.00  0.00     0.211 HD
ENDBRANCH   1  53
BRANCH   1  55
ATOM     55  C   UNL     1      27.866  35.864  13.369  1.00  0.00     0.165 C 
BRANCH  55  56
ATOM     56  O   UNL     1      26.943  36.622  14.050  1.00  0.00    -0.388 OA
ATOM     57  H   UNL     1      27.104  36.662  15.025  1.00  0.00     0.211 HD
ENDBRANCH  55  56
BRANCH  55  58
ATOM     58  C   UNL     1      27.227  34.571  12.853  1.00  0.00     0.154 C 
BRANCH  58  59
ATOM     59  N   UNL     1      26.026  34.260  13.590  1.00  0.00    -0.319 N 
ATOM     60  C   UNL     1      25.986  33.328  14.653  1.00  0.00     0.407 C 
ATOM     61  H   UNL     1      25.147  34.747  13.327  1.00  0.00     0.167 HD
ATOM     62  O   UNL     1      27.043  32.732  14.989  1.00  0.00    -0.225 OA
BRANCH  60  63
ATOM     63  O   UNL     1      24.812  33.047  15.343  1.00  0.00    -0.443 OA
BRANCH  63  64
ATOM     64  C   UNL     1      24.247  31.744  15.232  1.00  0.00     0.294 C 
BRANCH  64  65
ATOM     65  C   UNL     1      24.749  30.996  16.426  1.00  0.00     0.120 A 
ATOM     66  C   UNL     1      24.900  29.638  16.500  1.00  0.00     0.138 A 
ATOM     67  N   UNL     1      25.136  31.523  17.613  1.00  0.00    -0.132 NA
ATOM     68  N   UNL     1      25.366  29.382  17.714  1.00  0.00    -0.250 N 
ATOM     69  N   UNL     1      25.507  30.526  18.382  1.00  0.00    -0.067 NA
BRANCH  68  70
ATOM     70  C   UNL     1      25.663  28.045  18.228  1.00  0.00     0.167 C 
BRANCH  70  71
ATOM     71  C   UNL     1      27.056  27.671  17.719  1.00  0.00     0.141 C 
BRANCH  71  72
ATOM     72  N   UNL     1      27.784  27.145  18.837  1.00  0.00    -0.336 N 
ATOM     73  C   UNL     1      28.199  27.919  19.940  1.00  0.00     0.315 C 
ATOM     74  H   UNL     1      28.011  26.115  18.806  1.00  0.00     0.165 HD
ATOM     75  O   UNL     1      27.965  29.145  19.997  1.00  0.00    -0.249 OA
ATOM     76  N   UNL     1      28.899  27.269  21.012  1.00  0.00    -0.331 N 
ATOM     77  H   UNL     1      29.074  26.236  20.922  1.00  0.00     0.165 HD
BRANCH  76  78
ATOM     78  C   UNL     1      29.336  28.022  22.155  1.00  0.00     0.193 C 
BRANCH  78  79
ATOM     79  C   UNL     1      30.663  28.641  21.891  1.00  0.00     0.122 A 
ATOM     80  C   UNL     1      31.876  28.090  22.286  1.00  0.00     0.047 A 
ATOM     81  O   UNL     1      30.897  29.750  21.275  1.00  0.00    -0.467 OA
ATOM     82  C   UNL     1      32.839  28.956  21.856  1.00  0.00     0.042 A 
ATOM     83  C   UNL     1      32.190  29.983  21.228  1.00  0.00     0.195 A 
ENDBRANCH  78  79
ENDBRANCH  76  78
ENDBRANCH  71  72
ENDBRANCH  70  71
ENDBRANCH  68  70
ENDBRANCH  64  65
ENDBRANCH  63  64
ENDBRANCH  60  63
ENDBRANCH  58  59
ENDBRANCH  55  58
ENDBRANCH   1  55
TORSDOF 34
BEGIN_RES LYS A 131
REMARK  4 active torsions:
REMARK  status: ('A' for Active; 'I' for Inactive)
REMARK    1  A    between atoms: CA   and  CB  
REMARK    2  A    between atoms: CB   and  CG  
REMARK    3  A    between atoms: CG   and  CD  
REMARK    4  A    between atoms: CD   and  CE  
ROOT
ATOM      1  CA  LYS A 131      29.867  25.555  16.977  1.00 20.52     0.186 C 
ENDROOT
BRANCH   1   2
ATOM      2  CB  LYS A 131      28.345  25.722  17.026  1.00 20.94     0.034 C 
BRANCH   2   3
ATOM      3  CG  LYS A 131      27.599  24.446  16.669  1.00 22.96     0.005 C 
BRANCH   3   4
ATOM      4  CD  LYS A 131      27.010  23.776  17.880  1.00 24.33     0.041 C 
BRANCH   4   5
ATOM      5  CE  LYS A 131      25.592  23.313  17.566  1.00 26.91     0.338 C 
ATOM      6  NZ  LYS A 131      24.731  24.470  17.227  1.00 27.40     0.618 N 
ENDBRANCH   4   5
ENDBRANCH   3   4
ENDBRANCH   2   3
ENDBRANCH   1   2
END_RES LYS A 131
BEGIN_RES LYS A 135
REMARK  4 active torsions:
REMARK  status: ('A' for Active; 'I' for Inactive)
REMARK    5  A    between atoms: CA   and  CB  
REMARK    6  A    between atoms: CB   and  CG  
REMARK    7  A    between atoms: CG   and  CD  
REMARK    8  A    between atoms: CD   and  CE  
ROOT
ATOM      7  CA  LYS A 135      33.193  34.663   9.290  1.00 25.02     0.186 C 
ENDROOT
BRANCH   7   8
ATOM      8  CB  LYS A 135      32.060  35.360  10.034  1.00 26.63     0.034 C 
BRANCH   8   9
ATOM      9  CG  LYS A 135      30.702  34.772   9.751  1.00 29.45     0.005 C 
BRANCH   9  10
ATOM     10  CD  LYS A 135      30.544  34.475   8.268  1.00 32.00     0.041 C 
BRANCH  10  11
ATOM     11  CE  LYS A 135      29.296  35.140   7.720  1.00 34.25     0.338 C 
ATOM     12  NZ  LYS A 135      28.641  35.985   8.756  1.00 35.99     0.618 N 
ENDBRANCH  10  11
ENDBRANCH   9  10
ENDBRANCH   8   9
ENDBRANCH   7   8
END_RES LYS A 135
