REMARK VINA RESULT:    -4.937      3.626     10.405
REMARK INTER + INTRA:         -24.205
REMARK INTER:                 -11.439
REMARK INTRA:                 -12.766
REMARK UNBOUND:               -11.187
REMARK SMILES CC(=O)N[C@@H]1[C@@H](O)C[C@](OC[C@H]2O[C@@H](O[C@H]3[C@H](O)[C@@H](O)[C@H](OCCN=[N+]=[N-])O[C@@H]3CO)[C@H](O)[C@@H](O)[C@H]2O)(C(=O)O)O[C@H]1C(O)[C@H](O)CNC(=O)OCc1cn(-c2ccc(S(=O)(=O)Nc3nccs3)cc2)nn1
REMARK SMILES IDX 43 1 42 2 9 3 8 4 41 5 6 6 5 7 10 8 11 9 12 10 14 11 13 12
REMARK SMILES IDX 32 13 34 14 36 15 15 16 16 17 29 18 28 19 21 20 17 21 19 22
REMARK SMILES IDX 30 23 31 24 22 26 23 27 24 28 25 29 26 30 27 31 18 32 20 34
REMARK SMILES IDX 33 36 35 38 37 40 38 42 39 43 40 44 7 46 4 48 2 49 1 51 3 52
REMARK SMILES IDX 44 53 45 55 46 56 47 58 48 59 49 60 50 62 51 63 52 64 53 65
REMARK SMILES IDX 54 66 72 67 55 68 71 69 56 70 57 71 70 72 58 73 69 74 59 75
REMARK SMILES IDX 60 76 61 77 62 78 63 79 64 81 65 82 68 83 66 84 67 85
REMARK H PARENT 31 25 18 33 20 35 33 37 35 39 37 41 40 45 7 47 4 50 44 54
REMARK H PARENT 46 57 48 61 63 80
REMARK Flexibility Score: inf
ROOT
ATOM      1  C   UNL     1      27.550  34.812  16.495  1.00  0.00     0.176 C 
ENDROOT
BRANCH   1   2
ATOM      2  C   UNL     1      28.529  34.058  17.331  1.00  0.00     0.178 C 
ATOM      3  C   UNL     1      29.947  32.236  16.964  1.00  0.00     0.272 C 
ATOM      4  C   UNL     1      30.281  32.636  18.418  1.00  0.00     0.113 C 
ATOM      5  O   UNL     1      28.841  32.913  16.533  1.00  0.00    -0.332 OA
ATOM      6  C   UNL     1      29.088  32.712  19.293  1.00  0.00     0.145 C 
ATOM      7  C   UNL     1      27.952  33.460  18.592  1.00  0.00     0.142 C 
BRANCH   3   8
ATOM      8  O   UNL     1      29.688  30.890  16.897  1.00  0.00    -0.338 OA
BRANCH   8   9
ATOM      9  C   UNL     1      28.756  30.523  15.959  1.00  0.00     0.199 C 
BRANCH   9  10
ATOM     10  C   UNL     1      27.755  29.514  16.472  1.00  0.00     0.179 C 
ATOM     11  C   UNL     1      27.188  28.033  18.043  1.00  0.00     0.282 C 
ATOM     12  O   UNL     1      27.935  29.214  17.818  1.00  0.00    -0.341 OA
ATOM     13  C   UNL     1      25.748  28.464  18.181  1.00  0.00     0.202 C 
ATOM     14  C   UNL     1      25.579  29.890  17.648  1.00  0.00     0.179 C 
ATOM     15  C   UNL     1      26.335  30.040  16.342  1.00  0.00     0.177 C 
BRANCH  11  16
ATOM     16  O   UNL     1      27.596  27.352  19.139  1.00  0.00    -0.341 OA
BRANCH  16  17
ATOM     17  C   UNL     1      28.048  28.122  20.196  1.00  0.00     0.184 C 
ATOM     18  C   UNL     1      29.254  27.664  20.909  1.00  0.00     0.178 C 
ATOM     19  O   UNL     1      29.170  28.130  22.251  1.00  0.00    -0.341 OA
ATOM     20  C   UNL     1      28.263  27.354  22.987  1.00  0.00     0.281 C 
ATOM     21  C   UNL     1      26.922  28.415  21.178  1.00  0.00     0.180 C 
ATOM     22  C   UNL     1      26.896  27.409  22.330  1.00  0.00     0.202 C 
BRANCH  18  23
ATOM     23  C   UNL     1      30.564  28.279  20.418  1.00  0.00     0.191 C 
BRANCH  23  24
ATOM     24  O   UNL     1      30.411  29.356  19.600  1.00  0.00    -0.394 OA
ATOM     25  H   UNL     1      30.463  30.190  20.121  1.00  0.00     0.210 HD
ENDBRANCH  23  24
ENDBRANCH  18  23
BRANCH  20  26
ATOM     26  O   UNL     1      28.210  27.864  24.265  1.00  0.00    -0.350 OA
BRANCH  26  27
ATOM     27  C   UNL     1      28.399  26.955  25.274  1.00  0.00     0.169 C 
BRANCH  27  28
ATOM     28  C   UNL     1      28.690  25.556  24.784  1.00  0.00     0.119 C 
BRANCH  28  29
ATOM     29  N   UNL     1      27.666  24.694  25.315  1.00  0.00    -0.092 NA
ATOM     30  N   UNL     1      26.549  24.695  24.803  1.00  0.00     0.001 N 
ATOM     31  N   UNL     1      25.346  24.911  24.647  1.00  0.00    -0.003 NA
ENDBRANCH  28  29
ENDBRANCH  27  28
ENDBRANCH  26  27
ENDBRANCH  20  26
BRANCH  21  32
ATOM     32  O   UNL     1      27.079  29.674  21.755  1.00  0.00    -0.387 OA
ATOM     33  H   UNL     1      26.237  29.994  22.153  1.00  0.00     0.211 HD
ENDBRANCH  21  32
BRANCH  22  34
ATOM     34  O   UNL     1      26.444  26.166  21.908  1.00  0.00    -0.385 OA
ATOM     35  H   UNL     1      27.137  25.511  22.148  1.00  0.00     0.211 HD
ENDBRANCH  22  34
ENDBRANCH  16  17
ENDBRANCH  11  16
BRANCH  13  36
ATOM     36  O   UNL     1      24.883  27.701  17.358  1.00  0.00    -0.385 OA
ATOM     37  H   UNL     1      25.370  27.206  16.684  1.00  0.00     0.211 HD
ENDBRANCH  13  36
BRANCH  14  38
ATOM     38  O   UNL     1      25.962  30.820  18.604  1.00  0.00    -0.387 OA
ATOM     39  H   UNL     1      26.098  31.722  18.213  1.00  0.00     0.211 HD
ENDBRANCH  14  38
BRANCH  15  40
ATOM     40  O   UNL     1      26.314  31.381  15.990  1.00  0.00    -0.387 OA
ATOM     41  H   UNL     1      26.724  31.978  16.637  1.00  0.00     0.211 HD
ENDBRANCH  15  40
ENDBRANCH   9  10
ENDBRANCH   8   9
ENDBRANCH   3   8
BRANCH   3  42
ATOM     42  C   UNL     1      31.131  32.598  16.183  1.00  0.00     0.364 C 
ATOM     43  O   UNL     1      31.897  33.558  16.522  1.00  0.00    -0.246 OA
BRANCH  42  44
ATOM     44  O   UNL     1      31.503  31.930  15.030  1.00  0.00    -0.477 OA
ATOM     45  H   UNL     1      30.809  31.364  14.524  1.00  0.00     0.296 HD
ENDBRANCH  42  44
ENDBRANCH   3  42
BRANCH   6  46
ATOM     46  O   UNL     1      28.655  31.465  19.743  1.00  0.00    -0.391 OA
ATOM     47  H   UNL     1      29.173  31.206  20.543  1.00  0.00     0.211 HD
ENDBRANCH   6  46
BRANCH   7  48
ATOM     48  N   UNL     1      27.338  34.372  19.490  1.00  0.00    -0.348 N 
ATOM     49  C   UNL     1      25.939  34.296  19.741  1.00  0.00     0.217 C 
ATOM     50  H   UNL     1      27.876  35.107  19.986  1.00  0.00     0.163 HD
ATOM     51  C   UNL     1      25.226  35.199  20.658  1.00  0.00     0.114 C 
ATOM     52  O   UNL     1      25.253  33.397  19.144  1.00  0.00    -0.275 OA
ENDBRANCH   7  48
ENDBRANCH   1   2
BRANCH   1  53
ATOM     53  O   UNL     1      27.355  34.088  15.276  1.00  0.00    -0.388 OA
ATOM     54  H   UNL     1      26.465  34.254  14.914  1.00  0.00     0.211 HD
ENDBRANCH   1  53
BRANCH   1  55
ATOM     55  C   UNL     1      27.902  36.232  16.158  1.00  0.00     0.165 C 
BRANCH  55  56
ATOM     56  O   UNL     1      26.720  36.727  15.507  1.00  0.00    -0.388 OA
ATOM     57  H   UNL     1      26.991  37.376  14.809  1.00  0.00     0.211 HD
ENDBRANCH  55  56
BRANCH  55  58
ATOM     58  C   UNL     1      28.952  36.307  15.057  1.00  0.00     0.154 C 
BRANCH  58  59
ATOM     59  N   UNL     1      28.253  36.577  13.829  1.00  0.00    -0.319 N 
ATOM     60  C   UNL     1      28.340  35.749  12.679  1.00  0.00     0.407 C 
ATOM     61  H   UNL     1      27.620  37.438  13.739  1.00  0.00     0.167 HD
ATOM     62  O   UNL     1      29.027  34.721  12.689  1.00  0.00    -0.225 OA
BRANCH  60  63
ATOM     63  O   UNL     1      27.664  36.065  11.507  1.00  0.00    -0.443 OA
BRANCH  63  64
ATOM     64  C   UNL     1      26.334  35.740  11.207  1.00  0.00     0.294 C 
BRANCH  64  65
ATOM     65  C   UNL     1      25.562  35.173  12.325  1.00  0.00     0.121 A 
ATOM     66  C   UNL     1      25.144  33.845  12.453  1.00  0.00     0.144 A 
ATOM     67  N   UNL     1      25.109  35.770  13.427  1.00  0.00    -0.131 NA
ATOM     68  N   UNL     1      24.461  33.685  13.615  1.00  0.00    -0.220 N 
ATOM     69  N   UNL     1      24.457  34.875  14.186  1.00  0.00    -0.062 NA
BRANCH  68  70
ATOM     70  C   UNL     1      23.890  32.448  14.076  1.00  0.00     0.066 A 
ATOM     71  C   UNL     1      24.028  31.276  13.390  1.00  0.00     0.030 A 
ATOM     72  C   UNL     1      23.165  32.462  15.255  1.00  0.00     0.030 A 
ATOM     73  C   UNL     1      23.443  30.106  13.873  1.00  0.00     0.024 A 
ATOM     74  C   UNL     1      22.570  31.337  15.772  1.00  0.00     0.024 A 
ATOM     75  C   UNL     1      22.731  30.162  15.047  1.00  0.00     0.088 A 
BRANCH  75  76
ATOM     76  S   UNL     1      21.980  28.716  15.676  1.00  0.00     0.263 S 
ATOM     77  O   UNL     1      22.234  28.679  17.170  1.00  0.00    -0.201 OA
ATOM     78  O   UNL     1      22.704  27.548  15.066  1.00  0.00    -0.201 OA
BRANCH  76  79
ATOM     79  N   UNL     1      20.320  28.709  15.301  1.00  0.00    -0.255 N 
ATOM     80  H   UNL     1      19.640  28.797  16.077  1.00  0.00     0.182 HD
BRANCH  79  81
ATOM     81  C   UNL     1      19.909  28.587  13.984  1.00  0.00     0.196 A 
ATOM     82  N   UNL     1      20.403  28.523  12.809  1.00  0.00    -0.228 NA
ATOM     83  S   UNL     1      18.106  28.469  13.555  1.00  0.00    -0.105 S 
ATOM     84  C   UNL     1      19.744  28.410  11.715  1.00  0.00     0.125 A 
ATOM     85  C   UNL     1      18.377  28.347  11.753  1.00  0.00     0.089 A 
ENDBRANCH  79  81
ENDBRANCH  76  79
ENDBRANCH  75  76
ENDBRANCH  68  70
ENDBRANCH  64  65
ENDBRANCH  63  64
ENDBRANCH  60  63
ENDBRANCH  58  59
ENDBRANCH  55  58
ENDBRANCH   1  55
TORSDOF 33
BEGIN_RES LYS A 131
REMARK  4 active torsions:
REMARK  status: ('A' for Active; 'I' for Inactive)
REMARK    1  A    between atoms: CA   and  CB  
REMARK    2  A    between atoms: CB   and  CG  
REMARK    3  A    between atoms: CG   and  CD  
REMARK    4  A    between atoms: CD   and  CE  
ROOT
ATOM      1  CA  LYS A 131      29.867  25.555  16.977  1.00 20.52     0.186 C 
ENDROOT
BRANCH   1   2
ATOM      2  CB  LYS A 131      28.345  25.722  17.026  1.00 20.94     0.034 C 
BRANCH   2   3
ATOM      3  CG  LYS A 131      27.601  24.403  16.882  1.00 22.96     0.005 C 
BRANCH   3   4
ATOM      4  CD  LYS A 131      26.151  24.527  17.260  1.00 24.33     0.041 C 
BRANCH   4   5
ATOM      5  CE  LYS A 131      25.580  23.142  17.546  1.00 26.91     0.338 C 
ATOM      6  NZ  LYS A 131      24.115  23.218  17.756  1.00 27.40     0.618 N 
ENDBRANCH   4   5
ENDBRANCH   3   4
ENDBRANCH   2   3
ENDBRANCH   1   2
END_RES LYS A 131
BEGIN_RES LYS A 135
REMARK  4 active torsions:
REMARK  status: ('A' for Active; 'I' for Inactive)
REMARK    5  A    between atoms: CA   and  CB  
REMARK    6  A    between atoms: CB   and  CG  
REMARK    7  A    between atoms: CG   and  CD  
REMARK    8  A    between atoms: CD   and  CE  
ROOT
ATOM      7  CA  LYS A 135      33.193  34.663   9.290  1.00 25.02     0.186 C 
ENDROOT
BRANCH   7   8
ATOM      8  CB  LYS A 135      32.060  35.360  10.034  1.00 26.63     0.034 C 
BRANCH   8   9
ATOM      9  CG  LYS A 135      31.017  35.954   9.123  1.00 29.45     0.005 C 
BRANCH   9  10
ATOM     10  CD  LYS A 135      30.259  34.858   8.389  1.00 32.00     0.041 C 
BRANCH  10  11
ATOM     11  CE  LYS A 135      29.541  33.955   9.373  1.00 34.25     0.338 C 
ATOM     12  NZ  LYS A 135      28.102  33.813   9.019  1.00 35.99     0.618 N 
ENDBRANCH  10  11
ENDBRANCH   9  10
ENDBRANCH   8   9
ENDBRANCH   7   8
END_RES LYS A 135
