REMARK VINA RESULT:    -4.411      4.916     10.299
REMARK INTER + INTRA:         -21.801
REMARK INTER:                 -10.286
REMARK INTRA:                 -11.515
REMARK UNBOUND:               -10.943
REMARK SMILES CC(=O)N[C@@H]1[C@@H](O)C[C@](OC[C@H]2O[C@@H](O[C@H]3[C@H](O)[C@@H](O)[C@H](OCCN=[N+]=[N-])O[C@@H]3CO)[C@H](O)[C@@H](O)[C@H]2O)(C(=O)O)O[C@H]1C(O)[C@H](O)CNC(=O)OCc1cn([C@@H]2C[C@H]3CC[C@@H](C2)N3C)nn1
REMARK SMILES IDX 9 1 8 2 6 3 5 4 42 5 41 6 10 7 11 8 12 9 14 10 13 11 32 12
REMARK SMILES IDX 34 13 36 14 15 15 16 16 29 17 28 18 21 19 17 20 19 21 30 22
REMARK SMILES IDX 31 23 22 25 23 26 24 27 25 28 26 29 27 30 18 31 20 33 33 35
REMARK SMILES IDX 35 37 37 39 38 41 39 42 40 43 7 45 43 47 44 48 45 50 46 51
REMARK SMILES IDX 47 53 48 54 49 55 50 57 51 58 52 59 53 60 54 61 66 62 55 63
REMARK SMILES IDX 65 64 56 65 62 66 57 67 61 68 58 69 63 70 60 71 59 72 64 73
REMARK SMILES IDX 4 74 2 75 1 77 3 78
REMARK H PARENT 31 24 18 32 20 34 33 36 35 38 37 40 40 44 7 46 44 49 46 52
REMARK H PARENT 48 56 4 76
REMARK Flexibility Score: inf
ROOT
ATOM      1  C   UNL     1      23.752  36.543   9.140  1.00  0.00     0.272 C 
ATOM      2  C   UNL     1      22.670  35.600   8.797  1.00  0.00     0.113 C 
ATOM      3  C   UNL     1      21.508  36.298   8.104  1.00  0.00     0.145 C 
ATOM      4  C   UNL     1      21.042  37.491   8.972  1.00  0.00     0.142 C 
ATOM      5  C   UNL     1      22.188  38.235   9.529  1.00  0.00     0.178 C 
ATOM      6  O   UNL     1      23.327  37.867   8.842  1.00  0.00    -0.332 OA
ENDROOT
BRANCH   1   7
ATOM      7  O   UNL     1      25.011  36.387   8.682  1.00  0.00    -0.338 OA
BRANCH   7   8
ATOM      8  C   UNL     1      25.581  36.780   7.589  1.00  0.00     0.199 C 
BRANCH   8   9
ATOM      9  C   UNL     1      27.058  37.137   7.656  1.00  0.00     0.179 C 
ATOM     10  C   UNL     1      27.804  39.224   6.871  1.00  0.00     0.282 C 
ATOM     11  O   UNL     1      27.326  37.983   6.570  1.00  0.00    -0.341 OA
ATOM     12  C   UNL     1      29.031  39.217   7.721  1.00  0.00     0.202 C 
ATOM     13  C   UNL     1      28.760  38.392   8.931  1.00  0.00     0.179 C 
ATOM     14  C   UNL     1      27.404  37.779   8.963  1.00  0.00     0.177 C 
BRANCH  10  15
ATOM     15  O   UNL     1      26.828  40.110   7.294  1.00  0.00    -0.341 OA
BRANCH  15  16
ATOM     16  C   UNL     1      26.881  41.349   6.689  1.00  0.00     0.184 C 
ATOM     17  C   UNL     1      26.757  42.453   7.662  1.00  0.00     0.178 C 
ATOM     18  O   UNL     1      26.976  43.703   7.074  1.00  0.00    -0.341 OA
ATOM     19  C   UNL     1      26.926  43.673   5.680  1.00  0.00     0.281 C 
ATOM     20  C   UNL     1      25.619  41.502   5.774  1.00  0.00     0.180 C 
ATOM     21  C   UNL     1      25.789  42.838   5.127  1.00  0.00     0.202 C 
BRANCH  17  22
ATOM     22  C   UNL     1      27.535  42.347   8.926  1.00  0.00     0.191 C 
BRANCH  22  23
ATOM     23  O   UNL     1      26.945  41.426   9.788  1.00  0.00    -0.394 OA
ATOM     24  H   UNL     1      27.360  41.511  10.681  1.00  0.00     0.210 HD
ENDBRANCH  22  23
ENDBRANCH  17  22
BRANCH  19  25
ATOM     25  O   UNL     1      28.146  43.417   5.118  1.00  0.00    -0.350 OA
BRANCH  25  26
ATOM     26  C   UNL     1      28.248  43.211   3.788  1.00  0.00     0.169 C 
BRANCH  26  27
ATOM     27  C   UNL     1      28.958  41.972   3.383  1.00  0.00     0.119 C 
BRANCH  27  28
ATOM     28  N   UNL     1      30.338  41.912   3.723  1.00  0.00    -0.092 NA
ATOM     29  N   UNL     1      30.783  41.271   4.680  1.00  0.00     0.001 N 
ATOM     30  N   UNL     1      31.405  41.116   5.736  1.00  0.00    -0.003 NA
ENDBRANCH  27  28
ENDBRANCH  26  27
ENDBRANCH  25  26
ENDBRANCH  19  25
BRANCH  20  31
ATOM     31  O   UNL     1      25.581  40.519   4.818  1.00  0.00    -0.387 OA
ATOM     32  H   UNL     1      25.827  39.639   5.211  1.00  0.00     0.211 HD
ENDBRANCH  20  31
BRANCH  21  33
ATOM     33  O   UNL     1      24.609  43.583   5.217  1.00  0.00    -0.385 OA
ATOM     34  H   UNL     1      24.635  44.102   6.034  1.00  0.00     0.211 HD
ENDBRANCH  21  33
ENDBRANCH  15  16
ENDBRANCH  10  15
BRANCH  12  35
ATOM     35  O   UNL     1      30.098  38.655   6.990  1.00  0.00    -0.385 OA
ATOM     36  H   UNL     1      30.536  37.984   7.576  1.00  0.00     0.211 HD
ENDBRANCH  12  35
BRANCH  13  37
ATOM     37  O   UNL     1      28.926  39.158  10.109  1.00  0.00    -0.387 OA
ATOM     38  H   UNL     1      29.828  39.559  10.130  1.00  0.00     0.211 HD
ENDBRANCH  13  37
BRANCH  14  39
ATOM     39  O   UNL     1      26.463  38.719   9.401  1.00  0.00    -0.387 OA
ATOM     40  H   UNL     1      26.749  38.977  10.325  1.00  0.00     0.211 HD
ENDBRANCH  14  39
ENDBRANCH   8   9
ENDBRANCH   7   8
ENDBRANCH   1   7
BRANCH   1  41
ATOM     41  C   UNL     1      23.915  36.504  10.646  1.00  0.00     0.364 C 
ATOM     42  O   UNL     1      24.867  37.000  11.270  1.00  0.00    -0.246 OA
BRANCH  41  43
ATOM     43  O   UNL     1      22.942  35.873  11.427  1.00  0.00    -0.477 OA
ATOM     44  H   UNL     1      22.059  36.353  11.638  1.00  0.00     0.296 HD
ENDBRANCH  41  43
ENDBRANCH   1  41
BRANCH   3  45
ATOM     45  O   UNL     1      21.765  36.675   6.805  1.00  0.00    -0.391 OA
ATOM     46  H   UNL     1      22.135  35.879   6.316  1.00  0.00     0.211 HD
ENDBRANCH   3  45
BRANCH   5  47
ATOM     47  C   UNL     1      22.095  39.762   9.159  1.00  0.00     0.176 C 
BRANCH  47  48
ATOM     48  O   UNL     1      22.377  39.755   7.725  1.00  0.00    -0.388 OA
ATOM     49  H   UNL     1      23.069  40.473   7.602  1.00  0.00     0.211 HD
ENDBRANCH  47  48
BRANCH  47  50
ATOM     50  C   UNL     1      23.242  40.549   9.698  1.00  0.00     0.165 C 
BRANCH  50  51
ATOM     51  O   UNL     1      24.366  40.363   8.925  1.00  0.00    -0.388 OA
ATOM     52  H   UNL     1      24.957  41.127   8.839  1.00  0.00     0.211 HD
ENDBRANCH  50  51
BRANCH  50  53
ATOM     53  C   UNL     1      23.474  40.442  11.158  1.00  0.00     0.154 C 
BRANCH  53  54
ATOM     54  N   UNL     1      24.848  40.022  11.433  1.00  0.00    -0.319 N 
ATOM     55  C   UNL     1      25.356  40.014  12.737  1.00  0.00     0.407 C 
ATOM     56  H   UNL     1      25.431  39.728  10.635  1.00  0.00     0.167 HD
ATOM     57  O   UNL     1      24.599  40.381  13.684  1.00  0.00    -0.225 OA
BRANCH  55  58
ATOM     58  O   UNL     1      26.654  39.622  13.042  1.00  0.00    -0.443 OA
BRANCH  58  59
ATOM     59  C   UNL     1      26.898  38.438  13.792  1.00  0.00     0.294 C 
BRANCH  59  60
ATOM     60  C   UNL     1      28.175  37.809  13.333  1.00  0.00     0.120 A 
ATOM     61  C   UNL     1      28.510  36.472  13.378  1.00  0.00     0.138 A 
ATOM     62  N   UNL     1      29.226  38.423  12.800  1.00  0.00    -0.132 NA
ATOM     63  N   UNL     1      29.743  36.306  12.878  1.00  0.00    -0.249 N 
ATOM     64  N   UNL     1      30.154  37.540  12.531  1.00  0.00    -0.067 NA
BRANCH  63  65
ATOM     65  C   UNL     1      30.535  35.112  12.708  1.00  0.00     0.112 C 
ATOM     66  C   UNL     1      32.014  35.364  12.705  1.00  0.00     0.046 C 
ATOM     67  C   UNL     1      30.258  34.193  13.908  1.00  0.00     0.046 C 
ATOM     68  C   UNL     1      32.493  35.754  14.078  1.00  0.00     0.058 C 
ATOM     69  C   UNL     1      30.720  34.868  15.185  1.00  0.00     0.058 C 
ATOM     70  N   UNL     1      31.318  36.147  14.845  1.00  0.00    -0.300 NA
ATOM     71  C   UNL     1      33.035  34.579  14.848  1.00  0.00     0.021 C 
ATOM     72  C   UNL     1      31.918  34.130  15.749  1.00  0.00     0.021 C 
ATOM     73  C   UNL     1      31.765  36.866  15.999  1.00  0.00     0.105 C 
ENDBRANCH  63  65
ENDBRANCH  59  60
ENDBRANCH  58  59
ENDBRANCH  55  58
ENDBRANCH  53  54
ENDBRANCH  50  53
ENDBRANCH  47  50
ENDBRANCH   5  47
BRANCH   4  74
ATOM     74  N   UNL     1      20.095  36.952   9.957  1.00  0.00    -0.348 N 
ATOM     75  C   UNL     1      18.718  37.393   9.972  1.00  0.00     0.217 C 
ATOM     76  H   UNL     1      20.336  36.248  10.679  1.00  0.00     0.163 HD
ATOM     77  C   UNL     1      17.712  36.906  10.920  1.00  0.00     0.114 C 
ATOM     78  O   UNL     1      18.399  38.242   9.113  1.00  0.00    -0.275 OA
ENDBRANCH   4  74
TORSDOF 30
BEGIN_RES LYS A 131
REMARK  4 active torsions:
REMARK  status: ('A' for Active; 'I' for Inactive)
REMARK    1  A    between atoms: CA   and  CB  
REMARK    2  A    between atoms: CB   and  CG  
REMARK    3  A    between atoms: CG   and  CD  
REMARK    4  A    between atoms: CD   and  CE  
ROOT
ATOM      1  CA  LYS A 131      29.867  25.555  16.977  1.00 20.52     0.186 C 
ENDROOT
BRANCH   1   2
ATOM      2  CB  LYS A 131      28.345  25.722  17.026  1.00 20.94     0.034 C 
BRANCH   2   3
ATOM      3  CG  LYS A 131      27.602  24.399  16.924  1.00 22.96     0.005 C 
BRANCH   3   4
ATOM      4  CD  LYS A 131      26.579  24.238  18.014  1.00 24.33     0.041 C 
BRANCH   4   5
ATOM      5  CE  LYS A 131      26.432  25.554  18.772  1.00 26.91     0.338 C 
ATOM      6  NZ  LYS A 131      25.029  26.027  18.724  1.00 27.40     0.618 N 
ENDBRANCH   4   5
ENDBRANCH   3   4
ENDBRANCH   2   3
ENDBRANCH   1   2
END_RES LYS A 131
BEGIN_RES LYS A 135
REMARK  4 active torsions:
REMARK  status: ('A' for Active; 'I' for Inactive)
REMARK    5  A    between atoms: CA   and  CB  
REMARK    6  A    between atoms: CB   and  CG  
REMARK    7  A    between atoms: CG   and  CD  
REMARK    8  A    between atoms: CD   and  CE  
ROOT
ATOM      7  CA  LYS A 135      33.193  34.663   9.290  1.00 25.02     0.186 C 
ENDROOT
BRANCH   7   8
ATOM      8  CB  LYS A 135      32.060  35.360  10.034  1.00 26.63     0.034 C 
BRANCH   8   9
ATOM      9  CG  LYS A 135      30.790  35.470   9.231  1.00 29.45     0.005 C 
BRANCH   9  10
ATOM     10  CD  LYS A 135      30.147  34.103   9.054  1.00 32.00     0.041 C 
BRANCH  10  11
ATOM     11  CE  LYS A 135      28.686  34.246   8.672  1.00 34.25     0.338 C 
ATOM     12  NZ  LYS A 135      27.796  33.769   9.767  1.00 35.99     0.618 N 
ENDBRANCH  10  11
ENDBRANCH   9  10
ENDBRANCH   8   9
ENDBRANCH   7   8
END_RES LYS A 135
