REMARK VINA RESULT:    -4.757      2.375      6.568
REMARK INTER + INTRA:         -22.249
REMARK INTER:                 -11.636
REMARK INTRA:                 -10.614
REMARK UNBOUND:               -10.541
REMARK SMILES CC(=O)N[C@@H]1[C@@H](O)C[C@](OC[C@H]2O[C@@H](O[C@H]3[C@H](O)[C@@H](O)[C@H](OCCN=[N+]=[N-])O[C@@H]3CO)[C@H](O)[C@@H](O)[C@H]2O)(C(=O)O)O[C@H]1C(O)[C@H](O)CNC(=O)OCc1cn(-c2ccccc2)nn1
REMARK SMILES IDX 9 1 8 2 6 3 5 4 42 5 41 6 10 7 11 8 12 9 14 10 13 11 32 12
REMARK SMILES IDX 34 13 36 14 15 15 16 16 29 17 28 18 21 19 17 20 19 21 30 22
REMARK SMILES IDX 31 23 22 25 23 26 24 27 25 28 26 29 27 30 18 31 20 33 33 35
REMARK SMILES IDX 35 37 37 39 38 41 39 42 40 43 7 45 43 47 44 48 45 50 46 51
REMARK SMILES IDX 47 53 48 54 49 55 50 57 51 58 52 59 53 60 54 61 63 62 55 63
REMARK SMILES IDX 62 64 56 65 57 66 61 67 58 68 60 69 59 70 4 71 2 72 1 74
REMARK SMILES IDX 3 75
REMARK H PARENT 31 24 18 32 20 34 33 36 35 38 37 40 40 44 7 46 44 49 46 52
REMARK H PARENT 48 56 4 73
REMARK Flexibility Score: inf
ROOT
ATOM      1  C   UNL     1      28.709  33.464  16.407  1.00  0.00     0.272 C 
ATOM      2  C   UNL     1      29.439  34.662  15.924  1.00  0.00     0.113 C 
ATOM      3  C   UNL     1      28.911  35.264  14.676  1.00  0.00     0.145 C 
ATOM      4  C   UNL     1      27.393  35.284  14.695  1.00  0.00     0.142 C 
ATOM      5  C   UNL     1      26.958  33.846  14.868  1.00  0.00     0.178 C 
ATOM      6  O   UNL     1      27.305  33.508  16.151  1.00  0.00    -0.332 OA
ENDROOT
BRANCH   1   7
ATOM      7  O   UNL     1      28.739  33.265  17.756  1.00  0.00    -0.338 OA
BRANCH   7   8
ATOM      8  C   UNL     1      29.840  33.192  18.481  1.00  0.00     0.199 C 
BRANCH   8   9
ATOM      9  C   UNL     1      30.016  32.244  19.602  1.00  0.00     0.179 C 
ATOM     10  C   UNL     1      28.737  30.745  20.853  1.00  0.00     0.282 C 
ATOM     11  O   UNL     1      28.690  31.816  19.934  1.00  0.00    -0.341 OA
ATOM     12  C   UNL     1      30.099  30.453  21.388  1.00  0.00     0.202 C 
ATOM     13  C   UNL     1      31.071  30.132  20.273  1.00  0.00     0.179 C 
ATOM     14  C   UNL     1      30.722  30.984  19.087  1.00  0.00     0.177 C 
BRANCH  10  15
ATOM     15  O   UNL     1      28.262  29.649  20.231  1.00  0.00    -0.341 OA
BRANCH  15  16
ATOM     16  C   UNL     1      26.970  29.280  20.311  1.00  0.00     0.184 C 
ATOM     17  C   UNL     1      26.526  28.256  19.292  1.00  0.00     0.178 C 
ATOM     18  O   UNL     1      25.134  28.428  19.165  1.00  0.00    -0.341 OA
ATOM     19  C   UNL     1      24.979  29.497  18.256  1.00  0.00     0.281 C 
ATOM     20  C   UNL     1      26.005  30.464  20.247  1.00  0.00     0.180 C 
ATOM     21  C   UNL     1      25.629  30.750  18.808  1.00  0.00     0.202 C 
BRANCH  17  22
ATOM     22  C   UNL     1      26.749  26.836  19.765  1.00  0.00     0.191 C 
BRANCH  22  23
ATOM     23  O   UNL     1      28.125  26.588  19.782  1.00  0.00    -0.394 OA
ATOM     24  H   UNL     1      28.649  27.444  19.874  1.00  0.00     0.210 HD
ENDBRANCH  22  23
ENDBRANCH  17  22
BRANCH  19  25
ATOM     25  O   UNL     1      23.672  29.762  17.987  1.00  0.00    -0.350 OA
BRANCH  25  26
ATOM     26  C   UNL     1      23.047  28.999  17.040  1.00  0.00     0.169 C 
BRANCH  26  27
ATOM     27  C   UNL     1      23.714  28.968  15.701  1.00  0.00     0.119 C 
BRANCH  27  28
ATOM     28  N   UNL     1      22.807  29.228  14.646  1.00  0.00    -0.092 NA
ATOM     29  N   UNL     1      22.613  30.378  14.209  1.00  0.00     0.001 N 
ATOM     30  N   UNL     1      22.304  31.579  14.139  1.00  0.00    -0.003 NA
ENDBRANCH  27  28
ENDBRANCH  26  27
ENDBRANCH  25  26
ENDBRANCH  19  25
BRANCH  20  31
ATOM     31  O   UNL     1      24.824  30.240  20.941  1.00  0.00    -0.387 OA
ATOM     32  H   UNL     1      24.687  30.912  21.652  1.00  0.00     0.211 HD
ENDBRANCH  20  31
BRANCH  21  33
ATOM     33  O   UNL     1      26.713  31.124  18.040  1.00  0.00    -0.385 OA
ATOM     34  H   UNL     1      27.003  30.432  17.404  1.00  0.00     0.211 HD
ENDBRANCH  21  33
ENDBRANCH  15  16
ENDBRANCH  10  15
BRANCH  12  35
ATOM     35  O   UNL     1      30.581  31.387  22.297  1.00  0.00    -0.385 OA
ATOM     36  H   UNL     1      29.928  32.132  22.331  1.00  0.00     0.211 HD
ENDBRANCH  12  35
BRANCH  13  37
ATOM     37  O   UNL     1      30.922  28.803  19.924  1.00  0.00    -0.387 OA
ATOM     38  H   UNL     1      30.936  28.177  20.691  1.00  0.00     0.211 HD
ENDBRANCH  13  37
BRANCH  14  39
ATOM     39  O   UNL     1      29.778  30.335  18.258  1.00  0.00    -0.387 OA
ATOM     40  H   UNL     1      30.216  29.870  17.516  1.00  0.00     0.211 HD
ENDBRANCH  14  39
ENDBRANCH   8   9
ENDBRANCH   7   8
ENDBRANCH   1   7
BRANCH   1  41
ATOM     41  C   UNL     1      29.122  32.275  15.628  1.00  0.00     0.364 C 
ATOM     42  O   UNL     1      28.556  31.189  15.747  1.00  0.00    -0.246 OA
BRANCH  41  43
ATOM     43  O   UNL     1      30.196  32.365  14.718  1.00  0.00    -0.477 OA
ATOM     44  H   UNL     1      30.355  31.584  14.084  1.00  0.00     0.296 HD
ENDBRANCH  41  43
ENDBRANCH   1  41
BRANCH   3  45
ATOM     45  O   UNL     1      29.437  36.543  14.514  1.00  0.00    -0.391 OA
ATOM     46  H   UNL     1      28.685  37.152  14.414  1.00  0.00     0.211 HD
ENDBRANCH   3  45
BRANCH   5  47
ATOM     47  C   UNL     1      25.441  33.717  14.782  1.00  0.00     0.176 C 
BRANCH  47  48
ATOM     48  O   UNL     1      25.156  32.592  14.056  1.00  0.00    -0.388 OA
ATOM     49  H   UNL     1      24.232  32.540  13.726  1.00  0.00     0.211 HD
ENDBRANCH  47  48
BRANCH  47  50
ATOM     50  C   UNL     1      24.719  33.769  16.063  1.00  0.00     0.165 C 
BRANCH  50  51
ATOM     51  O   UNL     1      24.357  32.419  16.370  1.00  0.00    -0.388 OA
ATOM     52  H   UNL     1      23.436  32.453  16.686  1.00  0.00     0.211 HD
ENDBRANCH  50  51
BRANCH  50  53
ATOM     53  C   UNL     1      23.358  34.473  15.929  1.00  0.00     0.154 C 
BRANCH  53  54
ATOM     54  N   UNL     1      23.007  34.711  14.552  1.00  0.00    -0.319 N 
ATOM     55  C   UNL     1      22.660  36.024  14.078  1.00  0.00     0.407 C 
ATOM     56  H   UNL     1      22.986  33.961  13.831  1.00  0.00     0.167 HD
ATOM     57  O   UNL     1      22.665  37.007  14.853  1.00  0.00    -0.225 OA
BRANCH  55  58
ATOM     58  O   UNL     1      22.315  36.234  12.755  1.00  0.00    -0.443 OA
BRANCH  58  59
ATOM     59  C   UNL     1      22.284  35.162  11.820  1.00  0.00     0.294 C 
BRANCH  59  60
ATOM     60  C   UNL     1      23.670  35.067  11.274  1.00  0.00     0.121 A 
ATOM     61  C   UNL     1      24.043  35.587  10.042  1.00  0.00     0.144 A 
ATOM     62  N   UNL     1      24.777  34.517  11.781  1.00  0.00    -0.131 NA
ATOM     63  N   UNL     1      25.362  35.338   9.837  1.00  0.00    -0.220 N 
ATOM     64  N   UNL     1      25.771  34.691  10.906  1.00  0.00    -0.062 NA
BRANCH  63  65
ATOM     65  C   UNL     1      26.130  35.699   8.701  1.00  0.00     0.066 A 
ATOM     66  C   UNL     1      26.023  36.941   8.119  1.00  0.00     0.028 A 
ATOM     67  C   UNL     1      27.017  34.798   8.154  1.00  0.00     0.028 A 
ATOM     68  C   UNL     1      26.771  37.303   7.018  1.00  0.00     0.002 A 
ATOM     69  C   UNL     1      27.767  35.166   7.047  1.00  0.00     0.002 A 
ATOM     70  C   UNL     1      27.673  36.400   6.453  1.00  0.00     0.000 A 
ENDBRANCH  63  65
ENDBRANCH  59  60
ENDBRANCH  58  59
ENDBRANCH  55  58
ENDBRANCH  53  54
ENDBRANCH  50  53
ENDBRANCH  47  50
ENDBRANCH   5  47
BRANCH   4  71
ATOM     71  N   UNL     1      26.855  35.977  13.579  1.00  0.00    -0.348 N 
ATOM     72  C   UNL     1      26.162  37.198  13.792  1.00  0.00     0.217 C 
ATOM     73  H   UNL     1      26.959  35.635  12.607  1.00  0.00     0.163 HD
ATOM     74  C   UNL     1      25.586  37.949  12.636  1.00  0.00     0.114 C 
ATOM     75  O   UNL     1      26.004  37.698  14.948  1.00  0.00    -0.275 OA
ENDBRANCH   4  71
TORSDOF 30
BEGIN_RES LYS A 131
REMARK  4 active torsions:
REMARK  status: ('A' for Active; 'I' for Inactive)
REMARK    1  A    between atoms: CA   and  CB  
REMARK    2  A    between atoms: CB   and  CG  
REMARK    3  A    between atoms: CG   and  CD  
REMARK    4  A    between atoms: CD   and  CE  
ROOT
ATOM      1  CA  LYS A 131      29.867  25.555  16.977  1.00 20.52     0.186 C 
ENDROOT
BRANCH   1   2
ATOM      2  CB  LYS A 131      28.345  25.722  17.026  1.00 20.94     0.034 C 
BRANCH   2   3
ATOM      3  CG  LYS A 131      27.599  24.462  16.615  1.00 22.96     0.005 C 
BRANCH   3   4
ATOM      4  CD  LYS A 131      26.787  23.891  17.745  1.00 24.33     0.041 C 
BRANCH   4   5
ATOM      5  CE  LYS A 131      25.321  23.817  17.331  1.00 26.91     0.338 C 
ATOM      6  NZ  LYS A 131      24.717  25.170  17.318  1.00 27.40     0.618 N 
ENDBRANCH   4   5
ENDBRANCH   3   4
ENDBRANCH   2   3
ENDBRANCH   1   2
END_RES LYS A 131
BEGIN_RES LYS A 135
REMARK  4 active torsions:
REMARK  status: ('A' for Active; 'I' for Inactive)
REMARK    5  A    between atoms: CA   and  CB  
REMARK    6  A    between atoms: CB   and  CG  
REMARK    7  A    between atoms: CG   and  CD  
REMARK    8  A    between atoms: CD   and  CE  
ROOT
ATOM      7  CA  LYS A 135      33.193  34.663   9.290  1.00 25.02     0.186 C 
ENDROOT
BRANCH   7   8
ATOM      8  CB  LYS A 135      32.060  35.360  10.034  1.00 26.63     0.034 C 
BRANCH   8   9
ATOM      9  CG  LYS A 135      30.767  35.402   9.261  1.00 29.45     0.005 C 
BRANCH   9  10
ATOM     10  CD  LYS A 135      29.949  36.623   9.649  1.00 32.00     0.041 C 
BRANCH  10  11
ATOM     11  CE  LYS A 135      29.060  36.313  10.839  1.00 34.25     0.338 C 
ATOM     12  NZ  LYS A 135      29.036  34.851  11.122  1.00 35.99     0.618 N 
ENDBRANCH  10  11
ENDBRANCH   9  10
ENDBRANCH   8   9
ENDBRANCH   7   8
END_RES LYS A 135
