REMARK VINA RESULT:    -3.474      3.545      9.662
REMARK INTER + INTRA:         -22.261
REMARK INTER:                 -10.465
REMARK INTRA:                 -11.796
REMARK UNBOUND:               -13.100
REMARK SMILES CC(=O)N[C@@H]1[C@@H](O)C[C@](OC[C@H]2O[C@@H](O[C@H]3[C@H](O)[C@@H](O)[C@H](OCCN=[N+]=[N-])O[C@@H]3CO)[C@H](O)[C@@H](O)[C@H]2O)(C(=O)O)O[C@H]1C(O)[C@H](O)CNC(=O)OCc1cn(CCNS(C)(=O)=O)nn1
REMARK SMILES IDX 43 1 42 2 9 3 8 4 41 5 6 6 5 7 10 8 11 9 12 10 14 11 13 12
REMARK SMILES IDX 32 13 34 14 36 15 15 16 16 17 29 18 28 19 21 20 17 21 19 22
REMARK SMILES IDX 30 23 31 24 22 26 23 27 24 28 25 29 26 30 27 31 18 32 20 34
REMARK SMILES IDX 33 36 35 38 37 40 38 42 39 43 40 44 7 46 4 48 2 49 1 51 3 52
REMARK SMILES IDX 44 53 45 55 46 56 47 58 48 59 49 60 50 62 51 63 52 64 53 65
REMARK SMILES IDX 54 66 64 67 55 68 63 69 56 70 57 71 58 72 59 74 61 75 62 76
REMARK SMILES IDX 60 77
REMARK H PARENT 31 25 18 33 20 35 33 37 35 39 37 41 40 45 7 47 4 50 44 54
REMARK H PARENT 46 57 48 61 58 73
REMARK Flexibility Score: inf
ROOT
ATOM      1  C   UNL     1      28.923  36.671  16.817  1.00  0.00     0.176 C 
ENDROOT
BRANCH   1   2
ATOM      2  C   UNL     1      29.861  36.501  15.608  1.00  0.00     0.178 C 
ATOM      3  C   UNL     1      31.415  34.921  14.853  1.00  0.00     0.272 C 
ATOM      4  C   UNL     1      32.573  35.834  14.922  1.00  0.00     0.113 C 
ATOM      5  O   UNL     1      30.413  35.274  15.749  1.00  0.00    -0.332 OA
ATOM      6  C   UNL     1      32.284  37.207  15.464  1.00  0.00     0.145 C 
ATOM      7  C   UNL     1      30.851  37.598  15.573  1.00  0.00     0.142 C 
BRANCH   3   8
ATOM      8  O   UNL     1      31.673  33.578  15.147  1.00  0.00    -0.338 OA
BRANCH   8   9
ATOM      9  C   UNL     1      31.635  33.311  16.505  1.00  0.00     0.199 C 
BRANCH   9  10
ATOM     10  C   UNL     1      30.820  32.093  16.769  1.00  0.00     0.179 C 
ATOM     11  C   UNL     1      29.883  30.734  18.380  1.00  0.00     0.282 C 
ATOM     12  O   UNL     1      30.450  31.988  18.099  1.00  0.00    -0.341 OA
ATOM     13  C   UNL     1      28.621  30.518  17.621  1.00  0.00     0.202 C 
ATOM     14  C   UNL     1      28.973  30.539  16.149  1.00  0.00     0.179 C 
ATOM     15  C   UNL     1      29.713  31.791  15.816  1.00  0.00     0.177 C 
BRANCH  11  16
ATOM     16  O   UNL     1      29.691  30.680  19.728  1.00  0.00    -0.341 OA
BRANCH  16  17
ATOM     17  C   UNL     1      30.331  29.691  20.393  1.00  0.00     0.184 C 
ATOM     18  C   UNL     1      29.728  29.078  21.593  1.00  0.00     0.178 C 
ATOM     19  O   UNL     1      30.754  28.558  22.384  1.00  0.00    -0.341 OA
ATOM     20  C   UNL     1      31.439  29.530  23.053  1.00  0.00     0.281 C 
ATOM     21  C   UNL     1      31.789  30.101  20.738  1.00  0.00     0.180 C 
ATOM     22  C   UNL     1      31.676  30.702  22.123  1.00  0.00     0.202 C 
BRANCH  18  23
ATOM     23  C   UNL     1      28.892  27.861  21.211  1.00  0.00     0.191 C 
BRANCH  23  24
ATOM     24  O   UNL     1      29.207  27.466  19.890  1.00  0.00    -0.394 OA
ATOM     25  H   UNL     1      30.054  27.858  19.585  1.00  0.00     0.210 HD
ENDBRANCH  23  24
ENDBRANCH  18  23
BRANCH  20  26
ATOM     26  O   UNL     1      32.649  29.045  23.573  1.00  0.00    -0.350 OA
BRANCH  26  27
ATOM     27  C   UNL     1      33.274  29.899  24.446  1.00  0.00     0.169 C 
BRANCH  27  28
ATOM     28  C   UNL     1      34.749  29.667  24.362  1.00  0.00     0.119 C 
BRANCH  28  29
ATOM     29  N   UNL     1      35.217  29.600  22.983  1.00  0.00    -0.092 NA
ATOM     30  N   UNL     1      35.370  30.703  22.429  1.00  0.00     0.001 N 
ATOM     31  N   UNL     1      35.550  31.604  21.618  1.00  0.00    -0.003 NA
ENDBRANCH  28  29
ENDBRANCH  27  28
ENDBRANCH  26  27
ENDBRANCH  20  26
BRANCH  21  32
ATOM     32  O   UNL     1      32.588  28.958  20.836  1.00  0.00    -0.387 OA
ATOM     33  H   UNL     1      32.702  28.567  19.929  1.00  0.00     0.211 HD
ENDBRANCH  21  32
BRANCH  22  34
ATOM     34  O   UNL     1      30.709  31.676  22.235  1.00  0.00    -0.385 OA
ATOM     35  H   UNL     1      30.679  32.309  21.473  1.00  0.00     0.211 HD
ENDBRANCH  22  34
ENDBRANCH  16  17
ENDBRANCH  11  16
BRANCH  13  36
ATOM     36  O   UNL     1      28.105  29.234  17.854  1.00  0.00    -0.385 OA
ATOM     37  H   UNL     1      28.818  28.546  17.877  1.00  0.00     0.211 HD
ENDBRANCH  13  36
BRANCH  14  38
ATOM     38  O   UNL     1      27.889  30.279  15.348  1.00  0.00    -0.387 OA
ATOM     39  H   UNL     1      28.153  30.133  14.385  1.00  0.00     0.211 HD
ENDBRANCH  14  38
BRANCH  15  40
ATOM     40  O   UNL     1      28.816  32.855  15.831  1.00  0.00    -0.387 OA
ATOM     41  H   UNL     1      27.904  32.590  16.116  1.00  0.00     0.211 HD
ENDBRANCH  15  40
ENDBRANCH   9  10
ENDBRANCH   8   9
ENDBRANCH   3   8
BRANCH   3  42
ATOM     42  C   UNL     1      30.838  34.889  13.488  1.00  0.00     0.364 C 
ATOM     43  O   UNL     1      31.367  35.526  12.518  1.00  0.00    -0.246 OA
BRANCH  42  44
ATOM     44  O   UNL     1      29.701  34.187  13.141  1.00  0.00    -0.477 OA
ATOM     45  H   UNL     1      29.309  33.440  13.709  1.00  0.00     0.296 HD
ENDBRANCH  42  44
ENDBRANCH   3  42
BRANCH   6  46
ATOM     46  O   UNL     1      32.918  37.408  16.681  1.00  0.00    -0.391 OA
ATOM     47  H   UNL     1      33.476  36.669  16.996  1.00  0.00     0.211 HD
ENDBRANCH   6  46
BRANCH   7  48
ATOM     48  N   UNL     1      30.547  38.503  14.453  1.00  0.00    -0.348 N 
ATOM     49  C   UNL     1      30.648  39.898  14.467  1.00  0.00     0.217 C 
ATOM     50  H   UNL     1      30.247  38.067  13.511  1.00  0.00     0.163 HD
ATOM     51  C   UNL     1      30.293  40.720  13.256  1.00  0.00     0.114 C 
ATOM     52  O   UNL     1      31.035  40.528  15.488  1.00  0.00    -0.275 OA
ENDBRANCH   7  48
ENDBRANCH   1   2
BRANCH   1  53
ATOM     53  O   UNL     1      27.615  36.352  16.414  1.00  0.00    -0.388 OA
ATOM     54  H   UNL     1      27.453  35.427  16.675  1.00  0.00     0.211 HD
ENDBRANCH   1  53
BRANCH   1  55
ATOM     55  C   UNL     1      29.317  35.743  17.907  1.00  0.00     0.165 C 
BRANCH  55  56
ATOM     56  O   UNL     1      28.672  34.531  17.931  1.00  0.00    -0.388 OA
ATOM     57  H   UNL     1      29.249  33.781  18.234  1.00  0.00     0.211 HD
ENDBRANCH  55  56
BRANCH  55  58
ATOM     58  C   UNL     1      29.399  36.347  19.275  1.00  0.00     0.154 C 
BRANCH  58  59
ATOM     59  N   UNL     1      30.666  36.093  19.907  1.00  0.00    -0.319 N 
ATOM     60  C   UNL     1      30.776  34.910  20.734  1.00  0.00     0.407 C 
ATOM     61  H   UNL     1      31.498  36.696  19.811  1.00  0.00     0.167 HD
ATOM     62  O   UNL     1      29.754  34.182  20.814  1.00  0.00    -0.225 OA
BRANCH  60  63
ATOM     63  O   UNL     1      31.943  34.616  21.390  1.00  0.00    -0.443 OA
BRANCH  63  64
ATOM     64  C   UNL     1      32.970  33.912  20.734  1.00  0.00     0.294 C 
BRANCH  64  65
ATOM     65  C   UNL     1      33.929  34.838  20.105  1.00  0.00     0.120 A 
ATOM     66  C   UNL     1      35.248  35.059  20.467  1.00  0.00     0.138 A 
ATOM     67  N   UNL     1      33.721  35.611  19.048  1.00  0.00    -0.132 NA
ATOM     68  N   UNL     1      35.797  35.944  19.635  1.00  0.00    -0.251 N 
ATOM     69  N   UNL     1      34.846  36.280  18.762  1.00  0.00    -0.067 NA
BRANCH  68  70
ATOM     70  C   UNL     1      37.160  36.447  19.680  1.00  0.00     0.162 C 
BRANCH  70  71
ATOM     71  C   UNL     1      37.782  36.375  18.286  1.00  0.00     0.122 C 
BRANCH  71  72
ATOM     72  N   UNL     1      37.315  35.217  17.580  1.00  0.00    -0.214 NA
ATOM     73  H   UNL     1      36.604  35.518  16.861  1.00  0.00     0.141 HD
BRANCH  72  74
ATOM     74  S   UNL     1      38.568  34.400  16.729  1.00  0.00     0.208 S 
ATOM     75  O   UNL     1      39.902  35.078  16.994  1.00  0.00    -0.213 OA
ATOM     76  O   UNL     1      38.623  32.996  17.301  1.00  0.00    -0.213 OA
ATOM     77  C   UNL     1      38.227  34.339  14.997  1.00  0.00     0.176 C 
ENDBRANCH  72  74
ENDBRANCH  71  72
ENDBRANCH  70  71
ENDBRANCH  68  70
ENDBRANCH  64  65
ENDBRANCH  63  64
ENDBRANCH  60  63
ENDBRANCH  58  59
ENDBRANCH  55  58
ENDBRANCH   1  55
TORSDOF 33
BEGIN_RES LYS A 131
REMARK  4 active torsions:
REMARK  status: ('A' for Active; 'I' for Inactive)
REMARK    1  A    between atoms: CA   and  CB  
REMARK    2  A    between atoms: CB   and  CG  
REMARK    3  A    between atoms: CG   and  CD  
REMARK    4  A    between atoms: CD   and  CE  
ROOT
ATOM      1  CA  LYS A 131      29.867  25.555  16.977  1.00 20.52     0.186 C 
ENDROOT
BRANCH   1   2
ATOM      2  CB  LYS A 131      28.345  25.722  17.026  1.00 20.94     0.034 C 
BRANCH   2   3
ATOM      3  CG  LYS A 131      27.602  24.400  16.909  1.00 22.96     0.005 C 
BRANCH   3   4
ATOM      4  CD  LYS A 131      26.156  24.527  17.302  1.00 24.33     0.041 C 
BRANCH   4   5
ATOM      5  CE  LYS A 131      25.670  23.205  17.887  1.00 26.91     0.338 C 
ATOM      6  NZ  LYS A 131      25.543  23.304  19.360  1.00 27.40     0.618 N 
ENDBRANCH   4   5
ENDBRANCH   3   4
ENDBRANCH   2   3
ENDBRANCH   1   2
END_RES LYS A 131
BEGIN_RES LYS A 135
REMARK  4 active torsions:
REMARK  status: ('A' for Active; 'I' for Inactive)
REMARK    5  A    between atoms: CA   and  CB  
REMARK    6  A    between atoms: CB   and  CG  
REMARK    7  A    between atoms: CG   and  CD  
REMARK    8  A    between atoms: CD   and  CE  
ROOT
ATOM      7  CA  LYS A 135      33.193  34.663   9.290  1.00 25.02     0.186 C 
ENDROOT
BRANCH   7   8
ATOM      8  CB  LYS A 135      32.060  35.360  10.034  1.00 26.63     0.034 C 
BRANCH   8   9
ATOM      9  CG  LYS A 135      30.808  35.521   9.211  1.00 29.45     0.005 C 
BRANCH   9  10
ATOM     10  CD  LYS A 135      30.148  34.173   8.967  1.00 32.00     0.041 C 
BRANCH  10  11
ATOM     11  CE  LYS A 135      28.688  34.353   8.600  1.00 34.25     0.338 C 
ATOM     12  NZ  LYS A 135      27.798  33.743   9.626  1.00 35.99     0.618 N 
ENDBRANCH  10  11
ENDBRANCH   9  10
ENDBRANCH   8   9
ENDBRANCH   7   8
END_RES LYS A 135
