REMARK VINA RESULT:    -4.348      2.675      7.313
REMARK INTER + INTRA:         -21.367
REMARK INTER:                 -12.180
REMARK INTRA:                  -9.187
REMARK UNBOUND:               -10.664
REMARK SMILES CC(=O)N[C@@H]1[C@@H](O)C[C@](OC[C@H]2O[C@@H](O[C@H]3[C@H](O)[C@@H](O)[C@H](OCCN=[N+]=[N-])O[C@@H]3CO)[C@H](O)[C@@H](O)[C@H]2O)(C(=O)O)O[C@H]1C(O)[C@H](O)CNC(=O)OCc1cn(-c2ccc(Br)cc2)nn1
REMARK SMILES IDX 9 1 8 2 6 3 5 4 42 5 41 6 10 7 11 8 12 9 14 10 13 11 32 12
REMARK SMILES IDX 34 13 36 14 15 15 16 16 29 17 28 18 21 19 17 20 19 21 30 22
REMARK SMILES IDX 31 23 22 25 23 26 24 27 25 28 26 29 27 30 18 31 20 33 33 35
REMARK SMILES IDX 35 37 37 39 38 41 39 42 40 43 7 45 43 47 44 48 45 50 46 51
REMARK SMILES IDX 47 53 48 54 49 55 50 57 51 58 52 59 53 60 54 61 64 62 55 63
REMARK SMILES IDX 63 64 56 65 57 66 62 67 58 68 61 69 59 70 60 71 4 72 2 73
REMARK SMILES IDX 1 75 3 76
REMARK H PARENT 31 24 18 32 20 34 33 36 35 38 37 40 40 44 7 46 44 49 46 52
REMARK H PARENT 48 56 4 74
REMARK Flexibility Score: inf
ROOT
ATOM      1  C   UNL     1      31.651  31.409  23.412  1.00  0.00     0.272 C 
ATOM      2  C   UNL     1      32.695  31.451  24.560  1.00  0.00     0.113 C 
ATOM      3  C   UNL     1      33.019  30.052  24.932  1.00  0.00     0.145 C 
ATOM      4  C   UNL     1      33.541  29.359  23.658  1.00  0.00     0.142 C 
ATOM      5  C   UNL     1      32.337  29.277  22.749  1.00  0.00     0.178 C 
ATOM      6  O   UNL     1      32.040  30.576  22.403  1.00  0.00    -0.332 OA
ENDROOT
BRANCH   1   7
ATOM      7  O   UNL     1      31.679  32.725  22.937  1.00  0.00    -0.338 OA
BRANCH   7   8
ATOM      8  C   UNL     1      32.246  32.903  21.712  1.00  0.00     0.199 C 
BRANCH   8   9
ATOM      9  C   UNL     1      31.206  33.644  20.848  1.00  0.00     0.179 C 
ATOM     10  C   UNL     1      31.007  34.338  18.637  1.00  0.00     0.282 C 
ATOM     11  O   UNL     1      31.789  34.228  19.760  1.00  0.00    -0.341 OA
ATOM     12  C   UNL     1      29.555  34.334  18.898  1.00  0.00     0.202 C 
ATOM     13  C   UNL     1      29.047  33.246  19.788  1.00  0.00     0.179 C 
ATOM     14  C   UNL     1      30.197  32.574  20.464  1.00  0.00     0.177 C 
BRANCH  10  15
ATOM     15  O   UNL     1      31.481  33.391  17.730  1.00  0.00    -0.341 OA
BRANCH  15  16
ATOM     16  C   UNL     1      31.180  33.727  16.423  1.00  0.00     0.184 C 
ATOM     17  C   UNL     1      30.912  32.520  15.582  1.00  0.00     0.178 C 
ATOM     18  O   UNL     1      30.467  32.900  14.348  1.00  0.00    -0.341 OA
ATOM     19  C   UNL     1      30.684  34.179  13.937  1.00  0.00     0.281 C 
ATOM     20  C   UNL     1      32.384  34.413  15.756  1.00  0.00     0.180 C 
ATOM     21  C   UNL     1      32.013  34.780  14.335  1.00  0.00     0.202 C 
BRANCH  17  22
ATOM     22  C   UNL     1      29.830  31.681  16.234  1.00  0.00     0.191 C 
BRANCH  22  23
ATOM     23  O   UNL     1      30.377  30.776  17.114  1.00  0.00    -0.394 OA
ATOM     24  H   UNL     1      30.976  31.212  17.745  1.00  0.00     0.210 HD
ENDBRANCH  22  23
ENDBRANCH  17  22
BRANCH  19  25
ATOM     25  O   UNL     1      29.622  35.033  14.215  1.00  0.00    -0.350 OA
BRANCH  25  26
ATOM     26  C   UNL     1      28.389  34.554  13.816  1.00  0.00     0.169 C 
BRANCH  26  27
ATOM     27  C   UNL     1      27.229  35.379  14.266  1.00  0.00     0.119 C 
BRANCH  27  28
ATOM     28  N   UNL     1      26.487  34.667  15.292  1.00  0.00    -0.092 NA
ATOM     29  N   UNL     1      25.417  34.152  14.958  1.00  0.00     0.001 N 
ATOM     30  N   UNL     1      24.390  33.497  14.684  1.00  0.00    -0.003 NA
ENDBRANCH  27  28
ENDBRANCH  26  27
ENDBRANCH  25  26
ENDBRANCH  19  25
BRANCH  20  31
ATOM     31  O   UNL     1      32.807  35.488  16.517  1.00  0.00    -0.387 OA
ATOM     32  H   UNL     1      33.307  35.190  17.323  1.00  0.00     0.211 HD
ENDBRANCH  20  31
BRANCH  21  33
ATOM     33  O   UNL     1      32.981  34.467  13.407  1.00  0.00    -0.385 OA
ATOM     34  H   UNL     1      32.547  34.015  12.646  1.00  0.00     0.211 HD
ENDBRANCH  21  33
ENDBRANCH  15  16
ENDBRANCH  10  15
BRANCH  12  35
ATOM     35  O   UNL     1      29.234  35.613  19.432  1.00  0.00    -0.385 OA
ATOM     36  H   UNL     1      29.423  35.615  20.415  1.00  0.00     0.211 HD
ENDBRANCH  12  35
BRANCH  13  37
ATOM     37  O   UNL     1      28.339  32.279  19.036  1.00  0.00    -0.387 OA
ATOM     38  H   UNL     1      28.611  32.429  18.096  1.00  0.00     0.211 HD
ENDBRANCH  13  37
BRANCH  14  39
ATOM     39  O   UNL     1      30.773  31.580  19.676  1.00  0.00    -0.387 OA
ATOM     40  H   UNL     1      31.676  31.849  19.374  1.00  0.00     0.211 HD
ENDBRANCH  14  39
ENDBRANCH   8   9
ENDBRANCH   7   8
ENDBRANCH   1   7
BRANCH   1  41
ATOM     41  C   UNL     1      30.356  31.155  24.039  1.00  0.00     0.364 C 
ATOM     42  O   UNL     1      29.516  30.336  23.594  1.00  0.00    -0.246 OA
BRANCH  41  43
ATOM     43  O   UNL     1      29.993  31.827  25.191  1.00  0.00    -0.477 OA
ATOM     44  H   UNL     1      29.172  32.426  25.266  1.00  0.00     0.296 HD
ENDBRANCH  41  43
ENDBRANCH   1  41
BRANCH   3  45
ATOM     45  O   UNL     1      34.067  29.981  25.839  1.00  0.00    -0.391 OA
ATOM     46  H   UNL     1      34.161  30.843  26.296  1.00  0.00     0.211 HD
ENDBRANCH   3  45
BRANCH   5  47
ATOM     47  C   UNL     1      32.550  28.515  21.485  1.00  0.00     0.176 C 
BRANCH  47  48
ATOM     48  O   UNL     1      32.124  29.392  20.446  1.00  0.00    -0.388 OA
ATOM     49  H   UNL     1      31.305  29.011  20.039  1.00  0.00     0.211 HD
ENDBRANCH  47  48
BRANCH  47  50
ATOM     50  C   UNL     1      31.645  27.303  21.316  1.00  0.00     0.165 C 
BRANCH  50  51
ATOM     51  O   UNL     1      31.831  26.948  19.951  1.00  0.00    -0.388 OA
ATOM     52  H   UNL     1      31.275  27.562  19.376  1.00  0.00     0.211 HD
ENDBRANCH  50  51
BRANCH  50  53
ATOM     53  C   UNL     1      30.207  27.657  21.468  1.00  0.00     0.154 C 
BRANCH  53  54
ATOM     54  N   UNL     1      29.581  27.907  20.209  1.00  0.00    -0.319 N 
ATOM     55  C   UNL     1      28.681  28.986  19.940  1.00  0.00     0.407 C 
ATOM     56  H   UNL     1      29.771  27.265  19.374  1.00  0.00     0.167 HD
ATOM     57  O   UNL     1      28.401  29.780  20.867  1.00  0.00    -0.225 OA
BRANCH  55  58
ATOM     58  O   UNL     1      28.120  29.176  18.699  1.00  0.00    -0.443 OA
BRANCH  58  59
ATOM     59  C   UNL     1      26.849  28.653  18.410  1.00  0.00     0.294 C 
BRANCH  59  60
ATOM     60  C   UNL     1      26.342  29.288  17.173  1.00  0.00     0.121 A 
ATOM     61  C   UNL     1      25.138  28.943  16.545  1.00  0.00     0.144 A 
ATOM     62  N   UNL     1      26.863  30.260  16.408  1.00  0.00    -0.131 NA
ATOM     63  N   UNL     1      24.991  29.708  15.450  1.00  0.00    -0.220 N 
ATOM     64  N   UNL     1      26.049  30.493  15.395  1.00  0.00    -0.062 NA
BRANCH  63  65
ATOM     65  C   UNL     1      23.876  29.617  14.572  1.00  0.00     0.066 A 
ATOM     66  C   UNL     1      23.833  30.119  13.312  1.00  0.00     0.029 A 
ATOM     67  C   UNL     1      22.761  28.948  15.068  1.00  0.00     0.029 A 
ATOM     68  C   UNL     1      22.690  29.953  12.558  1.00  0.00     0.018 A 
ATOM     69  C   UNL     1      21.627  28.790  14.303  1.00  0.00     0.018 A 
ATOM     70  C   UNL     1      21.576  29.297  13.021  1.00  0.00     0.018 A 
ATOM     71  Br  UNL     1      20.015  29.086  11.944  1.00  0.00    -0.051 Br
ENDBRANCH  63  65
ENDBRANCH  59  60
ENDBRANCH  58  59
ENDBRANCH  55  58
ENDBRANCH  53  54
ENDBRANCH  50  53
ENDBRANCH  47  50
ENDBRANCH   5  47
BRANCH   4  72
ATOM     72  N   UNL     1      34.078  28.099  24.074  1.00  0.00    -0.348 N 
ATOM     73  C   UNL     1      35.386  27.675  23.716  1.00  0.00     0.217 C 
ATOM     74  H   UNL     1      33.500  27.468  24.655  1.00  0.00     0.163 HD
ATOM     75  C   UNL     1      35.967  26.376  24.130  1.00  0.00     0.114 C 
ATOM     76  O   UNL     1      36.118  28.434  23.001  1.00  0.00    -0.275 OA
ENDBRANCH   4  72
TORSDOF 30
BEGIN_RES LYS A 131
REMARK  4 active torsions:
REMARK  status: ('A' for Active; 'I' for Inactive)
REMARK    1  A    between atoms: CA   and  CB  
REMARK    2  A    between atoms: CB   and  CG  
REMARK    3  A    between atoms: CG   and  CD  
REMARK    4  A    between atoms: CD   and  CE  
ROOT
ATOM      1  CA  LYS A 131      29.867  25.555  16.977  1.00 20.52     0.186 C 
ENDROOT
BRANCH   1   2
ATOM      2  CB  LYS A 131      28.345  25.722  17.026  1.00 20.94     0.034 C 
BRANCH   2   3
ATOM      3  CG  LYS A 131      27.601  24.402  16.892  1.00 22.96     0.005 C 
BRANCH   3   4
ATOM      4  CD  LYS A 131      26.163  24.517  17.316  1.00 24.33     0.041 C 
BRANCH   4   5
ATOM      5  CE  LYS A 131      25.656  23.153  17.772  1.00 26.91     0.338 C 
ATOM      6  NZ  LYS A 131      25.402  23.155  19.232  1.00 27.40     0.618 N 
ENDBRANCH   4   5
ENDBRANCH   3   4
ENDBRANCH   2   3
ENDBRANCH   1   2
END_RES LYS A 131
BEGIN_RES LYS A 135
REMARK  4 active torsions:
REMARK  status: ('A' for Active; 'I' for Inactive)
REMARK    5  A    between atoms: CA   and  CB  
REMARK    6  A    between atoms: CB   and  CG  
REMARK    7  A    between atoms: CG   and  CD  
REMARK    8  A    between atoms: CD   and  CE  
ROOT
ATOM      7  CA  LYS A 135      33.193  34.663   9.290  1.00 25.02     0.186 C 
ENDROOT
BRANCH   7   8
ATOM      8  CB  LYS A 135      32.060  35.360  10.034  1.00 26.63     0.034 C 
BRANCH   8   9
ATOM      9  CG  LYS A 135      30.811  35.530   9.208  1.00 29.45     0.005 C 
BRANCH   9  10
ATOM     10  CD  LYS A 135      30.030  34.227   9.142  1.00 32.00     0.041 C 
BRANCH  10  11
ATOM     11  CE  LYS A 135      28.746  34.415   8.357  1.00 34.25     0.338 C 
ATOM     12  NZ  LYS A 135      28.959  35.312   7.187  1.00 35.99     0.618 N 
ENDBRANCH  10  11
ENDBRANCH   9  10
ENDBRANCH   8   9
ENDBRANCH   7   8
END_RES LYS A 135
