REMARK VINA RESULT:    -4.006      4.672     10.900
REMARK INTER + INTRA:         -23.554
REMARK INTER:                 -10.921
REMARK INTRA:                 -12.633
REMARK UNBOUND:               -13.108
REMARK SMILES CC(=O)N[C@@H]1[C@@H](O)C[C@](OC[C@H]2O[C@@H](O[C@H]3[C@H](O)[C@@H](O)[C@H](OCCN=[N+]=[N-])O[C@@H]3CO)[C@H](O)[C@@H](O)[C@H]2O)(C(=O)O)O[C@H]1C(O)[C@H](O)CNC(=O)OCc1cn(-c2cccc(C=CC(=O)O)c2)nn1
REMARK SMILES IDX 43 1 42 2 9 3 8 4 41 5 6 6 5 7 10 8 11 9 12 10 14 11 13 12
REMARK SMILES IDX 32 13 34 14 36 15 15 16 16 17 29 18 28 19 21 20 17 21 19 22
REMARK SMILES IDX 30 23 31 24 22 26 23 27 24 28 25 29 26 30 27 31 18 32 20 34
REMARK SMILES IDX 33 36 35 38 37 40 38 42 39 43 40 44 7 46 4 48 2 49 1 51 3 52
REMARK SMILES IDX 44 53 45 55 46 56 47 58 48 59 49 60 50 62 51 63 52 64 53 65
REMARK SMILES IDX 54 66 68 67 55 68 67 69 56 70 66 71 57 72 60 73 58 74 59 75
REMARK SMILES IDX 61 76 62 77 63 78 64 79 65 80
REMARK H PARENT 31 25 18 33 20 35 33 37 35 39 37 41 40 45 7 47 4 50 44 54
REMARK H PARENT 46 57 48 61 65 81
REMARK Flexibility Score: inf
ROOT
ATOM      1  C   UNL     1      27.526  36.269  13.519  1.00  0.00     0.176 C 
ENDROOT
BRANCH   1   2
ATOM      2  C   UNL     1      28.927  36.798  13.748  1.00  0.00     0.178 C 
ATOM      3  C   UNL     1      31.099  35.918  14.007  1.00  0.00     0.272 C 
ATOM      4  C   UNL     1      31.281  37.504  14.164  1.00  0.00     0.113 C 
ATOM      5  O   UNL     1      29.740  35.709  13.893  1.00  0.00    -0.332 OA
ATOM      6  C   UNL     1      30.435  37.880  15.327  1.00  0.00     0.145 C 
ATOM      7  C   UNL     1      28.975  37.646  14.989  1.00  0.00     0.142 C 
BRANCH   3   8
ATOM      8  O   UNL     1      31.523  35.467  15.193  1.00  0.00    -0.338 OA
BRANCH   8   9
ATOM      9  C   UNL     1      32.189  34.349  15.422  1.00  0.00     0.199 C 
BRANCH   9  10
ATOM     10  C   UNL     1      31.600  33.310  16.353  1.00  0.00     0.179 C 
ATOM     11  C   UNL     1      29.482  33.284  17.406  1.00  0.00     0.282 C 
ATOM     12  O   UNL     1      30.677  33.914  17.121  1.00  0.00    -0.341 OA
ATOM     13  C   UNL     1      29.686  31.822  17.467  1.00  0.00     0.202 C 
ATOM     14  C   UNL     1      30.290  31.203  16.244  1.00  0.00     0.179 C 
ATOM     15  C   UNL     1      30.956  32.282  15.432  1.00  0.00     0.177 C 
BRANCH  11  16
ATOM     16  O   UNL     1      28.561  33.774  16.507  1.00  0.00    -0.341 OA
BRANCH  16  17
ATOM     17  C   UNL     1      27.342  34.079  17.005  1.00  0.00     0.184 C 
ATOM     18  C   UNL     1      26.244  33.584  16.115  1.00  0.00     0.178 C 
ATOM     19  O   UNL     1      25.079  33.620  16.917  1.00  0.00    -0.341 OA
ATOM     20  C   UNL     1      24.677  34.946  17.098  1.00  0.00     0.281 C 
ATOM     21  C   UNL     1      27.109  35.589  17.113  1.00  0.00     0.180 C 
ATOM     22  C   UNL     1      25.736  35.802  17.713  1.00  0.00     0.202 C 
BRANCH  18  23
ATOM     23  C   UNL     1      26.430  32.208  15.585  1.00  0.00     0.191 C 
BRANCH  23  24
ATOM     24  O   UNL     1      26.585  31.324  16.651  1.00  0.00    -0.394 OA
ATOM     25  H   UNL     1      27.402  30.752  16.510  1.00  0.00     0.210 HD
ENDBRANCH  23  24
ENDBRANCH  18  23
BRANCH  20  26
ATOM     26  O   UNL     1      23.567  34.932  17.938  1.00  0.00    -0.350 OA
BRANCH  26  27
ATOM     27  C   UNL     1      22.374  35.002  17.224  1.00  0.00     0.169 C 
BRANCH  27  28
ATOM     28  C   UNL     1      22.710  35.314  15.783  1.00  0.00     0.119 C 
BRANCH  28  29
ATOM     29  N   UNL     1      22.116  36.577  15.415  1.00  0.00    -0.092 NA
ATOM     30  N   UNL     1      22.596  37.645  15.835  1.00  0.00     0.001 N 
ATOM     31  N   UNL     1      22.789  38.649  16.538  1.00  0.00    -0.003 NA
ENDBRANCH  28  29
ENDBRANCH  27  28
ENDBRANCH  26  27
ENDBRANCH  20  26
BRANCH  21  32
ATOM     32  O   UNL     1      28.021  36.204  17.962  1.00  0.00    -0.387 OA
ATOM     33  H   UNL     1      27.600  36.187  18.858  1.00  0.00     0.211 HD
ENDBRANCH  21  32
BRANCH  22  34
ATOM     34  O   UNL     1      25.397  37.145  17.429  1.00  0.00    -0.385 OA
ATOM     35  H   UNL     1      24.454  37.242  17.172  1.00  0.00     0.211 HD
ENDBRANCH  22  34
ENDBRANCH  16  17
ENDBRANCH  11  16
BRANCH  13  36
ATOM     36  O   UNL     1      30.558  31.519  18.553  1.00  0.00    -0.385 OA
ATOM     37  H   UNL     1      31.399  31.118  18.195  1.00  0.00     0.211 HD
ENDBRANCH  13  36
BRANCH  14  38
ATOM     38  O   UNL     1      29.383  30.466  15.477  1.00  0.00    -0.387 OA
ATOM     39  H   UNL     1      29.625  29.506  15.441  1.00  0.00     0.211 HD
ENDBRANCH  14  38
BRANCH  15  40
ATOM     40  O   UNL     1      30.019  32.876  14.610  1.00  0.00    -0.387 OA
ATOM     41  H   UNL     1      29.522  33.618  15.075  1.00  0.00     0.211 HD
ENDBRANCH  15  40
ENDBRANCH   9  10
ENDBRANCH   8   9
ENDBRANCH   3   8
BRANCH   3  42
ATOM     42  C   UNL     1      31.788  35.581  12.773  1.00  0.00     0.364 C 
ATOM     43  O   UNL     1      32.717  36.184  12.206  1.00  0.00    -0.246 OA
BRANCH  42  44
ATOM     44  O   UNL     1      31.367  34.410  12.096  1.00  0.00    -0.477 OA
ATOM     45  H   UNL     1      32.010  34.012  11.394  1.00  0.00     0.296 HD
ENDBRANCH  42  44
ENDBRANCH   3  42
BRANCH   6  46
ATOM     46  O   UNL     1      30.799  36.980  16.384  1.00  0.00    -0.391 OA
ATOM     47  H   UNL     1      31.256  37.492  17.108  1.00  0.00     0.211 HD
ENDBRANCH   6  46
BRANCH   7  48
ATOM     48  N   UNL     1      28.157  38.804  14.985  1.00  0.00    -0.348 N 
ATOM     49  C   UNL     1      27.537  39.434  16.067  1.00  0.00     0.217 C 
ATOM     50  H   UNL     1      27.946  39.268  14.027  1.00  0.00     0.163 HD
ATOM     51  C   UNL     1      26.686  40.664  15.811  1.00  0.00     0.114 C 
ATOM     52  O   UNL     1      27.634  39.052  17.264  1.00  0.00    -0.275 OA
ENDBRANCH   7  48
ENDBRANCH   1   2
BRANCH   1  53
ATOM     53  O   UNL     1      26.843  37.126  12.674  1.00  0.00    -0.388 OA
ATOM     54  H   UNL     1      27.240  37.240  11.792  1.00  0.00     0.211 HD
ENDBRANCH   1  53
BRANCH   1  55
ATOM     55  C   UNL     1      27.540  34.908  12.821  1.00  0.00     0.165 C 
BRANCH  55  56
ATOM     56  O   UNL     1      28.302  34.878  11.687  1.00  0.00    -0.388 OA
ATOM     57  H   UNL     1      28.087  35.575  11.025  1.00  0.00     0.211 HD
ENDBRANCH  55  56
BRANCH  55  58
ATOM     58  C   UNL     1      26.150  34.412  12.576  1.00  0.00     0.154 C 
BRANCH  58  59
ATOM     59  N   UNL     1      25.752  34.581  11.225  1.00  0.00    -0.319 N 
ATOM     60  C   UNL     1      24.712  35.456  10.837  1.00  0.00     0.407 C 
ATOM     61  H   UNL     1      26.229  34.046  10.450  1.00  0.00     0.167 HD
ATOM     62  O   UNL     1      24.080  36.135  11.693  1.00  0.00    -0.225 OA
BRANCH  60  63
ATOM     63  O   UNL     1      24.330  35.620   9.508  1.00  0.00    -0.443 OA
BRANCH  63  64
ATOM     64  C   UNL     1      24.173  36.968   9.051  1.00  0.00     0.294 C 
BRANCH  64  65
ATOM     65  C   UNL     1      25.457  37.373   8.451  1.00  0.00     0.121 A 
ATOM     66  C   UNL     1      26.573  37.901   9.096  1.00  0.00     0.144 A 
ATOM     67  N   UNL     1      25.784  37.294   7.151  1.00  0.00    -0.131 NA
ATOM     68  N   UNL     1      27.529  38.116   8.164  1.00  0.00    -0.220 N 
ATOM     69  N   UNL     1      27.024  37.742   7.005  1.00  0.00    -0.062 NA
BRANCH  68  70
ATOM     70  C   UNL     1      28.813  38.640   8.461  1.00  0.00     0.067 A 
ATOM     71  C   UNL     1      29.138  38.968   9.778  1.00  0.00     0.036 A 
ATOM     72  C   UNL     1      29.741  38.830   7.494  1.00  0.00     0.028 A 
ATOM     73  C   UNL     1      30.356  39.471  10.114  1.00  0.00    -0.023 A 
ATOM     74  C   UNL     1      31.001  39.343   7.790  1.00  0.00     0.003 A 
ATOM     75  C   UNL     1      31.278  39.652   9.102  1.00  0.00     0.008 A 
BRANCH  73  76
ATOM     76  C   UNL     1      30.694  39.816  11.478  1.00  0.00     0.015 C 
ATOM     77  C   UNL     1      30.235  40.906  12.037  1.00  0.00     0.094 C 
BRANCH  77  78
ATOM     78  C   UNL     1      30.604  41.215  13.420  1.00  0.00     0.328 C 
ATOM     79  O   UNL     1      29.747  41.359  14.299  1.00  0.00    -0.247 OA
BRANCH  78  80
ATOM     80  O   UNL     1      31.944  41.354  13.775  1.00  0.00    -0.478 OA
ATOM     81  H   UNL     1      32.163  41.372  14.773  1.00  0.00     0.297 HD
ENDBRANCH  78  80
ENDBRANCH  77  78
ENDBRANCH  73  76
ENDBRANCH  68  70
ENDBRANCH  64  65
ENDBRANCH  63  64
ENDBRANCH  60  63
ENDBRANCH  58  59
ENDBRANCH  55  58
ENDBRANCH   1  55
TORSDOF 33
BEGIN_RES LYS A 131
REMARK  4 active torsions:
REMARK  status: ('A' for Active; 'I' for Inactive)
REMARK    1  A    between atoms: CA   and  CB  
REMARK    2  A    between atoms: CB   and  CG  
REMARK    3  A    between atoms: CG   and  CD  
REMARK    4  A    between atoms: CD   and  CE  
ROOT
ATOM      1  CA  LYS A 131      29.867  25.555  16.977  1.00 20.52     0.186 C 
ENDROOT
BRANCH   1   2
ATOM      2  CB  LYS A 131      28.345  25.722  17.026  1.00 20.94     0.034 C 
BRANCH   2   3
ATOM      3  CG  LYS A 131      27.601  24.403  16.886  1.00 22.96     0.005 C 
BRANCH   3   4
ATOM      4  CD  LYS A 131      26.508  24.258  17.908  1.00 24.33     0.041 C 
BRANCH   4   5
ATOM      5  CE  LYS A 131      25.151  24.323  17.215  1.00 26.91     0.338 C 
ATOM      6  NZ  LYS A 131      24.481  25.613  17.505  1.00 27.40     0.618 N 
ENDBRANCH   4   5
ENDBRANCH   3   4
ENDBRANCH   2   3
ENDBRANCH   1   2
END_RES LYS A 131
BEGIN_RES LYS A 135
REMARK  4 active torsions:
REMARK  status: ('A' for Active; 'I' for Inactive)
REMARK    5  A    between atoms: CA   and  CB  
REMARK    6  A    between atoms: CB   and  CG  
REMARK    7  A    between atoms: CG   and  CD  
REMARK    8  A    between atoms: CD   and  CE  
ROOT
ATOM      7  CA  LYS A 135      33.193  34.663   9.290  1.00 25.02     0.186 C 
ENDROOT
BRANCH   7   8
ATOM      8  CB  LYS A 135      32.060  35.360  10.034  1.00 26.63     0.034 C 
BRANCH   8   9
ATOM      9  CG  LYS A 135      30.907  35.752   9.146  1.00 29.45     0.005 C 
BRANCH   9  10
ATOM     10  CD  LYS A 135      30.373  34.542   8.395  1.00 32.00     0.041 C 
BRANCH  10  11
ATOM     11  CE  LYS A 135      29.147  34.917   7.585  1.00 34.25     0.338 C 
ATOM     12  NZ  LYS A 135      27.895  34.573   8.315  1.00 35.99     0.618 N 
ENDBRANCH  10  11
ENDBRANCH   9  10
ENDBRANCH   8   9
ENDBRANCH   7   8
END_RES LYS A 135
