REMARK VINA RESULT:    -4.495      2.588      3.832
REMARK INTER + INTRA:         -22.998
REMARK INTER:                 -11.059
REMARK INTRA:                 -11.940
REMARK UNBOUND:               -11.408
REMARK SMILES CC(=O)N[C@@H]1[C@@H](O)C[C@](OC[C@H]2O[C@@H](O[C@H]3[C@H](O)[C@@H](O)[C@H](OCCN=[N+]=[N-])O[C@@H]3CO)[C@H](O)[C@@H](O)[C@H]2O)(C(=O)O)O[C@H]1C(O)[C@H](O)CNC(=O)OCc1cn(CS(=O)(=O)c2ccccc2)nn1
REMARK SMILES IDX 9 1 8 2 6 3 5 4 42 5 41 6 10 7 11 8 12 9 14 10 13 11 32 12
REMARK SMILES IDX 34 13 36 14 15 15 16 16 29 17 28 18 21 19 17 20 19 21 30 22
REMARK SMILES IDX 31 23 22 25 23 26 24 27 25 28 26 29 27 30 18 31 20 33 33 35
REMARK SMILES IDX 35 37 37 39 38 41 39 42 40 43 7 45 43 47 44 48 45 50 46 51
REMARK SMILES IDX 47 53 48 54 49 55 50 57 51 58 52 59 53 60 54 61 67 62 55 63
REMARK SMILES IDX 66 64 56 65 57 66 58 67 59 68 60 69 61 70 65 71 62 72 64 73
REMARK SMILES IDX 63 74 4 75 2 76 1 78 3 79
REMARK H PARENT 31 24 18 32 20 34 33 36 35 38 37 40 40 44 7 46 44 49 46 52
REMARK H PARENT 48 56 4 77
REMARK Flexibility Score: inf
ROOT
ATOM      1  C   UNL     1      29.846  31.896  21.262  1.00  0.00     0.272 C 
ATOM      2  C   UNL     1      31.167  31.285  21.027  1.00  0.00     0.113 C 
ATOM      3  C   UNL     1      31.148  29.791  20.771  1.00  0.00     0.145 C 
ATOM      4  C   UNL     1      30.340  29.182  21.863  1.00  0.00     0.142 C 
ATOM      5  C   UNL     1      29.010  29.852  22.068  1.00  0.00     0.178 C 
ATOM      6  O   UNL     1      28.990  31.199  22.099  1.00  0.00    -0.332 OA
ENDROOT
BRANCH   1   7
ATOM      7  O   UNL     1      29.226  32.334  20.112  1.00  0.00    -0.338 OA
BRANCH   7   8
ATOM      8  C   UNL     1      29.990  32.983  19.198  1.00  0.00     0.199 C 
BRANCH   8   9
ATOM      9  C   UNL     1      29.217  33.178  17.876  1.00  0.00     0.179 C 
ATOM     10  C   UNL     1      30.489  33.977  16.047  1.00  0.00     0.282 C 
ATOM     11  O   UNL     1      29.804  34.182  17.211  1.00  0.00    -0.341 OA
ATOM     12  C   UNL     1      31.120  32.637  16.000  1.00  0.00     0.202 C 
ATOM     13  C   UNL     1      30.140  31.541  16.294  1.00  0.00     0.179 C 
ATOM     14  C   UNL     1      28.984  31.938  17.118  1.00  0.00     0.177 C 
BRANCH  10  15
ATOM     15  O   UNL     1      31.428  35.020  15.992  1.00  0.00    -0.341 OA
BRANCH  15  16
ATOM     16  C   UNL     1      31.107  36.083  15.219  1.00  0.00     0.184 C 
ATOM     17  C   UNL     1      32.223  36.496  14.305  1.00  0.00     0.178 C 
ATOM     18  O   UNL     1      31.661  37.266  13.291  1.00  0.00    -0.341 OA
ATOM     19  C   UNL     1      30.799  38.241  13.709  1.00  0.00     0.281 C 
ATOM     20  C   UNL     1      30.866  37.350  16.077  1.00  0.00     0.180 C 
ATOM     21  C   UNL     1      30.771  38.508  15.164  1.00  0.00     0.202 C 
BRANCH  17  22
ATOM     22  C   UNL     1      33.008  35.392  13.691  1.00  0.00     0.191 C 
BRANCH  22  23
ATOM     23  O   UNL     1      32.161  34.591  12.934  1.00  0.00    -0.394 OA
ATOM     24  H   UNL     1      31.452  34.217  13.507  1.00  0.00     0.210 HD
ENDBRANCH  22  23
ENDBRANCH  17  22
BRANCH  19  25
ATOM     25  O   UNL     1      29.527  37.854  13.295  1.00  0.00    -0.350 OA
BRANCH  25  26
ATOM     26  C   UNL     1      29.558  37.277  12.004  1.00  0.00     0.169 C 
BRANCH  26  27
ATOM     27  C   UNL     1      28.216  37.487  11.337  1.00  0.00     0.119 C 
BRANCH  27  28
ATOM     28  N   UNL     1      27.569  36.182  11.228  1.00  0.00    -0.092 NA
ATOM     29  N   UNL     1      26.715  36.035  10.330  1.00  0.00     0.001 N 
ATOM     30  N   UNL     1      25.705  36.034   9.603  1.00  0.00    -0.003 NA
ENDBRANCH  27  28
ENDBRANCH  26  27
ENDBRANCH  25  26
ENDBRANCH  19  25
BRANCH  20  31
ATOM     31  O   UNL     1      29.704  37.213  16.816  1.00  0.00    -0.387 OA
ATOM     32  H   UNL     1      29.948  36.852  17.707  1.00  0.00     0.211 HD
ENDBRANCH  20  31
BRANCH  21  33
ATOM     33  O   UNL     1      31.864  39.366  15.445  1.00  0.00    -0.385 OA
ATOM     34  H   UNL     1      31.686  40.295  15.187  1.00  0.00     0.211 HD
ENDBRANCH  21  33
ENDBRANCH  15  16
ENDBRANCH  10  15
BRANCH  12  35
ATOM     35  O   UNL     1      31.589  32.338  14.681  1.00  0.00    -0.385 OA
ATOM     36  H   UNL     1      30.999  31.613  14.363  1.00  0.00     0.211 HD
ENDBRANCH  12  35
BRANCH  13  37
ATOM     37  O   UNL     1      30.801  30.418  16.851  1.00  0.00    -0.387 OA
ATOM     38  H   UNL     1      30.634  30.395  17.837  1.00  0.00     0.211 HD
ENDBRANCH  13  37
BRANCH  14  39
ATOM     39  O   UNL     1      28.613  30.860  17.945  1.00  0.00    -0.387 OA
ATOM     40  H   UNL     1      28.625  31.184  18.882  1.00  0.00     0.211 HD
ENDBRANCH  14  39
ENDBRANCH   8   9
ENDBRANCH   7   8
ENDBRANCH   1   7
BRANCH   1  41
ATOM     41  C   UNL     1      30.128  33.140  22.089  1.00  0.00     0.364 C 
ATOM     42  O   UNL     1      29.158  33.793  22.507  1.00  0.00    -0.246 OA
BRANCH  41  43
ATOM     43  O   UNL     1      31.432  33.519  22.362  1.00  0.00    -0.477 OA
ATOM     44  H   UNL     1      31.641  34.090  23.195  1.00  0.00     0.296 HD
ENDBRANCH  41  43
ENDBRANCH   1  41
BRANCH   3  45
ATOM     45  O   UNL     1      30.685  29.560  19.506  1.00  0.00    -0.391 OA
ATOM     46  H   UNL     1      31.103  30.235  18.902  1.00  0.00     0.211 HD
ENDBRANCH   3  45
BRANCH   5  47
ATOM     47  C   UNL     1      27.912  29.240  21.229  1.00  0.00     0.176 C 
BRANCH  47  48
ATOM     48  O   UNL     1      27.719  29.882  20.008  1.00  0.00    -0.388 OA
ATOM     49  H   UNL     1      26.799  30.109  19.809  1.00  0.00     0.211 HD
ENDBRANCH  47  48
BRANCH  47  50
ATOM     50  C   UNL     1      28.115  27.752  20.987  1.00  0.00     0.165 C 
BRANCH  50  51
ATOM     51  O   UNL     1      28.431  27.459  19.681  1.00  0.00    -0.388 OA
ATOM     52  H   UNL     1      27.934  27.949  19.007  1.00  0.00     0.211 HD
ENDBRANCH  50  51
BRANCH  50  53
ATOM     53  C   UNL     1      27.026  26.892  21.506  1.00  0.00     0.154 C 
BRANCH  53  54
ATOM     54  N   UNL     1      25.949  26.582  20.615  1.00  0.00    -0.319 N 
ATOM     55  C   UNL     1      24.760  27.326  20.445  1.00  0.00     0.407 C 
ATOM     56  H   UNL     1      26.047  25.702  20.021  1.00  0.00     0.167 HD
ATOM     57  O   UNL     1      24.557  28.374  21.086  1.00  0.00    -0.225 OA
BRANCH  55  58
ATOM     58  O   UNL     1      23.813  26.867  19.543  1.00  0.00    -0.443 OA
BRANCH  58  59
ATOM     59  C   UNL     1      24.060  26.613  18.192  1.00  0.00     0.294 C 
BRANCH  59  60
ATOM     60  C   UNL     1      24.998  27.621  17.661  1.00  0.00     0.120 A 
ATOM     61  C   UNL     1      24.616  28.692  16.870  1.00  0.00     0.139 A 
ATOM     62  N   UNL     1      26.326  27.743  17.805  1.00  0.00    -0.132 NA
ATOM     63  N   UNL     1      25.704  29.421  16.562  1.00  0.00    -0.237 N 
ATOM     64  N   UNL     1      26.728  28.811  17.149  1.00  0.00    -0.066 NA
BRANCH  63  65
ATOM     65  C   UNL     1      25.745  30.617  15.767  1.00  0.00     0.287 C 
BRANCH  65  66
ATOM     66  S   UNL     1      25.249  31.965  16.840  1.00  0.00     0.198 S 
ATOM     67  O   UNL     1      25.712  31.730  18.227  1.00  0.00    -0.222 OA
ATOM     68  O   UNL     1      23.734  32.050  16.762  1.00  0.00    -0.222 OA
BRANCH  66  69
ATOM     69  C   UNL     1      25.943  33.427  16.189  1.00  0.00     0.069 A 
ATOM     70  C   UNL     1      25.918  34.619  16.880  1.00  0.00     0.020 A 
ATOM     71  C   UNL     1      26.544  33.436  14.950  1.00  0.00     0.020 A 
ATOM     72  C   UNL     1      26.462  35.769  16.370  1.00  0.00     0.001 A 
ATOM     73  C   UNL     1      27.092  34.578  14.425  1.00  0.00     0.001 A 
ATOM     74  C   UNL     1      27.049  35.748  15.140  1.00  0.00     0.000 A 
ENDBRANCH  66  69
ENDBRANCH  65  66
ENDBRANCH  63  65
ENDBRANCH  59  60
ENDBRANCH  58  59
ENDBRANCH  55  58
ENDBRANCH  53  54
ENDBRANCH  50  53
ENDBRANCH  47  50
ENDBRANCH   5  47
BRANCH   4  75
ATOM     75  N   UNL     1      31.079  29.310  23.113  1.00  0.00    -0.348 N 
ATOM     76  C   UNL     1      31.513  28.170  23.846  1.00  0.00     0.217 C 
ATOM     77  H   UNL     1      31.323  30.258  23.533  1.00  0.00     0.163 HD
ATOM     78  C   UNL     1      32.273  28.359  25.133  1.00  0.00     0.114 C 
ATOM     79  O   UNL     1      31.269  27.002  23.430  1.00  0.00    -0.275 OA
ENDBRANCH   4  75
TORSDOF 32
BEGIN_RES LYS A 131
REMARK  4 active torsions:
REMARK  status: ('A' for Active; 'I' for Inactive)
REMARK    1  A    between atoms: CA   and  CB  
REMARK    2  A    between atoms: CB   and  CG  
REMARK    3  A    between atoms: CG   and  CD  
REMARK    4  A    between atoms: CD   and  CE  
ROOT
ATOM      1  CA  LYS A 131      29.867  25.555  16.977  1.00 20.52     0.186 C 
ENDROOT
BRANCH   1   2
ATOM      2  CB  LYS A 131      28.345  25.722  17.026  1.00 20.94     0.034 C 
BRANCH   2   3
ATOM      3  CG  LYS A 131      27.601  24.403  16.887  1.00 22.96     0.005 C 
BRANCH   3   4
ATOM      4  CD  LYS A 131      26.793  24.077  18.112  1.00 24.33     0.041 C 
BRANCH   4   5
ATOM      5  CE  LYS A 131      25.621  23.180  17.725  1.00 26.91     0.338 C 
ATOM      6  NZ  LYS A 131      24.898  22.720  18.935  1.00 27.40     0.618 N 
ENDBRANCH   4   5
ENDBRANCH   3   4
ENDBRANCH   2   3
ENDBRANCH   1   2
END_RES LYS A 131
BEGIN_RES LYS A 135
REMARK  4 active torsions:
REMARK  status: ('A' for Active; 'I' for Inactive)
REMARK    5  A    between atoms: CA   and  CB  
REMARK    6  A    between atoms: CB   and  CG  
REMARK    7  A    between atoms: CG   and  CD  
REMARK    8  A    between atoms: CD   and  CE  
ROOT
ATOM      7  CA  LYS A 135      33.193  34.663   9.290  1.00 25.02     0.186 C 
ENDROOT
BRANCH   7   8
ATOM      8  CB  LYS A 135      32.060  35.360  10.034  1.00 26.63     0.034 C 
BRANCH   8   9
ATOM      9  CG  LYS A 135      30.705  34.753   9.774  1.00 29.45     0.005 C 
BRANCH   9  10
ATOM     10  CD  LYS A 135      30.507  34.501   8.287  1.00 32.00     0.041 C 
BRANCH  10  11
ATOM     11  CE  LYS A 135      29.104  34.891   7.863  1.00 34.25     0.338 C 
ATOM     12  NZ  LYS A 135      29.002  36.360   7.636  1.00 35.99     0.618 N 
ENDBRANCH  10  11
ENDBRANCH   9  10
ENDBRANCH   8   9
ENDBRANCH   7   8
END_RES LYS A 135
