REMARK VINA RESULT:    -4.710      2.914      7.816
REMARK INTER + INTRA:         -23.431
REMARK INTER:                  -9.930
REMARK INTRA:                 -13.501
REMARK UNBOUND:               -10.737
REMARK SMILES CC(=O)N[C@@H]1[C@@H](O)C[C@](OC[C@H]2O[C@@H](O[C@H]3[C@H](O)[C@@H](O)[C@H](OCCN=[N+]=[N-])O[C@@H]3CO)[C@H](O)[C@@H](O)[C@H]2O)(C(=O)O)O[C@H]1C(O)[C@H](O)CNC(=O)OCc1cn(CCNC(=O)NCc2ccco2)nn1
REMARK SMILES IDX 43 1 42 2 9 3 8 4 41 5 6 6 5 7 10 8 11 9 12 10 14 11 13 12
REMARK SMILES IDX 32 13 34 14 36 15 15 16 16 17 29 18 28 19 21 20 17 21 19 22
REMARK SMILES IDX 30 23 31 24 22 26 23 27 24 28 25 29 26 30 27 31 18 32 20 34
REMARK SMILES IDX 33 36 35 38 37 40 38 42 39 43 40 44 7 46 4 48 2 49 1 51 3 52
REMARK SMILES IDX 44 53 45 55 46 56 47 58 48 59 49 60 50 62 51 63 52 64 53 65
REMARK SMILES IDX 54 66 69 67 55 68 68 69 56 70 57 71 58 72 59 73 60 75 61 76
REMARK SMILES IDX 62 78 63 79 64 80 67 81 65 82 66 83
REMARK H PARENT 31 25 18 33 20 35 33 37 35 39 37 41 40 45 7 47 4 50 44 54
REMARK H PARENT 46 57 48 61 58 74 61 77
REMARK Flexibility Score: inf
ROOT
ATOM      1  C   UNL     1      27.390  35.448  11.963  1.00  0.00     0.176 C 
ENDROOT
BRANCH   1   2
ATOM      2  C   UNL     1      27.870  36.714  11.330  1.00  0.00     0.178 C 
ATOM      3  C   UNL     1      29.652  37.548  12.664  1.00  0.00     0.272 C 
ATOM      4  C   UNL     1      28.461  38.050  13.544  1.00  0.00     0.113 C 
ATOM      5  O   UNL     1      29.190  36.973  11.535  1.00  0.00    -0.332 OA
ATOM      6  C   UNL     1      27.375  38.651  12.745  1.00  0.00     0.145 C 
ATOM      7  C   UNL     1      26.990  37.900  11.494  1.00  0.00     0.142 C 
BRANCH   3   8
ATOM      8  O   UNL     1      30.233  36.571  13.444  1.00  0.00    -0.338 OA
BRANCH   8   9
ATOM      9  C   UNL     1      29.791  36.317  14.673  1.00  0.00     0.199 C 
BRANCH   9  10
ATOM     10  C   UNL     1      29.764  35.037  15.352  1.00  0.00     0.179 C 
ATOM     11  C   UNL     1      28.613  33.176  16.042  1.00  0.00     0.282 C 
ATOM     12  O   UNL     1      28.644  34.248  15.150  1.00  0.00    -0.341 OA
ATOM     13  C   UNL     1      29.926  32.799  16.622  1.00  0.00     0.202 C 
ATOM     14  C   UNL     1      31.124  33.042  15.751  1.00  0.00     0.179 C 
ATOM     15  C   UNL     1      30.931  34.191  14.806  1.00  0.00     0.177 C 
BRANCH  11  16
ATOM     16  O   UNL     1      28.014  32.054  15.491  1.00  0.00    -0.341 OA
BRANCH  16  17
ATOM     17  C   UNL     1      27.080  31.456  16.362  1.00  0.00     0.184 C 
ATOM     18  C   UNL     1      26.806  30.076  15.840  1.00  0.00     0.178 C 
ATOM     19  O   UNL     1      25.491  29.676  16.068  1.00  0.00    -0.341 OA
ATOM     20  C   UNL     1      24.689  30.492  15.280  1.00  0.00     0.281 C 
ATOM     21  C   UNL     1      25.895  32.358  16.445  1.00  0.00     0.180 C 
ATOM     22  C   UNL     1      24.620  31.853  15.885  1.00  0.00     0.202 C 
BRANCH  18  23
ATOM     23  C   UNL     1      27.686  29.094  16.613  1.00  0.00     0.191 C 
BRANCH  23  24
ATOM     24  O   UNL     1      28.480  29.861  17.494  1.00  0.00    -0.394 OA
ATOM     25  H   UNL     1      28.135  30.795  17.388  1.00  0.00     0.210 HD
ENDBRANCH  23  24
ENDBRANCH  18  23
BRANCH  20  26
ATOM     26  O   UNL     1      23.405  29.942  15.331  1.00  0.00    -0.350 OA
BRANCH  26  27
ATOM     27  C   UNL     1      23.196  29.033  14.294  1.00  0.00     0.169 C 
BRANCH  27  28
ATOM     28  C   UNL     1      21.832  29.375  13.687  1.00  0.00     0.119 C 
BRANCH  28  29
ATOM     29  N   UNL     1      22.096  30.179  12.507  1.00  0.00    -0.092 NA
ATOM     30  N   UNL     1      22.072  31.417  12.562  1.00  0.00     0.001 N 
ATOM     31  N   UNL     1      22.345  32.621  12.710  1.00  0.00    -0.003 NA
ENDBRANCH  28  29
ENDBRANCH  27  28
ENDBRANCH  26  27
ENDBRANCH  20  26
BRANCH  21  32
ATOM     32  O   UNL     1      25.726  32.697  17.803  1.00  0.00    -0.387 OA
ATOM     33  H   UNL     1      25.045  33.382  17.930  1.00  0.00     0.211 HD
ENDBRANCH  21  32
BRANCH  22  34
ATOM     34  O   UNL     1      24.221  32.725  14.841  1.00  0.00    -0.385 OA
ATOM     35  H   UNL     1      25.069  32.942  14.346  1.00  0.00     0.211 HD
ENDBRANCH  22  34
ENDBRANCH  16  17
ENDBRANCH  11  16
BRANCH  13  36
ATOM     36  O   UNL     1      30.111  33.294  17.920  1.00  0.00    -0.385 OA
ATOM     37  H   UNL     1      30.690  32.710  18.458  1.00  0.00     0.211 HD
ENDBRANCH  13  36
BRANCH  14  38
ATOM     38  O   UNL     1      31.505  31.888  15.053  1.00  0.00    -0.387 OA
ATOM     39  H   UNL     1      30.882  31.176  15.369  1.00  0.00     0.211 HD
ENDBRANCH  14  38
BRANCH  15  40
ATOM     40  O   UNL     1      30.707  33.815  13.504  1.00  0.00    -0.387 OA
ATOM     41  H   UNL     1      30.684  32.841  13.466  1.00  0.00     0.211 HD
ENDBRANCH  15  40
ENDBRANCH   9  10
ENDBRANCH   8   9
ENDBRANCH   3   8
BRANCH   3  42
ATOM     42  C   UNL     1      30.505  38.728  12.546  1.00  0.00     0.364 C 
ATOM     43  O   UNL     1      30.577  39.373  11.490  1.00  0.00    -0.246 OA
BRANCH  42  44
ATOM     44  O   UNL     1      31.293  39.215  13.594  1.00  0.00    -0.477 OA
ATOM     45  H   UNL     1      31.845  38.556  14.145  1.00  0.00     0.296 HD
ENDBRANCH  42  44
ENDBRANCH   3  42
BRANCH   6  46
ATOM     46  O   UNL     1      26.243  38.747  13.576  1.00  0.00    -0.391 OA
ATOM     47  H   UNL     1      25.926  39.686  13.581  1.00  0.00     0.211 HD
ENDBRANCH   6  46
BRANCH   7  48
ATOM     48  N   UNL     1      27.095  38.811  10.354  1.00  0.00    -0.348 N 
ATOM     49  C   UNL     1      26.033  39.650   9.990  1.00  0.00     0.217 C 
ATOM     50  H   UNL     1      27.989  38.820   9.817  1.00  0.00     0.163 HD
ATOM     51  C   UNL     1      26.092  40.595   8.835  1.00  0.00     0.114 C 
ATOM     52  O   UNL     1      24.973  39.587  10.691  1.00  0.00    -0.275 OA
ENDBRANCH   7  48
ENDBRANCH   1   2
BRANCH   1  53
ATOM     53  O   UNL     1      28.525  34.573  12.104  1.00  0.00    -0.388 OA
ATOM     54  H   UNL     1      29.275  35.156  12.300  1.00  0.00     0.211 HD
ENDBRANCH   1  53
BRANCH   1  55
ATOM     55  C   UNL     1      26.437  34.616  11.155  1.00  0.00     0.165 C 
BRANCH  55  56
ATOM     56  O   UNL     1      26.604  34.631   9.790  1.00  0.00    -0.388 OA
ATOM     57  H   UNL     1      26.871  33.755   9.414  1.00  0.00     0.211 HD
ENDBRANCH  55  56
BRANCH  55  58
ATOM     58  C   UNL     1      24.982  34.925  11.523  1.00  0.00     0.154 C 
BRANCH  58  59
ATOM     59  N   UNL     1      24.770  34.793  12.944  1.00  0.00    -0.319 N 
ATOM     60  C   UNL     1      24.286  35.843  13.757  1.00  0.00     0.407 C 
ATOM     61  H   UNL     1      24.981  33.880  13.390  1.00  0.00     0.167 HD
ATOM     62  O   UNL     1      24.020  36.956  13.232  1.00  0.00    -0.225 OA
BRANCH  60  63
ATOM     63  O   UNL     1      24.092  35.687  15.126  1.00  0.00    -0.443 OA
BRANCH  63  64
ATOM     64  C   UNL     1      23.923  36.850  15.931  1.00  0.00     0.294 C 
BRANCH  64  65
ATOM     65  C   UNL     1      25.270  37.115  16.524  1.00  0.00     0.120 A 
ATOM     66  C   UNL     1      25.989  36.228  17.281  1.00  0.00     0.138 A 
ATOM     67  N   UNL     1      25.999  38.253  16.414  1.00  0.00    -0.132 NA
ATOM     68  N   UNL     1      27.115  36.845  17.606  1.00  0.00    -0.250 N 
ATOM     69  N   UNL     1      27.116  38.069  17.079  1.00  0.00    -0.067 NA
BRANCH  68  70
ATOM     70  C   UNL     1      28.177  36.262  18.426  1.00  0.00     0.167 C 
BRANCH  70  71
ATOM     71  C   UNL     1      27.495  35.491  19.556  1.00  0.00     0.141 C 
BRANCH  71  72
ATOM     72  N   UNL     1      27.722  34.097  19.310  1.00  0.00    -0.336 N 
ATOM     73  C   UNL     1      27.798  33.121  20.324  1.00  0.00     0.315 C 
ATOM     74  H   UNL     1      27.838  33.812  18.301  1.00  0.00     0.165 HD
ATOM     75  O   UNL     1      27.687  33.429  21.531  1.00  0.00    -0.249 OA
ATOM     76  N   UNL     1      28.004  31.750  19.948  1.00  0.00    -0.331 N 
ATOM     77  H   UNL     1      28.091  31.538  18.921  1.00  0.00     0.165 HD
BRANCH  76  78
ATOM     78  C   UNL     1      28.084  30.727  20.952  1.00  0.00     0.193 C 
BRANCH  78  79
ATOM     79  C   UNL     1      29.391  30.022  20.870  1.00  0.00     0.122 A 
ATOM     80  C   UNL     1      30.538  30.562  20.301  1.00  0.00     0.047 A 
ATOM     81  O   UNL     1      29.665  28.837  21.299  1.00  0.00    -0.467 OA
ATOM     82  C   UNL     1      31.505  29.608  20.427  1.00  0.00     0.042 A 
ATOM     83  C   UNL     1      30.923  28.541  21.057  1.00  0.00     0.195 A 
ENDBRANCH  78  79
ENDBRANCH  76  78
ENDBRANCH  71  72
ENDBRANCH  70  71
ENDBRANCH  68  70
ENDBRANCH  64  65
ENDBRANCH  63  64
ENDBRANCH  60  63
ENDBRANCH  58  59
ENDBRANCH  55  58
ENDBRANCH   1  55
TORSDOF 34
BEGIN_RES LYS A 131
REMARK  4 active torsions:
REMARK  status: ('A' for Active; 'I' for Inactive)
REMARK    1  A    between atoms: CA   and  CB  
REMARK    2  A    between atoms: CB   and  CG  
REMARK    3  A    between atoms: CG   and  CD  
REMARK    4  A    between atoms: CD   and  CE  
ROOT
ATOM      1  CA  LYS A 131      29.867  25.555  16.977  1.00 20.52     0.186 C 
ENDROOT
BRANCH   1   2
ATOM      2  CB  LYS A 131      28.345  25.722  17.026  1.00 20.94     0.034 C 
BRANCH   2   3
ATOM      3  CG  LYS A 131      27.602  24.400  16.914  1.00 22.96     0.005 C 
BRANCH   3   4
ATOM      4  CD  LYS A 131      26.151  24.532  17.285  1.00 24.33     0.041 C 
BRANCH   4   5
ATOM      5  CE  LYS A 131      25.633  23.194  17.802  1.00 26.91     0.338 C 
ATOM      6  NZ  LYS A 131      25.501  23.224  19.278  1.00 27.40     0.618 N 
ENDBRANCH   4   5
ENDBRANCH   3   4
ENDBRANCH   2   3
ENDBRANCH   1   2
END_RES LYS A 131
BEGIN_RES LYS A 135
REMARK  4 active torsions:
REMARK  status: ('A' for Active; 'I' for Inactive)
REMARK    5  A    between atoms: CA   and  CB  
REMARK    6  A    between atoms: CB   and  CG  
REMARK    7  A    between atoms: CG   and  CD  
REMARK    8  A    between atoms: CD   and  CE  
ROOT
ATOM      7  CA  LYS A 135      33.193  34.663   9.290  1.00 25.02     0.186 C 
ENDROOT
BRANCH   7   8
ATOM      8  CB  LYS A 135      32.060  35.360  10.034  1.00 26.63     0.034 C 
BRANCH   8   9
ATOM      9  CG  LYS A 135      30.744  34.632   9.946  1.00 29.45     0.005 C 
BRANCH   9  10
ATOM     10  CD  LYS A 135      30.287  34.520   8.500  1.00 32.00     0.041 C 
BRANCH  10  11
ATOM     11  CE  LYS A 135      29.559  35.780   8.073  1.00 34.25     0.338 C 
ATOM     12  NZ  LYS A 135      28.874  35.587   6.764  1.00 35.99     0.618 N 
ENDBRANCH  10  11
ENDBRANCH   9  10
ENDBRANCH   8   9
ENDBRANCH   7   8
END_RES LYS A 135
