REMARK VINA RESULT:    -4.646      2.173      4.859
REMARK INTER + INTRA:         -23.154
REMARK INTER:                 -12.240
REMARK INTRA:                 -10.914
REMARK UNBOUND:               -11.447
REMARK SMILES CC(=O)N[C@@H]1[C@@H](O)C[C@](OC[C@H]2O[C@@H](O[C@H]3[C@H](O)[C@@H](O)[C@H](OCCN=[N+]=[N-])O[C@@H]3CO)[C@H](O)[C@@H](O)[C@H]2O)(C(=O)O)O[C@H]1C(O)[C@H](O)CNC(=O)OCc1cn(-c2ccccc2C(C)C)nn1
REMARK SMILES IDX 9 1 8 2 6 3 5 4 42 5 41 6 10 7 11 8 12 9 14 10 13 11 32 12
REMARK SMILES IDX 34 13 36 14 15 15 16 16 29 17 28 18 21 19 17 20 19 21 30 22
REMARK SMILES IDX 31 23 22 25 23 26 24 27 25 28 26 29 27 30 18 31 20 33 33 35
REMARK SMILES IDX 35 37 37 39 38 41 39 42 40 43 7 45 43 47 44 48 45 50 46 51
REMARK SMILES IDX 47 53 48 54 49 55 50 57 51 58 52 59 53 60 54 61 66 62 55 63
REMARK SMILES IDX 65 64 56 65 61 66 57 67 60 68 58 69 59 70 62 71 63 72 64 73
REMARK SMILES IDX 4 74 2 75 1 77 3 78
REMARK H PARENT 31 24 18 32 20 34 33 36 35 38 37 40 40 44 7 46 44 49 46 52
REMARK H PARENT 48 56 4 76
REMARK Flexibility Score: inf
ROOT
ATOM      1  C   UNL     1      28.303  41.526   5.988  1.00  0.00     0.272 C 
ATOM      2  C   UNL     1      27.462  41.884   7.191  1.00  0.00     0.113 C 
ATOM      3  C   UNL     1      27.473  40.686   8.129  1.00  0.00     0.145 C 
ATOM      4  C   UNL     1      26.675  39.570   7.431  1.00  0.00     0.142 C 
ATOM      5  C   UNL     1      27.214  39.432   6.058  1.00  0.00     0.178 C 
ATOM      6  O   UNL     1      28.424  40.104   5.961  1.00  0.00    -0.332 OA
ENDROOT
BRANCH   1   7
ATOM      7  O   UNL     1      29.576  41.946   6.106  1.00  0.00    -0.338 OA
BRANCH   7   8
ATOM      8  C   UNL     1      30.702  41.355   5.899  1.00  0.00     0.199 C 
BRANCH   8   9
ATOM      9  C   UNL     1      31.846  41.336   6.860  1.00  0.00     0.179 C 
ATOM     10  C   UNL     1      32.445  40.993   9.025  1.00  0.00     0.282 C 
ATOM     11  O   UNL     1      31.459  41.313   8.177  1.00  0.00    -0.341 OA
ATOM     12  C   UNL     1      33.865  41.092   8.487  1.00  0.00     0.202 C 
ATOM     13  C   UNL     1      34.035  40.302   7.217  1.00  0.00     0.179 C 
ATOM     14  C   UNL     1      32.683  40.059   6.614  1.00  0.00     0.177 C 
BRANCH  10  15
ATOM     15  O   UNL     1      32.346  39.824   9.717  1.00  0.00    -0.341 OA
BRANCH  15  16
ATOM     16  C   UNL     1      31.201  39.551  10.422  1.00  0.00     0.184 C 
ATOM     17  C   UNL     1      31.215  40.081  11.817  1.00  0.00     0.178 C 
ATOM     18  O   UNL     1      31.047  39.133  12.765  1.00  0.00    -0.341 OA
ATOM     19  C   UNL     1      29.972  38.301  12.721  1.00  0.00     0.281 C 
ATOM     20  C   UNL     1      30.744  38.150  10.376  1.00  0.00     0.180 C 
ATOM     21  C   UNL     1      29.532  38.021  11.283  1.00  0.00     0.202 C 
BRANCH  17  22
ATOM     22  C   UNL     1      30.173  41.185  12.061  1.00  0.00     0.191 C 
BRANCH  22  23
ATOM     23  O   UNL     1      29.677  41.573  10.795  1.00  0.00    -0.394 OA
ATOM     24  H   UNL     1      29.793  40.767  10.200  1.00  0.00     0.210 HD
ENDBRANCH  22  23
ENDBRANCH  17  22
BRANCH  19  25
ATOM     25  O   UNL     1      28.906  38.850  13.382  1.00  0.00    -0.350 OA
BRANCH  25  26
ATOM     26  C   UNL     1      28.687  38.480  14.672  1.00  0.00     0.169 C 
BRANCH  26  27
ATOM     27  C   UNL     1      28.136  37.128  14.933  1.00  0.00     0.119 C 
BRANCH  27  28
ATOM     28  N   UNL     1      29.157  36.177  15.215  1.00  0.00    -0.092 NA
ATOM     29  N   UNL     1      29.319  35.093  14.690  1.00  0.00     0.001 N 
ATOM     30  N   UNL     1      29.433  34.112  13.965  1.00  0.00    -0.003 NA
ENDBRANCH  27  28
ENDBRANCH  26  27
ENDBRANCH  25  26
ENDBRANCH  19  25
BRANCH  20  31
ATOM     31  O   UNL     1      30.331  37.717   9.117  1.00  0.00    -0.387 OA
ATOM     32  H   UNL     1      29.357  37.588   9.142  1.00  0.00     0.211 HD
ENDBRANCH  20  31
BRANCH  21  33
ATOM     33  O   UNL     1      29.020  36.722  11.239  1.00  0.00    -0.385 OA
ATOM     34  H   UNL     1      29.617  36.199  10.646  1.00  0.00     0.211 HD
ENDBRANCH  21  33
ENDBRANCH  15  16
ENDBRANCH  10  15
BRANCH  12  35
ATOM     35  O   UNL     1      34.149  42.431   8.280  1.00  0.00    -0.385 OA
ATOM     36  H   UNL     1      33.499  42.818   7.612  1.00  0.00     0.211 HD
ENDBRANCH  12  35
BRANCH  13  37
ATOM     37  O   UNL     1      34.688  39.097   7.512  1.00  0.00    -0.387 OA
ATOM     38  H   UNL     1      34.020  38.379   7.383  1.00  0.00     0.211 HD
ENDBRANCH  13  37
BRANCH  14  39
ATOM     39  O   UNL     1      32.052  39.027   7.276  1.00  0.00    -0.387 OA
ATOM     40  H   UNL     1      31.209  38.828   6.798  1.00  0.00     0.211 HD
ENDBRANCH  14  39
ENDBRANCH   8   9
ENDBRANCH   7   8
ENDBRANCH   1   7
BRANCH   1  41
ATOM     41  C   UNL     1      27.667  41.945   4.733  1.00  0.00     0.364 C 
ATOM     42  O   UNL     1      28.327  41.717   3.657  1.00  0.00    -0.246 OA
BRANCH  41  43
ATOM     43  O   UNL     1      26.455  42.556   4.547  1.00  0.00    -0.477 OA
ATOM     44  H   UNL     1      26.287  43.540   4.443  1.00  0.00     0.296 HD
ENDBRANCH  41  43
ENDBRANCH   1  41
BRANCH   3  45
ATOM     45  O   UNL     1      28.773  40.183   8.236  1.00  0.00    -0.391 OA
ATOM     46  H   UNL     1      29.380  40.960   8.319  1.00  0.00     0.211 HD
ENDBRANCH   3  45
BRANCH   5  47
ATOM     47  C   UNL     1      27.493  38.046   5.563  1.00  0.00     0.176 C 
BRANCH  47  48
ATOM     48  O   UNL     1      26.423  37.271   6.133  1.00  0.00    -0.388 OA
ATOM     49  H   UNL     1      25.614  37.765   5.786  1.00  0.00     0.211 HD
ENDBRANCH  47  48
BRANCH  47  50
ATOM     50  C   UNL     1      28.750  37.396   6.046  1.00  0.00     0.165 C 
BRANCH  50  51
ATOM     51  O   UNL     1      29.898  38.015   5.633  1.00  0.00    -0.388 OA
ATOM     52  H   UNL     1      30.301  37.435   4.936  1.00  0.00     0.211 HD
ENDBRANCH  50  51
BRANCH  50  53
ATOM     53  C   UNL     1      28.710  35.914   6.022  1.00  0.00     0.154 C 
BRANCH  53  54
ATOM     54  N   UNL     1      28.327  35.280   7.268  1.00  0.00    -0.319 N 
ATOM     55  C   UNL     1      29.295  34.793   8.181  1.00  0.00     0.407 C 
ATOM     56  H   UNL     1      27.331  35.156   7.548  1.00  0.00     0.167 HD
ATOM     57  O   UNL     1      30.530  34.864   7.988  1.00  0.00    -0.225 OA
BRANCH  55  58
ATOM     58  O   UNL     1      28.947  34.177   9.407  1.00  0.00    -0.443 OA
BRANCH  58  59
ATOM     59  C   UNL     1      27.674  33.633   9.576  1.00  0.00     0.294 C 
BRANCH  59  60
ATOM     60  C   UNL     1      26.858  34.579  10.387  1.00  0.00     0.121 A 
ATOM     61  C   UNL     1      25.902  35.494  10.002  1.00  0.00     0.144 A 
ATOM     62  N   UNL     1      26.914  34.717  11.750  1.00  0.00    -0.131 NA
ATOM     63  N   UNL     1      25.405  36.149  11.064  1.00  0.00    -0.220 N 
ATOM     64  N   UNL     1      26.054  35.642  12.121  1.00  0.00    -0.062 NA
BRANCH  63  65
ATOM     65  C   UNL     1      24.404  37.160  11.119  1.00  0.00     0.070 A 
ATOM     66  C   UNL     1      23.105  36.844  10.788  1.00  0.00    -0.020 A 
ATOM     67  C   UNL     1      24.664  38.464  11.480  1.00  0.00     0.029 A 
ATOM     68  C   UNL     1      22.109  37.799  10.817  1.00  0.00     0.006 A 
ATOM     69  C   UNL     1      23.678  39.432  11.514  1.00  0.00     0.002 A 
ATOM     70  C   UNL     1      22.382  39.097  11.178  1.00  0.00     0.000 A 
BRANCH  66  71
ATOM     71  C   UNL     1      22.781  35.454  10.406  1.00  0.00     0.015 C 
ATOM     72  C   UNL     1      22.044  35.491   9.076  1.00  0.00     0.012 C 
ATOM     73  C   UNL     1      21.829  34.849  11.450  1.00  0.00     0.012 C 
ENDBRANCH  66  71
ENDBRANCH  63  65
ENDBRANCH  59  60
ENDBRANCH  58  59
ENDBRANCH  55  58
ENDBRANCH  53  54
ENDBRANCH  50  53
ENDBRANCH  47  50
ENDBRANCH   5  47
BRANCH   4  74
ATOM     74  N   UNL     1      25.286  39.967   7.458  1.00  0.00    -0.348 N 
ATOM     75  C   UNL     1      24.199  39.097   7.640  1.00  0.00     0.217 C 
ATOM     76  H   UNL     1      25.066  41.000   7.323  1.00  0.00     0.163 HD
ATOM     77  C   UNL     1      22.810  39.668   7.637  1.00  0.00     0.114 C 
ATOM     78  O   UNL     1      24.376  37.883   7.799  1.00  0.00    -0.275 OA
ENDBRANCH   4  74
TORSDOF 31
BEGIN_RES LYS A 131
REMARK  4 active torsions:
REMARK  status: ('A' for Active; 'I' for Inactive)
REMARK    1  A    between atoms: CA   and  CB  
REMARK    2  A    between atoms: CB   and  CG  
REMARK    3  A    between atoms: CG   and  CD  
REMARK    4  A    between atoms: CD   and  CE  
ROOT
ATOM      1  CA  LYS A 131      29.867  25.555  16.977  1.00 20.52     0.186 C 
ENDROOT
BRANCH   1   2
ATOM      2  CB  LYS A 131      28.345  25.722  17.026  1.00 20.94     0.034 C 
BRANCH   2   3
ATOM      3  CG  LYS A 131      27.599  24.446  16.668  1.00 22.96     0.005 C 
BRANCH   3   4
ATOM      4  CD  LYS A 131      27.100  23.721  17.888  1.00 24.33     0.041 C 
BRANCH   4   5
ATOM      5  CE  LYS A 131      25.710  24.233  18.252  1.00 26.91     0.338 C 
ATOM      6  NZ  LYS A 131      24.863  24.341  17.040  1.00 27.40     0.618 N 
ENDBRANCH   4   5
ENDBRANCH   3   4
ENDBRANCH   2   3
ENDBRANCH   1   2
END_RES LYS A 131
BEGIN_RES LYS A 135
REMARK  4 active torsions:
REMARK  status: ('A' for Active; 'I' for Inactive)
REMARK    5  A    between atoms: CA   and  CB  
REMARK    6  A    between atoms: CB   and  CG  
REMARK    7  A    between atoms: CG   and  CD  
REMARK    8  A    between atoms: CD   and  CE  
ROOT
ATOM      7  CA  LYS A 135      33.193  34.663   9.290  1.00 25.02     0.186 C 
ENDROOT
BRANCH   7   8
ATOM      8  CB  LYS A 135      32.060  35.360  10.034  1.00 26.63     0.034 C 
BRANCH   8   9
ATOM      9  CG  LYS A 135      31.908  34.905  11.463  1.00 29.45     0.005 C 
BRANCH   9  10
ATOM     10  CD  LYS A 135      32.571  35.890  12.413  1.00 32.00     0.041 C 
BRANCH  10  11
ATOM     11  CE  LYS A 135      32.882  35.223  13.739  1.00 34.25     0.338 C 
ATOM     12  NZ  LYS A 135      32.728  36.179  14.870  1.00 35.99     0.618 N 
ENDBRANCH  10  11
ENDBRANCH   9  10
ENDBRANCH   8   9
ENDBRANCH   7   8
END_RES LYS A 135
