REMARK VINA RESULT:    -5.614      2.889      7.371
REMARK INTER + INTRA:         -25.990
REMARK INTER:                 -11.701
REMARK INTRA:                 -14.289
REMARK UNBOUND:               -11.349
REMARK SMILES CC(=O)N[C@@H]1[C@@H](O)C[C@](OC[C@H]2O[C@@H](O[C@H]3[C@H](O)[C@@H](O)[C@H](OCCN=[N+]=[N-])O[C@@H]3CO)[C@H](O)[C@@H](O)[C@H]2O)(C(=O)O)O[C@H]1C(O)[C@H](O)CNC(=O)OCc1cn(-c2ccc(-c3c4ccc(=O)cc-4oc4cc(O)ccc34)c(C(=O)[O-])c2)nn1
REMARK SMILES IDX 9 1 8 2 6 3 5 4 42 5 41 6 10 7 11 8 12 9 14 10 13 11 32 12
REMARK SMILES IDX 34 13 36 14 15 15 16 16 29 17 28 18 21 19 17 20 19 21 30 22
REMARK SMILES IDX 31 23 22 25 23 26 24 27 25 28 26 29 27 30 18 31 20 33 33 35
REMARK SMILES IDX 35 37 37 39 38 41 39 42 40 43 7 45 43 47 44 48 45 50 46 51
REMARK SMILES IDX 47 53 48 54 49 55 50 57 51 58 52 59 53 60 54 61 82 62 55 63
REMARK SMILES IDX 81 64 56 65 80 66 57 67 76 68 58 69 59 70 77 71 78 72 79 73
REMARK SMILES IDX 60 74 75 75 61 76 74 77 69 78 67 79 62 80 73 81 70 82 68 83
REMARK SMILES IDX 66 84 63 85 71 86 64 87 65 88 72 89 4 91 2 92 1 94 3 95
REMARK H PARENT 31 24 18 32 20 34 33 36 35 38 37 40 40 44 7 46 44 49 46 52
REMARK H PARENT 48 56 72 90 4 93
REMARK Flexibility Score: inf
ROOT
ATOM      1  C   UNL     1      28.277  39.119  14.203  1.00  0.00     0.272 C 
ATOM      2  C   UNL     1      26.817  38.746  14.276  1.00  0.00     0.113 C 
ATOM      3  C   UNL     1      26.425  37.684  13.288  1.00  0.00     0.145 C 
ATOM      4  C   UNL     1      27.517  37.588  12.253  1.00  0.00     0.142 C 
ATOM      5  C   UNL     1      27.891  39.001  11.889  1.00  0.00     0.178 C 
ATOM      6  O   UNL     1      28.627  39.560  12.904  1.00  0.00    -0.332 OA
ENDROOT
BRANCH   1   7
ATOM      7  O   UNL     1      29.162  38.160  14.610  1.00  0.00    -0.338 OA
BRANCH   7   8
ATOM      8  C   UNL     1      30.453  38.551  14.630  1.00  0.00     0.199 C 
BRANCH   8   9
ATOM      9  C   UNL     1      31.411  37.352  14.683  1.00  0.00     0.179 C 
ATOM     10  C   UNL     1      31.595  35.216  15.531  1.00  0.00     0.282 C 
ATOM     11  O   UNL     1      31.116  36.488  15.673  1.00  0.00    -0.341 OA
ATOM     12  C   UNL     1      32.836  35.088  14.737  1.00  0.00     0.202 C 
ATOM     13  C   UNL     1      32.757  35.793  13.404  1.00  0.00     0.179 C 
ATOM     14  C   UNL     1      31.532  36.692  13.359  1.00  0.00     0.177 C 
BRANCH  10  15
ATOM     15  O   UNL     1      30.516  34.421  15.145  1.00  0.00    -0.341 OA
BRANCH  15  16
ATOM     16  C   UNL     1      29.647  34.151  16.151  1.00  0.00     0.184 C 
ATOM     17  C   UNL     1      29.534  32.686  16.443  1.00  0.00     0.178 C 
ATOM     18  O   UNL     1      28.992  32.487  17.720  1.00  0.00    -0.341 OA
ATOM     19  C   UNL     1      27.924  33.346  17.954  1.00  0.00     0.281 C 
ATOM     20  C   UNL     1      28.206  34.589  15.833  1.00  0.00     0.180 C 
ATOM     21  C   UNL     1      27.259  33.788  16.700  1.00  0.00     0.202 C 
BRANCH  17  22
ATOM     22  C   UNL     1      30.884  32.039  16.397  1.00  0.00     0.191 C 
BRANCH  22  23
ATOM     23  O   UNL     1      31.201  31.753  15.067  1.00  0.00    -0.394 OA
ATOM     24  H   UNL     1      30.463  31.212  14.708  1.00  0.00     0.210 HD
ENDBRANCH  22  23
ENDBRANCH  17  22
BRANCH  19  25
ATOM     25  O   UNL     1      28.303  34.413  18.741  1.00  0.00    -0.350 OA
BRANCH  25  26
ATOM     26  C   UNL     1      27.463  34.649  19.823  1.00  0.00     0.169 C 
BRANCH  26  27
ATOM     27  C   UNL     1      26.963  36.075  19.673  1.00  0.00     0.119 C 
BRANCH  27  28
ATOM     28  N   UNL     1      25.629  36.121  19.137  1.00  0.00    -0.092 NA
ATOM     29  N   UNL     1      25.460  36.587  18.002  1.00  0.00     0.001 N 
ATOM     30  N   UNL     1      25.105  36.765  16.837  1.00  0.00    -0.003 NA
ENDBRANCH  27  28
ENDBRANCH  26  27
ENDBRANCH  25  26
ENDBRANCH  19  25
BRANCH  20  31
ATOM     31  O   UNL     1      28.108  35.922  16.224  1.00  0.00    -0.387 OA
ATOM     32  H   UNL     1      27.590  36.057  17.047  1.00  0.00     0.211 HD
ENDBRANCH  20  31
BRANCH  21  33
ATOM     33  O   UNL     1      26.648  32.737  16.015  1.00  0.00    -0.385 OA
ATOM     34  H   UNL     1      27.405  32.230  15.585  1.00  0.00     0.211 HD
ENDBRANCH  21  33
ENDBRANCH  15  16
ENDBRANCH  10  15
BRANCH  12  35
ATOM     35  O   UNL     1      33.945  35.587  15.467  1.00  0.00    -0.385 OA
ATOM     36  H   UNL     1      34.211  34.896  16.145  1.00  0.00     0.211 HD
ENDBRANCH  12  35
BRANCH  13  37
ATOM     37  O   UNL     1      32.819  34.914  12.335  1.00  0.00    -0.387 OA
ATOM     38  H   UNL     1      33.609  35.150  11.795  1.00  0.00     0.211 HD
ENDBRANCH  13  37
BRANCH  14  39
ATOM     39  O   UNL     1      30.446  35.907  12.998  1.00  0.00    -0.387 OA
ATOM     40  H   UNL     1      30.555  35.049  13.504  1.00  0.00     0.211 HD
ENDBRANCH  14  39
ENDBRANCH   8   9
ENDBRANCH   7   8
ENDBRANCH   1   7
BRANCH   1  41
ATOM     41  C   UNL     1      28.386  40.393  15.021  1.00  0.00     0.364 C 
ATOM     42  O   UNL     1      28.190  40.441  16.248  1.00  0.00    -0.246 OA
BRANCH  41  43
ATOM     43  O   UNL     1      28.722  41.590  14.395  1.00  0.00    -0.477 OA
ATOM     44  H   UNL     1      29.684  41.890  14.329  1.00  0.00     0.296 HD
ENDBRANCH  41  43
ENDBRANCH   1  41
BRANCH   3  45
ATOM     45  O   UNL     1      26.171  36.503  13.958  1.00  0.00    -0.391 OA
ATOM     46  H   UNL     1      25.308  36.607  14.430  1.00  0.00     0.211 HD
ENDBRANCH   3  45
BRANCH   5  47
ATOM     47  C   UNL     1      28.795  39.016  10.652  1.00  0.00     0.176 C 
BRANCH  47  48
ATOM     48  O   UNL     1      29.679  37.915  10.756  1.00  0.00    -0.388 OA
ATOM     49  H   UNL     1      30.415  38.082  11.366  1.00  0.00     0.211 HD
ENDBRANCH  47  48
BRANCH  47  50
ATOM     50  C   UNL     1      29.659  40.233  10.636  1.00  0.00     0.165 C 
BRANCH  50  51
ATOM     51  O   UNL     1      28.880  41.374  10.841  1.00  0.00    -0.388 OA
ATOM     52  H   UNL     1      29.453  42.078  11.239  1.00  0.00     0.211 HD
ENDBRANCH  50  51
BRANCH  50  53
ATOM     53  C   UNL     1      30.533  40.389   9.441  1.00  0.00     0.154 C 
BRANCH  53  54
ATOM     54  N   UNL     1      29.817  40.161   8.207  1.00  0.00    -0.319 N 
ATOM     55  C   UNL     1      29.077  41.150   7.517  1.00  0.00     0.407 C 
ATOM     56  H   UNL     1      29.814  39.203   7.739  1.00  0.00     0.167 HD
ATOM     57  O   UNL     1      29.013  42.309   7.971  1.00  0.00    -0.225 OA
BRANCH  55  58
ATOM     58  O   UNL     1      28.398  40.893   6.333  1.00  0.00    -0.443 OA
BRANCH  58  59
ATOM     59  C   UNL     1      27.827  39.612   6.042  1.00  0.00     0.294 C 
BRANCH  59  60
ATOM     60  C   UNL     1      26.653  39.477   6.941  1.00  0.00     0.121 A 
ATOM     61  C   UNL     1      26.199  38.335   7.540  1.00  0.00     0.144 A 
ATOM     62  N   UNL     1      25.804  40.467   7.340  1.00  0.00    -0.131 NA
ATOM     63  N   UNL     1      25.108  38.626   8.279  1.00  0.00    -0.220 N 
ATOM     64  N   UNL     1      24.896  39.932   8.135  1.00  0.00    -0.062 NA
BRANCH  63  65
ATOM     65  C   UNL     1      24.357  37.701   9.050  1.00  0.00     0.067 A 
ATOM     66  C   UNL     1      23.856  38.020  10.290  1.00  0.00     0.039 A 
ATOM     67  C   UNL     1      24.122  36.450   8.536  1.00  0.00     0.029 A 
ATOM     68  C   UNL     1      23.130  37.089  10.995  1.00  0.00     0.007 A 
ATOM     69  C   UNL     1      23.394  35.519   9.246  1.00  0.00     0.012 A 
ATOM     70  C   UNL     1      22.883  35.816  10.488  1.00  0.00    -0.008 A 
BRANCH  68  71
ATOM     71  C   UNL     1      22.581  37.396  12.319  1.00  0.00     0.072 C 
ATOM     72  O   UNL     1      23.206  37.134  13.374  1.00  0.00    -0.545 OA
ATOM     73  O   UNL     1      21.346  37.988  12.412  1.00  0.00    -0.545 OA
ENDBRANCH  68  71
BRANCH  70  74
ATOM     74  C   UNL     1      22.112  34.844  11.242  1.00  0.00     0.004 A 
ATOM     75  C   UNL     1      22.772  33.982  12.082  1.00  0.00     0.026 A 
ATOM     76  C   UNL     1      20.748  34.755  11.140  1.00  0.00     0.026 A 
ATOM     77  C   UNL     1      24.137  33.997  12.247  1.00  0.00     0.016 A 
ATOM     78  C   UNL     1      22.020  33.054  12.795  1.00  0.00     0.139 A 
ATOM     79  C   UNL     1      19.992  33.752  11.920  1.00  0.00     0.139 A 
ATOM     80  C   UNL     1      20.021  35.583  10.322  1.00  0.00     0.016 A 
ATOM     81  C   UNL     1      24.791  33.124  13.096  1.00  0.00     0.047 A 
ATOM     82  C   UNL     1      22.676  32.190  13.636  1.00  0.00     0.093 A 
ATOM     83  O   UNL     1      20.707  32.976  12.691  1.00  0.00    -0.456 OA
ATOM     84  C   UNL     1      18.627  33.667  11.815  1.00  0.00     0.099 A 
ATOM     85  C   UNL     1      18.644  35.486  10.227  1.00  0.00     0.053 A 
ATOM     86  C   UNL     1      24.054  32.202  13.806  1.00  0.00     0.119 A 
ATOM     87  C   UNL     1      17.972  34.533  10.972  1.00  0.00     0.182 A 
ATOM     88  O   UNL     1      16.719  34.496  10.841  1.00  0.00    -0.290 OA
BRANCH  86  89
ATOM     89  O   UNL     1      24.717  31.330  14.657  1.00  0.00    -0.508 OA
ATOM     90  H   UNL     1      24.694  31.557  15.648  1.00  0.00     0.293 HD
ENDBRANCH  86  89
ENDBRANCH  70  74
ENDBRANCH  63  65
ENDBRANCH  59  60
ENDBRANCH  58  59
ENDBRANCH  55  58
ENDBRANCH  53  54
ENDBRANCH  50  53
ENDBRANCH  47  50
ENDBRANCH   5  47
BRANCH   4  91
ATOM     91  N   UNL     1      27.121  36.814  11.097  1.00  0.00    -0.348 N 
ATOM     92  C   UNL     1      27.327  35.420  11.115  1.00  0.00     0.217 C 
ATOM     93  H   UNL     1      26.689  37.236  10.246  1.00  0.00     0.163 HD
ATOM     94  C   UNL     1      26.961  34.529   9.986  1.00  0.00     0.114 C 
ATOM     95  O   UNL     1      27.853  34.841  12.128  1.00  0.00    -0.275 OA
ENDBRANCH   4  91
TORSDOF 33
BEGIN_RES LYS A 131
REMARK  4 active torsions:
REMARK  status: ('A' for Active; 'I' for Inactive)
REMARK    1  A    between atoms: CA   and  CB  
REMARK    2  A    between atoms: CB   and  CG  
REMARK    3  A    between atoms: CG   and  CD  
REMARK    4  A    between atoms: CD   and  CE  
ROOT
ATOM      1  CA  LYS A 131      29.867  25.555  16.977  1.00 20.52     0.186 C 
ENDROOT
BRANCH   1   2
ATOM      2  CB  LYS A 131      28.345  25.722  17.026  1.00 20.94     0.034 C 
BRANCH   2   3
ATOM      3  CG  LYS A 131      27.602  24.400  16.913  1.00 22.96     0.005 C 
BRANCH   3   4
ATOM      4  CD  LYS A 131      26.653  24.183  18.059  1.00 24.33     0.041 C 
BRANCH   4   5
ATOM      5  CE  LYS A 131      26.084  25.525  18.509  1.00 26.91     0.338 C 
ATOM      6  NZ  LYS A 131      24.786  25.788  17.844  1.00 27.40     0.618 N 
ENDBRANCH   4   5
ENDBRANCH   3   4
ENDBRANCH   2   3
ENDBRANCH   1   2
END_RES LYS A 131
BEGIN_RES LYS A 135
REMARK  4 active torsions:
REMARK  status: ('A' for Active; 'I' for Inactive)
REMARK    5  A    between atoms: CA   and  CB  
REMARK    6  A    between atoms: CB   and  CG  
REMARK    7  A    between atoms: CG   and  CD  
REMARK    8  A    between atoms: CD   and  CE  
ROOT
ATOM      7  CA  LYS A 135      33.193  34.663   9.290  1.00 25.02     0.186 C 
ENDROOT
BRANCH   7   8
ATOM      8  CB  LYS A 135      32.060  35.360  10.034  1.00 26.63     0.034 C 
BRANCH   8   9
ATOM      9  CG  LYS A 135      30.691  34.860   9.651  1.00 29.45     0.005 C 
BRANCH   9  10
ATOM     10  CD  LYS A 135      30.641  34.512   8.172  1.00 32.00     0.041 C 
BRANCH  10  11
ATOM     11  CE  LYS A 135      29.388  35.081   7.533  1.00 34.25     0.338 C 
ATOM     12  NZ  LYS A 135      29.319  36.558   7.709  1.00 35.99     0.618 N 
ENDBRANCH  10  11
ENDBRANCH   9  10
ENDBRANCH   8   9
ENDBRANCH   7   8
END_RES LYS A 135
