REMARK VINA RESULT:    -4.872      3.936     10.180
REMARK INTER + INTRA:         -23.869
REMARK INTER:                 -13.950
REMARK INTRA:                  -9.919
REMARK UNBOUND:               -10.737
REMARK SMILES CC(=O)N[C@@H]1[C@@H](O)C[C@](OC[C@H]2O[C@@H](O[C@H]3[C@H](O)[C@@H](O)[C@H](OCCN=[N+]=[N-])O[C@@H]3CO)[C@H](O)[C@@H](O)[C@H]2O)(C(=O)O)O[C@H]1C(O)[C@H](O)CNC(=O)OCc1cn(CCNC(=O)NCc2ccco2)nn1
REMARK SMILES IDX 43 1 42 2 9 3 8 4 41 5 6 6 5 7 10 8 11 9 12 10 14 11 13 12
REMARK SMILES IDX 32 13 34 14 36 15 15 16 16 17 29 18 28 19 21 20 17 21 19 22
REMARK SMILES IDX 30 23 31 24 22 26 23 27 24 28 25 29 26 30 27 31 18 32 20 34
REMARK SMILES IDX 33 36 35 38 37 40 38 42 39 43 40 44 7 46 4 48 2 49 1 51 3 52
REMARK SMILES IDX 44 53 45 55 46 56 47 58 48 59 49 60 50 62 51 63 52 64 53 65
REMARK SMILES IDX 54 66 69 67 55 68 68 69 56 70 57 71 58 72 59 73 60 75 61 76
REMARK SMILES IDX 62 78 63 79 64 80 67 81 65 82 66 83
REMARK H PARENT 31 25 18 33 20 35 33 37 35 39 37 41 40 45 7 47 4 50 44 54
REMARK H PARENT 46 57 48 61 58 74 61 77
REMARK Flexibility Score: inf
ROOT
ATOM      1  C   UNL     1      28.835  35.955  12.844  1.00  0.00     0.176 C 
ENDROOT
BRANCH   1   2
ATOM      2  C   UNL     1      30.223  36.248  12.370  1.00  0.00     0.178 C 
ATOM      3  C   UNL     1      31.726  35.123  13.829  1.00  0.00     0.272 C 
ATOM      4  C   UNL     1      31.419  36.359  14.735  1.00  0.00     0.113 C 
ATOM      5  O   UNL     1      31.120  35.259  12.632  1.00  0.00    -0.332 OA
ATOM      6  C   UNL     1      31.432  37.633  13.988  1.00  0.00     0.145 C 
ATOM      7  C   UNL     1      30.733  37.615  12.651  1.00  0.00     0.142 C 
BRANCH   3   8
ATOM      8  O   UNL     1      31.130  34.080  14.503  1.00  0.00    -0.338 OA
BRANCH   8   9
ATOM      9  C   UNL     1      30.573  34.259  15.697  1.00  0.00     0.199 C 
BRANCH   9  10
ATOM     10  C   UNL     1      29.538  33.455  16.317  1.00  0.00     0.179 C 
ATOM     11  C   UNL     1      27.471  32.464  16.229  1.00  0.00     0.282 C 
ATOM     12  O   UNL     1      28.527  32.998  15.489  1.00  0.00    -0.341 OA
ATOM     13  C   UNL     1      27.820  32.028  17.604  1.00  0.00     0.202 C 
ATOM     14  C   UNL     1      29.224  31.535  17.801  1.00  0.00     0.179 C 
ATOM     15  C   UNL     1      30.201  32.173  16.858  1.00  0.00     0.177 C 
BRANCH  11  16
ATOM     16  O   UNL     1      26.837  31.428  15.564  1.00  0.00    -0.341 OA
BRANCH  16  17
ATOM     17  C   UNL     1      25.598  31.087  16.145  1.00  0.00     0.184 C 
ATOM     18  C   UNL     1      25.357  29.633  15.859  1.00  0.00     0.178 C 
ATOM     19  O   UNL     1      24.006  29.348  15.678  1.00  0.00    -0.341 OA
ATOM     20  C   UNL     1      23.623  29.983  14.503  1.00  0.00     0.281 C 
ATOM     21  C   UNL     1      24.572  32.027  15.607  1.00  0.00     0.180 C 
ATOM     22  C   UNL     1      23.513  31.451  14.745  1.00  0.00     0.202 C 
BRANCH  18  23
ATOM     23  C   UNL     1      25.798  28.831  17.084  1.00  0.00     0.191 C 
BRANCH  23  24
ATOM     24  O   UNL     1      27.166  28.531  16.906  1.00  0.00    -0.394 OA
ATOM     25  H   UNL     1      27.400  28.952  16.028  1.00  0.00     0.210 HD
ENDBRANCH  23  24
ENDBRANCH  18  23
BRANCH  20  26
ATOM     26  O   UNL     1      22.343  29.509  14.203  1.00  0.00    -0.350 OA
BRANCH  26  27
ATOM     27  C   UNL     1      22.275  29.005  12.904  1.00  0.00     0.169 C 
BRANCH  27  28
ATOM     28  C   UNL     1      21.073  29.682  12.240  1.00  0.00     0.119 C 
BRANCH  28  29
ATOM     29  N   UNL     1      20.152  28.620  11.875  1.00  0.00    -0.092 NA
ATOM     30  N   UNL     1      19.619  27.914  12.743  1.00  0.00     0.001 N 
ATOM     31  N   UNL     1      18.876  27.441  13.621  1.00  0.00    -0.003 NA
ENDBRANCH  28  29
ENDBRANCH  27  28
ENDBRANCH  26  27
ENDBRANCH  20  26
BRANCH  21  32
ATOM     32  O   UNL     1      23.991  32.683  16.711  1.00  0.00    -0.387 OA
ATOM     33  H   UNL     1      24.529  33.435  17.019  1.00  0.00     0.211 HD
ENDBRANCH  21  32
BRANCH  22  34
ATOM     34  O   UNL     1      23.601  32.065  13.470  1.00  0.00    -0.385 OA
ATOM     35  H   UNL     1      24.385  31.622  13.023  1.00  0.00     0.211 HD
ENDBRANCH  22  34
ENDBRANCH  16  17
ENDBRANCH  11  16
BRANCH  13  36
ATOM     36  O   UNL     1      27.448  32.959  18.583  1.00  0.00    -0.385 OA
ATOM     37  H   UNL     1      26.521  32.827  18.883  1.00  0.00     0.211 HD
ENDBRANCH  13  36
BRANCH  14  38
ATOM     38  O   UNL     1      29.303  30.138  17.723  1.00  0.00    -0.387 OA
ATOM     39  H   UNL     1      28.825  29.898  16.881  1.00  0.00     0.211 HD
ENDBRANCH  14  38
BRANCH  15  40
ATOM     40  O   UNL     1      30.608  31.353  15.833  1.00  0.00    -0.387 OA
ATOM     41  H   UNL     1      31.455  31.693  15.488  1.00  0.00     0.211 HD
ENDBRANCH  15  40
ENDBRANCH   9  10
ENDBRANCH   8   9
ENDBRANCH   3   8
BRANCH   3  42
ATOM     42  C   UNL     1      33.184  35.033  13.865  1.00  0.00     0.364 C 
ATOM     43  O   UNL     1      33.824  35.279  14.898  1.00  0.00    -0.246 OA
BRANCH  42  44
ATOM     44  O   UNL     1      33.960  34.669  12.760  1.00  0.00    -0.477 OA
ATOM     45  H   UNL     1      33.496  34.481  11.870  1.00  0.00     0.296 HD
ENDBRANCH  42  44
ENDBRANCH   3  42
BRANCH   6  46
ATOM     46  O   UNL     1      30.821  38.606  14.801  1.00  0.00    -0.391 OA
ATOM     47  H   UNL     1      31.273  39.476  14.657  1.00  0.00     0.211 HD
ENDBRANCH   6  46
BRANCH   7  48
ATOM     48  N   UNL     1      31.678  38.059  11.626  1.00  0.00    -0.348 N 
ATOM     49  C   UNL     1      31.268  38.871  10.560  1.00  0.00     0.217 C 
ATOM     50  H   UNL     1      32.670  37.753  11.712  1.00  0.00     0.163 HD
ATOM     51  C   UNL     1      32.194  39.348   9.489  1.00  0.00     0.114 C 
ATOM     52  O   UNL     1      30.042  39.207  10.518  1.00  0.00    -0.275 OA
ENDBRANCH   7  48
ENDBRANCH   1   2
BRANCH   1  53
ATOM     53  O   UNL     1      28.695  34.523  12.923  1.00  0.00    -0.388 OA
ATOM     54  H   UNL     1      27.809  34.373  13.285  1.00  0.00     0.211 HD
ENDBRANCH   1  53
BRANCH   1  55
ATOM     55  C   UNL     1      27.719  36.340  11.918  1.00  0.00     0.165 C 
BRANCH  55  56
ATOM     56  O   UNL     1      28.036  37.181  10.878  1.00  0.00    -0.388 OA
ATOM     57  H   UNL     1      27.973  36.752   9.988  1.00  0.00     0.211 HD
ENDBRANCH  55  56
BRANCH  55  58
ATOM     58  C   UNL     1      26.514  36.879  12.697  1.00  0.00     0.154 C 
BRANCH  58  59
ATOM     59  N   UNL     1      25.279  36.357  12.164  1.00  0.00    -0.319 N 
ATOM     60  C   UNL     1      24.848  35.026  12.366  1.00  0.00     0.407 C 
ATOM     61  H   UNL     1      24.676  36.993  11.607  1.00  0.00     0.167 HD
ATOM     62  O   UNL     1      25.564  34.242  13.043  1.00  0.00    -0.225 OA
BRANCH  60  63
ATOM     63  O   UNL     1      23.653  34.550  11.837  1.00  0.00    -0.443 OA
BRANCH  63  64
ATOM     64  C   UNL     1      22.436  35.189  12.210  1.00  0.00     0.294 C 
BRANCH  64  65
ATOM     65  C   UNL     1      22.002  35.946  10.996  1.00  0.00     0.120 A 
ATOM     66  C   UNL     1      21.792  37.297  10.940  1.00  0.00     0.138 A 
ATOM     67  N   UNL     1      21.752  35.436   9.765  1.00  0.00    -0.132 NA
ATOM     68  N   UNL     1      21.423  37.566   9.696  1.00  0.00    -0.250 N 
ATOM     69  N   UNL     1      21.401  36.436   8.990  1.00  0.00    -0.067 NA
BRANCH  68  70
ATOM     70  C   UNL     1      21.085  38.898   9.196  1.00  0.00     0.167 C 
BRANCH  70  71
ATOM     71  C   UNL     1      22.402  39.658   9.027  1.00  0.00     0.141 C 
BRANCH  71  72
ATOM     72  N   UNL     1      23.176  38.944   8.054  1.00  0.00    -0.336 N 
ATOM     73  C   UNL     1      24.346  38.219   8.357  1.00  0.00     0.315 C 
ATOM     74  H   UNL     1      22.828  38.983   7.058  1.00  0.00     0.165 HD
ATOM     75  O   UNL     1      24.796  38.172   9.522  1.00  0.00    -0.249 OA
ATOM     76  N   UNL     1      25.019  37.523   7.296  1.00  0.00    -0.331 N 
ATOM     77  H   UNL     1      24.604  37.590   6.332  1.00  0.00     0.165 HD
BRANCH  76  78
ATOM     78  C   UNL     1      26.213  36.770   7.566  1.00  0.00     0.193 C 
BRANCH  78  79
ATOM     79  C   UNL     1      27.365  37.342   6.819  1.00  0.00     0.122 A 
ATOM     80  C   UNL     1      28.465  37.946   7.417  1.00  0.00     0.047 A 
ATOM     81  O   UNL     1      27.527  37.369   5.540  1.00  0.00    -0.467 OA
ATOM     82  C   UNL     1      29.284  38.329   6.396  1.00  0.00     0.042 A 
ATOM     83  C   UNL     1      28.666  37.953   5.235  1.00  0.00     0.195 A 
ENDBRANCH  78  79
ENDBRANCH  76  78
ENDBRANCH  71  72
ENDBRANCH  70  71
ENDBRANCH  68  70
ENDBRANCH  64  65
ENDBRANCH  63  64
ENDBRANCH  60  63
ENDBRANCH  58  59
ENDBRANCH  55  58
ENDBRANCH   1  55
TORSDOF 34
BEGIN_RES LYS A 131
REMARK  4 active torsions:
REMARK  status: ('A' for Active; 'I' for Inactive)
REMARK    1  A    between atoms: CA   and  CB  
REMARK    2  A    between atoms: CB   and  CG  
REMARK    3  A    between atoms: CG   and  CD  
REMARK    4  A    between atoms: CD   and  CE  
ROOT
ATOM      1  CA  LYS A 131      29.867  25.555  16.977  1.00 20.52     0.186 C 
ENDROOT
BRANCH   1   2
ATOM      2  CB  LYS A 131      28.345  25.722  17.026  1.00 20.94     0.034 C 
BRANCH   2   3
ATOM      3  CG  LYS A 131      27.601  24.403  16.888  1.00 22.96     0.005 C 
BRANCH   3   4
ATOM      4  CD  LYS A 131      26.178  24.502  17.364  1.00 24.33     0.041 C 
BRANCH   4   5
ATOM      5  CE  LYS A 131      26.113  25.412  18.587  1.00 26.91     0.338 C 
ATOM      6  NZ  LYS A 131      24.741  25.433  19.145  1.00 27.40     0.618 N 
ENDBRANCH   4   5
ENDBRANCH   3   4
ENDBRANCH   2   3
ENDBRANCH   1   2
END_RES LYS A 131
BEGIN_RES LYS A 135
REMARK  4 active torsions:
REMARK  status: ('A' for Active; 'I' for Inactive)
REMARK    5  A    between atoms: CA   and  CB  
REMARK    6  A    between atoms: CB   and  CG  
REMARK    7  A    between atoms: CG   and  CD  
REMARK    8  A    between atoms: CD   and  CE  
ROOT
ATOM      7  CA  LYS A 135      33.193  34.663   9.290  1.00 25.02     0.186 C 
ENDROOT
BRANCH   7   8
ATOM      8  CB  LYS A 135      32.060  35.360  10.034  1.00 26.63     0.034 C 
BRANCH   8   9
ATOM      9  CG  LYS A 135      30.853  35.634   9.174  1.00 29.45     0.005 C 
BRANCH   9  10
ATOM     10  CD  LYS A 135      30.289  34.338   8.612  1.00 32.00     0.041 C 
BRANCH  10  11
ATOM     11  CE  LYS A 135      29.133  33.848   9.462  1.00 34.25     0.338 C 
ATOM     12  NZ  LYS A 135      27.826  34.248   8.871  1.00 35.99     0.618 N 
ENDBRANCH  10  11
ENDBRANCH   9  10
ENDBRANCH   8   9
ENDBRANCH   7   8
END_RES LYS A 135
