REMARK VINA RESULT:    -6.082      3.326      9.100
REMARK INTER + INTRA:         -22.902
REMARK INTER:                 -11.494
REMARK INTRA:                 -11.407
REMARK UNBOUND:                -7.575
REMARK SMILES CC(=O)N[C@@H]1[C@@H](O)C[C@](OC[C@H]2O[C@@H](O[C@H]3[C@H](O)[C@@H](O)[C@H](OCCN=[N+]=[N-])O[C@@H]3CO)[C@H](O)[C@@H](O)[C@H]2O)(C(=O)O)O[C@H]1C(O)[C@H](O)CNC(=O)OCc1cn(Cc2ccccc2Br)nn1
REMARK SMILES IDX 9 1 8 2 6 3 5 4 42 5 41 6 10 7 11 8 12 9 14 10 13 11 32 12
REMARK SMILES IDX 34 13 36 14 15 15 16 16 29 17 28 18 21 19 17 20 19 21 30 22
REMARK SMILES IDX 31 23 22 25 23 26 24 27 25 28 26 29 27 30 18 31 20 33 33 35
REMARK SMILES IDX 35 37 37 39 38 41 39 42 40 43 7 45 43 47 44 48 45 50 46 51
REMARK SMILES IDX 47 53 48 54 49 55 50 57 51 58 52 59 53 60 54 61 65 62 55 63
REMARK SMILES IDX 64 64 56 65 57 66 58 67 62 68 59 69 61 70 63 71 60 72 4 73
REMARK SMILES IDX 2 74 1 76 3 77
REMARK H PARENT 31 24 18 32 20 34 33 36 35 38 37 40 40 44 7 46 44 49 46 52
REMARK H PARENT 48 56 4 75
REMARK Flexibility Score: inf
ROOT
ATOM      1  C   UNL     1      24.345  37.190   9.104  1.00  0.00     0.272 C 
ATOM      2  C   UNL     1      23.098  36.709   8.474  1.00  0.00     0.113 C 
ATOM      3  C   UNL     1      22.610  35.457   9.110  1.00  0.00     0.145 C 
ATOM      4  C   UNL     1      22.416  35.690  10.582  1.00  0.00     0.142 C 
ATOM      5  C   UNL     1      23.401  36.615  11.187  1.00  0.00     0.178 C 
ATOM      6  O   UNL     1      23.888  37.625  10.436  1.00  0.00    -0.332 OA
ENDROOT
BRANCH   1   7
ATOM      7  O   UNL     1      24.878  38.306   8.574  1.00  0.00    -0.338 OA
BRANCH   7   8
ATOM      8  C   UNL     1      25.636  38.473   7.538  1.00  0.00     0.199 C 
BRANCH   8   9
ATOM      9  C   UNL     1      27.073  38.734   7.441  1.00  0.00     0.179 C 
ATOM     10  C   UNL     1      29.115  39.071   8.430  1.00  0.00     0.282 C 
ATOM     11  O   UNL     1      27.860  38.428   8.557  1.00  0.00    -0.341 OA
ATOM     12  C   UNL     1      29.911  38.246   7.457  1.00  0.00     0.202 C 
ATOM     13  C   UNL     1      29.144  37.981   6.208  1.00  0.00     0.179 C 
ATOM     14  C   UNL     1      27.756  38.552   6.135  1.00  0.00     0.177 C 
BRANCH  10  15
ATOM     15  O   UNL     1      29.658  39.112   9.679  1.00  0.00    -0.341 OA
BRANCH  15  16
ATOM     16  C   UNL     1      28.859  38.807  10.739  1.00  0.00     0.184 C 
ATOM     17  C   UNL     1      28.516  39.931  11.653  1.00  0.00     0.178 C 
ATOM     18  O   UNL     1      28.759  39.521  12.961  1.00  0.00    -0.341 OA
ATOM     19  C   UNL     1      30.159  39.316  13.048  1.00  0.00     0.281 C 
ATOM     20  C   UNL     1      29.353  37.608  11.533  1.00  0.00     0.180 C 
ATOM     21  C   UNL     1      30.513  37.990  12.431  1.00  0.00     0.202 C 
BRANCH  17  22
ATOM     22  C   UNL     1      27.036  40.300  11.587  1.00  0.00     0.191 C 
BRANCH  22  23
ATOM     23  O   UNL     1      26.291  39.242  11.063  1.00  0.00    -0.394 OA
ATOM     24  H   UNL     1      26.855  38.483  10.791  1.00  0.00     0.210 HD
ENDBRANCH  22  23
ENDBRANCH  17  22
BRANCH  19  25
ATOM     25  O   UNL     1      30.468  39.393  14.403  1.00  0.00    -0.350 OA
BRANCH  25  26
ATOM     26  C   UNL     1      30.733  38.136  14.946  1.00  0.00     0.169 C 
BRANCH  26  27
ATOM     27  C   UNL     1      29.817  37.947  16.143  1.00  0.00     0.119 C 
BRANCH  27  28
ATOM     28  N   UNL     1      28.610  37.308  15.685  1.00  0.00    -0.092 NA
ATOM     29  N   UNL     1      27.566  37.943  15.506  1.00  0.00     0.001 N 
ATOM     30  N   UNL     1      26.524  38.573  15.780  1.00  0.00    -0.003 NA
ENDBRANCH  27  28
ENDBRANCH  26  27
ENDBRANCH  25  26
ENDBRANCH  19  25
BRANCH  20  31
ATOM     31  O   UNL     1      28.351  37.126  12.378  1.00  0.00    -0.387 OA
ATOM     32  H   UNL     1      27.753  36.564  11.811  1.00  0.00     0.211 HD
ENDBRANCH  20  31
BRANCH  21  33
ATOM     33  O   UNL     1      31.724  37.972  11.787  1.00  0.00    -0.385 OA
ATOM     34  H   UNL     1      31.924  38.870  11.435  1.00  0.00     0.211 HD
ENDBRANCH  21  33
ENDBRANCH  15  16
ENDBRANCH  10  15
BRANCH  12  35
ATOM     35  O   UNL     1      31.084  38.913   7.065  1.00  0.00    -0.385 OA
ATOM     36  H   UNL     1      31.818  38.265   7.156  1.00  0.00     0.211 HD
ENDBRANCH  12  35
BRANCH  13  37
ATOM     37  O   UNL     1      29.052  36.595   6.018  1.00  0.00    -0.387 OA
ATOM     38  H   UNL     1      29.142  36.098   6.856  1.00  0.00     0.211 HD
ENDBRANCH  13  37
BRANCH  14  39
ATOM     39  O   UNL     1      27.043  37.753   5.254  1.00  0.00    -0.387 OA
ATOM     40  H   UNL     1      27.359  36.844   5.148  1.00  0.00     0.211 HD
ENDBRANCH  14  39
ENDBRANCH   8   9
ENDBRANCH   7   8
ENDBRANCH   1   7
BRANCH   1  41
ATOM     41  C   UNL     1      25.356  36.184   9.492  1.00  0.00     0.364 C 
ATOM     42  O   UNL     1      25.490  35.039   9.005  1.00  0.00    -0.246 OA
BRANCH  41  43
ATOM     43  O   UNL     1      26.255  36.503  10.496  1.00  0.00    -0.477 OA
ATOM     44  H   UNL     1      26.188  37.374  11.023  1.00  0.00     0.296 HD
ENDBRANCH  41  43
ENDBRANCH   1  41
BRANCH   3  45
ATOM     45  O   UNL     1      21.322  35.218   8.529  1.00  0.00    -0.391 OA
ATOM     46  H   UNL     1      20.934  36.052   8.199  1.00  0.00     0.211 HD
ENDBRANCH   3  45
BRANCH   5  47
ATOM     47  C   UNL     1      22.793  37.257  12.437  1.00  0.00     0.176 C 
BRANCH  47  48
ATOM     48  O   UNL     1      22.022  38.330  12.015  1.00  0.00    -0.388 OA
ATOM     49  H   UNL     1      21.183  38.070  11.596  1.00  0.00     0.211 HD
ENDBRANCH  47  48
BRANCH  47  50
ATOM     50  C   UNL     1      23.823  37.734  13.399  1.00  0.00     0.165 C 
BRANCH  50  51
ATOM     51  O   UNL     1      25.120  37.354  13.012  1.00  0.00    -0.388 OA
ATOM     52  H   UNL     1      25.788  37.982  13.390  1.00  0.00     0.211 HD
ENDBRANCH  50  51
BRANCH  50  53
ATOM     53  C   UNL     1      23.609  37.115  14.756  1.00  0.00     0.154 C 
BRANCH  53  54
ATOM     54  N   UNL     1      24.610  36.147  15.033  1.00  0.00    -0.319 N 
ATOM     55  C   UNL     1      24.434  35.046  15.896  1.00  0.00     0.407 C 
ATOM     56  H   UNL     1      25.552  36.266  14.556  1.00  0.00     0.167 HD
ATOM     57  O   UNL     1      23.345  34.847  16.491  1.00  0.00    -0.225 OA
BRANCH  55  58
ATOM     58  O   UNL     1      25.466  34.128  16.128  1.00  0.00    -0.443 OA
BRANCH  58  59
ATOM     59  C   UNL     1      25.977  33.317  15.105  1.00  0.00     0.294 C 
BRANCH  59  60
ATOM     60  C   UNL     1      27.391  33.589  14.761  1.00  0.00     0.120 A 
ATOM     61  C   UNL     1      28.479  32.906  15.330  1.00  0.00     0.138 A 
ATOM     62  N   UNL     1      27.926  34.467  13.909  1.00  0.00    -0.132 NA
ATOM     63  N   UNL     1      29.595  33.397  14.802  1.00  0.00    -0.248 N 
ATOM     64  N   UNL     1      29.236  34.350  13.936  1.00  0.00    -0.067 NA
BRANCH  63  65
ATOM     65  C   UNL     1      30.984  33.015  15.052  1.00  0.00     0.182 C 
BRANCH  65  66
ATOM     66  C   UNL     1      31.678  33.905  16.007  1.00  0.00    -0.012 A 
ATOM     67  C   UNL     1      31.380  33.738  17.370  1.00  0.00     0.007 A 
ATOM     68  C   UNL     1      32.561  34.886  15.649  1.00  0.00     0.023 A 
ATOM     69  C   UNL     1      31.974  34.555  18.281  1.00  0.00     0.000 A 
ATOM     70  C   UNL     1      33.157  35.712  16.589  1.00  0.00     0.016 A 
ATOM     71  Br  UNL     1      33.052  35.125  13.829  1.00  0.00    -0.050 Br
ATOM     72  C   UNL     1      32.855  35.537  17.913  1.00  0.00     0.001 A 
ENDBRANCH  65  66
ENDBRANCH  63  65
ENDBRANCH  59  60
ENDBRANCH  58  59
ENDBRANCH  55  58
ENDBRANCH  53  54
ENDBRANCH  50  53
ENDBRANCH  47  50
ENDBRANCH   5  47
BRANCH   4  73
ATOM     73  N   UNL     1      22.438  34.421  11.263  1.00  0.00    -0.348 N 
ATOM     74  C   UNL     1      21.322  33.895  11.979  1.00  0.00     0.217 C 
ATOM     75  H   UNL     1      23.286  33.814  11.270  1.00  0.00     0.163 HD
ATOM     76  C   UNL     1      21.416  32.568  12.666  1.00  0.00     0.114 C 
ATOM     77  O   UNL     1      20.281  34.564  12.014  1.00  0.00    -0.275 OA
ENDBRANCH   4  73
TORSDOF 31
BEGIN_RES LYS A 131
REMARK  4 active torsions:
REMARK  status: ('A' for Active; 'I' for Inactive)
REMARK    1  A    between atoms: CA   and  CB  
REMARK    2  A    between atoms: CB   and  CG  
REMARK    3  A    between atoms: CG   and  CD  
REMARK    4  A    between atoms: CD   and  CE  
ROOT
ATOM      1  CA  LYS A 131      29.867  25.555  16.977  1.00 20.52     0.186 C 
ENDROOT
BRANCH   1   2
ATOM      2  CB  LYS A 131      28.345  25.722  17.026  1.00 20.94     0.034 C 
BRANCH   2   3
ATOM      3  CG  LYS A 131      27.601  24.400  16.908  1.00 22.96     0.005 C 
BRANCH   3   4
ATOM      4  CD  LYS A 131      26.591  24.219  18.007  1.00 24.33     0.041 C 
BRANCH   4   5
ATOM      5  CE  LYS A 131      26.460  25.517  18.797  1.00 26.91     0.338 C 
ATOM      6  NZ  LYS A 131      25.310  25.444  19.729  1.00 27.40     0.618 N 
ENDBRANCH   4   5
ENDBRANCH   3   4
ENDBRANCH   2   3
ENDBRANCH   1   2
END_RES LYS A 131
BEGIN_RES LYS A 135
REMARK  4 active torsions:
REMARK  status: ('A' for Active; 'I' for Inactive)
REMARK    5  A    between atoms: CA   and  CB  
REMARK    6  A    between atoms: CB   and  CG  
REMARK    7  A    between atoms: CG   and  CD  
REMARK    8  A    between atoms: CD   and  CE  
ROOT
ATOM      7  CA  LYS A 135      33.193  34.663   9.290  1.00 25.02     0.186 C 
ENDROOT
BRANCH   7   8
ATOM      8  CB  LYS A 135      32.060  35.360  10.034  1.00 26.63     0.034 C 
BRANCH   8   9
ATOM      9  CG  LYS A 135      30.830  35.579   9.191  1.00 29.45     0.005 C 
BRANCH   9  10
ATOM     10  CD  LYS A 135      30.304  34.256   8.656  1.00 32.00     0.041 C 
BRANCH  10  11
ATOM     11  CE  LYS A 135      28.812  34.139   8.901  1.00 34.25     0.338 C 
ATOM     12  NZ  LYS A 135      28.506  34.131  10.358  1.00 35.99     0.618 N 
ENDBRANCH  10  11
ENDBRANCH   9  10
ENDBRANCH   8   9
ENDBRANCH   7   8
END_RES LYS A 135
