REMARK VINA RESULT:    -5.289      5.640     11.979
REMARK INTER + INTRA:         -23.087
REMARK INTER:                 -11.313
REMARK INTRA:                 -11.774
REMARK UNBOUND:               -10.068
REMARK SMILES CC(=O)N[C@@H]1[C@@H](O)C[C@](OC[C@H]2O[C@@H](O[C@H]3[C@H](O)[C@@H](O)[C@H](OCCN=[N+]=[N-])O[C@@H]3CO)[C@H](O)[C@@H](O)[C@H]2O)(C(=O)O)O[C@H]1C(O)[C@H](O)CNC(=O)OCc1cn(-c2cnc3ccccc3c2)nn1
REMARK SMILES IDX 9 1 8 2 6 3 5 4 42 5 41 6 10 7 11 8 12 9 14 10 13 11 32 12
REMARK SMILES IDX 34 13 36 14 15 15 16 16 29 17 28 18 21 19 17 20 19 21 30 22
REMARK SMILES IDX 31 23 22 25 23 26 24 27 25 28 26 29 27 30 18 31 20 33 33 35
REMARK SMILES IDX 35 37 37 39 38 41 39 42 40 43 7 45 43 47 44 48 45 50 46 51
REMARK SMILES IDX 47 53 48 54 49 55 50 57 51 58 52 59 53 60 54 61 67 62 55 63
REMARK SMILES IDX 66 64 56 65 57 66 65 67 58 68 64 69 59 70 63 71 60 72 62 73
REMARK SMILES IDX 61 74 4 75 2 76 1 78 3 79
REMARK H PARENT 31 24 18 32 20 34 33 36 35 38 37 40 40 44 7 46 44 49 46 52
REMARK H PARENT 48 56 4 77
REMARK Flexibility Score: inf
ROOT
ATOM      1  C   UNL     1      25.567  36.119  10.168  1.00  0.00     0.272 C 
ATOM      2  C   UNL     1      24.497  35.275   9.577  1.00  0.00     0.113 C 
ATOM      3  C   UNL     1      23.145  35.529  10.215  1.00  0.00     0.145 C 
ATOM      4  C   UNL     1      22.978  37.050  10.208  1.00  0.00     0.142 C 
ATOM      5  C   UNL     1      24.030  37.588  11.190  1.00  0.00     0.178 C 
ATOM      6  O   UNL     1      25.235  37.406  10.478  1.00  0.00    -0.332 OA
ENDROOT
BRANCH   1   7
ATOM      7  O   UNL     1      26.669  36.232   9.292  1.00  0.00    -0.338 OA
BRANCH   7   8
ATOM      8  C   UNL     1      26.364  36.044   7.973  1.00  0.00     0.199 C 
BRANCH   8   9
ATOM      9  C   UNL     1      26.913  37.212   7.182  1.00  0.00     0.179 C 
ATOM     10  C   UNL     1      27.773  39.336   7.312  1.00  0.00     0.282 C 
ATOM     11  O   UNL     1      27.626  38.113   7.946  1.00  0.00    -0.341 OA
ATOM     12  C   UNL     1      27.729  39.220   5.816  1.00  0.00     0.202 C 
ATOM     13  C   UNL     1      28.253  37.932   5.289  1.00  0.00     0.179 C 
ATOM     14  C   UNL     1      27.507  36.784   5.907  1.00  0.00     0.177 C 
BRANCH  10  15
ATOM     15  O   UNL     1      28.916  39.953   7.772  1.00  0.00    -0.341 OA
BRANCH  15  16
ATOM     16  C   UNL     1      29.375  39.419   8.976  1.00  0.00     0.184 C 
ATOM     17  C   UNL     1      29.216  40.367  10.140  1.00  0.00     0.178 C 
ATOM     18  O   UNL     1      30.313  40.522  10.930  1.00  0.00    -0.341 OA
ATOM     19  C   UNL     1      31.006  39.399  11.290  1.00  0.00     0.281 C 
ATOM     20  C   UNL     1      30.754  38.835   8.854  1.00  0.00     0.180 C 
ATOM     21  C   UNL     1      31.239  38.399  10.200  1.00  0.00     0.202 C 
BRANCH  17  22
ATOM     22  C   UNL     1      27.931  40.064  10.911  1.00  0.00     0.191 C 
BRANCH  22  23
ATOM     23  O   UNL     1      27.687  38.697  11.007  1.00  0.00    -0.394 OA
ATOM     24  H   UNL     1      28.106  38.183  10.288  1.00  0.00     0.210 HD
ENDBRANCH  22  23
ENDBRANCH  17  22
BRANCH  19  25
ATOM     25  O   UNL     1      30.511  38.795  12.448  1.00  0.00    -0.350 OA
BRANCH  25  26
ATOM     26  C   UNL     1      30.502  39.650  13.530  1.00  0.00     0.169 C 
BRANCH  26  27
ATOM     27  C   UNL     1      29.207  39.569  14.305  1.00  0.00     0.119 C 
BRANCH  27  28
ATOM     28  N   UNL     1      28.549  38.299  14.078  1.00  0.00    -0.092 NA
ATOM     29  N   UNL     1      27.740  37.825  14.875  1.00  0.00     0.001 N 
ATOM     30  N   UNL     1      26.677  37.560  15.437  1.00  0.00    -0.003 NA
ENDBRANCH  27  28
ENDBRANCH  26  27
ENDBRANCH  25  26
ENDBRANCH  19  25
BRANCH  20  31
ATOM     31  O   UNL     1      30.665  37.683   8.041  1.00  0.00    -0.387 OA
ATOM     32  H   UNL     1      31.197  37.811   7.210  1.00  0.00     0.211 HD
ENDBRANCH  20  31
BRANCH  21  33
ATOM     33  O   UNL     1      32.610  38.079  10.056  1.00  0.00    -0.385 OA
ATOM     34  H   UNL     1      33.091  38.856   9.642  1.00  0.00     0.211 HD
ENDBRANCH  21  33
ENDBRANCH  15  16
ENDBRANCH  10  15
BRANCH  12  35
ATOM     35  O   UNL     1      26.465  39.444   5.278  1.00  0.00    -0.385 OA
ATOM     36  H   UNL     1      26.096  38.634   4.852  1.00  0.00     0.211 HD
ENDBRANCH  12  35
BRANCH  13  37
ATOM     37  O   UNL     1      29.630  37.829   5.503  1.00  0.00    -0.387 OA
ATOM     38  H   UNL     1      29.815  37.810   6.457  1.00  0.00     0.211 HD
ENDBRANCH  13  37
BRANCH  14  39
ATOM     39  O   UNL     1      28.403  35.726   6.012  1.00  0.00    -0.387 OA
ATOM     40  H   UNL     1      29.254  35.977   6.418  1.00  0.00     0.211 HD
ENDBRANCH  14  39
ENDBRANCH   8   9
ENDBRANCH   7   8
ENDBRANCH   1   7
BRANCH   1  41
ATOM     41  C   UNL     1      26.028  35.471  11.444  1.00  0.00     0.364 C 
ATOM     42  O   UNL     1      25.860  34.223  11.636  1.00  0.00    -0.246 OA
BRANCH  41  43
ATOM     43  O   UNL     1      26.645  36.140  12.475  1.00  0.00    -0.477 OA
ATOM     44  H   UNL     1      26.537  35.871  13.465  1.00  0.00     0.296 HD
ENDBRANCH  41  43
ENDBRANCH   1  41
BRANCH   3  45
ATOM     45  O   UNL     1      22.121  34.899   9.549  1.00  0.00    -0.391 OA
ATOM     46  H   UNL     1      22.479  34.089   9.131  1.00  0.00     0.211 HD
ENDBRANCH   3  45
BRANCH   5  47
ATOM     47  C   UNL     1      23.899  39.075  11.377  1.00  0.00     0.176 C 
BRANCH  47  48
ATOM     48  O   UNL     1      24.684  39.690  10.366  1.00  0.00    -0.388 OA
ATOM     49  H   UNL     1      25.255  40.404  10.747  1.00  0.00     0.211 HD
ENDBRANCH  47  48
BRANCH  47  50
ATOM     50  C   UNL     1      24.452  39.599  12.695  1.00  0.00     0.165 C 
BRANCH  50  51
ATOM     51  O   UNL     1      25.527  38.679  12.961  1.00  0.00    -0.388 OA
ATOM     52  H   UNL     1      25.278  38.178  13.772  1.00  0.00     0.211 HD
ENDBRANCH  50  51
BRANCH  50  53
ATOM     53  C   UNL     1      23.486  39.308  13.823  1.00  0.00     0.154 C 
BRANCH  53  54
ATOM     54  N   UNL     1      23.582  38.032  14.425  1.00  0.00    -0.319 N 
ATOM     55  C   UNL     1      22.600  37.023  14.335  1.00  0.00     0.407 C 
ATOM     56  H   UNL     1      24.467  37.828  14.989  1.00  0.00     0.167 HD
ATOM     57  O   UNL     1      21.555  37.249  13.693  1.00  0.00    -0.225 OA
BRANCH  55  58
ATOM     58  O   UNL     1      22.840  35.824  14.966  1.00  0.00    -0.443 OA
BRANCH  58  59
ATOM     59  C   UNL     1      22.750  34.589  14.309  1.00  0.00     0.294 C 
BRANCH  59  60
ATOM     60  C   UNL     1      23.947  33.751  14.637  1.00  0.00     0.121 A 
ATOM     61  C   UNL     1      25.181  34.156  15.023  1.00  0.00     0.144 A 
ATOM     62  N   UNL     1      23.959  32.398  14.580  1.00  0.00    -0.131 NA
ATOM     63  N   UNL     1      25.911  33.037  15.192  1.00  0.00    -0.219 N 
ATOM     64  N   UNL     1      25.156  31.970  14.919  1.00  0.00    -0.062 NA
BRANCH  63  65
ATOM     65  C   UNL     1      27.278  33.023  15.597  1.00  0.00     0.085 A 
ATOM     66  C   UNL     1      27.910  31.839  15.803  1.00  0.00     0.140 A 
ATOM     67  C   UNL     1      27.934  34.232  15.766  1.00  0.00     0.040 A 
ATOM     68  N   UNL     1      29.204  31.843  16.180  1.00  0.00    -0.254 NA
ATOM     69  C   UNL     1      29.244  34.215  16.147  1.00  0.00     0.002 A 
ATOM     70  C   UNL     1      29.845  33.006  16.345  1.00  0.00     0.070 A 
ATOM     71  C   UNL     1      29.919  35.406  16.322  1.00  0.00     0.010 A 
ATOM     72  C   UNL     1      31.186  32.997  16.734  1.00  0.00     0.029 A 
ATOM     73  C   UNL     1      31.249  35.373  16.708  1.00  0.00     0.001 A 
ATOM     74  C   UNL     1      31.891  34.152  16.918  1.00  0.00     0.002 A 
ENDBRANCH  63  65
ENDBRANCH  59  60
ENDBRANCH  58  59
ENDBRANCH  55  58
ENDBRANCH  53  54
ENDBRANCH  50  53
ENDBRANCH  47  50
ENDBRANCH   5  47
BRANCH   4  75
ATOM     75  N   UNL     1      21.646  37.440  10.469  1.00  0.00    -0.348 N 
ATOM     76  C   UNL     1      20.745  37.752   9.383  1.00  0.00     0.217 C 
ATOM     77  H   UNL     1      21.224  37.514  11.418  1.00  0.00     0.163 HD
ATOM     78  C   UNL     1      19.362  38.159   9.636  1.00  0.00     0.114 C 
ATOM     79  O   UNL     1      21.215  37.655   8.210  1.00  0.00    -0.275 OA
ENDBRANCH   4  75
TORSDOF 30
BEGIN_RES LYS A 131
REMARK  4 active torsions:
REMARK  status: ('A' for Active; 'I' for Inactive)
REMARK    1  A    between atoms: CA   and  CB  
REMARK    2  A    between atoms: CB   and  CG  
REMARK    3  A    between atoms: CG   and  CD  
REMARK    4  A    between atoms: CD   and  CE  
ROOT
ATOM      1  CA  LYS A 131      29.867  25.555  16.977  1.00 20.52     0.186 C 
ENDROOT
BRANCH   1   2
ATOM      2  CB  LYS A 131      28.345  25.722  17.026  1.00 20.94     0.034 C 
BRANCH   2   3
ATOM      3  CG  LYS A 131      27.599  24.434  16.715  1.00 22.96     0.005 C 
BRANCH   3   4
ATOM      4  CD  LYS A 131      27.007  23.810  17.949  1.00 24.33     0.041 C 
BRANCH   4   5
ATOM      5  CE  LYS A 131      25.568  23.391  17.667  1.00 26.91     0.338 C 
ATOM      6  NZ  LYS A 131      24.866  24.437  16.886  1.00 27.40     0.618 N 
ENDBRANCH   4   5
ENDBRANCH   3   4
ENDBRANCH   2   3
ENDBRANCH   1   2
END_RES LYS A 131
BEGIN_RES LYS A 135
REMARK  4 active torsions:
REMARK  status: ('A' for Active; 'I' for Inactive)
REMARK    5  A    between atoms: CA   and  CB  
REMARK    6  A    between atoms: CB   and  CG  
REMARK    7  A    between atoms: CG   and  CD  
REMARK    8  A    between atoms: CD   and  CE  
ROOT
ATOM      7  CA  LYS A 135      33.193  34.663   9.290  1.00 25.02     0.186 C 
ENDROOT
BRANCH   7   8
ATOM      8  CB  LYS A 135      32.060  35.360  10.034  1.00 26.63     0.034 C 
BRANCH   8   9
ATOM      9  CG  LYS A 135      30.738  34.645   9.925  1.00 29.45     0.005 C 
BRANCH   9  10
ATOM     10  CD  LYS A 135      29.680  35.341  10.768  1.00 32.00     0.041 C 
BRANCH  10  11
ATOM     11  CE  LYS A 135      30.146  35.471  12.205  1.00 34.25     0.338 C 
ATOM     12  NZ  LYS A 135      30.165  34.147  12.885  1.00 35.99     0.618 N 
ENDBRANCH  10  11
ENDBRANCH   9  10
ENDBRANCH   8   9
ENDBRANCH   7   8
END_RES LYS A 135
