REMARK VINA RESULT:    -4.335      3.640      8.605
REMARK INTER + INTRA:         -21.863
REMARK INTER:                  -9.410
REMARK INTRA:                 -12.454
REMARK UNBOUND:               -10.939
REMARK SMILES CC(=O)N[C@@H]1[C@@H](O)C[C@](OC[C@H]2O[C@@H](O[C@H]3[C@H](O)[C@@H](O)[C@H](OCCN=[N+]=[N-])O[C@@H]3CO)[C@H](O)[C@@H](O)[C@H]2O)(C(=O)O)O[C@H]1C(O)[C@H](O)CNC(=O)OCc1cn(Cc2ccsc2)nn1
REMARK SMILES IDX 9 1 8 2 6 3 5 4 42 5 41 6 10 7 11 8 12 9 14 10 13 11 32 12
REMARK SMILES IDX 34 13 36 14 15 15 16 16 29 17 28 18 21 19 17 20 19 21 30 22
REMARK SMILES IDX 31 23 22 25 23 26 24 27 25 28 26 29 27 30 18 31 20 33 33 35
REMARK SMILES IDX 35 37 37 39 38 41 39 42 40 43 7 45 43 47 44 48 45 50 46 51
REMARK SMILES IDX 47 53 48 54 49 55 50 57 51 58 52 59 53 60 54 61 63 62 55 63
REMARK SMILES IDX 62 64 56 65 57 66 58 67 61 68 59 69 60 70 4 71 2 72 1 74
REMARK SMILES IDX 3 75
REMARK H PARENT 31 24 18 32 20 34 33 36 35 38 37 40 40 44 7 46 44 49 46 52
REMARK H PARENT 48 56 4 73
REMARK Flexibility Score: inf
ROOT
ATOM      1  C   UNL     1      29.180  32.061  19.453  1.00  0.00     0.272 C 
ATOM      2  C   UNL     1      28.972  33.509  19.124  1.00  0.00     0.113 C 
ATOM      3  C   UNL     1      29.964  34.087  18.153  1.00  0.00     0.145 C 
ATOM      4  C   UNL     1      30.262  33.187  17.017  1.00  0.00     0.142 C 
ATOM      5  C   UNL     1      30.098  31.710  17.319  1.00  0.00     0.178 C 
ATOM      6  O   UNL     1      29.106  31.383  18.173  1.00  0.00    -0.332 OA
ENDROOT
BRANCH   1   7
ATOM      7  O   UNL     1      28.089  31.571  20.079  1.00  0.00    -0.338 OA
BRANCH   7   8
ATOM      8  C   UNL     1      27.086  30.939  19.500  1.00  0.00     0.199 C 
BRANCH   8   9
ATOM      9  C   UNL     1      26.669  29.558  19.796  1.00  0.00     0.179 C 
ATOM     10  C   UNL     1      25.373  27.965  18.817  1.00  0.00     0.282 C 
ATOM     11  O   UNL     1      26.313  28.979  18.520  1.00  0.00    -0.341 OA
ATOM     12  C   UNL     1      25.831  27.052  19.901  1.00  0.00     0.202 C 
ATOM     13  C   UNL     1      27.222  27.241  20.388  1.00  0.00     0.179 C 
ATOM     14  C   UNL     1      27.782  28.628  20.247  1.00  0.00     0.177 C 
BRANCH  10  15
ATOM     15  O   UNL     1      25.066  27.323  17.645  1.00  0.00    -0.341 OA
BRANCH  15  16
ATOM     16  C   UNL     1      23.721  26.926  17.551  1.00  0.00     0.184 C 
ATOM     17  C   UNL     1      23.362  26.493  16.174  1.00  0.00     0.178 C 
ATOM     18  O   UNL     1      22.779  27.412  15.357  1.00  0.00    -0.341 OA
ATOM     19  C   UNL     1      22.674  28.705  15.898  1.00  0.00     0.281 C 
ATOM     20  C   UNL     1      22.799  27.921  18.181  1.00  0.00     0.180 C 
ATOM     21  C   UNL     1      21.853  28.553  17.150  1.00  0.00     0.202 C 
BRANCH  17  22
ATOM     22  C   UNL     1      22.509  25.234  16.162  1.00  0.00     0.191 C 
BRANCH  22  23
ATOM     23  O   UNL     1      23.025  24.408  15.165  1.00  0.00    -0.394 OA
ATOM     24  H   UNL     1      23.912  24.739  14.835  1.00  0.00     0.210 HD
ENDBRANCH  22  23
ENDBRANCH  17  22
BRANCH  19  25
ATOM     25  O   UNL     1      22.132  29.508  14.932  1.00  0.00    -0.350 OA
BRANCH  25  26
ATOM     26  C   UNL     1      22.729  29.383  13.692  1.00  0.00     0.169 C 
BRANCH  26  27
ATOM     27  C   UNL     1      22.176  30.255  12.614  1.00  0.00     0.119 C 
BRANCH  27  28
ATOM     28  N   UNL     1      22.503  31.637  12.843  1.00  0.00    -0.092 NA
ATOM     29  N   UNL     1      23.664  31.915  13.182  1.00  0.00     0.001 N 
ATOM     30  N   UNL     1      24.728  32.484  13.421  1.00  0.00    -0.003 NA
ENDBRANCH  27  28
ENDBRANCH  26  27
ENDBRANCH  25  26
ENDBRANCH  19  25
BRANCH  20  31
ATOM     31  O   UNL     1      22.094  27.439  19.263  1.00  0.00    -0.387 OA
ATOM     32  H   UNL     1      22.509  27.709  20.109  1.00  0.00     0.211 HD
ENDBRANCH  20  31
BRANCH  21  33
ATOM     33  O   UNL     1      21.319  29.739  17.582  1.00  0.00    -0.385 OA
ATOM     34  H   UNL     1      20.420  29.626  17.996  1.00  0.00     0.211 HD
ENDBRANCH  21  33
ENDBRANCH  15  16
ENDBRANCH  10  15
BRANCH  12  35
ATOM     35  O   UNL     1      24.902  27.015  20.975  1.00  0.00    -0.385 OA
ATOM     36  H   UNL     1      25.150  26.290  21.605  1.00  0.00     0.211 HD
ENDBRANCH  12  35
BRANCH  13  37
ATOM     37  O   UNL     1      28.075  26.382  19.667  1.00  0.00    -0.387 OA
ATOM     38  H   UNL     1      28.972  26.787  19.646  1.00  0.00     0.211 HD
ENDBRANCH  13  37
BRANCH  14  39
ATOM     39  O   UNL     1      28.733  28.671  19.198  1.00  0.00    -0.387 OA
ATOM     40  H   UNL     1      29.288  29.487  19.401  1.00  0.00     0.211 HD
ENDBRANCH  14  39
ENDBRANCH   8   9
ENDBRANCH   7   8
ENDBRANCH   1   7
BRANCH   1  41
ATOM     41  C   UNL     1      30.512  31.723  19.954  1.00  0.00     0.364 C 
ATOM     42  O   UNL     1      31.295  32.566  20.433  1.00  0.00    -0.246 OA
BRANCH  41  43
ATOM     43  O   UNL     1      31.008  30.406  19.928  1.00  0.00    -0.477 OA
ATOM     44  H   UNL     1      31.991  30.218  20.064  1.00  0.00     0.296 HD
ENDBRANCH  41  43
ENDBRANCH   1  41
BRANCH   3  45
ATOM     45  O   UNL     1      29.315  35.243  17.637  1.00  0.00    -0.391 OA
ATOM     46  H   UNL     1      29.715  35.491  16.757  1.00  0.00     0.211 HD
ENDBRANCH   3  45
BRANCH   5  47
ATOM     47  C   UNL     1      29.738  30.997  15.992  1.00  0.00     0.176 C 
BRANCH  47  48
ATOM     48  O   UNL     1      29.617  31.952  14.985  1.00  0.00    -0.388 OA
ATOM     49  H   UNL     1      29.954  31.589  14.135  1.00  0.00     0.211 HD
ENDBRANCH  47  48
BRANCH  47  50
ATOM     50  C   UNL     1      28.419  30.337  16.173  1.00  0.00     0.165 C 
BRANCH  50  51
ATOM     51  O   UNL     1      28.507  29.015  15.741  1.00  0.00    -0.388 OA
ATOM     52  H   UNL     1      29.360  28.852  15.269  1.00  0.00     0.211 HD
ENDBRANCH  50  51
BRANCH  50  53
ATOM     53  C   UNL     1      27.283  30.988  15.428  1.00  0.00     0.154 C 
BRANCH  53  54
ATOM     54  N   UNL     1      26.491  31.857  16.247  1.00  0.00    -0.319 N 
ATOM     55  C   UNL     1      26.601  33.252  16.295  1.00  0.00     0.407 C 
ATOM     56  H   UNL     1      25.759  31.402  16.872  1.00  0.00     0.167 HD
ATOM     57  O   UNL     1      27.450  33.821  15.576  1.00  0.00    -0.225 OA
BRANCH  55  58
ATOM     58  O   UNL     1      25.774  33.969  17.132  1.00  0.00    -0.443 OA
BRANCH  58  59
ATOM     59  C   UNL     1      24.381  33.850  17.154  1.00  0.00     0.294 C 
BRANCH  59  60
ATOM     60  C   UNL     1      23.988  32.948  18.256  1.00  0.00     0.120 A 
ATOM     61  C   UNL     1      23.790  33.288  19.558  1.00  0.00     0.138 A 
ATOM     62  N   UNL     1      23.761  31.633  18.133  1.00  0.00    -0.132 NA
ATOM     63  N   UNL     1      23.444  32.164  20.208  1.00  0.00    -0.248 N 
ATOM     64  N   UNL     1      23.429  31.171  19.342  1.00  0.00    -0.067 NA
BRANCH  63  65
ATOM     65  C   UNL     1      23.143  32.079  21.615  1.00  0.00     0.182 C 
BRANCH  65  66
ATOM     66  C   UNL     1      24.317  31.390  22.321  1.00  0.00    -0.016 A 
ATOM     67  C   UNL     1      25.444  31.999  22.632  1.00  0.00     0.017 A 
ATOM     68  C   UNL     1      24.164  30.043  22.645  1.00  0.00     0.070 A 
ATOM     69  C   UNL     1      26.471  31.330  23.270  1.00  0.00     0.065 A 
ATOM     70  S   UNL     1      25.739  29.659  23.435  1.00  0.00    -0.152 S 
ENDBRANCH  65  66
ENDBRANCH  63  65
ENDBRANCH  59  60
ENDBRANCH  58  59
ENDBRANCH  55  58
ENDBRANCH  53  54
ENDBRANCH  50  53
ENDBRANCH  47  50
ENDBRANCH   5  47
BRANCH   4  71
ATOM     71  N   UNL     1      31.557  33.366  16.432  1.00  0.00    -0.348 N 
ATOM     72  C   UNL     1      31.792  34.243  15.341  1.00  0.00     0.217 C 
ATOM     73  H   UNL     1      32.376  32.840  16.807  1.00  0.00     0.163 HD
ATOM     74  C   UNL     1      33.140  34.438  14.723  1.00  0.00     0.114 C 
ATOM     75  O   UNL     1      30.777  34.864  14.912  1.00  0.00    -0.275 OA
ENDBRANCH   4  71
TORSDOF 31
BEGIN_RES LYS A 131
REMARK  4 active torsions:
REMARK  status: ('A' for Active; 'I' for Inactive)
REMARK    1  A    between atoms: CA   and  CB  
REMARK    2  A    between atoms: CB   and  CG  
REMARK    3  A    between atoms: CG   and  CD  
REMARK    4  A    between atoms: CD   and  CE  
ROOT
ATOM      1  CA  LYS A 131      29.867  25.555  16.977  1.00 20.52     0.186 C 
ENDROOT
BRANCH   1   2
ATOM      2  CB  LYS A 131      28.345  25.722  17.026  1.00 20.94     0.034 C 
BRANCH   2   3
ATOM      3  CG  LYS A 131      27.599  24.477  16.572  1.00 22.96     0.005 C 
BRANCH   3   4
ATOM      4  CD  LYS A 131      27.035  23.701  17.729  1.00 24.33     0.041 C 
BRANCH   4   5
ATOM      5  CE  LYS A 131      25.527  23.552  17.556  1.00 26.91     0.338 C 
ATOM      6  NZ  LYS A 131      24.940  22.832  18.711  1.00 27.40     0.618 N 
ENDBRANCH   4   5
ENDBRANCH   3   4
ENDBRANCH   2   3
ENDBRANCH   1   2
END_RES LYS A 131
BEGIN_RES LYS A 135
REMARK  4 active torsions:
REMARK  status: ('A' for Active; 'I' for Inactive)
REMARK    5  A    between atoms: CA   and  CB  
REMARK    6  A    between atoms: CB   and  CG  
REMARK    7  A    between atoms: CG   and  CD  
REMARK    8  A    between atoms: CD   and  CE  
ROOT
ATOM      7  CA  LYS A 135      33.193  34.663   9.290  1.00 25.02     0.186 C 
ENDROOT
BRANCH   7   8
ATOM      8  CB  LYS A 135      32.060  35.360  10.034  1.00 26.63     0.034 C 
BRANCH   8   9
ATOM      9  CG  LYS A 135      30.800  35.500   9.219  1.00 29.45     0.005 C 
BRANCH   9  10
ATOM     10  CD  LYS A 135      30.135  34.146   9.023  1.00 32.00     0.041 C 
BRANCH  10  11
ATOM     11  CE  LYS A 135      28.675  34.319   8.650  1.00 34.25     0.338 C 
ATOM     12  NZ  LYS A 135      27.785  33.684   9.661  1.00 35.99     0.618 N 
ENDBRANCH  10  11
ENDBRANCH   9  10
ENDBRANCH   8   9
ENDBRANCH   7   8
END_RES LYS A 135
