REMARK VINA RESULT:    -6.652      3.004      7.566
REMARK INTER + INTRA:         -19.728
REMARK INTER:                 -10.848
REMARK INTRA:                  -8.880
REMARK UNBOUND:                -1.022
REMARK SMILES CC(=O)N[C@@H]1[C@@H](O)C[C@](OC[C@H]2O[C@@H](O[C@H]3[C@H](O)[C@@H](O)[C@H](OCCN=[N+]=[N-])O[C@@H]3CO)[C@H](O)[C@@H](O)[C@H]2O)(C(=O)O)O[C@H]1C(O)[C@H](O)CNC(=O)OCc1cn(C2CC(O)C=C[C@@H](O)C2)nn1
REMARK SMILES IDX 43 1 42 2 9 3 8 4 41 5 6 6 5 7 10 8 11 9 12 10 14 11 13 12
REMARK SMILES IDX 32 13 34 14 36 15 15 16 16 17 29 18 28 19 21 20 17 21 19 22
REMARK SMILES IDX 30 23 31 24 22 26 23 27 24 28 25 29 26 30 27 31 18 32 20 34
REMARK SMILES IDX 33 36 35 38 37 40 38 42 39 43 40 44 7 46 4 48 2 49 1 51 3 52
REMARK SMILES IDX 44 53 45 55 46 56 47 58 48 59 49 60 50 62 51 63 52 64 53 65
REMARK SMILES IDX 54 66 66 67 55 68 65 69 56 70 57 71 58 72 59 74 64 76 62 77
REMARK SMILES IDX 61 78 60 79 63 81
REMARK H PARENT 31 25 18 33 20 35 33 37 35 39 37 41 40 45 7 47 4 50 44 54
REMARK H PARENT 46 57 48 61 59 75 63 82
REMARK Flexibility Score: 90.00
ROOT
ATOM      1  C   UNL     1      20.539  36.047  12.098  1.00  0.00     0.176 C 
ENDROOT
BRANCH   1   2
ATOM      2  C   UNL     1      20.830  37.327  11.334  1.00  0.00     0.178 C 
ATOM      3  C   UNL     1      22.028  37.918   9.397  1.00  0.00     0.272 C 
ATOM      4  C   UNL     1      22.070  39.345   9.807  1.00  0.00     0.113 C 
ATOM      5  O   UNL     1      21.759  36.974  10.314  1.00  0.00    -0.332 OA
ATOM      6  C   UNL     1      21.362  39.652  11.077  1.00  0.00     0.145 C 
ATOM      7  C   UNL     1      21.458  38.439  12.055  1.00  0.00     0.142 C 
BRANCH   3   8
ATOM      8  O   UNL     1      23.215  37.635   8.691  1.00  0.00    -0.338 OA
BRANCH   8   9
ATOM      9  C   UNL     1      23.559  36.315   8.653  1.00  0.00     0.199 C 
BRANCH   9  10
ATOM     10  C   UNL     1      25.024  36.121   9.047  1.00  0.00     0.179 C 
ATOM     11  C   UNL     1      26.722  37.620   9.498  1.00  0.00     0.282 C 
ATOM     12  O   UNL     1      25.720  37.207   8.619  1.00  0.00    -0.341 OA
ATOM     13  C   UNL     1      25.972  38.091  10.730  1.00  0.00     0.202 C 
ATOM     14  C   UNL     1      25.479  36.840  11.422  1.00  0.00     0.179 C 
ATOM     15  C   UNL     1      25.175  35.724  10.474  1.00  0.00     0.177 C 
BRANCH  11  16
ATOM     16  O   UNL     1      27.472  38.601   8.894  1.00  0.00    -0.341 OA
BRANCH  16  17
ATOM     17  C   UNL     1      27.357  38.492   7.505  1.00  0.00     0.184 C 
ATOM     18  C   UNL     1      28.587  37.836   6.931  1.00  0.00     0.178 C 
ATOM     19  O   UNL     1      29.691  38.646   6.866  1.00  0.00    -0.341 OA
ATOM     20  C   UNL     1      29.444  39.975   7.205  1.00  0.00     0.281 C 
ATOM     21  C   UNL     1      27.038  39.804   6.843  1.00  0.00     0.180 C 
ATOM     22  C   UNL     1      28.282  40.511   6.375  1.00  0.00     0.202 C 
BRANCH  18  23
ATOM     23  C   UNL     1      28.292  37.249   5.557  1.00  0.00     0.191 C 
BRANCH  23  24
ATOM     24  O   UNL     1      27.005  36.754   5.466  1.00  0.00    -0.394 OA
ATOM     25  H   UNL     1      26.641  36.797   4.567  1.00  0.00     0.210 HD
ENDBRANCH  23  24
ENDBRANCH  18  23
BRANCH  20  26
ATOM     26  O   UNL     1      30.610  40.672   6.904  1.00  0.00    -0.350 OA
BRANCH  26  27
ATOM     27  C   UNL     1      31.596  39.757   6.556  1.00  0.00     0.169 C 
BRANCH  27  28
ATOM     28  C   UNL     1      32.257  40.130   5.241  1.00  0.00     0.119 C 
BRANCH  28  29
ATOM     29  N   UNL     1      33.694  40.226   5.394  1.00  0.00    -0.092 NA
ATOM     30  N   UNL     1      34.166  41.168   6.051  1.00  0.00     0.001 N 
ATOM     31  N   UNL     1      34.512  42.203   6.637  1.00  0.00    -0.003 NA
ENDBRANCH  28  29
ENDBRANCH  27  28
ENDBRANCH  26  27
ENDBRANCH  20  26
BRANCH  21  32
ATOM     32  O   UNL     1      26.174  39.606   5.766  1.00  0.00    -0.387 OA
ATOM     33  H   UNL     1      26.550  39.955   4.922  1.00  0.00     0.211 HD
ENDBRANCH  21  32
BRANCH  22  34
ATOM     34  O   UNL     1      28.177  41.885   6.558  1.00  0.00    -0.385 OA
ATOM     35  H   UNL     1      27.799  42.320   5.750  1.00  0.00     0.211 HD
ENDBRANCH  22  34
ENDBRANCH  16  17
ENDBRANCH  11  16
BRANCH  13  36
ATOM     36  O   UNL     1      26.719  38.850  11.591  1.00  0.00    -0.385 OA
ATOM     37  H   UNL     1      27.476  39.308  11.193  1.00  0.00     0.211 HD
ENDBRANCH  13  36
BRANCH  14  38
ATOM     38  O   UNL     1      24.377  37.215  12.190  1.00  0.00    -0.387 OA
ATOM     39  H   UNL     1      23.975  36.424  12.646  1.00  0.00     0.211 HD
ENDBRANCH  14  38
BRANCH  15  40
ATOM     40  O   UNL     1      23.977  35.085  10.853  1.00  0.00    -0.387 OA
ATOM     41  H   UNL     1      23.218  35.328  10.304  1.00  0.00     0.211 HD
ENDBRANCH  15  40
ENDBRANCH   9  10
ENDBRANCH   8   9
ENDBRANCH   3   8
BRANCH   3  42
ATOM     42  C   UNL     1      20.931  37.823   8.358  1.00  0.00     0.364 C 
ATOM     43  O   UNL     1      20.546  36.722   7.882  1.00  0.00    -0.246 OA
BRANCH  42  44
ATOM     44  O   UNL     1      20.346  39.005   7.935  1.00  0.00    -0.477 OA
ATOM     45  H   UNL     1      19.858  39.616   8.589  1.00  0.00     0.296 HD
ENDBRANCH  42  44
ENDBRANCH   3  42
BRANCH   6  46
ATOM     46  O   UNL     1      21.858  40.782  11.678  1.00  0.00    -0.391 OA
ATOM     47  H   UNL     1      22.829  40.707  11.793  1.00  0.00     0.211 HD
ENDBRANCH   6  46
BRANCH   7  48
ATOM     48  N   UNL     1      21.002  38.849  13.327  1.00  0.00    -0.348 N 
ATOM     49  C   UNL     1      21.851  38.746  14.457  1.00  0.00     0.217 C 
ATOM     50  H   UNL     1      20.058  39.259  13.453  1.00  0.00     0.163 HD
ATOM     51  C   UNL     1      21.392  39.171  15.806  1.00  0.00     0.114 C 
ATOM     52  O   UNL     1      23.010  38.288  14.321  1.00  0.00    -0.275 OA
ENDBRANCH   7  48
ENDBRANCH   1   2
BRANCH   1  53
ATOM     53  O   UNL     1      21.782  35.908  12.858  1.00  0.00    -0.388 OA
ATOM     54  H   UNL     1      22.472  35.530  12.229  1.00  0.00     0.211 HD
ENDBRANCH   1  53
BRANCH   1  55
ATOM     55  C   UNL     1      20.572  34.805  11.254  1.00  0.00     0.165 C 
BRANCH  55  56
ATOM     56  O   UNL     1      19.460  34.686  10.457  1.00  0.00    -0.388 OA
ATOM     57  H   UNL     1      18.868  33.939  10.702  1.00  0.00     0.211 HD
ENDBRANCH  55  56
BRANCH  55  58
ATOM     58  C   UNL     1      20.613  33.558  12.130  1.00  0.00     0.154 C 
BRANCH  58  59
ATOM     59  N   UNL     1      21.906  32.964  12.242  1.00  0.00    -0.319 N 
ATOM     60  C   UNL     1      22.618  32.882  13.471  1.00  0.00     0.407 C 
ATOM     61  H   UNL     1      22.375  32.558  11.377  1.00  0.00     0.167 HD
ATOM     62  O   UNL     1      22.052  33.371  14.491  1.00  0.00    -0.225 OA
BRANCH  60  63
ATOM     63  O   UNL     1      23.861  32.296  13.518  1.00  0.00    -0.443 OA
BRANCH  63  64
ATOM     64  C   UNL     1      24.591  32.239  14.740  1.00  0.00     0.294 C 
BRANCH  64  65
ATOM     65  C   UNL     1      25.800  33.078  14.585  1.00  0.00     0.120 A 
ATOM     66  C   UNL     1      27.002  32.967  15.235  1.00  0.00     0.138 A 
ATOM     67  N   UNL     1      25.916  34.129  13.755  1.00  0.00    -0.132 NA
ATOM     68  N   UNL     1      27.807  33.958  14.776  1.00  0.00    -0.249 N 
ATOM     69  N   UNL     1      27.121  34.641  13.884  1.00  0.00    -0.067 NA
BRANCH  68  70
ATOM     70  C   UNL     1      29.189  34.228  15.198  1.00  0.00     0.115 C 
BRANCH  70  71
ATOM     71  C   UNL     1      29.479  33.424  16.420  1.00  0.00     0.063 C 
BRANCH  71  72
ATOM     72  C   UNL     1      30.567  34.132  17.234  1.00  0.00     0.139 CG0
ATOM     73  G   UNL     1      31.863  33.952  16.561  1.00  0.00     0.000 G0
BRANCH  72  74
ATOM     74  O   UNL     1      30.594  33.626  18.532  1.00  0.00    -0.389 OA
ATOM     75  H   UNL     1      30.873  32.668  18.480  1.00  0.00     0.211 HD
ENDBRANCH  72  74
ENDBRANCH  71  72
ENDBRANCH  70  71
BRANCH  70  76
ATOM     76  C   UNL     1      30.107  33.863  14.073  1.00  0.00     0.063 C 
BRANCH  76  77
ATOM     77  C   UNL     1      31.355  34.740  14.225  1.00  0.00     0.139 C 
BRANCH  77  78
ATOM     78  C   UNL     1      32.231  34.181  15.290  1.00  0.00     0.002 C 
ATOM     79  C   UNL     1      31.878  33.940  16.545  1.00  0.00     0.002 CG0
ATOM     80  G   UNL     1      30.583  34.146  17.214  1.00  0.00     0.000 G0
ENDBRANCH  77  78
BRANCH  77  81
ATOM     81  O   UNL     1      32.037  34.873  13.025  1.00  0.00    -0.389 OA
ATOM     82  H   UNL     1      31.596  34.269  12.364  1.00  0.00     0.211 HD
ENDBRANCH  77  81
ENDBRANCH  76  77
ENDBRANCH  70  76
ENDBRANCH  68  70
ENDBRANCH  64  65
ENDBRANCH  63  64
ENDBRANCH  60  63
ENDBRANCH  58  59
ENDBRANCH  55  58
ENDBRANCH   1  55
TORSDOF 32
BEGIN_RES LYS A 131
REMARK  4 active torsions:
REMARK  status: ('A' for Active; 'I' for Inactive)
REMARK    1  A    between atoms: CA   and  CB  
REMARK    2  A    between atoms: CB   and  CG  
REMARK    3  A    between atoms: CG   and  CD  
REMARK    4  A    between atoms: CD   and  CE  
ROOT
ATOM      1  CA  LYS A 131      29.867  25.555  16.977  1.00 20.52     0.186 C 
ENDROOT
BRANCH   1   2
ATOM      2  CB  LYS A 131      28.345  25.722  17.026  1.00 20.94     0.034 C 
BRANCH   2   3
ATOM      3  CG  LYS A 131      27.602  24.398  16.934  1.00 22.96     0.005 C 
BRANCH   3   4
ATOM      4  CD  LYS A 131      26.294  24.430  17.674  1.00 24.33     0.041 C 
BRANCH   4   5
ATOM      5  CE  LYS A 131      26.204  25.713  18.495  1.00 26.91     0.338 C 
ATOM      6  NZ  LYS A 131      25.587  25.443  19.814  1.00 27.40     0.618 N 
ENDBRANCH   4   5
ENDBRANCH   3   4
ENDBRANCH   2   3
ENDBRANCH   1   2
END_RES LYS A 131
BEGIN_RES LYS A 135
REMARK  4 active torsions:
REMARK  status: ('A' for Active; 'I' for Inactive)
REMARK    5  A    between atoms: CA   and  CB  
REMARK    6  A    between atoms: CB   and  CG  
REMARK    7  A    between atoms: CG   and  CD  
REMARK    8  A    between atoms: CD   and  CE  
ROOT
ATOM      7  CA  LYS A 135      33.193  34.663   9.290  1.00 25.02     0.186 C 
ENDROOT
BRANCH   7   8
ATOM      8  CB  LYS A 135      32.060  35.360  10.034  1.00 26.63     0.034 C 
BRANCH   8   9
ATOM      9  CG  LYS A 135      30.721  34.692   9.855  1.00 29.45     0.005 C 
BRANCH   9  10
ATOM     10  CD  LYS A 135      30.249  34.814   8.414  1.00 32.00     0.041 C 
BRANCH  10  11
ATOM     11  CE  LYS A 135      28.769  34.502   8.310  1.00 34.25     0.338 C 
ATOM     12  NZ  LYS A 135      28.241  33.971   9.598  1.00 35.99     0.618 N 
ENDBRANCH  10  11
ENDBRANCH   9  10
ENDBRANCH   8   9
ENDBRANCH   7   8
END_RES LYS A 135
