REMARK VINA RESULT:    -4.740      4.369      9.538
REMARK INTER + INTRA:         -23.713
REMARK INTER:                 -12.317
REMARK INTRA:                 -11.396
REMARK UNBOUND:               -10.521
REMARK SMILES CC(=O)N[C@@H]1[C@@H](O)C[C@](OC[C@H]2O[C@@H](O[C@H]3[C@H](O)[C@@H](O)[C@H](OCCN=[N+]=[N-])O[C@@H]3CO)[C@H](O)[C@@H](O)[C@H]2O)(C(=O)O)O[C@H]1C(O)[C@H](O)CNC(=O)OCc1cn(CCCCCC(=O)O)nn1
REMARK SMILES IDX 47 1 45 2 43 3 42 4 9 5 8 6 41 7 6 8 5 9 10 10 11 11 12 12
REMARK SMILES IDX 14 13 13 14 32 15 34 16 36 17 15 18 16 19 29 20 28 21 21 22
REMARK SMILES IDX 17 23 19 24 30 25 31 26 22 28 23 29 24 30 25 31 26 32 27 33
REMARK SMILES IDX 18 34 20 36 33 38 35 40 37 42 38 44 39 45 40 46 7 48 4 50
REMARK SMILES IDX 2 51 1 53 3 54 44 55 46 57 48 59 49 60 50 62 51 63 52 64
REMARK SMILES IDX 53 65 54 66 65 67 55 68 64 69 56 70 57 71 58 72 59 73 60 74
REMARK SMILES IDX 61 75 62 76 63 77
REMARK H PARENT 31 27 18 35 20 37 33 39 35 41 37 43 40 47 7 49 4 52 44 56
REMARK H PARENT 46 58 48 61 63 78
REMARK Flexibility Score: inf
ROOT
ATOM      1  C   UNL     1      31.899  34.828  15.890  1.00  0.00     0.154 C 
ENDROOT
BRANCH   1   2
ATOM      2  C   UNL     1      32.073  34.168  14.543  1.00  0.00     0.165 C 
BRANCH   2   3
ATOM      3  C   UNL     1      31.430  35.066  13.536  1.00  0.00     0.176 C 
BRANCH   3   4
ATOM      4  C   UNL     1      30.024  35.468  13.819  1.00  0.00     0.178 C 
ATOM      5  C   UNL     1      27.974  34.757  14.427  1.00  0.00     0.272 C 
ATOM      6  C   UNL     1      27.779  36.200  14.766  1.00  0.00     0.113 C 
ATOM      7  O   UNL     1      29.079  34.471  13.638  1.00  0.00    -0.332 OA
ATOM      8  C   UNL     1      28.372  37.208  13.857  1.00  0.00     0.145 C 
ATOM      9  C   UNL     1      29.523  36.645  13.012  1.00  0.00     0.142 C 
BRANCH   5  10
ATOM     10  O   UNL     1      26.817  34.160  13.929  1.00  0.00    -0.338 OA
BRANCH  10  11
ATOM     11  C   UNL     1      25.682  34.292  14.662  1.00  0.00     0.199 C 
BRANCH  11  12
ATOM     12  C   UNL     1      24.562  34.586  13.681  1.00  0.00     0.179 C 
ATOM     13  C   UNL     1      23.938  35.398  11.693  1.00  0.00     0.282 C 
ATOM     14  O   UNL     1      24.979  34.690  12.363  1.00  0.00    -0.341 OA
ATOM     15  C   UNL     1      22.587  35.090  12.158  1.00  0.00     0.202 C 
ATOM     16  C   UNL     1      22.397  33.818  12.936  1.00  0.00     0.179 C 
ATOM     17  C   UNL     1      23.619  33.397  13.708  1.00  0.00     0.177 C 
BRANCH  13  18
ATOM     18  O   UNL     1      24.188  35.403  10.323  1.00  0.00    -0.341 OA
BRANCH  18  19
ATOM     19  C   UNL     1      24.549  36.588   9.798  1.00  0.00     0.184 C 
ATOM     20  C   UNL     1      23.775  36.950   8.566  1.00  0.00     0.178 C 
ATOM     21  O   UNL     1      23.977  38.335   8.395  1.00  0.00    -0.341 OA
ATOM     22  C   UNL     1      25.255  38.602   8.037  1.00  0.00     0.281 C 
ATOM     23  C   UNL     1      26.019  36.516   9.260  1.00  0.00     0.180 C 
ATOM     24  C   UNL     1      26.151  37.421   8.061  1.00  0.00     0.202 C 
BRANCH  20  25
ATOM     25  C   UNL     1      22.290  36.736   8.692  1.00  0.00     0.191 C 
BRANCH  25  26
ATOM     26  O   UNL     1      21.818  35.941   7.670  1.00  0.00    -0.394 OA
ATOM     27  H   UNL     1      20.856  36.156   7.543  1.00  0.00     0.210 HD
ENDBRANCH  25  26
ENDBRANCH  20  25
BRANCH  22  28
ATOM     28  O   UNL     1      25.824  39.669   8.745  1.00  0.00    -0.350 OA
BRANCH  28  29
ATOM     29  C   UNL     1      27.037  40.057   8.237  1.00  0.00     0.169 C 
BRANCH  29  30
ATOM     30  C   UNL     1      26.822  41.006   7.067  1.00  0.00     0.119 C 
BRANCH  30  31
ATOM     31  N   UNL     1      27.722  40.688   5.971  1.00  0.00    -0.092 NA
ATOM     32  N   UNL     1      27.542  39.646   5.312  1.00  0.00     0.001 N 
ATOM     33  N   UNL     1      27.715  38.485   4.937  1.00  0.00    -0.003 NA
ENDBRANCH  30  31
ENDBRANCH  29  30
ENDBRANCH  28  29
ENDBRANCH  22  28
BRANCH  23  34
ATOM     34  O   UNL     1      26.872  37.003  10.250  1.00  0.00    -0.387 OA
ATOM     35  H   UNL     1      26.725  36.475  11.088  1.00  0.00     0.211 HD
ENDBRANCH  23  34
BRANCH  24  36
ATOM     36  O   UNL     1      26.201  36.716   6.852  1.00  0.00    -0.385 OA
ATOM     37  H   UNL     1      26.594  35.814   6.958  1.00  0.00     0.211 HD
ENDBRANCH  24  36
ENDBRANCH  18  19
ENDBRANCH  13  18
BRANCH  15  38
ATOM     38  O   UNL     1      22.071  36.118  13.000  1.00  0.00    -0.385 OA
ATOM     39  H   UNL     1      21.952  36.942  12.494  1.00  0.00     0.211 HD
ENDBRANCH  15  38
BRANCH  16  40
ATOM     40  O   UNL     1      22.040  32.732  12.116  1.00  0.00    -0.387 OA
ATOM     41  H   UNL     1      21.798  33.002  11.212  1.00  0.00     0.211 HD
ENDBRANCH  16  40
BRANCH  17  42
ATOM     42  O   UNL     1      24.281  32.363  12.999  1.00  0.00    -0.387 OA
ATOM     43  H   UNL     1      23.835  31.513  13.309  1.00  0.00     0.211 HD
ENDBRANCH  17  42
ENDBRANCH  11  12
ENDBRANCH  10  11
ENDBRANCH   5  10
BRANCH   5  44
ATOM     44  C   UNL     1      28.235  34.054  15.714  1.00  0.00     0.364 C 
ATOM     45  O   UNL     1      28.127  34.657  16.805  1.00  0.00    -0.246 OA
BRANCH  44  46
ATOM     46  O   UNL     1      28.598  32.731  15.717  1.00  0.00    -0.477 OA
ATOM     47  H   UNL     1      27.981  31.975  16.062  1.00  0.00     0.296 HD
ENDBRANCH  44  46
ENDBRANCH   5  44
BRANCH   8  48
ATOM     48  O   UNL     1      27.462  37.927  13.087  1.00  0.00    -0.391 OA
ATOM     49  H   UNL     1      26.727  38.210  13.676  1.00  0.00     0.211 HD
ENDBRANCH   8  48
BRANCH   9  50
ATOM     50  N   UNL     1      30.499  37.637  12.725  1.00  0.00    -0.348 N 
ATOM     51  C   UNL     1      30.348  38.459  11.582  1.00  0.00     0.217 C 
ATOM     52  H   UNL     1      31.316  37.773  13.335  1.00  0.00     0.163 HD
ATOM     53  C   UNL     1      31.353  39.506  11.261  1.00  0.00     0.114 C 
ATOM     54  O   UNL     1      29.365  38.343  10.793  1.00  0.00    -0.275 OA
ENDBRANCH   9  50
ENDBRANCH   3   4
BRANCH   3  55
ATOM     55  O   UNL     1      31.488  34.502  12.241  1.00  0.00    -0.388 OA
ATOM     56  H   UNL     1      30.596  34.527  11.827  1.00  0.00     0.211 HD
ENDBRANCH   3  55
ENDBRANCH   2   3
BRANCH   2  57
ATOM     57  O   UNL     1      31.433  32.935  14.583  1.00  0.00    -0.388 OA
ATOM     58  H   UNL     1      32.129  32.245  14.440  1.00  0.00     0.211 HD
ENDBRANCH   2  57
ENDBRANCH   1   2
BRANCH   1  59
ATOM     59  N   UNL     1      31.436  33.952  16.919  1.00  0.00    -0.319 N 
ATOM     60  C   UNL     1      31.757  34.272  18.277  1.00  0.00     0.407 C 
ATOM     61  H   UNL     1      30.883  33.102  16.729  1.00  0.00     0.167 HD
ATOM     62  O   UNL     1      32.428  35.299  18.548  1.00  0.00    -0.225 OA
BRANCH  60  63
ATOM     63  O   UNL     1      31.354  33.480  19.327  1.00  0.00    -0.443 OA
BRANCH  63  64
ATOM     64  C   UNL     1      30.040  33.303  19.724  1.00  0.00     0.294 C 
BRANCH  64  65
ATOM     65  C   UNL     1      29.280  32.242  19.051  1.00  0.00     0.120 A 
ATOM     66  C   UNL     1      27.944  31.963  19.175  1.00  0.00     0.138 A 
ATOM     67  N   UNL     1      29.794  31.336  18.189  1.00  0.00    -0.132 NA
ATOM     68  N   UNL     1      27.678  30.911  18.399  1.00  0.00    -0.252 N 
ATOM     69  N   UNL     1      28.809  30.560  17.823  1.00  0.00    -0.067 NA
BRANCH  68  70
ATOM     70  C   UNL     1      26.373  30.287  18.226  1.00  0.00     0.146 C 
BRANCH  70  71
ATOM     71  C   UNL     1      26.177  29.280  19.359  1.00  0.00     0.024 C 
BRANCH  71  72
ATOM     72  C   UNL     1      26.264  27.869  18.857  1.00  0.00     0.002 C 
BRANCH  72  73
ATOM     73  C   UNL     1      27.621  27.302  19.159  1.00  0.00     0.012 C 
BRANCH  73  74
ATOM     74  C   UNL     1      28.049  27.510  20.574  1.00  0.00     0.122 C 
BRANCH  74  75
ATOM     75  C   UNL     1      29.513  27.784  20.615  1.00  0.00     0.303 C 
ATOM     76  O   UNL     1      30.277  27.003  21.224  1.00  0.00    -0.252 OA
BRANCH  75  77
ATOM     77  O   UNL     1      30.052  28.900  19.984  1.00  0.00    -0.481 OA
ATOM     78  H   UNL     1      30.596  29.574  20.529  1.00  0.00     0.296 HD
ENDBRANCH  75  77
ENDBRANCH  74  75
ENDBRANCH  73  74
ENDBRANCH  72  73
ENDBRANCH  71  72
ENDBRANCH  70  71
ENDBRANCH  68  70
ENDBRANCH  64  65
ENDBRANCH  63  64
ENDBRANCH  60  63
ENDBRANCH   1  59
TORSDOF 36
BEGIN_RES LYS A 131
REMARK  4 active torsions:
REMARK  status: ('A' for Active; 'I' for Inactive)
REMARK    1  A    between atoms: CA   and  CB  
REMARK    2  A    between atoms: CB   and  CG  
REMARK    3  A    between atoms: CG   and  CD  
REMARK    4  A    between atoms: CD   and  CE  
ROOT
ATOM      1  CA  LYS A 131      29.867  25.555  16.977  1.00 20.52     0.186 C 
ENDROOT
BRANCH   1   2
ATOM      2  CB  LYS A 131      28.345  25.722  17.026  1.00 20.94     0.034 C 
BRANCH   2   3
ATOM      3  CG  LYS A 131      27.599  24.426  16.747  1.00 22.96     0.005 C 
BRANCH   3   4
ATOM      4  CD  LYS A 131      26.944  23.872  17.982  1.00 24.33     0.041 C 
BRANCH   4   5
ATOM      5  CE  LYS A 131      25.604  23.246  17.610  1.00 26.91     0.338 C 
ATOM      6  NZ  LYS A 131      24.740  24.237  16.926  1.00 27.40     0.618 N 
ENDBRANCH   4   5
ENDBRANCH   3   4
ENDBRANCH   2   3
ENDBRANCH   1   2
END_RES LYS A 131
BEGIN_RES LYS A 135
REMARK  4 active torsions:
REMARK  status: ('A' for Active; 'I' for Inactive)
REMARK    5  A    between atoms: CA   and  CB  
REMARK    6  A    between atoms: CB   and  CG  
REMARK    7  A    between atoms: CG   and  CD  
REMARK    8  A    between atoms: CD   and  CE  
ROOT
ATOM      7  CA  LYS A 135      33.193  34.663   9.290  1.00 25.02     0.186 C 
ENDROOT
BRANCH   7   8
ATOM      8  CB  LYS A 135      32.060  35.360  10.034  1.00 26.63     0.034 C 
BRANCH   8   9
ATOM      9  CG  LYS A 135      30.879  35.691   9.159  1.00 29.45     0.005 C 
BRANCH   9  10
ATOM     10  CD  LYS A 135      30.389  34.451   8.426  1.00 32.00     0.041 C 
BRANCH  10  11
ATOM     11  CE  LYS A 135      28.874  34.436   8.359  1.00 34.25     0.338 C 
ATOM     12  NZ  LYS A 135      28.292  33.718   9.527  1.00 35.99     0.618 N 
ENDBRANCH  10  11
ENDBRANCH   9  10
ENDBRANCH   8   9
ENDBRANCH   7   8
END_RES LYS A 135
