REMARK VINA RESULT:    -4.347      2.833      7.887
REMARK INTER + INTRA:         -23.203
REMARK INTER:                 -10.982
REMARK INTRA:                 -12.221
REMARK UNBOUND:               -12.122
REMARK SMILES CC(=O)N[C@@H]1[C@@H](O)C[C@](OC[C@H]2O[C@@H](O[C@H]3[C@H](O)[C@@H](O)[C@H](OCCN=[N+]=[N-])O[C@@H]3CO)[C@H](O)[C@@H](O)[C@H]2O)(C(=O)O)O[C@H]1C(O)[C@H](O)CNC(=O)OCc1cn(-c2ccc(O)c([N+](=O)[O-])c2)nn1
REMARK SMILES IDX 9 1 8 2 6 3 5 4 42 5 41 6 10 7 11 8 12 9 14 10 13 11 32 12
REMARK SMILES IDX 34 13 36 14 15 15 16 16 29 17 28 18 21 19 17 20 19 21 30 22
REMARK SMILES IDX 31 23 22 25 23 26 24 27 25 28 26 29 27 30 18 31 20 33 33 35
REMARK SMILES IDX 35 37 37 39 38 41 39 42 40 43 7 45 43 47 44 48 45 50 46 51
REMARK SMILES IDX 47 53 48 54 49 55 50 57 51 58 52 59 53 60 54 61 67 62 55 63
REMARK SMILES IDX 66 64 56 65 57 66 65 67 58 68 61 69 59 70 62 71 63 72 64 73
REMARK SMILES IDX 60 74 4 76 2 77 1 79 3 80
REMARK H PARENT 31 24 18 32 20 34 33 36 35 38 37 40 40 44 7 46 44 49 46 52
REMARK H PARENT 48 56 60 75 4 78
REMARK Flexibility Score: inf
ROOT
ATOM      1  C   UNL     1      24.124  36.011  10.452  1.00  0.00     0.272 C 
ATOM      2  C   UNL     1      23.408  37.332  10.792  1.00  0.00     0.113 C 
ATOM      3  C   UNL     1      22.764  37.884   9.524  1.00  0.00     0.145 C 
ATOM      4  C   UNL     1      23.968  38.293   8.637  1.00  0.00     0.142 C 
ATOM      5  C   UNL     1      25.038  37.242   8.729  1.00  0.00     0.178 C 
ATOM      6  O   UNL     1      24.494  36.007   9.125  1.00  0.00    -0.332 OA
ENDROOT
BRANCH   1   7
ATOM      7  O   UNL     1      23.170  35.034  10.664  1.00  0.00    -0.338 OA
BRANCH   7   8
ATOM      8  C   UNL     1      22.489  35.083  11.843  1.00  0.00     0.199 C 
BRANCH   8   9
ATOM      9  C   UNL     1      22.854  33.776  12.588  1.00  0.00     0.179 C 
ATOM     10  C   UNL     1      23.160  33.141  14.744  1.00  0.00     0.282 C 
ATOM     11  O   UNL     1      23.282  34.179  13.817  1.00  0.00    -0.341 OA
ATOM     12  C   UNL     1      21.708  32.987  15.034  1.00  0.00     0.202 C 
ATOM     13  C   UNL     1      20.999  32.542  13.781  1.00  0.00     0.179 C 
ATOM     14  C   UNL     1      21.704  32.852  12.514  1.00  0.00     0.177 C 
BRANCH  10  15
ATOM     15  O   UNL     1      23.940  33.426  15.873  1.00  0.00    -0.341 OA
BRANCH  15  16
ATOM     16  C   UNL     1      25.168  32.813  15.722  1.00  0.00     0.184 C 
ATOM     17  C   UNL     1      25.587  31.929  16.845  1.00  0.00     0.178 C 
ATOM     18  O   UNL     1      26.670  31.179  16.403  1.00  0.00    -0.341 OA
ATOM     19  C   UNL     1      27.824  32.008  16.277  1.00  0.00     0.281 C 
ATOM     20  C   UNL     1      26.274  33.899  15.637  1.00  0.00     0.180 C 
ATOM     21  C   UNL     1      27.568  33.141  15.354  1.00  0.00     0.202 C 
BRANCH  17  22
ATOM     22  C   UNL     1      24.536  31.021  17.389  1.00  0.00     0.191 C 
BRANCH  22  23
ATOM     23  O   UNL     1      23.896  30.330  16.374  1.00  0.00    -0.394 OA
ATOM     24  H   UNL     1      23.338  30.996  15.862  1.00  0.00     0.210 HD
ENDBRANCH  22  23
ENDBRANCH  17  22
BRANCH  19  25
ATOM     25  O   UNL     1      28.776  31.148  15.743  1.00  0.00    -0.350 OA
BRANCH  25  26
ATOM     26  C   UNL     1      29.976  31.150  16.427  1.00  0.00     0.169 C 
BRANCH  26  27
ATOM     27  C   UNL     1      31.075  31.776  15.627  1.00  0.00     0.119 C 
BRANCH  27  28
ATOM     28  N   UNL     1      31.396  33.069  16.226  1.00  0.00    -0.092 NA
ATOM     29  N   UNL     1      32.090  33.886  15.580  1.00  0.00     0.001 N 
ATOM     30  N   UNL     1      32.364  34.933  14.965  1.00  0.00    -0.003 NA
ENDBRANCH  27  28
ENDBRANCH  26  27
ENDBRANCH  25  26
ENDBRANCH  19  25
BRANCH  20  31
ATOM     31  O   UNL     1      26.049  34.748  14.565  1.00  0.00    -0.387 OA
ATOM     32  H   UNL     1      26.826  35.345  14.387  1.00  0.00     0.211 HD
ENDBRANCH  20  31
BRANCH  21  33
ATOM     33  O   UNL     1      28.576  34.095  15.471  1.00  0.00    -0.385 OA
ATOM     34  H   UNL     1      29.369  33.849  14.958  1.00  0.00     0.211 HD
ENDBRANCH  21  33
ENDBRANCH  15  16
ENDBRANCH  10  15
BRANCH  12  35
ATOM     35  O   UNL     1      21.442  32.097  16.070  1.00  0.00    -0.385 OA
ATOM     36  H   UNL     1      21.560  32.536  16.960  1.00  0.00     0.211 HD
ENDBRANCH  12  35
BRANCH  13  37
ATOM     37  O   UNL     1      19.694  33.044  13.853  1.00  0.00    -0.387 OA
ATOM     38  H   UNL     1      19.111  32.287  14.133  1.00  0.00     0.211 HD
ENDBRANCH  13  37
BRANCH  14  39
ATOM     39  O   UNL     1      20.743  33.268  11.568  1.00  0.00    -0.387 OA
ATOM     40  H   UNL     1      20.538  32.572  10.909  1.00  0.00     0.211 HD
ENDBRANCH  14  39
ENDBRANCH   8   9
ENDBRANCH   7   8
ENDBRANCH   1   7
BRANCH   1  41
ATOM     41  C   UNL     1      25.196  35.879  11.432  1.00  0.00     0.364 C 
ATOM     42  O   UNL     1      25.530  36.741  12.288  1.00  0.00    -0.246 OA
BRANCH  41  43
ATOM     43  O   UNL     1      25.948  34.702  11.463  1.00  0.00    -0.477 OA
ATOM     44  H   UNL     1      26.822  34.596  10.960  1.00  0.00     0.296 HD
ENDBRANCH  41  43
ENDBRANCH   1  41
BRANCH   3  45
ATOM     45  O   UNL     1      22.001  36.938   8.892  1.00  0.00    -0.391 OA
ATOM     46  H   UNL     1      21.272  37.383   8.397  1.00  0.00     0.211 HD
ENDBRANCH   3  45
BRANCH   5  47
ATOM     47  C   UNL     1      25.639  37.019   7.363  1.00  0.00     0.176 C 
BRANCH  47  48
ATOM     48  O   UNL     1      25.850  38.257   6.777  1.00  0.00    -0.388 OA
ATOM     49  H   UNL     1      26.013  38.197   5.803  1.00  0.00     0.211 HD
ENDBRANCH  47  48
BRANCH  47  50
ATOM     50  C   UNL     1      26.938  36.253   7.375  1.00  0.00     0.165 C 
BRANCH  50  51
ATOM     51  O   UNL     1      27.736  36.930   8.335  1.00  0.00    -0.388 OA
ATOM     52  H   UNL     1      27.269  36.983   9.215  1.00  0.00     0.211 HD
ENDBRANCH  50  51
BRANCH  50  53
ATOM     53  C   UNL     1      27.671  36.375   6.069  1.00  0.00     0.154 C 
BRANCH  53  54
ATOM     54  N   UNL     1      28.584  37.485   6.112  1.00  0.00    -0.319 N 
ATOM     55  C   UNL     1      28.536  38.624   5.281  1.00  0.00     0.407 C 
ATOM     56  H   UNL     1      29.376  37.473   6.826  1.00  0.00     0.167 HD
ATOM     57  O   UNL     1      27.636  38.679   4.432  1.00  0.00    -0.225 OA
BRANCH  55  58
ATOM     58  O   UNL     1      29.417  39.679   5.347  1.00  0.00    -0.443 OA
BRANCH  58  59
ATOM     59  C   UNL     1      29.152  40.793   6.161  1.00  0.00     0.294 C 
BRANCH  59  60
ATOM     60  C   UNL     1      28.776  40.297   7.518  1.00  0.00     0.121 A 
ATOM     61  C   UNL     1      29.666  39.893   8.518  1.00  0.00     0.144 A 
ATOM     62  N   UNL     1      27.574  40.117   8.078  1.00  0.00    -0.131 NA
ATOM     63  N   UNL     1      28.971  39.508   9.582  1.00  0.00    -0.220 N 
ATOM     64  N   UNL     1      27.691  39.660   9.274  1.00  0.00    -0.062 NA
BRANCH  63  65
ATOM     65  C   UNL     1      29.502  39.015  10.824  1.00  0.00     0.073 A 
ATOM     66  C   UNL     1      30.667  39.503  11.332  1.00  0.00     0.033 A 
ATOM     67  C   UNL     1      28.860  38.043  11.542  1.00  0.00     0.118 A 
ATOM     68  C   UNL     1      31.214  39.066  12.515  1.00  0.00     0.056 A 
ATOM     69  C   UNL     1      29.396  37.575  12.759  1.00  0.00     0.312 A 
ATOM     70  C   UNL     1      30.567  38.064  13.273  1.00  0.00     0.194 A 
BRANCH  69  71
ATOM     71  N   UNL     1      28.669  36.579  13.433  1.00  0.00     0.066 N 
ATOM     72  O   UNL     1      28.507  35.470  12.834  1.00  0.00    -0.258 OA
ATOM     73  O   UNL     1      28.152  36.778  14.672  1.00  0.00    -0.258 OA
ENDBRANCH  69  71
BRANCH  70  74
ATOM     74  O   UNL     1      31.158  37.664  14.459  1.00  0.00    -0.502 OA
ATOM     75  H   UNL     1      30.943  38.049  15.322  1.00  0.00     0.293 HD
ENDBRANCH  70  74
ENDBRANCH  63  65
ENDBRANCH  59  60
ENDBRANCH  58  59
ENDBRANCH  55  58
ENDBRANCH  53  54
ENDBRANCH  50  53
ENDBRANCH  47  50
ENDBRANCH   5  47
BRANCH   4  76
ATOM     76  N   UNL     1      24.390  39.568   9.183  1.00  0.00    -0.348 N 
ATOM     77  C   UNL     1      24.062  40.802   8.531  1.00  0.00     0.217 C 
ATOM     78  H   UNL     1      24.939  39.621  10.060  1.00  0.00     0.163 HD
ATOM     79  C   UNL     1      24.504  42.093   9.108  1.00  0.00     0.114 C 
ATOM     80  O   UNL     1      23.389  40.757   7.458  1.00  0.00    -0.275 OA
ENDBRANCH   4  76
TORSDOF 32
BEGIN_RES LYS A 131
REMARK  4 active torsions:
REMARK  status: ('A' for Active; 'I' for Inactive)
REMARK    1  A    between atoms: CA   and  CB  
REMARK    2  A    between atoms: CB   and  CG  
REMARK    3  A    between atoms: CG   and  CD  
REMARK    4  A    between atoms: CD   and  CE  
ROOT
ATOM      1  CA  LYS A 131      29.867  25.555  16.977  1.00 20.52     0.186 C 
ENDROOT
BRANCH   1   2
ATOM      2  CB  LYS A 131      28.345  25.722  17.026  1.00 20.94     0.034 C 
BRANCH   2   3
ATOM      3  CG  LYS A 131      27.601  24.401  16.907  1.00 22.96     0.005 C 
BRANCH   3   4
ATOM      4  CD  LYS A 131      26.161  24.522  17.320  1.00 24.33     0.041 C 
BRANCH   4   5
ATOM      5  CE  LYS A 131      26.073  25.282  18.640  1.00 26.91     0.338 C 
ATOM      6  NZ  LYS A 131      25.165  26.446  18.508  1.00 27.40     0.618 N 
ENDBRANCH   4   5
ENDBRANCH   3   4
ENDBRANCH   2   3
ENDBRANCH   1   2
END_RES LYS A 131
BEGIN_RES LYS A 135
REMARK  4 active torsions:
REMARK  status: ('A' for Active; 'I' for Inactive)
REMARK    5  A    between atoms: CA   and  CB  
REMARK    6  A    between atoms: CB   and  CG  
REMARK    7  A    between atoms: CG   and  CD  
REMARK    8  A    between atoms: CD   and  CE  
ROOT
ATOM      7  CA  LYS A 135      33.193  34.663   9.290  1.00 25.02     0.186 C 
ENDROOT
BRANCH   7   8
ATOM      8  CB  LYS A 135      32.060  35.360  10.034  1.00 26.63     0.034 C 
BRANCH   8   9
ATOM      9  CG  LYS A 135      30.931  35.800   9.138  1.00 29.45     0.005 C 
BRANCH   9  10
ATOM     10  CD  LYS A 135      30.289  34.602   8.456  1.00 32.00     0.041 C 
BRANCH  10  11
ATOM     11  CE  LYS A 135      29.666  33.676   9.483  1.00 34.25     0.338 C 
ATOM     12  NZ  LYS A 135      28.179  33.729   9.421  1.00 35.99     0.618 N 
ENDBRANCH  10  11
ENDBRANCH   9  10
ENDBRANCH   8   9
ENDBRANCH   7   8
END_RES LYS A 135
