REMARK VINA RESULT:    -5.052      0.000      0.000
REMARK INTER + INTRA:         -23.695
REMARK INTER:                 -13.079
REMARK INTRA:                 -10.615
REMARK UNBOUND:               -10.372
REMARK SMILES CC(=O)N[C@@H]1[C@@H](O)C[C@](OC[C@H]2O[C@@H](O[C@H]3[C@H](O)[C@@H](O)[C@H](OCCN=[N+]=[N-])O[C@@H]3CO)[C@H](O)[C@@H](O)[C@H]2O)(C(=O)O)O[C@H]1C(O)[C@H](O)CNC(=O)OCc1cn(CC(=O)NCc2cccs2)nn1
REMARK SMILES IDX 43 1 42 2 9 3 8 4 41 5 6 6 5 7 10 8 11 9 12 10 14 11 13 12
REMARK SMILES IDX 32 13 34 14 36 15 15 16 16 17 29 18 28 19 21 20 17 21 19 22
REMARK SMILES IDX 30 23 31 24 22 26 23 27 24 28 25 29 26 30 27 31 18 32 20 34
REMARK SMILES IDX 33 36 35 38 37 40 38 42 39 43 40 44 7 46 4 48 2 49 1 51 3 52
REMARK SMILES IDX 44 53 45 55 46 56 47 58 48 59 49 60 50 62 51 63 52 64 53 65
REMARK SMILES IDX 54 66 67 67 55 68 66 69 56 70 57 71 58 72 59 73 60 75 61 76
REMARK SMILES IDX 62 77 65 78 63 79 64 80
REMARK H PARENT 31 25 18 33 20 35 33 37 35 39 37 41 40 45 7 47 4 50 44 54
REMARK H PARENT 46 57 48 61 59 74
REMARK Flexibility Score: inf
ROOT
ATOM      1  C   UNL     1      28.852  38.455   7.369  1.00  0.00     0.176 C 
ENDROOT
BRANCH   1   2
ATOM      2  C   UNL     1      30.182  38.532   8.072  1.00  0.00     0.178 C 
ATOM      3  C   UNL     1      30.041  39.096  10.364  1.00  0.00     0.272 C 
ATOM      4  C   UNL     1      30.028  40.570   9.924  1.00  0.00     0.113 C 
ATOM      5  O   UNL     1      29.996  38.204   9.370  1.00  0.00    -0.332 OA
ATOM      6  C   UNL     1      31.045  40.755   8.871  1.00  0.00     0.145 C 
ATOM      7  C   UNL     1      31.006  39.723   7.775  1.00  0.00     0.142 C 
BRANCH   3   8
ATOM      8  O   UNL     1      28.944  38.987  11.186  1.00  0.00    -0.338 OA
BRANCH   8   9
ATOM      9  C   UNL     1      27.706  38.917  10.692  1.00  0.00     0.199 C 
BRANCH   9  10
ATOM     10  C   UNL     1      26.783  37.822  11.146  1.00  0.00     0.179 C 
ATOM     11  C   UNL     1      27.002  35.631  11.792  1.00  0.00     0.282 C 
ATOM     12  O   UNL     1      27.624  36.887  11.799  1.00  0.00    -0.341 OA
ATOM     13  C   UNL     1      25.560  35.724  12.163  1.00  0.00     0.202 C 
ATOM     14  C   UNL     1      25.135  37.023  12.762  1.00  0.00     0.179 C 
ATOM     15  C   UNL     1      25.804  38.245  12.219  1.00  0.00     0.177 C 
BRANCH  11  16
ATOM     16  O   UNL     1      27.648  34.717  12.578  1.00  0.00    -0.341 OA
BRANCH  16  17
ATOM     17  C   UNL     1      28.755  35.241  13.243  1.00  0.00     0.184 C 
ATOM     18  C   UNL     1      30.001  34.507  13.004  1.00  0.00     0.178 C 
ATOM     19  O   UNL     1      30.544  33.786  14.033  1.00  0.00    -0.341 OA
ATOM     20  C   UNL     1      29.798  33.602  15.152  1.00  0.00     0.281 C 
ATOM     21  C   UNL     1      28.353  35.466  14.672  1.00  0.00     0.180 C 
ATOM     22  C   UNL     1      29.395  34.999  15.657  1.00  0.00     0.202 C 
BRANCH  18  23
ATOM     23  C   UNL     1      31.116  35.483  12.576  1.00  0.00     0.191 C 
BRANCH  23  24
ATOM     24  O   UNL     1      32.245  35.363  13.357  1.00  0.00    -0.394 OA
ATOM     25  H   UNL     1      33.022  35.215  12.753  1.00  0.00     0.210 HD
ENDBRANCH  23  24
ENDBRANCH  18  23
BRANCH  20  26
ATOM     26  O   UNL     1      30.631  33.102  16.167  1.00  0.00    -0.350 OA
BRANCH  26  27
ATOM     27  C   UNL     1      30.539  31.729  16.278  1.00  0.00     0.169 C 
BRANCH  27  28
ATOM     28  C   UNL     1      29.060  31.361  16.127  1.00  0.00     0.119 C 
BRANCH  28  29
ATOM     29  N   UNL     1      28.673  30.482  17.220  1.00  0.00    -0.092 NA
ATOM     30  N   UNL     1      27.785  29.649  17.043  1.00  0.00     0.001 N 
ATOM     31  N   UNL     1      27.045  28.663  16.871  1.00  0.00    -0.003 NA
ENDBRANCH  28  29
ENDBRANCH  27  28
ENDBRANCH  26  27
ENDBRANCH  20  26
BRANCH  21  32
ATOM     32  O   UNL     1      27.972  36.786  14.932  1.00  0.00    -0.387 OA
ATOM     33  H   UNL     1      28.699  37.428  14.666  1.00  0.00     0.211 HD
ENDBRANCH  21  32
BRANCH  22  34
ATOM     34  O   UNL     1      28.809  34.921  16.905  1.00  0.00    -0.385 OA
ATOM     35  H   UNL     1      27.851  35.169  16.860  1.00  0.00     0.211 HD
ENDBRANCH  22  34
ENDBRANCH  16  17
ENDBRANCH  11  16
BRANCH  13  36
ATOM     36  O   UNL     1      24.720  35.401  11.073  1.00  0.00    -0.385 OA
ATOM     37  H   UNL     1      24.683  36.092  10.393  1.00  0.00     0.211 HD
ENDBRANCH  13  36
BRANCH  14  38
ATOM     38  O   UNL     1      25.217  36.970  14.174  1.00  0.00    -0.387 OA
ATOM     39  H   UNL     1      24.977  37.850  14.554  1.00  0.00     0.211 HD
ENDBRANCH  14  38
BRANCH  15  40
ATOM     40  O   UNL     1      26.530  38.812  13.293  1.00  0.00    -0.387 OA
ATOM     41  H   UNL     1      26.371  38.339  14.141  1.00  0.00     0.211 HD
ENDBRANCH  15  40
ENDBRANCH   9  10
ENDBRANCH   8   9
ENDBRANCH   3   8
BRANCH   3  42
ATOM     42  C   UNL     1      31.317  38.957  11.133  1.00  0.00     0.364 C 
ATOM     43  O   UNL     1      32.248  38.177  10.829  1.00  0.00    -0.246 OA
BRANCH  42  44
ATOM     44  O   UNL     1      31.511  39.737  12.267  1.00  0.00    -0.477 OA
ATOM     45  H   UNL     1      31.358  40.736  12.234  1.00  0.00     0.296 HD
ENDBRANCH  42  44
ENDBRANCH   3  42
BRANCH   6  46
ATOM     46  O   UNL     1      30.928  42.070   8.336  1.00  0.00    -0.391 OA
ATOM     47  H   UNL     1      30.717  42.723   9.038  1.00  0.00     0.211 HD
ENDBRANCH   6  46
BRANCH   7  48
ATOM     48  N   UNL     1      32.347  39.365   7.357  1.00  0.00    -0.348 N 
ATOM     49  C   UNL     1      32.812  39.728   6.075  1.00  0.00     0.217 C 
ATOM     50  H   UNL     1      33.002  38.828   7.984  1.00  0.00     0.163 HD
ATOM     51  C   UNL     1      34.195  39.349   5.663  1.00  0.00     0.114 C 
ATOM     52  O   UNL     1      32.128  40.360   5.238  1.00  0.00    -0.275 OA
ENDBRANCH   7  48
ENDBRANCH   1   2
BRANCH   1  53
ATOM     53  O   UNL     1      28.208  39.645   7.188  1.00  0.00    -0.388 OA
ATOM     54  H   UNL     1      28.172  40.247   7.961  1.00  0.00     0.211 HD
ENDBRANCH   1  53
BRANCH   1  55
ATOM     55  C   UNL     1      28.824  37.566   6.145  1.00  0.00     0.165 C 
BRANCH  55  56
ATOM     56  O   UNL     1      28.924  38.251   4.972  1.00  0.00    -0.388 OA
ATOM     57  H   UNL     1      29.386  39.116   5.030  1.00  0.00     0.211 HD
ENDBRANCH  55  56
BRANCH  55  58
ATOM     58  C   UNL     1      27.584  36.689   6.167  1.00  0.00     0.154 C 
BRANCH  58  59
ATOM     59  N   UNL     1      26.397  37.406   6.528  1.00  0.00    -0.319 N 
ATOM     60  C   UNL     1      25.523  37.119   7.605  1.00  0.00     0.407 C 
ATOM     61  H   UNL     1      26.084  38.270   5.956  1.00  0.00     0.167 HD
ATOM     62  O   UNL     1      25.718  36.179   8.374  1.00  0.00    -0.225 OA
BRANCH  60  63
ATOM     63  O   UNL     1      24.377  37.903   7.846  1.00  0.00    -0.443 OA
BRANCH  63  64
ATOM     64  C   UNL     1      23.065  37.474   7.681  1.00  0.00     0.294 C 
BRANCH  64  65
ATOM     65  C   UNL     1      22.427  36.955   8.899  1.00  0.00     0.120 A 
ATOM     66  C   UNL     1      21.492  35.947   8.982  1.00  0.00     0.138 A 
ATOM     67  N   UNL     1      22.645  37.367  10.176  1.00  0.00    -0.132 NA
ATOM     68  N   UNL     1      21.167  35.772  10.269  1.00  0.00    -0.243 N 
ATOM     69  N   UNL     1      21.876  36.637  10.955  1.00  0.00    -0.067 NA
BRANCH  68  70
ATOM     70  C   UNL     1      20.244  34.846  10.888  1.00  0.00     0.245 C 
BRANCH  70  71
ATOM     71  C   UNL     1      20.904  34.242  12.060  1.00  0.00     0.242 C 
ATOM     72  O   UNL     1      20.333  34.230  13.166  1.00  0.00    -0.273 OA
ATOM     73  N   UNL     1      22.193  33.668  11.942  1.00  0.00    -0.350 N 
ATOM     74  H   UNL     1      22.713  33.658  11.020  1.00  0.00     0.163 HD
BRANCH  73  75
ATOM     75  C   UNL     1      22.866  33.070  13.053  1.00  0.00     0.162 C 
BRANCH  75  76
ATOM     76  C   UNL     1      22.852  31.608  12.899  1.00  0.00     0.024 A 
ATOM     77  C   UNL     1      21.872  30.752  12.516  1.00  0.00     0.017 A 
ATOM     78  S   UNL     1      24.225  30.552  13.194  1.00  0.00    -0.147 S 
ATOM     79  C   UNL     1      22.133  29.437  12.454  1.00  0.00     0.012 A 
ATOM     80  C   UNL     1      23.357  28.975  12.769  1.00  0.00     0.065 A 
ENDBRANCH  75  76
ENDBRANCH  73  75
ENDBRANCH  70  71
ENDBRANCH  68  70
ENDBRANCH  64  65
ENDBRANCH  63  64
ENDBRANCH  60  63
ENDBRANCH  58  59
ENDBRANCH  55  58
ENDBRANCH   1  55
TORSDOF 33
BEGIN_RES LYS A 131
REMARK  4 active torsions:
REMARK  status: ('A' for Active; 'I' for Inactive)
REMARK    1  A    between atoms: CA   and  CB  
REMARK    2  A    between atoms: CB   and  CG  
REMARK    3  A    between atoms: CG   and  CD  
REMARK    4  A    between atoms: CD   and  CE  
ROOT
ATOM      1  CA  LYS A 131      29.867  25.555  16.977  1.00 20.52     0.186 C 
ENDROOT
BRANCH   1   2
ATOM      2  CB  LYS A 131      28.345  25.722  17.026  1.00 20.94     0.034 C 
BRANCH   2   3
ATOM      3  CG  LYS A 131      27.603  24.396  16.960  1.00 22.96     0.005 C 
BRANCH   3   4
ATOM      4  CD  LYS A 131      26.120  24.567  17.145  1.00 24.33     0.041 C 
BRANCH   4   5
ATOM      5  CE  LYS A 131      25.681  23.856  18.421  1.00 26.91     0.338 C 
ATOM      6  NZ  LYS A 131      25.743  24.781  19.578  1.00 27.40     0.618 N 
ENDBRANCH   4   5
ENDBRANCH   3   4
ENDBRANCH   2   3
ENDBRANCH   1   2
END_RES LYS A 131
BEGIN_RES LYS A 135
REMARK  4 active torsions:
REMARK  status: ('A' for Active; 'I' for Inactive)
REMARK    5  A    between atoms: CA   and  CB  
REMARK    6  A    between atoms: CB   and  CG  
REMARK    7  A    between atoms: CG   and  CD  
REMARK    8  A    between atoms: CD   and  CE  
ROOT
ATOM      7  CA  LYS A 135      33.193  34.663   9.290  1.00 25.02     0.186 C 
ENDROOT
BRANCH   7   8
ATOM      8  CB  LYS A 135      32.060  35.360  10.034  1.00 26.63     0.034 C 
BRANCH   8   9
ATOM      9  CG  LYS A 135      30.781  35.443   9.242  1.00 29.45     0.005 C 
BRANCH   9  10
ATOM     10  CD  LYS A 135      30.049  34.110   9.263  1.00 32.00     0.041 C 
BRANCH  10  11
ATOM     11  CE  LYS A 135      28.642  34.266   8.717  1.00 34.25     0.338 C 
ATOM     12  NZ  LYS A 135      27.668  33.461   9.504  1.00 35.99     0.618 N 
ENDBRANCH  10  11
ENDBRANCH   9  10
ENDBRANCH   8   9
ENDBRANCH   7   8
END_RES LYS A 135
