REMARK VINA RESULT:    -5.374      2.880      7.821
REMARK INTER + INTRA:         -21.911
REMARK INTER:                 -13.069
REMARK INTRA:                  -8.842
REMARK UNBOUND:                -8.212
REMARK SMILES CC(=O)N[C@@H]1[C@@H](O)C[C@](OC[C@H]2O[C@@H](O[C@H]3[C@H](O)[C@@H](O)[C@H](OCCN=[N+]=[N-])O[C@@H]3CO)[C@H](O)[C@@H](O)[C@H]2O)(C(=O)O)O[C@H]1C(O)[C@H](O)CNC(=O)OCc1cn(-c2ccc(CO)cn2)nn1
REMARK SMILES IDX 9 1 8 2 6 3 5 4 42 5 41 6 10 7 11 8 12 9 14 10 13 11 32 12
REMARK SMILES IDX 34 13 36 14 15 15 16 16 29 17 28 18 21 19 17 20 19 21 30 22
REMARK SMILES IDX 31 23 22 25 23 26 24 27 25 28 26 29 27 30 18 31 20 33 33 35
REMARK SMILES IDX 35 37 37 39 38 41 39 42 40 43 7 45 43 47 44 48 45 50 46 51
REMARK SMILES IDX 47 53 48 54 49 55 50 57 51 58 52 59 53 60 54 61 65 62 55 63
REMARK SMILES IDX 64 64 56 65 57 66 63 67 58 68 62 69 59 70 60 71 61 72 4 74
REMARK SMILES IDX 2 75 1 77 3 78
REMARK H PARENT 31 24 18 32 20 34 33 36 35 38 37 40 40 44 7 46 44 49 46 52
REMARK H PARENT 48 56 61 73 4 76
REMARK Flexibility Score: inf
ROOT
ATOM      1  C   UNL     1      23.838  36.788   9.182  1.00  0.00     0.272 C 
ATOM      2  C   UNL     1      22.719  36.515   8.247  1.00  0.00     0.113 C 
ATOM      3  C   UNL     1      21.450  37.213   8.650  1.00  0.00     0.145 C 
ATOM      4  C   UNL     1      21.735  38.668   8.968  1.00  0.00     0.142 C 
ATOM      5  C   UNL     1      22.860  38.781   9.912  1.00  0.00     0.178 C 
ATOM      6  O   UNL     1      23.969  38.108   9.531  1.00  0.00    -0.332 OA
ENDROOT
BRANCH   1   7
ATOM      7  O   UNL     1      25.072  36.368   8.716  1.00  0.00    -0.338 OA
BRANCH   7   8
ATOM      8  C   UNL     1      26.072  37.297   8.911  1.00  0.00     0.199 C 
BRANCH   8   9
ATOM      9  C   UNL     1      26.918  37.394   7.677  1.00  0.00     0.179 C 
ATOM     10  C   UNL     1      28.744  38.425   6.832  1.00  0.00     0.282 C 
ATOM     11  O   UNL     1      28.245  37.757   7.980  1.00  0.00    -0.341 OA
ATOM     12  C   UNL     1      28.504  37.611   5.628  1.00  0.00     0.202 C 
ATOM     13  C   UNL     1      28.092  36.169   5.875  1.00  0.00     0.179 C 
ATOM     14  C   UNL     1      26.994  36.102   6.932  1.00  0.00     0.177 C 
BRANCH  10  15
ATOM     15  O   UNL     1      30.079  38.781   7.052  1.00  0.00    -0.341 OA
BRANCH  15  16
ATOM     16  C   UNL     1      30.336  40.099   6.745  1.00  0.00     0.184 C 
ATOM     17  C   UNL     1      31.036  40.338   5.444  1.00  0.00     0.178 C 
ATOM     18  O   UNL     1      32.336  40.816   5.590  1.00  0.00    -0.341 OA
ATOM     19  C   UNL     1      33.135  39.997   6.346  1.00  0.00     0.281 C 
ATOM     20  C   UNL     1      31.269  40.620   7.854  1.00  0.00     0.180 C 
ATOM     21  C   UNL     1      32.521  39.741   7.731  1.00  0.00     0.202 C 
BRANCH  17  22
ATOM     22  C   UNL     1      30.279  41.476   4.733  1.00  0.00     0.191 C 
BRANCH  22  23
ATOM     23  O   UNL     1      30.904  41.765   3.510  1.00  0.00    -0.394 OA
ATOM     24  H   UNL     1      31.895  41.619   3.579  1.00  0.00     0.210 HD
ENDBRANCH  22  23
ENDBRANCH  17  22
BRANCH  19  25
ATOM     25  O   UNL     1      34.369  40.620   6.512  1.00  0.00    -0.350 OA
BRANCH  25  26
ATOM     26  C   UNL     1      35.239  39.906   7.295  1.00  0.00     0.169 C 
BRANCH  26  27
ATOM     27  C   UNL     1      36.420  39.488   6.428  1.00  0.00     0.119 C 
BRANCH  27  28
ATOM     28  N   UNL     1      36.128  38.235   5.746  1.00  0.00    -0.092 NA
ATOM     29  N   UNL     1      36.456  37.997   4.596  1.00  0.00     0.001 N 
ATOM     30  N   UNL     1      37.064  37.532   3.632  1.00  0.00    -0.003 NA
ENDBRANCH  27  28
ENDBRANCH  26  27
ENDBRANCH  25  26
ENDBRANCH  19  25
BRANCH  20  31
ATOM     31  O   UNL     1      31.534  41.957   7.745  1.00  0.00    -0.387 OA
ATOM     32  H   UNL     1      31.826  42.304   8.601  1.00  0.00     0.211 HD
ENDBRANCH  20  31
BRANCH  21  33
ATOM     33  O   UNL     1      32.079  38.423   7.817  1.00  0.00    -0.385 OA
ATOM     34  H   UNL     1      31.364  38.395   8.502  1.00  0.00     0.211 HD
ENDBRANCH  21  33
ENDBRANCH  15  16
ENDBRANCH  10  15
BRANCH  12  35
ATOM     35  O   UNL     1      27.486  38.222   4.858  1.00  0.00    -0.385 OA
ATOM     36  H   UNL     1      27.822  38.495   3.965  1.00  0.00     0.211 HD
ENDBRANCH  12  35
BRANCH  13  37
ATOM     37  O   UNL     1      29.175  35.359   6.171  1.00  0.00    -0.387 OA
ATOM     38  H   UNL     1      29.170  35.000   7.071  1.00  0.00     0.211 HD
ENDBRANCH  13  37
BRANCH  14  39
ATOM     39  O   UNL     1      27.288  35.044   7.765  1.00  0.00    -0.387 OA
ATOM     40  H   UNL     1      28.085  34.582   7.439  1.00  0.00     0.211 HD
ENDBRANCH  14  39
ENDBRANCH   8   9
ENDBRANCH   7   8
ENDBRANCH   1   7
BRANCH   1  41
ATOM     41  C   UNL     1      23.650  36.057  10.495  1.00  0.00     0.364 C 
ATOM     42  O   UNL     1      22.966  35.012  10.603  1.00  0.00    -0.246 OA
BRANCH  41  43
ATOM     43  O   UNL     1      24.242  36.532  11.648  1.00  0.00    -0.477 OA
ATOM     44  H   UNL     1      23.660  36.965  12.377  1.00  0.00     0.296 HD
ENDBRANCH  41  43
ENDBRANCH   1  41
BRANCH   3  45
ATOM     45  O   UNL     1      20.626  37.224   7.507  1.00  0.00    -0.391 OA
ATOM     46  H   UNL     1      21.121  37.315   6.673  1.00  0.00     0.211 HD
ENDBRANCH   3  45
BRANCH   5  47
ATOM     47  C   UNL     1      23.209  40.213  10.272  1.00  0.00     0.176 C 
BRANCH  47  48
ATOM     48  O   UNL     1      23.241  40.991   9.115  1.00  0.00    -0.388 OA
ATOM     49  H   UNL     1      23.307  41.948   9.342  1.00  0.00     0.211 HD
ENDBRANCH  47  48
BRANCH  47  50
ATOM     50  C   UNL     1      24.488  40.398  10.994  1.00  0.00     0.165 C 
BRANCH  50  51
ATOM     51  O   UNL     1      24.661  39.488  12.047  1.00  0.00    -0.388 OA
ATOM     52  H   UNL     1      24.857  38.586  11.753  1.00  0.00     0.211 HD
ENDBRANCH  50  51
BRANCH  50  53
ATOM     53  C   UNL     1      24.802  41.797  11.440  1.00  0.00     0.154 C 
BRANCH  53  54
ATOM     54  N   UNL     1      26.152  42.158  11.096  1.00  0.00    -0.319 N 
ATOM     55  C   UNL     1      26.441  42.687   9.816  1.00  0.00     0.407 C 
ATOM     56  H   UNL     1      26.939  42.023  11.812  1.00  0.00     0.167 HD
ATOM     57  O   UNL     1      25.565  42.868   8.942  1.00  0.00    -0.225 OA
BRANCH  55  58
ATOM     58  O   UNL     1      27.747  43.042   9.461  1.00  0.00    -0.443 OA
BRANCH  58  59
ATOM     59  C   UNL     1      28.636  43.463  10.455  1.00  0.00     0.294 C 
BRANCH  59  60
ATOM     60  C   UNL     1      29.744  42.562  10.745  1.00  0.00     0.121 A 
ATOM     61  C   UNL     1      29.660  41.257  11.162  1.00  0.00     0.146 A 
ATOM     62  N   UNL     1      31.056  42.840  10.663  1.00  0.00    -0.131 NA
ATOM     63  N   UNL     1      30.910  40.778  11.323  1.00  0.00    -0.202 N 
ATOM     64  N   UNL     1      31.725  41.768  11.010  1.00  0.00    -0.061 NA
BRANCH  63  65
ATOM     65  C   UNL     1      31.224  39.462  11.750  1.00  0.00     0.155 A 
ATOM     66  C   UNL     1      30.890  39.007  13.021  1.00  0.00     0.049 A 
ATOM     67  N   UNL     1      31.866  38.604  10.941  1.00  0.00    -0.237 NA
ATOM     68  C   UNL     1      31.213  37.718  13.425  1.00  0.00     0.011 A 
ATOM     69  C   UNL     1      32.191  37.343  11.314  1.00  0.00     0.119 A 
ATOM     70  C   UNL     1      31.873  36.861  12.573  1.00  0.00    -0.004 A 
BRANCH  70  71
ATOM     71  C   UNL     1      32.218  35.482  13.012  1.00  0.00     0.193 C 
BRANCH  71  72
ATOM     72  O   UNL     1      33.407  35.055  12.421  1.00  0.00    -0.392 OA
ATOM     73  H   UNL     1      33.530  35.420  11.521  1.00  0.00     0.211 HD
ENDBRANCH  71  72
ENDBRANCH  70  71
ENDBRANCH  63  65
ENDBRANCH  59  60
ENDBRANCH  58  59
ENDBRANCH  55  58
ENDBRANCH  53  54
ENDBRANCH  50  53
ENDBRANCH  47  50
ENDBRANCH   5  47
BRANCH   4  74
ATOM     74  N   UNL     1      20.515  39.299   9.475  1.00  0.00    -0.348 N 
ATOM     75  C   UNL     1      19.943  40.417   8.873  1.00  0.00     0.217 C 
ATOM     76  H   UNL     1      20.066  38.879  10.313  1.00  0.00     0.163 HD
ATOM     77  C   UNL     1      18.687  40.972   9.504  1.00  0.00     0.114 C 
ATOM     78  O   UNL     1      20.399  40.975   7.864  1.00  0.00    -0.275 OA
ENDBRANCH   4  74
TORSDOF 32
BEGIN_RES LYS A 131
REMARK  4 active torsions:
REMARK  status: ('A' for Active; 'I' for Inactive)
REMARK    1  A    between atoms: CA   and  CB  
REMARK    2  A    between atoms: CB   and  CG  
REMARK    3  A    between atoms: CG   and  CD  
REMARK    4  A    between atoms: CD   and  CE  
ROOT
ATOM      1  CA  LYS A 131      29.867  25.555  16.977  1.00 20.52     0.186 C 
ENDROOT
BRANCH   1   2
ATOM      2  CB  LYS A 131      28.345  25.722  17.026  1.00 20.94     0.034 C 
BRANCH   2   3
ATOM      3  CG  LYS A 131      27.601  24.402  16.890  1.00 22.96     0.005 C 
BRANCH   3   4
ATOM      4  CD  LYS A 131      26.519  24.253  17.922  1.00 24.33     0.041 C 
BRANCH   4   5
ATOM      5  CE  LYS A 131      25.156  24.272  17.238  1.00 26.91     0.338 C 
ATOM      6  NZ  LYS A 131      24.575  22.909  17.201  1.00 27.40     0.618 N 
ENDBRANCH   4   5
ENDBRANCH   3   4
ENDBRANCH   2   3
ENDBRANCH   1   2
END_RES LYS A 131
BEGIN_RES LYS A 135
REMARK  4 active torsions:
REMARK  status: ('A' for Active; 'I' for Inactive)
REMARK    5  A    between atoms: CA   and  CB  
REMARK    6  A    between atoms: CB   and  CG  
REMARK    7  A    between atoms: CG   and  CD  
REMARK    8  A    between atoms: CD   and  CE  
ROOT
ATOM      7  CA  LYS A 135      33.193  34.663   9.290  1.00 25.02     0.186 C 
ENDROOT
BRANCH   7   8
ATOM      8  CB  LYS A 135      32.060  35.360  10.034  1.00 26.63     0.034 C 
BRANCH   8   9
ATOM      9  CG  LYS A 135      30.729  35.259   9.335  1.00 29.45     0.005 C 
BRANCH   9  10
ATOM     10  CD  LYS A 135      29.731  34.493  10.190  1.00 32.00     0.041 C 
BRANCH  10  11
ATOM     11  CE  LYS A 135      28.830  35.452  10.945  1.00 34.25     0.338 C 
ATOM     12  NZ  LYS A 135      27.495  34.845  11.202  1.00 35.99     0.618 N 
ENDBRANCH  10  11
ENDBRANCH   9  10
ENDBRANCH   8   9
ENDBRANCH   7   8
END_RES LYS A 135
