REMARK VINA RESULT:    -4.906      3.864      9.356
REMARK INTER + INTRA:         -21.766
REMARK INTER:                 -12.649
REMARK INTRA:                  -9.116
REMARK UNBOUND:                -9.116
REMARK SMILES CC(=O)N[C@@H]1[C@@H](O)C[C@](OC[C@H]2O[C@@H](O[C@H]3[C@H](O)[C@@H](O)[C@H](OCCN=[N+]=[N-])O[C@@H]3CO)[C@H](O)[C@@H](O)[C@H]2O)(C(=O)O)O[C@H]1C(O)[C@H](O)CNC(=O)OCc1cn(CCC2OCCO2)nn1
REMARK SMILES IDX 9 1 8 2 6 3 5 4 42 5 41 6 10 7 11 8 12 9 14 10 13 11 32 12
REMARK SMILES IDX 34 13 36 14 15 15 16 16 29 17 28 18 21 19 17 20 19 21 30 22
REMARK SMILES IDX 31 23 22 25 23 26 24 27 25 28 26 29 27 30 18 31 20 33 33 35
REMARK SMILES IDX 35 37 37 39 38 41 39 42 40 43 7 45 43 47 44 48 45 50 46 51
REMARK SMILES IDX 47 53 48 54 49 55 50 57 51 58 52 59 53 60 54 61 64 62 55 63
REMARK SMILES IDX 63 64 56 65 57 66 58 67 59 68 62 69 60 70 61 71 4 72 2 73
REMARK SMILES IDX 1 75 3 76
REMARK H PARENT 31 24 18 32 20 34 33 36 35 38 37 40 40 44 7 46 44 49 46 52
REMARK H PARENT 48 56 4 74
REMARK Flexibility Score: inf
ROOT
ATOM      1  C   UNL     1      21.724  36.766   8.680  1.00  0.00     0.272 C 
ATOM      2  C   UNL     1      20.997  37.299   9.969  1.00  0.00     0.113 C 
ATOM      3  C   UNL     1      20.528  36.191  10.813  1.00  0.00     0.145 C 
ATOM      4  C   UNL     1      21.703  35.323  11.216  1.00  0.00     0.142 C 
ATOM      5  C   UNL     1      22.855  35.457  10.279  1.00  0.00     0.178 C 
ATOM      6  O   UNL     1      22.583  35.740   8.987  1.00  0.00    -0.332 OA
ENDROOT
BRANCH   1   7
ATOM      7  O   UNL     1      22.399  37.839   8.267  1.00  0.00    -0.338 OA
BRANCH   7   8
ATOM      8  C   UNL     1      22.724  38.925   8.931  1.00  0.00     0.199 C 
BRANCH   8   9
ATOM      9  C   UNL     1      23.819  39.837   8.475  1.00  0.00     0.179 C 
ATOM     10  C   UNL     1      26.144  40.075   8.589  1.00  0.00     0.282 C 
ATOM     11  O   UNL     1      24.991  39.555   9.138  1.00  0.00    -0.341 OA
ATOM     12  C   UNL     1      25.954  41.108   7.540  1.00  0.00     0.202 C 
ATOM     13  C   UNL     1      24.925  40.744   6.504  1.00  0.00     0.179 C 
ATOM     14  C   UNL     1      24.137  39.571   6.983  1.00  0.00     0.177 C 
BRANCH  10  15
ATOM     15  O   UNL     1      26.984  39.016   8.247  1.00  0.00    -0.341 OA
BRANCH  15  16
ATOM     16  C   UNL     1      28.317  39.380   8.114  1.00  0.00     0.184 C 
ATOM     17  C   UNL     1      29.023  38.733   6.962  1.00  0.00     0.178 C 
ATOM     18  O   UNL     1      30.317  39.256   6.907  1.00  0.00    -0.341 OA
ATOM     19  C   UNL     1      31.108  38.881   7.983  1.00  0.00     0.281 C 
ATOM     20  C   UNL     1      29.095  38.905   9.374  1.00  0.00     0.180 C 
ATOM     21  C   UNL     1      30.481  39.521   9.219  1.00  0.00     0.202 C 
BRANCH  17  22
ATOM     22  C   UNL     1      28.358  39.154   5.663  1.00  0.00     0.191 C 
BRANCH  22  23
ATOM     23  O   UNL     1      27.316  38.215   5.458  1.00  0.00    -0.394 OA
ATOM     24  H   UNL     1      26.565  38.591   4.954  1.00  0.00     0.210 HD
ENDBRANCH  22  23
ENDBRANCH  17  22
BRANCH  19  25
ATOM     25  O   UNL     1      32.378  39.344   7.781  1.00  0.00    -0.350 OA
BRANCH  25  26
ATOM     26  C   UNL     1      32.554  40.175   6.712  1.00  0.00     0.169 C 
BRANCH  26  27
ATOM     27  C   UNL     1      33.044  41.564   7.060  1.00  0.00     0.119 C 
BRANCH  27  28
ATOM     28  N   UNL     1      32.065  42.556   6.656  1.00  0.00    -0.092 NA
ATOM     29  N   UNL     1      30.889  42.516   7.009  1.00  0.00     0.001 N 
ATOM     30  N   UNL     1      29.747  42.643   7.442  1.00  0.00    -0.003 NA
ENDBRANCH  27  28
ENDBRANCH  26  27
ENDBRANCH  25  26
ENDBRANCH  19  25
BRANCH  20  31
ATOM     31  O   UNL     1      28.472  39.411  10.488  1.00  0.00    -0.387 OA
ATOM     32  H   UNL     1      27.574  39.753  10.224  1.00  0.00     0.211 HD
ENDBRANCH  20  31
BRANCH  21  33
ATOM     33  O   UNL     1      31.188  39.238  10.368  1.00  0.00    -0.385 OA
ATOM     34  H   UNL     1      32.056  39.712  10.323  1.00  0.00     0.211 HD
ENDBRANCH  21  33
ENDBRANCH  15  16
ENDBRANCH  10  15
BRANCH  12  35
ATOM     35  O   UNL     1      25.633  42.343   8.156  1.00  0.00    -0.385 OA
ATOM     36  H   UNL     1      26.056  43.033   7.578  1.00  0.00     0.211 HD
ENDBRANCH  12  35
BRANCH  13  37
ATOM     37  O   UNL     1      25.498  40.538   5.249  1.00  0.00    -0.387 OA
ATOM     38  H   UNL     1      26.459  40.329   5.388  1.00  0.00     0.211 HD
ENDBRANCH  13  37
BRANCH  14  39
ATOM     39  O   UNL     1      24.796  38.364   6.879  1.00  0.00    -0.387 OA
ATOM     40  H   UNL     1      24.292  37.596   7.248  1.00  0.00     0.211 HD
ENDBRANCH  14  39
ENDBRANCH   8   9
ENDBRANCH   7   8
ENDBRANCH   1   7
BRANCH   1  41
ATOM     41  C   UNL     1      20.624  36.211   7.892  1.00  0.00     0.364 C 
ATOM     42  O   UNL     1      20.536  34.922   7.750  1.00  0.00    -0.246 OA
BRANCH  41  43
ATOM     43  O   UNL     1      19.610  36.881   7.246  1.00  0.00    -0.477 OA
ATOM     44  H   UNL     1      19.671  37.049   6.252  1.00  0.00     0.296 HD
ENDBRANCH  41  43
ENDBRANCH   1  41
BRANCH   3  45
ATOM     45  O   UNL     1      19.954  36.787  11.973  1.00  0.00    -0.391 OA
ATOM     46  H   UNL     1      19.416  36.061  12.415  1.00  0.00     0.211 HD
ENDBRANCH   3  45
BRANCH   5  47
ATOM     47  C   UNL     1      23.931  36.296  10.900  1.00  0.00     0.176 C 
BRANCH  47  48
ATOM     48  O   UNL     1      24.399  35.777  12.116  1.00  0.00    -0.388 OA
ATOM     49  H   UNL     1      25.064  35.045  11.958  1.00  0.00     0.211 HD
ENDBRANCH  47  48
BRANCH  47  50
ATOM     50  C   UNL     1      25.200  36.269  10.001  1.00  0.00     0.165 C 
BRANCH  50  51
ATOM     51  O   UNL     1      25.285  35.032   9.408  1.00  0.00    -0.388 OA
ATOM     52  H   UNL     1      25.338  34.289  10.037  1.00  0.00     0.211 HD
ENDBRANCH  50  51
BRANCH  50  53
ATOM     53  C   UNL     1      26.346  36.721  10.811  1.00  0.00     0.154 C 
BRANCH  53  54
ATOM     54  N   UNL     1      27.149  35.633  11.272  1.00  0.00    -0.319 N 
ATOM     55  C   UNL     1      28.377  35.770  11.918  1.00  0.00     0.407 C 
ATOM     56  H   UNL     1      26.772  34.666  11.105  1.00  0.00     0.167 HD
ATOM     57  O   UNL     1      28.874  36.888  12.130  1.00  0.00    -0.225 OA
BRANCH  55  58
ATOM     58  O   UNL     1      29.134  34.679  12.368  1.00  0.00    -0.443 OA
BRANCH  58  59
ATOM     59  C   UNL     1      30.266  34.870  13.198  1.00  0.00     0.294 C 
BRANCH  59  60
ATOM     60  C   UNL     1      30.131  34.201  14.513  1.00  0.00     0.120 A 
ATOM     61  C   UNL     1      30.082  32.817  14.706  1.00  0.00     0.138 A 
ATOM     62  N   UNL     1      30.028  34.721  15.746  1.00  0.00    -0.132 NA
ATOM     63  N   UNL     1      29.953  32.558  16.035  1.00  0.00    -0.252 N 
ATOM     64  N   UNL     1      29.924  33.725  16.636  1.00  0.00    -0.067 NA
BRANCH  63  65
ATOM     65  C   UNL     1      29.881  31.205  16.569  1.00  0.00     0.151 C 
BRANCH  65  66
ATOM     66  C   UNL     1      28.937  30.353  15.731  1.00  0.00     0.086 C 
BRANCH  66  67
ATOM     67  C   UNL     1      27.660  30.062  16.467  1.00  0.00     0.251 C 
ATOM     68  O   UNL     1      26.577  30.494  15.700  1.00  0.00    -0.350 OA
ATOM     69  O   UNL     1      27.445  28.716  16.687  1.00  0.00    -0.350 OA
ATOM     70  C   UNL     1      25.481  29.824  16.230  1.00  0.00     0.192 C 
ATOM     71  C   UNL     1      26.092  28.739  17.100  1.00  0.00     0.192 C 
ENDBRANCH  66  67
ENDBRANCH  65  66
ENDBRANCH  63  65
ENDBRANCH  59  60
ENDBRANCH  58  59
ENDBRANCH  55  58
ENDBRANCH  53  54
ENDBRANCH  50  53
ENDBRANCH  47  50
ENDBRANCH   5  47
BRANCH   4  72
ATOM     72  N   UNL     1      21.278  33.938  11.406  1.00  0.00    -0.348 N 
ATOM     73  C   UNL     1      21.781  33.107  12.412  1.00  0.00     0.217 C 
ATOM     74  H   UNL     1      20.547  33.575  10.727  1.00  0.00     0.163 HD
ATOM     75  C   UNL     1      21.293  31.696  12.541  1.00  0.00     0.114 C 
ATOM     76  O   UNL     1      22.647  33.590  13.191  1.00  0.00    -0.275 OA
ENDBRANCH   4  72
TORSDOF 32
BEGIN_RES LYS A 131
REMARK  4 active torsions:
REMARK  status: ('A' for Active; 'I' for Inactive)
REMARK    1  A    between atoms: CA   and  CB  
REMARK    2  A    between atoms: CB   and  CG  
REMARK    3  A    between atoms: CG   and  CD  
REMARK    4  A    between atoms: CD   and  CE  
ROOT
ATOM      1  CA  LYS A 131      29.867  25.555  16.977  1.00 20.52     0.186 C 
ENDROOT
BRANCH   1   2
ATOM      2  CB  LYS A 131      28.345  25.722  17.026  1.00 20.94     0.034 C 
BRANCH   2   3
ATOM      3  CG  LYS A 131      27.602  24.398  16.931  1.00 22.96     0.005 C 
BRANCH   3   4
ATOM      4  CD  LYS A 131      26.147  24.539  17.285  1.00 24.33     0.041 C 
BRANCH   4   5
ATOM      5  CE  LYS A 131      26.006  24.728  18.792  1.00 26.91     0.338 C 
ATOM      6  NZ  LYS A 131      25.523  23.480  19.428  1.00 27.40     0.618 N 
ENDBRANCH   4   5
ENDBRANCH   3   4
ENDBRANCH   2   3
ENDBRANCH   1   2
END_RES LYS A 131
BEGIN_RES LYS A 135
REMARK  4 active torsions:
REMARK  status: ('A' for Active; 'I' for Inactive)
REMARK    5  A    between atoms: CA   and  CB  
REMARK    6  A    between atoms: CB   and  CG  
REMARK    7  A    between atoms: CG   and  CD  
REMARK    8  A    between atoms: CD   and  CE  
ROOT
ATOM      7  CA  LYS A 135      33.193  34.663   9.290  1.00 25.02     0.186 C 
ENDROOT
BRANCH   7   8
ATOM      8  CB  LYS A 135      32.060  35.360  10.034  1.00 26.63     0.034 C 
BRANCH   8   9
ATOM      9  CG  LYS A 135      30.779  35.438   9.244  1.00 29.45     0.005 C 
BRANCH   9  10
ATOM     10  CD  LYS A 135      30.197  34.049   9.028  1.00 32.00     0.041 C 
BRANCH  10  11
ATOM     11  CE  LYS A 135      28.728  34.139   8.660  1.00 34.25     0.338 C 
ATOM     12  NZ  LYS A 135      28.444  35.379   7.885  1.00 35.99     0.618 N 
ENDBRANCH  10  11
ENDBRANCH   9  10
ENDBRANCH   8   9
ENDBRANCH   7   8
END_RES LYS A 135
