REMARK VINA RESULT:    -4.661      4.908     11.192
REMARK INTER + INTRA:         -25.176
REMARK INTER:                 -11.099
REMARK INTRA:                 -14.077
REMARK UNBOUND:               -11.931
REMARK SMILES CC(=O)N[C@@H]1[C@@H](O)C[C@](OC[C@H]2O[C@@H](O[C@H]3[C@H](O)[C@@H](O)[C@H](OCCN=[N+]=[N-])O[C@@H]3CO)[C@H](O)[C@@H](O)[C@H]2O)(C(=O)O)O[C@H]1C(O)[C@H](O)CNC(=O)OCc1cn(CC(=O)NCC(O)Cn2ccnc2[N+](=O)[O-])nn1
REMARK SMILES IDX 47 1 45 2 43 3 42 4 9 5 8 6 41 7 6 8 5 9 10 10 11 11 12 12
REMARK SMILES IDX 14 13 13 14 32 15 34 16 36 17 15 18 16 19 29 20 28 21 21 22
REMARK SMILES IDX 17 23 19 24 30 25 31 26 22 28 23 29 24 30 25 31 26 32 27 33
REMARK SMILES IDX 18 34 20 36 33 38 35 40 37 42 38 44 39 45 40 46 7 48 4 50
REMARK SMILES IDX 2 51 1 53 3 54 44 55 46 57 48 59 49 60 50 62 51 63 52 64
REMARK SMILES IDX 53 65 54 66 73 67 55 68 72 69 56 70 57 71 58 72 59 73 60 75
REMARK SMILES IDX 61 76 62 77 63 79 64 80 65 81 68 82 66 83 67 84 69 85 70 86
REMARK SMILES IDX 71 87
REMARK H PARENT 31 27 18 35 20 37 33 39 35 41 37 43 40 47 7 49 4 52 44 56
REMARK H PARENT 46 58 48 61 59 74 62 78
REMARK Flexibility Score: inf
ROOT
ATOM      1  C   UNL     1      19.149  34.619   8.064  1.00  0.00     0.154 C 
ENDROOT
BRANCH   1   2
ATOM      2  C   UNL     1      19.607  35.964   7.609  1.00  0.00     0.165 C 
BRANCH   2   3
ATOM      3  C   UNL     1      20.979  36.361   8.007  1.00  0.00     0.176 C 
BRANCH   3   4
ATOM      4  C   UNL     1      21.173  37.588   8.798  1.00  0.00     0.178 C 
ATOM      5  C   UNL     1      20.604  39.825   9.073  1.00  0.00     0.272 C 
ATOM      6  C   UNL     1      21.082  39.528  10.451  1.00  0.00     0.113 C 
ATOM      7  O   UNL     1      20.545  38.686   8.249  1.00  0.00    -0.332 OA
ATOM      8  C   UNL     1      22.367  38.772  10.522  1.00  0.00     0.145 C 
ATOM      9  C   UNL     1      22.548  37.944   9.218  1.00  0.00     0.142 C 
BRANCH   5  10
ATOM     10  O   UNL     1      21.268  40.798   8.385  1.00  0.00    -0.338 OA
BRANCH  10  11
ATOM     11  C   UNL     1      21.908  41.760   9.100  1.00  0.00     0.199 C 
BRANCH  11  12
ATOM     12  C   UNL     1      23.262  42.126   8.523  1.00  0.00     0.179 C 
ATOM     13  C   UNL     1      25.541  41.731   8.814  1.00  0.00     0.282 C 
ATOM     14  O   UNL     1      24.291  41.955   9.380  1.00  0.00    -0.341 OA
ATOM     15  C   UNL     1      25.726  42.511   7.536  1.00  0.00     0.202 C 
ATOM     16  C   UNL     1      24.652  42.182   6.525  1.00  0.00     0.179 C 
ATOM     17  C   UNL     1      23.506  41.452   7.201  1.00  0.00     0.177 C 
BRANCH  13  18
ATOM     18  O   UNL     1      25.829  40.431   8.598  1.00  0.00    -0.341 OA
BRANCH  18  19
ATOM     19  C   UNL     1      27.002  39.887   8.961  1.00  0.00     0.184 C 
ATOM     20  C   UNL     1      27.586  38.833   8.060  1.00  0.00     0.178 C 
ATOM     21  O   UNL     1      28.944  38.757   8.378  1.00  0.00    -0.341 OA
ATOM     22  C   UNL     1      29.134  38.194   9.636  1.00  0.00     0.281 C 
ATOM     23  C   UNL     1      26.935  39.204  10.336  1.00  0.00     0.180 C 
ATOM     24  C   UNL     1      28.366  38.898  10.713  1.00  0.00     0.202 C 
BRANCH  20  25
ATOM     25  C   UNL     1      27.492  39.272   6.628  1.00  0.00     0.191 C 
BRANCH  25  26
ATOM     26  O   UNL     1      26.253  38.940   6.064  1.00  0.00    -0.394 OA
ATOM     27  H   UNL     1      26.121  39.624   5.334  1.00  0.00     0.210 HD
ENDBRANCH  25  26
ENDBRANCH  20  25
BRANCH  22  28
ATOM     28  O   UNL     1      30.489  38.314   9.939  1.00  0.00    -0.350 OA
BRANCH  28  29
ATOM     29  C   UNL     1      30.892  39.650   9.945  1.00  0.00     0.169 C 
BRANCH  29  30
ATOM     30  C   UNL     1      32.268  39.680   9.275  1.00  0.00     0.119 C 
BRANCH  30  31
ATOM     31  N   UNL     1      32.161  39.262   7.888  1.00  0.00    -0.092 NA
ATOM     32  N   UNL     1      33.006  39.730   7.095  1.00  0.00     0.001 N 
ATOM     33  N   UNL     1      33.955  39.913   6.343  1.00  0.00    -0.003 NA
ENDBRANCH  30  31
ENDBRANCH  29  30
ENDBRANCH  28  29
ENDBRANCH  22  28
BRANCH  23  34
ATOM     34  O   UNL     1      26.438  40.070  11.304  1.00  0.00    -0.387 OA
ATOM     35  H   UNL     1      26.207  40.912  10.798  1.00  0.00     0.211 HD
ENDBRANCH  23  34
BRANCH  24  36
ATOM     36  O   UNL     1      28.467  38.140  11.878  1.00  0.00    -0.385 OA
ATOM     37  H   UNL     1      29.215  37.484  11.756  1.00  0.00     0.211 HD
ENDBRANCH  24  36
ENDBRANCH  18  19
ENDBRANCH  13  18
BRANCH  15  38
ATOM     38  O   UNL     1      25.797  43.889   7.778  1.00  0.00    -0.385 OA
ATOM     39  H   UNL     1      26.498  43.988   8.496  1.00  0.00     0.211 HD
ENDBRANCH  15  38
BRANCH  16  40
ATOM     40  O   UNL     1      25.142  41.345   5.527  1.00  0.00    -0.387 OA
ATOM     41  H   UNL     1      24.498  41.248   4.765  1.00  0.00     0.211 HD
ENDBRANCH  16  40
BRANCH  17  42
ATOM     42  O   UNL     1      23.675  40.090   7.279  1.00  0.00    -0.387 OA
ATOM     43  H   UNL     1      24.376  39.823   7.935  1.00  0.00     0.211 HD
ENDBRANCH  17  42
ENDBRANCH  11  12
ENDBRANCH  10  11
ENDBRANCH   5  10
BRANCH   5  44
ATOM     44  C   UNL     1      19.151  40.216   9.199  1.00  0.00     0.364 C 
ATOM     45  O   UNL     1      18.625  40.751   8.205  1.00  0.00    -0.246 OA
BRANCH  44  46
ATOM     46  O   UNL     1      18.408  40.010  10.337  1.00  0.00    -0.477 OA
ATOM     47  H   UNL     1      18.029  40.813  10.870  1.00  0.00     0.296 HD
ENDBRANCH  44  46
ENDBRANCH   5  44
BRANCH   8  48
ATOM     48  O   UNL     1      23.493  39.477  10.799  1.00  0.00    -0.391 OA
ATOM     49  H   UNL     1      24.317  38.973  10.874  1.00  0.00     0.211 HD
ENDBRANCH   8  48
BRANCH   9  50
ATOM     50  N   UNL     1      23.442  36.892   9.528  1.00  0.00    -0.348 N 
ATOM     51  C   UNL     1      24.549  36.574   8.663  1.00  0.00     0.217 C 
ATOM     52  H   UNL     1      23.341  36.328  10.382  1.00  0.00     0.163 HD
ATOM     53  C   UNL     1      25.494  35.468   8.967  1.00  0.00     0.114 C 
ATOM     54  O   UNL     1      24.699  37.260   7.630  1.00  0.00    -0.275 OA
ENDBRANCH   9  50
ENDBRANCH   3   4
BRANCH   3  55
ATOM     55  O   UNL     1      21.766  36.366   6.828  1.00  0.00    -0.388 OA
ATOM     56  H   UNL     1      21.392  35.702   6.226  1.00  0.00     0.211 HD
ENDBRANCH   3  55
ENDBRANCH   2   3
BRANCH   2  57
ATOM     57  O   UNL     1      18.631  36.929   7.690  1.00  0.00    -0.388 OA
ATOM     58  H   UNL     1      18.750  37.706   7.115  1.00  0.00     0.211 HD
ENDBRANCH   2  57
ENDBRANCH   1   2
BRANCH   1  59
ATOM     59  N   UNL     1      19.368  34.461   9.476  1.00  0.00    -0.319 N 
ATOM     60  C   UNL     1      18.445  34.889  10.463  1.00  0.00     0.407 C 
ATOM     61  H   UNL     1      20.258  34.003   9.833  1.00  0.00     0.167 HD
ATOM     62  O   UNL     1      17.376  35.425  10.106  1.00  0.00    -0.225 OA
BRANCH  60  63
ATOM     63  O   UNL     1      18.645  34.758  11.821  1.00  0.00    -0.443 OA
BRANCH  63  64
ATOM     64  C   UNL     1      19.681  33.971  12.348  1.00  0.00     0.294 C 
BRANCH  64  65
ATOM     65  C   UNL     1      21.009  34.579  12.390  1.00  0.00     0.120 A 
ATOM     66  C   UNL     1      21.557  35.364  13.372  1.00  0.00     0.138 A 
ATOM     67  N   UNL     1      21.959  34.493  11.445  1.00  0.00    -0.132 NA
ATOM     68  N   UNL     1      22.807  35.727  13.000  1.00  0.00    -0.243 N 
ATOM     69  N   UNL     1      23.033  35.195  11.840  1.00  0.00    -0.067 NA
BRANCH  68  70
ATOM     70  C   UNL     1      23.733  36.541  13.778  1.00  0.00     0.245 C 
BRANCH  70  71
ATOM     71  C   UNL     1      25.089  36.411  13.203  1.00  0.00     0.241 C 
ATOM     72  O   UNL     1      25.750  37.438  12.830  1.00  0.00    -0.273 OA
ATOM     73  N   UNL     1      25.740  35.153  13.033  1.00  0.00    -0.352 N 
ATOM     74  H   UNL     1      25.245  34.291  13.319  1.00  0.00     0.163 HD
BRANCH  73  75
ATOM     75  C   UNL     1      27.073  35.127  12.461  1.00  0.00     0.151 C 
BRANCH  75  76
ATOM     76  C   UNL     1      28.141  35.051  13.507  1.00  0.00     0.168 C 
BRANCH  76  77
ATOM     77  O   UNL     1      28.393  36.276  14.098  1.00  0.00    -0.388 OA
ATOM     78  H   UNL     1      29.270  36.216  14.546  1.00  0.00     0.211 HD
ENDBRANCH  76  77
BRANCH  76  79
ATOM     79  C   UNL     1      29.395  34.511  12.837  1.00  0.00     0.239 C 
BRANCH  79  80
ATOM     80  N   UNL     1      30.519  34.516  13.728  1.00  0.00    -0.227 N 
ATOM     81  C   UNL     1      30.763  33.571  14.675  1.00  0.00     0.204 A 
ATOM     82  C   UNL     1      31.531  35.411  13.847  1.00  0.00     0.434 A 
ATOM     83  C   UNL     1      31.909  33.897  15.356  1.00  0.00     0.245 A 
ATOM     84  N   UNL     1      32.366  35.029  14.834  1.00  0.00    -0.074 NA
BRANCH  82  85
ATOM     85  N   UNL     1      31.696  36.576  13.040  1.00  0.00    -0.047 N 
ATOM     86  O   UNL     1      31.044  37.610  13.181  1.00  0.00    -0.390 OA
ATOM     87  O   UNL     1      32.644  36.539  12.026  1.00  0.00    -0.390 OA
ENDBRANCH  82  85
ENDBRANCH  79  80
ENDBRANCH  76  79
ENDBRANCH  75  76
ENDBRANCH  73  75
ENDBRANCH  70  71
ENDBRANCH  68  70
ENDBRANCH  64  65
ENDBRANCH  63  64
ENDBRANCH  60  63
ENDBRANCH   1  59
TORSDOF 37
BEGIN_RES LYS A 131
REMARK  4 active torsions:
REMARK  status: ('A' for Active; 'I' for Inactive)
REMARK    1  A    between atoms: CA   and  CB  
REMARK    2  A    between atoms: CB   and  CG  
REMARK    3  A    between atoms: CG   and  CD  
REMARK    4  A    between atoms: CD   and  CE  
ROOT
ATOM      1  CA  LYS A 131      29.867  25.555  16.977  1.00 20.52     0.186 C 
ENDROOT
BRANCH   1   2
ATOM      2  CB  LYS A 131      28.345  25.722  17.026  1.00 20.94     0.034 C 
BRANCH   2   3
ATOM      3  CG  LYS A 131      27.602  24.398  16.929  1.00 22.96     0.005 C 
BRANCH   3   4
ATOM      4  CD  LYS A 131      26.162  24.526  17.342  1.00 24.33     0.041 C 
BRANCH   4   5
ATOM      5  CE  LYS A 131      25.893  23.618  18.537  1.00 26.91     0.338 C 
ATOM      6  NZ  LYS A 131      24.437  23.500  18.783  1.00 27.40     0.618 N 
ENDBRANCH   4   5
ENDBRANCH   3   4
ENDBRANCH   2   3
ENDBRANCH   1   2
END_RES LYS A 131
BEGIN_RES LYS A 135
REMARK  4 active torsions:
REMARK  status: ('A' for Active; 'I' for Inactive)
REMARK    5  A    between atoms: CA   and  CB  
REMARK    6  A    between atoms: CB   and  CG  
REMARK    7  A    between atoms: CG   and  CD  
REMARK    8  A    between atoms: CD   and  CE  
ROOT
ATOM      7  CA  LYS A 135      33.193  34.663   9.290  1.00 25.02     0.186 C 
ENDROOT
BRANCH   7   8
ATOM      8  CB  LYS A 135      32.060  35.360  10.034  1.00 26.63     0.034 C 
BRANCH   8   9
ATOM      9  CG  LYS A 135      30.699  34.788   9.731  1.00 29.45     0.005 C 
BRANCH   9  10
ATOM     10  CD  LYS A 135      30.463  34.731   8.230  1.00 32.00     0.041 C 
BRANCH  10  11
ATOM     11  CE  LYS A 135      28.986  34.881   7.917  1.00 34.25     0.338 C 
ATOM     12  NZ  LYS A 135      28.780  35.629   6.646  1.00 35.99     0.618 N 
ENDBRANCH  10  11
ENDBRANCH   9  10
ENDBRANCH   8   9
ENDBRANCH   7   8
END_RES LYS A 135
