REMARK VINA RESULT:    -4.931      2.665      4.840
REMARK INTER + INTRA:         -21.546
REMARK INTER:                  -8.704
REMARK INTRA:                 -12.842
REMARK UNBOUND:                -9.408
REMARK SMILES CC(=O)N[C@@H]1[C@@H](O)C[C@](OC[C@H]2O[C@@H](O[C@H]3[C@H](O)[C@@H](O)[C@H](OCCN=[N+]=[N-])O[C@@H]3CO)[C@H](O)[C@@H](O)[C@H]2O)(C(=O)O)O[C@H]1C(O)[C@H](O)CNC(=O)OCc1cn(-c2cccc(Cl)c2)nn1
REMARK SMILES IDX 9 1 8 2 6 3 5 4 42 5 41 6 10 7 11 8 12 9 14 10 13 11 32 12
REMARK SMILES IDX 34 13 36 14 15 15 16 16 29 17 28 18 21 19 17 20 19 21 30 22
REMARK SMILES IDX 31 23 22 25 23 26 24 27 25 28 26 29 27 30 18 31 20 33 33 35
REMARK SMILES IDX 35 37 37 39 38 41 39 42 40 43 7 45 43 47 44 48 45 50 46 51
REMARK SMILES IDX 47 53 48 54 49 55 50 57 51 58 52 59 53 60 54 61 64 62 55 63
REMARK SMILES IDX 63 64 56 65 57 66 62 67 58 68 60 69 59 70 61 71 4 72 2 73
REMARK SMILES IDX 1 75 3 76
REMARK H PARENT 31 24 18 32 20 34 33 36 35 38 37 40 40 44 7 46 44 49 46 52
REMARK H PARENT 48 56 4 74
REMARK Flexibility Score: inf
ROOT
ATOM      1  C   UNL     1      29.281  32.997  16.227  1.00  0.00     0.272 C 
ATOM      2  C   UNL     1      30.664  32.742  15.825  1.00  0.00     0.113 C 
ATOM      3  C   UNL     1      31.332  33.698  14.893  1.00  0.00     0.145 C 
ATOM      4  C   UNL     1      30.428  34.813  14.430  1.00  0.00     0.142 C 
ATOM      5  C   UNL     1      29.039  34.167  14.303  1.00  0.00     0.178 C 
ATOM      6  O   UNL     1      28.604  34.038  15.589  1.00  0.00    -0.332 OA
ENDROOT
BRANCH   1   7
ATOM      7  O   UNL     1      28.959  33.103  17.545  1.00  0.00    -0.338 OA
BRANCH   7   8
ATOM      8  C   UNL     1      29.843  33.088  18.541  1.00  0.00     0.199 C 
BRANCH   8   9
ATOM      9  C   UNL     1      29.708  32.106  19.657  1.00  0.00     0.179 C 
ATOM     10  C   UNL     1      28.175  30.743  20.717  1.00  0.00     0.282 C 
ATOM     11  O   UNL     1      28.411  31.556  19.594  1.00  0.00    -0.341 OA
ATOM     12  C   UNL     1      29.155  29.610  20.718  1.00  0.00     0.202 C 
ATOM     13  C   UNL     1      30.595  29.961  20.516  1.00  0.00     0.179 C 
ATOM     14  C   UNL     1      30.690  30.946  19.372  1.00  0.00     0.177 C 
BRANCH  10  15
ATOM     15  O   UNL     1      26.933  30.205  20.501  1.00  0.00    -0.341 OA
BRANCH  15  16
ATOM     16  C   UNL     1      26.260  30.572  19.337  1.00  0.00     0.184 C 
ATOM     17  C   UNL     1      25.022  31.311  19.547  1.00  0.00     0.178 C 
ATOM     18  O   UNL     1      23.959  30.865  18.799  1.00  0.00    -0.341 OA
ATOM     19  C   UNL     1      23.923  29.490  18.586  1.00  0.00     0.281 C 
ATOM     20  C   UNL     1      26.303  29.376  18.451  1.00  0.00     0.180 C 
ATOM     21  C   UNL     1      25.070  29.247  17.612  1.00  0.00     0.202 C 
BRANCH  17  22
ATOM     22  C   UNL     1      25.191  32.785  19.141  1.00  0.00     0.191 C 
BRANCH  22  23
ATOM     23  O   UNL     1      26.151  32.815  18.098  1.00  0.00    -0.394 OA
ATOM     24  H   UNL     1      26.970  33.221  18.435  1.00  0.00     0.210 HD
ENDBRANCH  22  23
ENDBRANCH  17  22
BRANCH  19  25
ATOM     25  O   UNL     1      22.732  29.172  17.999  1.00  0.00    -0.350 OA
BRANCH  25  26
ATOM     26  C   UNL     1      22.327  29.973  16.962  1.00  0.00     0.169 C 
BRANCH  26  27
ATOM     27  C   UNL     1      21.706  29.248  15.797  1.00  0.00     0.119 C 
BRANCH  27  28
ATOM     28  N   UNL     1      22.805  28.629  15.041  1.00  0.00    -0.092 NA
ATOM     29  N   UNL     1      23.495  29.402  14.343  1.00  0.00     0.001 N 
ATOM     30  N   UNL     1      24.447  30.115  13.977  1.00  0.00    -0.003 NA
ENDBRANCH  27  28
ENDBRANCH  26  27
ENDBRANCH  25  26
ENDBRANCH  19  25
BRANCH  20  31
ATOM     31  O   UNL     1      27.463  29.398  17.654  1.00  0.00    -0.387 OA
ATOM     32  H   UNL     1      28.153  29.852  18.200  1.00  0.00     0.211 HD
ENDBRANCH  20  31
BRANCH  21  33
ATOM     33  O   UNL     1      25.006  27.933  17.136  1.00  0.00    -0.385 OA
ATOM     34  H   UNL     1      24.099  27.588  17.129  1.00  0.00     0.211 HD
ENDBRANCH  21  33
ENDBRANCH  15  16
ENDBRANCH  10  15
BRANCH  12  35
ATOM     35  O   UNL     1      29.110  28.896  21.925  1.00  0.00    -0.385 OA
ATOM     36  H   UNL     1      29.726  28.129  21.921  1.00  0.00     0.211 HD
ENDBRANCH  12  35
BRANCH  13  37
ATOM     37  O   UNL     1      31.278  28.807  20.127  1.00  0.00    -0.387 OA
ATOM     38  H   UNL     1      32.200  28.764  20.433  1.00  0.00     0.211 HD
ENDBRANCH  13  37
BRANCH  14  39
ATOM     39  O   UNL     1      30.106  30.294  18.261  1.00  0.00    -0.387 OA
ATOM     40  H   UNL     1      29.159  30.479  18.167  1.00  0.00     0.211 HD
ENDBRANCH  14  39
ENDBRANCH   8   9
ENDBRANCH   7   8
ENDBRANCH   1   7
BRANCH   1  41
ATOM     41  C   UNL     1      28.480  31.767  15.773  1.00  0.00     0.364 C 
ATOM     42  O   UNL     1      27.237  31.745  15.742  1.00  0.00    -0.246 OA
BRANCH  41  43
ATOM     43  O   UNL     1      29.175  30.619  15.375  1.00  0.00    -0.477 OA
ATOM     44  H   UNL     1      29.590  30.611  14.435  1.00  0.00     0.296 HD
ENDBRANCH  41  43
ENDBRANCH   1  41
BRANCH   3  45
ATOM     45  O   UNL     1      32.494  34.253  15.398  1.00  0.00    -0.391 OA
ATOM     46  H   UNL     1      32.316  34.947  16.074  1.00  0.00     0.211 HD
ENDBRANCH   3  45
BRANCH   5  47
ATOM     47  C   UNL     1      28.133  34.977  13.391  1.00  0.00     0.176 C 
BRANCH  47  48
ATOM     48  O   UNL     1      27.068  34.083  13.105  1.00  0.00    -0.388 OA
ATOM     49  H   UNL     1      27.445  33.359  12.522  1.00  0.00     0.211 HD
ENDBRANCH  47  48
BRANCH  47  50
ATOM     50  C   UNL     1      27.517  36.104  14.191  1.00  0.00     0.165 C 
BRANCH  50  51
ATOM     51  O   UNL     1      26.447  35.624  14.928  1.00  0.00    -0.388 OA
ATOM     52  H   UNL     1      26.512  34.665  15.136  1.00  0.00     0.211 HD
ENDBRANCH  50  51
BRANCH  50  53
ATOM     53  C   UNL     1      26.963  37.154  13.222  1.00  0.00     0.154 C 
BRANCH  53  54
ATOM     54  N   UNL     1      25.585  36.913  12.897  1.00  0.00    -0.319 N 
ATOM     55  C   UNL     1      25.085  36.547  11.639  1.00  0.00     0.407 C 
ATOM     56  H   UNL     1      24.869  37.022  13.684  1.00  0.00     0.167 HD
ATOM     57  O   UNL     1      25.871  36.378  10.676  1.00  0.00    -0.225 OA
BRANCH  55  58
ATOM     58  O   UNL     1      23.692  36.355  11.413  1.00  0.00    -0.443 OA
BRANCH  58  59
ATOM     59  C   UNL     1      23.105  35.116  11.707  1.00  0.00     0.294 C 
BRANCH  59  60
ATOM     60  C   UNL     1      23.396  34.618  13.076  1.00  0.00     0.121 A 
ATOM     61  C   UNL     1      22.765  34.992  14.267  1.00  0.00     0.144 A 
ATOM     62  N   UNL     1      24.319  33.727  13.475  1.00  0.00    -0.131 NA
ATOM     63  N   UNL     1      23.318  34.332  15.301  1.00  0.00    -0.220 N 
ATOM     64  N   UNL     1      24.258  33.568  14.808  1.00  0.00    -0.062 NA
BRANCH  63  65
ATOM     65  C   UNL     1      22.898  34.508  16.647  1.00  0.00     0.068 A 
ATOM     66  C   UNL     1      23.256  35.584  17.425  1.00  0.00     0.028 A 
ATOM     67  C   UNL     1      22.068  33.553  17.260  1.00  0.00     0.049 A 
ATOM     68  C   UNL     1      22.818  35.711  18.740  1.00  0.00     0.004 A 
ATOM     69  C   UNL     1      21.637  33.681  18.558  1.00  0.00     0.043 A 
ATOM     70  C   UNL     1      22.004  34.764  19.323  1.00  0.00     0.020 A 
ATOM     71  Cl  UNL     1      20.598  32.477  19.308  1.00  0.00    -0.084 Cl
ENDBRANCH  63  65
ENDBRANCH  59  60
ENDBRANCH  58  59
ENDBRANCH  55  58
ENDBRANCH  53  54
ENDBRANCH  50  53
ENDBRANCH  47  50
ENDBRANCH   5  47
BRANCH   4  72
ATOM     72  N   UNL     1      30.875  35.438  13.229  1.00  0.00    -0.348 N 
ATOM     73  C   UNL     1      31.585  36.691  13.255  1.00  0.00     0.217 C 
ATOM     74  H   UNL     1      30.735  35.054  12.265  1.00  0.00     0.163 HD
ATOM     75  C   UNL     1      32.057  37.356  12.031  1.00  0.00     0.114 C 
ATOM     76  O   UNL     1      31.801  37.222  14.364  1.00  0.00    -0.275 OA
ENDBRANCH   4  72
TORSDOF 30
BEGIN_RES LYS A 131
REMARK  4 active torsions:
REMARK  status: ('A' for Active; 'I' for Inactive)
REMARK    1  A    between atoms: CA   and  CB  
REMARK    2  A    between atoms: CB   and  CG  
REMARK    3  A    between atoms: CG   and  CD  
REMARK    4  A    between atoms: CD   and  CE  
ROOT
ATOM      1  CA  LYS A 131      29.867  25.555  16.977  1.00 20.52     0.186 C 
ENDROOT
BRANCH   1   2
ATOM      2  CB  LYS A 131      28.345  25.722  17.026  1.00 20.94     0.034 C 
BRANCH   2   3
ATOM      3  CG  LYS A 131      27.600  24.415  16.804  1.00 22.96     0.005 C 
BRANCH   3   4
ATOM      4  CD  LYS A 131      26.734  24.049  17.977  1.00 24.33     0.041 C 
BRANCH   4   5
ATOM      5  CE  LYS A 131      25.288  23.901  17.517  1.00 26.91     0.338 C 
ATOM      6  NZ  LYS A 131      24.888  22.474  17.514  1.00 27.40     0.618 N 
ENDBRANCH   4   5
ENDBRANCH   3   4
ENDBRANCH   2   3
ENDBRANCH   1   2
END_RES LYS A 131
BEGIN_RES LYS A 135
REMARK  4 active torsions:
REMARK  status: ('A' for Active; 'I' for Inactive)
REMARK    5  A    between atoms: CA   and  CB  
REMARK    6  A    between atoms: CB   and  CG  
REMARK    7  A    between atoms: CG   and  CD  
REMARK    8  A    between atoms: CD   and  CE  
ROOT
ATOM      7  CA  LYS A 135      33.193  34.663   9.290  1.00 25.02     0.186 C 
ENDROOT
BRANCH   7   8
ATOM      8  CB  LYS A 135      32.060  35.360  10.034  1.00 26.63     0.034 C 
BRANCH   8   9
ATOM      9  CG  LYS A 135      30.704  34.759   9.767  1.00 29.45     0.005 C 
BRANCH   9  10
ATOM     10  CD  LYS A 135      30.515  34.501   8.280  1.00 32.00     0.041 C 
BRANCH  10  11
ATOM     11  CE  LYS A 135      29.278  35.215   7.769  1.00 34.25     0.338 C 
ATOM     12  NZ  LYS A 135      28.039  34.607   8.328  1.00 35.99     0.618 N 
ENDBRANCH  10  11
ENDBRANCH   9  10
ENDBRANCH   8   9
ENDBRANCH   7   8
END_RES LYS A 135
