REMARK VINA RESULT:    -5.006      2.404      6.493
REMARK INTER + INTRA:         -25.977
REMARK INTER:                 -12.069
REMARK INTRA:                 -13.907
REMARK UNBOUND:               -12.046
REMARK SMILES CC(=O)N[C@@H]1[C@@H](O)C[C@](OC[C@H]2O[C@@H](O[C@H]3[C@H](O)[C@@H](O)[C@H](OCCN=[N+]=[N-])O[C@@H]3CO)[C@H](O)[C@@H](O)[C@H]2O)(C(=O)O)O[C@H]1C(O)[C@H](O)CNC(=O)OCc1cn(C[C@@H](C(=O)O)C(c2ccccc2)c2ccccc2)nn1
REMARK SMILES IDX 43 1 42 2 9 3 8 4 41 5 6 6 5 7 10 8 11 9 12 10 14 11 13 12
REMARK SMILES IDX 32 13 34 14 36 15 15 16 16 17 29 18 28 19 21 20 17 21 19 22
REMARK SMILES IDX 30 23 31 24 22 26 23 27 24 28 25 29 26 30 27 31 18 32 20 34
REMARK SMILES IDX 33 36 35 38 37 40 38 42 39 43 40 44 7 46 4 48 2 49 1 51 3 52
REMARK SMILES IDX 44 53 45 55 46 56 47 58 48 59 49 60 50 62 51 63 52 64 53 65
REMARK SMILES IDX 54 66 75 67 55 68 74 69 56 70 57 71 58 72 59 73 60 74 61 76
REMARK SMILES IDX 62 77 63 78 67 79 64 80 66 81 65 82 68 83 69 84 73 85 70 86
REMARK SMILES IDX 72 87 71 88
REMARK H PARENT 31 25 18 33 20 35 33 37 35 39 37 41 40 45 7 47 4 50 44 54
REMARK H PARENT 46 57 48 61 60 75
REMARK Flexibility Score: inf
ROOT
ATOM      1  C   UNL     1      30.364  35.234  18.161  1.00  0.00     0.176 C 
ENDROOT
BRANCH   1   2
ATOM      2  C   UNL     1      29.389  34.053  18.353  1.00  0.00     0.178 C 
ATOM      3  C   UNL     1      28.474  32.101  17.521  1.00  0.00     0.272 C 
ATOM      4  C   UNL     1      27.909  32.199  18.977  1.00  0.00     0.113 C 
ATOM      5  O   UNL     1      29.296  33.220  17.299  1.00  0.00    -0.332 OA
ATOM      6  C   UNL     1      27.213  33.494  19.219  1.00  0.00     0.145 C 
ATOM      7  C   UNL     1      28.088  34.645  18.840  1.00  0.00     0.142 C 
BRANCH   3   8
ATOM      8  O   UNL     1      27.476  31.940  16.717  1.00  0.00    -0.338 OA
BRANCH   8   9
ATOM      9  C   UNL     1      27.070  31.182  15.776  1.00  0.00     0.199 C 
BRANCH   9  10
ATOM     10  C   UNL     1      26.167  29.989  15.949  1.00  0.00     0.179 C 
ATOM     11  C   UNL     1      25.905  28.388  17.680  1.00  0.00     0.282 C 
ATOM     12  O   UNL     1      26.679  29.133  16.876  1.00  0.00    -0.341 OA
ATOM     13  C   UNL     1      24.439  28.366  17.490  1.00  0.00     0.202 C 
ATOM     14  C   UNL     1      23.898  29.371  16.515  1.00  0.00     0.179 C 
ATOM     15  C   UNL     1      24.843  30.530  16.534  1.00  0.00     0.177 C 
BRANCH  11  16
ATOM     16  O   UNL     1      26.130  28.909  18.989  1.00  0.00    -0.341 OA
BRANCH  16  17
ATOM     17  C   UNL     1      25.547  28.168  19.978  1.00  0.00     0.184 C 
ATOM     18  C   UNL     1      25.366  29.038  21.189  1.00  0.00     0.178 C 
ATOM     19  O   UNL     1      26.496  29.072  21.998  1.00  0.00    -0.341 OA
ATOM     20  C   UNL     1      27.690  28.839  21.300  1.00  0.00     0.281 C 
ATOM     21  C   UNL     1      26.400  26.977  20.392  1.00  0.00     0.180 C 
ATOM     22  C   UNL     1      27.786  27.441  20.792  1.00  0.00     0.202 C 
BRANCH  18  23
ATOM     23  C   UNL     1      24.173  28.686  22.032  1.00  0.00     0.191 C 
BRANCH  23  24
ATOM     24  O   UNL     1      24.509  28.292  23.311  1.00  0.00    -0.394 OA
ATOM     25  H   UNL     1      24.241  27.328  23.396  1.00  0.00     0.210 HD
ENDBRANCH  23  24
ENDBRANCH  18  23
BRANCH  20  26
ATOM     26  O   UNL     1      28.741  29.058  22.163  1.00  0.00    -0.350 OA
BRANCH  26  27
ATOM     27  C   UNL     1      29.467  30.193  21.979  1.00  0.00     0.169 C 
BRANCH  27  28
ATOM     28  C   UNL     1      30.933  30.045  22.228  1.00  0.00     0.119 C 
BRANCH  28  29
ATOM     29  N   UNL     1      31.145  28.629  22.590  1.00  0.00    -0.092 NA
ATOM     30  N   UNL     1      31.441  27.860  21.672  1.00  0.00     0.001 N 
ATOM     31  N   UNL     1      31.594  27.059  20.753  1.00  0.00    -0.003 NA
ENDBRANCH  28  29
ENDBRANCH  27  28
ENDBRANCH  26  27
ENDBRANCH  20  26
BRANCH  21  32
ATOM     32  O   UNL     1      25.803  26.420  21.520  1.00  0.00    -0.387 OA
ATOM     33  H   UNL     1      25.710  25.441  21.464  1.00  0.00     0.211 HD
ENDBRANCH  21  32
BRANCH  22  34
ATOM     34  O   UNL     1      28.637  27.406  19.695  1.00  0.00    -0.385 OA
ATOM     35  H   UNL     1      28.727  26.436  19.432  1.00  0.00     0.211 HD
ENDBRANCH  22  34
ENDBRANCH  16  17
ENDBRANCH  11  16
BRANCH  13  36
ATOM     36  O   UNL     1      24.028  27.101  17.006  1.00  0.00    -0.385 OA
ATOM     37  H   UNL     1      23.389  26.678  17.646  1.00  0.00     0.211 HD
ENDBRANCH  13  36
BRANCH  14  38
ATOM     38  O   UNL     1      22.628  29.762  16.888  1.00  0.00    -0.387 OA
ATOM     39  H   UNL     1      22.387  30.591  16.397  1.00  0.00     0.211 HD
ENDBRANCH  14  38
BRANCH  15  40
ATOM     40  O   UNL     1      25.018  30.947  17.846  1.00  0.00    -0.387 OA
ATOM     41  H   UNL     1      24.589  30.290  18.433  1.00  0.00     0.211 HD
ENDBRANCH  15  40
ENDBRANCH   9  10
ENDBRANCH   8   9
ENDBRANCH   3   8
BRANCH   3  42
ATOM     42  C   UNL     1      29.410  30.964  17.630  1.00  0.00     0.364 C 
ATOM     43  O   UNL     1      30.523  30.889  17.069  1.00  0.00    -0.246 OA
BRANCH  42  44
ATOM     44  O   UNL     1      29.054  29.852  18.423  1.00  0.00    -0.477 OA
ATOM     45  H   UNL     1      29.219  29.919  19.405  1.00  0.00     0.296 HD
ENDBRANCH  42  44
ENDBRANCH   3  42
BRANCH   6  46
ATOM     46  O   UNL     1      25.975  33.565  18.564  1.00  0.00    -0.391 OA
ATOM     47  H   UNL     1      25.363  32.847  18.852  1.00  0.00     0.211 HD
ENDBRANCH   6  46
BRANCH   7  48
ATOM     48  N   UNL     1      28.369  35.438  20.015  1.00  0.00    -0.348 N 
ATOM     49  C   UNL     1      27.446  36.402  20.491  1.00  0.00     0.217 C 
ATOM     50  H   UNL     1      29.286  35.284  20.522  1.00  0.00     0.163 HD
ATOM     51  C   UNL     1      27.732  37.230  21.713  1.00  0.00     0.114 C 
ATOM     52  O   UNL     1      26.373  36.541  19.849  1.00  0.00    -0.275 OA
ENDBRANCH   7  48
ENDBRANCH   1   2
BRANCH   1  53
ATOM     53  O   UNL     1      29.830  36.180  17.329  1.00  0.00    -0.388 OA
ATOM     54  H   UNL     1      30.168  37.092  17.480  1.00  0.00     0.211 HD
ENDBRANCH   1  53
BRANCH   1  55
ATOM     55  C   UNL     1      31.662  34.760  17.636  1.00  0.00     0.165 C 
BRANCH  55  56
ATOM     56  O   UNL     1      32.702  35.702  17.784  1.00  0.00    -0.388 OA
ATOM     57  H   UNL     1      33.544  35.155  17.696  1.00  0.00     0.211 HD
ENDBRANCH  55  56
BRANCH  55  58
ATOM     58  C   UNL     1      31.757  34.139  16.293  1.00  0.00     0.154 C 
BRANCH  58  59
ATOM     59  N   UNL     1      30.961  34.703  15.267  1.00  0.00    -0.319 N 
ATOM     60  C   UNL     1      30.154  34.002  14.345  1.00  0.00     0.407 C 
ATOM     61  H   UNL     1      30.962  35.793  15.175  1.00  0.00     0.167 HD
ATOM     62  O   UNL     1      30.089  32.761  14.310  1.00  0.00    -0.225 OA
BRANCH  60  63
ATOM     63  O   UNL     1      29.405  34.736  13.451  1.00  0.00    -0.443 OA
BRANCH  63  64
ATOM     64  C   UNL     1      28.668  35.843  13.835  1.00  0.00     0.294 C 
BRANCH  64  65
ATOM     65  C   UNL     1      27.364  35.535  14.440  1.00  0.00     0.120 A 
ATOM     66  C   UNL     1      26.113  35.537  13.871  1.00  0.00     0.138 A 
ATOM     67  N   UNL     1      27.144  35.208  15.752  1.00  0.00    -0.132 NA
ATOM     68  N   UNL     1      25.202  35.228  14.800  1.00  0.00    -0.251 N 
ATOM     69  N   UNL     1      25.855  35.034  15.930  1.00  0.00    -0.067 NA
BRANCH  68  70
ATOM     70  C   UNL     1      23.739  35.110  14.644  1.00  0.00     0.162 C 
BRANCH  70  71
ATOM     71  C   UNL     1      23.347  33.669  14.608  1.00  0.00     0.132 C 
BRANCH  71  72
ATOM     72  C   UNL     1      22.757  33.246  15.913  1.00  0.00     0.309 C 
ATOM     73  O   UNL     1      21.689  32.618  16.000  1.00  0.00    -0.252 OA
BRANCH  72  74
ATOM     74  O   UNL     1      23.418  33.557  17.089  1.00  0.00    -0.481 OA
ATOM     75  H   UNL     1      23.665  32.808  17.741  1.00  0.00     0.296 HD
ENDBRANCH  72  74
ENDBRANCH  71  72
BRANCH  71  76
ATOM     76  C   UNL     1      22.569  33.184  13.442  1.00  0.00     0.065 C 
BRANCH  76  77
ATOM     77  C   UNL     1      22.454  34.068  12.281  1.00  0.00    -0.040 A 
ATOM     78  C   UNL     1      21.214  34.598  11.896  1.00  0.00     0.004 A 
ATOM     79  C   UNL     1      23.535  34.442  11.479  1.00  0.00     0.004 A 
ATOM     80  C   UNL     1      21.058  35.418  10.823  1.00  0.00     0.000 A 
ATOM     81  C   UNL     1      23.367  35.271  10.397  1.00  0.00     0.000 A 
ATOM     82  C   UNL     1      22.126  35.768  10.056  1.00  0.00     0.000 A 
ENDBRANCH  76  77
BRANCH  76  83
ATOM     83  C   UNL     1      22.811  31.753  13.117  1.00  0.00    -0.040 A 
ATOM     84  C   UNL     1      21.712  31.006  12.750  1.00  0.00     0.004 A 
ATOM     85  C   UNL     1      24.054  31.182  13.160  1.00  0.00     0.004 A 
ATOM     86  C   UNL     1      21.840  29.686  12.422  1.00  0.00     0.000 A 
ATOM     87  C   UNL     1      24.170  29.836  12.823  1.00  0.00     0.000 A 
ATOM     88  C   UNL     1      23.077  29.085  12.456  1.00  0.00     0.000 A 
ENDBRANCH  76  83
ENDBRANCH  71  76
ENDBRANCH  70  71
ENDBRANCH  68  70
ENDBRANCH  64  65
ENDBRANCH  63  64
ENDBRANCH  60  63
ENDBRANCH  58  59
ENDBRANCH  55  58
ENDBRANCH   1  55
TORSDOF 36
BEGIN_RES LYS A 131
REMARK  4 active torsions:
REMARK  status: ('A' for Active; 'I' for Inactive)
REMARK    1  A    between atoms: CA   and  CB  
REMARK    2  A    between atoms: CB   and  CG  
REMARK    3  A    between atoms: CG   and  CD  
REMARK    4  A    between atoms: CD   and  CE  
ROOT
ATOM      1  CA  LYS A 131      29.867  25.555  16.977  1.00 20.52     0.186 C 
ENDROOT
BRANCH   1   2
ATOM      2  CB  LYS A 131      28.345  25.722  17.026  1.00 20.94     0.034 C 
BRANCH   2   3
ATOM      3  CG  LYS A 131      27.601  24.403  16.885  1.00 22.96     0.005 C 
BRANCH   3   4
ATOM      4  CD  LYS A 131      26.676  24.148  18.042  1.00 24.33     0.041 C 
BRANCH   4   5
ATOM      5  CE  LYS A 131      25.645  23.095  17.647  1.00 26.91     0.338 C 
ATOM      6  NZ  LYS A 131      24.502  23.725  16.945  1.00 27.40     0.618 N 
ENDBRANCH   4   5
ENDBRANCH   3   4
ENDBRANCH   2   3
ENDBRANCH   1   2
END_RES LYS A 131
BEGIN_RES LYS A 135
REMARK  4 active torsions:
REMARK  status: ('A' for Active; 'I' for Inactive)
REMARK    5  A    between atoms: CA   and  CB  
REMARK    6  A    between atoms: CB   and  CG  
REMARK    7  A    between atoms: CG   and  CD  
REMARK    8  A    between atoms: CD   and  CE  
ROOT
ATOM      7  CA  LYS A 135      33.193  34.663   9.290  1.00 25.02     0.186 C 
ENDROOT
BRANCH   7   8
ATOM      8  CB  LYS A 135      32.060  35.360  10.034  1.00 26.63     0.034 C 
BRANCH   8   9
ATOM      9  CG  LYS A 135      30.711  34.729   9.805  1.00 29.45     0.005 C 
BRANCH   9  10
ATOM     10  CD  LYS A 135      30.420  34.607   8.318  1.00 32.00     0.041 C 
BRANCH  10  11
ATOM     11  CE  LYS A 135      29.005  35.060   8.013  1.00 34.25     0.338 C 
ATOM     12  NZ  LYS A 135      28.877  35.501   6.596  1.00 35.99     0.618 N 
ENDBRANCH  10  11
ENDBRANCH   9  10
ENDBRANCH   8   9
ENDBRANCH   7   8
END_RES LYS A 135
