REMARK VINA RESULT:    -4.570      4.116     10.272
REMARK INTER + INTRA:         -24.918
REMARK INTER:                 -10.454
REMARK INTRA:                 -14.465
REMARK UNBOUND:               -11.931
REMARK SMILES CC(=O)N[C@@H]1[C@@H](O)C[C@](OC[C@H]2O[C@@H](O[C@H]3[C@H](O)[C@@H](O)[C@H](OCCN=[N+]=[N-])O[C@@H]3CO)[C@H](O)[C@@H](O)[C@H]2O)(C(=O)O)O[C@H]1C(O)[C@H](O)CNC(=O)OCc1cn(CC(=O)NCC(O)Cn2ccnc2[N+](=O)[O-])nn1
REMARK SMILES IDX 47 1 45 2 43 3 42 4 9 5 8 6 41 7 6 8 5 9 10 10 11 11 12 12
REMARK SMILES IDX 14 13 13 14 32 15 34 16 36 17 15 18 16 19 29 20 28 21 21 22
REMARK SMILES IDX 17 23 19 24 30 25 31 26 22 28 23 29 24 30 25 31 26 32 27 33
REMARK SMILES IDX 18 34 20 36 33 38 35 40 37 42 38 44 39 45 40 46 7 48 4 50
REMARK SMILES IDX 2 51 1 53 3 54 44 55 46 57 48 59 49 60 50 62 51 63 52 64
REMARK SMILES IDX 53 65 54 66 73 67 55 68 72 69 56 70 57 71 58 72 59 73 60 75
REMARK SMILES IDX 61 76 62 77 63 79 64 80 65 81 68 82 66 83 67 84 69 85 70 86
REMARK SMILES IDX 71 87
REMARK H PARENT 31 27 18 35 20 37 33 39 35 41 37 43 40 47 7 49 4 52 44 56
REMARK H PARENT 46 58 48 61 59 74 62 78
REMARK Flexibility Score: inf
ROOT
ATOM      1  C   UNL     1      26.222  36.747   7.719  1.00  0.00     0.154 C 
ENDROOT
BRANCH   1   2
ATOM      2  C   UNL     1      26.292  37.547   8.976  1.00  0.00     0.165 C 
BRANCH   2   3
ATOM      3  C   UNL     1      27.018  38.837   8.895  1.00  0.00     0.176 C 
BRANCH   3   4
ATOM      4  C   UNL     1      28.138  39.093   9.817  1.00  0.00     0.178 C 
ATOM      5  C   UNL     1      30.348  38.619  10.358  1.00  0.00     0.272 C 
ATOM      6  C   UNL     1      30.205  39.924  11.058  1.00  0.00     0.113 C 
ATOM      7  O   UNL     1      29.227  38.281   9.578  1.00  0.00    -0.332 OA
ATOM      8  C   UNL     1      28.954  40.075  11.858  1.00  0.00     0.145 C 
ATOM      9  C   UNL     1      27.853  39.148  11.270  1.00  0.00     0.142 C 
BRANCH   5  10
ATOM     10  O   UNL     1      30.655  37.535  11.128  1.00  0.00    -0.338 OA
BRANCH  10  11
ATOM     11  C   UNL     1      31.829  37.553  11.814  1.00  0.00     0.199 C 
BRANCH  11  12
ATOM     12  C   UNL     1      31.664  37.212  13.282  1.00  0.00     0.179 C 
ATOM     13  C   UNL     1      30.074  36.484  14.823  1.00  0.00     0.282 C 
ATOM     14  O   UNL     1      30.389  37.273  13.723  1.00  0.00    -0.341 OA
ATOM     15  C   UNL     1      31.222  36.395  15.798  1.00  0.00     0.202 C 
ATOM     16  C   UNL     1      32.470  35.858  15.137  1.00  0.00     0.179 C 
ATOM     17  C   UNL     1      32.323  35.905  13.628  1.00  0.00     0.177 C 
BRANCH  13  18
ATOM     18  O   UNL     1      29.646  35.243  14.513  1.00  0.00    -0.341 OA
BRANCH  18  19
ATOM     19  C   UNL     1      28.341  34.940  14.407  1.00  0.00     0.184 C 
ATOM     20  C   UNL     1      27.871  33.664  15.050  1.00  0.00     0.178 C 
ATOM     21  O   UNL     1      26.488  33.790  15.200  1.00  0.00    -0.341 OA
ATOM     22  C   UNL     1      25.842  33.744  13.970  1.00  0.00     0.281 C 
ATOM     23  C   UNL     1      27.882  34.811  12.946  1.00  0.00     0.180 C 
ATOM     24  C   UNL     1      26.372  34.750  12.994  1.00  0.00     0.202 C 
BRANCH  20  25
ATOM     25  C   UNL     1      28.455  33.537  16.426  1.00  0.00     0.191 C 
BRANCH  25  26
ATOM     26  O   UNL     1      28.234  34.689  17.192  1.00  0.00    -0.394 OA
ATOM     27  H   UNL     1      27.253  34.887  17.066  1.00  0.00     0.210 HD
ENDBRANCH  25  26
ENDBRANCH  20  25
BRANCH  22  28
ATOM     28  O   UNL     1      24.501  34.046  14.197  1.00  0.00    -0.350 OA
BRANCH  28  29
ATOM     29  C   UNL     1      24.236  34.186  15.560  1.00  0.00     0.169 C 
BRANCH  29  30
ATOM     30  C   UNL     1      23.393  35.457  15.698  1.00  0.00     0.119 C 
BRANCH  30  31
ATOM     31  N   UNL     1      24.206  36.631  15.436  1.00  0.00    -0.092 NA
ATOM     32  N   UNL     1      25.188  36.812  16.188  1.00  0.00     0.001 N 
ATOM     33  N   UNL     1      26.304  36.888  16.686  1.00  0.00    -0.003 NA
ENDBRANCH  30  31
ENDBRANCH  29  30
ENDBRANCH  28  29
ENDBRANCH  22  28
BRANCH  23  34
ATOM     34  O   UNL     1      28.218  35.943  12.211  1.00  0.00    -0.387 OA
ATOM     35  H   UNL     1      29.069  36.280  12.637  1.00  0.00     0.211 HD
ENDBRANCH  23  34
BRANCH  24  36
ATOM     36  O   UNL     1      25.804  34.484  11.749  1.00  0.00    -0.385 OA
ATOM     37  H   UNL     1      25.426  35.341  11.393  1.00  0.00     0.211 HD
ENDBRANCH  24  36
ENDBRANCH  18  19
ENDBRANCH  13  18
BRANCH  15  38
ATOM     38  O   UNL     1      31.463  37.625  16.425  1.00  0.00    -0.385 OA
ATOM     39  H   UNL     1      30.579  38.110  16.388  1.00  0.00     0.211 HD
ENDBRANCH  15  38
BRANCH  16  40
ATOM     40  O   UNL     1      32.691  34.529  15.489  1.00  0.00    -0.387 OA
ATOM     41  H   UNL     1      33.495  34.423  16.078  1.00  0.00     0.211 HD
ENDBRANCH  16  40
BRANCH  17  42
ATOM     42  O   UNL     1      31.711  34.799  13.088  1.00  0.00    -0.387 OA
ATOM     43  H   UNL     1      31.775  34.766  12.094  1.00  0.00     0.211 HD
ENDBRANCH  17  42
ENDBRANCH  11  12
ENDBRANCH  10  11
ENDBRANCH   5  10
BRANCH   5  44
ATOM     44  C   UNL     1      31.428  38.806   9.319  1.00  0.00     0.364 C 
ATOM     45  O   UNL     1      31.362  38.088   8.305  1.00  0.00    -0.246 OA
BRANCH  44  46
ATOM     46  O   UNL     1      32.453  39.713   9.449  1.00  0.00    -0.477 OA
ATOM     47  H   UNL     1      32.826  40.207   8.618  1.00  0.00     0.296 HD
ENDBRANCH  44  46
ENDBRANCH   5  44
BRANCH   8  48
ATOM     48  O   UNL     1      29.048  39.910  13.202  1.00  0.00    -0.391 OA
ATOM     49  H   UNL     1      29.562  39.151  13.515  1.00  0.00     0.211 HD
ENDBRANCH   8  48
BRANCH   9  50
ATOM     50  N   UNL     1      26.611  39.684  11.683  1.00  0.00    -0.348 N 
ATOM     51  C   UNL     1      25.903  39.139  12.815  1.00  0.00     0.217 C 
ATOM     52  H   UNL     1      26.176  40.482  11.202  1.00  0.00     0.163 HD
ATOM     53  C   UNL     1      24.593  39.683  13.261  1.00  0.00     0.114 C 
ATOM     54  O   UNL     1      26.423  38.181  13.423  1.00  0.00    -0.275 OA
ENDBRANCH   9  50
ENDBRANCH   3   4
BRANCH   3  55
ATOM     55  O   UNL     1      26.043  39.864   8.954  1.00  0.00    -0.388 OA
ATOM     56  H   UNL     1      25.215  39.499   8.604  1.00  0.00     0.211 HD
ENDBRANCH   3  55
ENDBRANCH   2   3
BRANCH   2  57
ATOM     57  O   UNL     1      26.506  36.781  10.097  1.00  0.00    -0.388 OA
ATOM     58  H   UNL     1      26.223  35.850  10.039  1.00  0.00     0.211 HD
ENDBRANCH   2  57
ENDBRANCH   1   2
BRANCH   1  59
ATOM     59  N   UNL     1      26.303  37.604   6.568  1.00  0.00    -0.319 N 
ATOM     60  C   UNL     1      27.491  37.796   5.818  1.00  0.00     0.407 C 
ATOM     61  H   UNL     1      25.447  38.138   6.235  1.00  0.00     0.167 HD
ATOM     62  O   UNL     1      28.528  37.188   6.155  1.00  0.00    -0.225 OA
BRANCH  60  63
ATOM     63  O   UNL     1      27.590  38.625   4.721  1.00  0.00    -0.443 OA
BRANCH  63  64
ATOM     64  C   UNL     1      27.844  39.999   4.847  1.00  0.00     0.294 C 
BRANCH  64  65
ATOM     65  C   UNL     1      26.844  40.787   5.567  1.00  0.00     0.120 A 
ATOM     66  C   UNL     1      25.504  40.911   5.301  1.00  0.00     0.138 A 
ATOM     67  N   UNL     1      27.059  41.566   6.639  1.00  0.00    -0.132 NA
ATOM     68  N   UNL     1      24.952  41.751   6.208  1.00  0.00    -0.243 N 
ATOM     69  N   UNL     1      25.899  42.136   7.004  1.00  0.00    -0.067 NA
BRANCH  68  70
ATOM     70  C   UNL     1      23.545  42.126   6.287  1.00  0.00     0.245 C 
BRANCH  70  71
ATOM     71  C   UNL     1      23.103  42.046   7.695  1.00  0.00     0.241 C 
ATOM     72  O   UNL     1      22.420  42.985   8.227  1.00  0.00    -0.273 OA
ATOM     73  N   UNL     1      23.400  40.934   8.537  1.00  0.00    -0.352 N 
ATOM     74  H   UNL     1      23.951  40.148   8.152  1.00  0.00     0.163 HD
BRANCH  73  75
ATOM     75  C   UNL     1      22.920  40.946   9.906  1.00  0.00     0.151 C 
BRANCH  75  76
ATOM     76  C   UNL     1      22.110  39.731  10.237  1.00  0.00     0.168 C 
BRANCH  76  77
ATOM     77  O   UNL     1      21.536  39.804  11.494  1.00  0.00    -0.388 OA
ATOM     78  H   UNL     1      20.737  39.226  11.490  1.00  0.00     0.211 HD
ENDBRANCH  76  77
BRANCH  76  79
ATOM     79  C   UNL     1      23.034  38.527  10.139  1.00  0.00     0.239 C 
BRANCH  79  80
ATOM     80  N   UNL     1      22.474  37.491   9.321  1.00  0.00    -0.227 N 
ATOM     81  C   UNL     1      22.277  37.585   7.979  1.00  0.00     0.204 A 
ATOM     82  C   UNL     1      22.019  36.261   9.664  1.00  0.00     0.434 A 
ATOM     83  C   UNL     1      21.708  36.422   7.521  1.00  0.00     0.245 A 
ATOM     84  N   UNL     1      21.557  35.622   8.571  1.00  0.00    -0.074 NA
BRANCH  82  85
ATOM     85  N   UNL     1      22.038  35.717  10.983  1.00  0.00    -0.047 N 
ATOM     86  O   UNL     1      21.262  36.052  11.878  1.00  0.00    -0.390 OA
ATOM     87  O   UNL     1      22.996  34.758  11.281  1.00  0.00    -0.390 OA
ENDBRANCH  82  85
ENDBRANCH  79  80
ENDBRANCH  76  79
ENDBRANCH  75  76
ENDBRANCH  73  75
ENDBRANCH  70  71
ENDBRANCH  68  70
ENDBRANCH  64  65
ENDBRANCH  63  64
ENDBRANCH  60  63
ENDBRANCH   1  59
TORSDOF 37
BEGIN_RES LYS A 131
REMARK  4 active torsions:
REMARK  status: ('A' for Active; 'I' for Inactive)
REMARK    1  A    between atoms: CA   and  CB  
REMARK    2  A    between atoms: CB   and  CG  
REMARK    3  A    between atoms: CG   and  CD  
REMARK    4  A    between atoms: CD   and  CE  
ROOT
ATOM      1  CA  LYS A 131      29.867  25.555  16.977  1.00 20.52     0.186 C 
ENDROOT
BRANCH   1   2
ATOM      2  CB  LYS A 131      28.345  25.722  17.026  1.00 20.94     0.034 C 
BRANCH   2   3
ATOM      3  CG  LYS A 131      27.601  24.402  16.892  1.00 22.96     0.005 C 
BRANCH   3   4
ATOM      4  CD  LYS A 131      26.155  24.525  17.284  1.00 24.33     0.041 C 
BRANCH   4   5
ATOM      5  CE  LYS A 131      25.795  23.409  18.260  1.00 26.91     0.338 C 
ATOM      6  NZ  LYS A 131      25.006  22.357  17.576  1.00 27.40     0.618 N 
ENDBRANCH   4   5
ENDBRANCH   3   4
ENDBRANCH   2   3
ENDBRANCH   1   2
END_RES LYS A 131
BEGIN_RES LYS A 135
REMARK  4 active torsions:
REMARK  status: ('A' for Active; 'I' for Inactive)
REMARK    5  A    between atoms: CA   and  CB  
REMARK    6  A    between atoms: CB   and  CG  
REMARK    7  A    between atoms: CG   and  CD  
REMARK    8  A    between atoms: CD   and  CE  
ROOT
ATOM      7  CA  LYS A 135      33.193  34.663   9.290  1.00 25.02     0.186 C 
ENDROOT
BRANCH   7   8
ATOM      8  CB  LYS A 135      32.060  35.360  10.034  1.00 26.63     0.034 C 
BRANCH   8   9
ATOM      9  CG  LYS A 135      30.727  34.673   9.883  1.00 29.45     0.005 C 
BRANCH   9  10
ATOM     10  CD  LYS A 135      30.320  34.607   8.419  1.00 32.00     0.041 C 
BRANCH  10  11
ATOM     11  CE  LYS A 135      28.814  34.482   8.290  1.00 34.25     0.338 C 
ATOM     12  NZ  LYS A 135      28.232  33.777   9.465  1.00 35.99     0.618 N 
ENDBRANCH  10  11
ENDBRANCH   9  10
ENDBRANCH   8   9
ENDBRANCH   7   8
END_RES LYS A 135
