REMARK VINA RESULT:    -5.240      5.082      9.074
REMARK INTER + INTRA:         -21.570
REMARK INTER:                 -13.042
REMARK INTRA:                  -8.528
REMARK UNBOUND:                -8.212
REMARK SMILES CC(=O)N[C@@H]1[C@@H](O)C[C@](OC[C@H]2O[C@@H](O[C@H]3[C@H](O)[C@@H](O)[C@H](OCCN=[N+]=[N-])O[C@@H]3CO)[C@H](O)[C@@H](O)[C@H]2O)(C(=O)O)O[C@H]1C(O)[C@H](O)CNC(=O)OCc1cn(-c2ccc(CO)cn2)nn1
REMARK SMILES IDX 9 1 8 2 6 3 5 4 42 5 41 6 10 7 11 8 12 9 14 10 13 11 32 12
REMARK SMILES IDX 34 13 36 14 15 15 16 16 29 17 28 18 21 19 17 20 19 21 30 22
REMARK SMILES IDX 31 23 22 25 23 26 24 27 25 28 26 29 27 30 18 31 20 33 33 35
REMARK SMILES IDX 35 37 37 39 38 41 39 42 40 43 7 45 43 47 44 48 45 50 46 51
REMARK SMILES IDX 47 53 48 54 49 55 50 57 51 58 52 59 53 60 54 61 65 62 55 63
REMARK SMILES IDX 64 64 56 65 57 66 63 67 58 68 62 69 59 70 60 71 61 72 4 74
REMARK SMILES IDX 2 75 1 77 3 78
REMARK H PARENT 31 24 18 32 20 34 33 36 35 38 37 40 40 44 7 46 44 49 46 52
REMARK H PARENT 48 56 61 73 4 76
REMARK Flexibility Score: inf
ROOT
ATOM      1  C   UNL     1      16.207  35.580   8.776  1.00  0.00     0.272 C 
ATOM      2  C   UNL     1      16.555  36.481   7.651  1.00  0.00     0.113 C 
ATOM      3  C   UNL     1      17.672  37.426   7.996  1.00  0.00     0.145 C 
ATOM      4  C   UNL     1      18.815  36.666   8.642  1.00  0.00     0.142 C 
ATOM      5  C   UNL     1      18.320  35.824   9.744  1.00  0.00     0.178 C 
ATOM      6  O   UNL     1      17.290  35.017   9.402  1.00  0.00    -0.332 OA
ENDROOT
BRANCH   1   7
ATOM      7  O   UNL     1      15.361  34.543   8.422  1.00  0.00    -0.338 OA
BRANCH   7   8
ATOM      8  C   UNL     1      14.831  34.682   7.156  1.00  0.00     0.199 C 
BRANCH   8   9
ATOM      9  C   UNL     1      15.429  33.655   6.242  1.00  0.00     0.179 C 
ATOM     10  C   UNL     1      16.780  31.842   6.223  1.00  0.00     0.282 C 
ATOM     11  O   UNL     1      15.703  32.450   6.918  1.00  0.00    -0.341 OA
ATOM     12  C   UNL     1      16.481  31.779   4.782  1.00  0.00     0.202 C 
ATOM     13  C   UNL     1      15.040  32.058   4.391  1.00  0.00     0.179 C 
ATOM     14  C   UNL     1      14.526  33.305   5.105  1.00  0.00     0.177 C 
BRANCH  10  15
ATOM     15  O   UNL     1      17.080  30.614   6.823  1.00  0.00    -0.341 OA
BRANCH  15  16
ATOM     16  C   UNL     1      16.352  30.391   7.971  1.00  0.00     0.184 C 
ATOM     17  C   UNL     1      17.152  30.087   9.199  1.00  0.00     0.178 C 
ATOM     18  O   UNL     1      17.005  28.779   9.651  1.00  0.00    -0.341 OA
ATOM     19  C   UNL     1      17.323  27.837   8.705  1.00  0.00     0.281 C 
ATOM     20  C   UNL     1      15.483  29.151   7.688  1.00  0.00     0.180 C 
ATOM     21  C   UNL     1      16.503  28.034   7.421  1.00  0.00     0.202 C 
BRANCH  17  22
ATOM     22  C   UNL     1      16.578  30.958  10.331  1.00  0.00     0.191 C 
BRANCH  22  23
ATOM     23  O   UNL     1      16.174  32.199   9.813  1.00  0.00    -0.394 OA
ATOM     24  H   UNL     1      16.273  32.211   8.814  1.00  0.00     0.210 HD
ENDBRANCH  22  23
ENDBRANCH  17  22
BRANCH  19  25
ATOM     25  O   UNL     1      17.040  26.578   9.227  1.00  0.00    -0.350 OA
BRANCH  25  26
ATOM     26  C   UNL     1      16.718  26.600  10.560  1.00  0.00     0.169 C 
BRANCH  26  27
ATOM     27  C   UNL     1      17.699  25.698  11.297  1.00  0.00     0.119 C 
BRANCH  27  28
ATOM     28  N   UNL     1      18.506  26.480  12.224  1.00  0.00    -0.092 NA
ATOM     29  N   UNL     1      19.185  27.437  11.892  1.00  0.00     0.001 N 
ATOM     30  N   UNL     1      19.561  28.598  11.732  1.00  0.00    -0.003 NA
ENDBRANCH  27  28
ENDBRANCH  26  27
ENDBRANCH  25  26
ENDBRANCH  19  25
BRANCH  20  31
ATOM     31  O   UNL     1      14.619  28.861   8.708  1.00  0.00    -0.387 OA
ATOM     32  H   UNL     1      13.872  29.477   8.688  1.00  0.00     0.211 HD
ENDBRANCH  20  31
BRANCH  21  33
ATOM     33  O   UNL     1      17.326  28.500   6.399  1.00  0.00    -0.385 OA
ATOM     34  H   UNL     1      18.166  27.976   6.433  1.00  0.00     0.211 HD
ENDBRANCH  21  33
ENDBRANCH  15  16
ENDBRANCH  10  15
BRANCH  12  35
ATOM     35  O   UNL     1      17.299  32.714   4.103  1.00  0.00    -0.385 OA
ATOM     36  H   UNL     1      18.117  32.284   3.742  1.00  0.00     0.211 HD
ENDBRANCH  12  35
BRANCH  13  37
ATOM     37  O   UNL     1      14.224  30.956   4.580  1.00  0.00    -0.387 OA
ATOM     38  H   UNL     1      13.643  31.017   5.353  1.00  0.00     0.211 HD
ENDBRANCH  13  37
BRANCH  14  39
ATOM     39  O   UNL     1      13.243  33.037   5.530  1.00  0.00    -0.387 OA
ATOM     40  H   UNL     1      13.151  32.082   5.712  1.00  0.00     0.211 HD
ENDBRANCH  14  39
ENDBRANCH   8   9
ENDBRANCH   7   8
ENDBRANCH   1   7
BRANCH   1  41
ATOM     41  C   UNL     1      15.470  36.323   9.871  1.00  0.00     0.364 C 
ATOM     42  O   UNL     1      15.372  35.890  11.044  1.00  0.00    -0.246 OA
BRANCH  41  43
ATOM     43  O   UNL     1      14.864  37.534   9.606  1.00  0.00    -0.477 OA
ATOM     44  H   UNL     1      14.849  38.265  10.329  1.00  0.00     0.296 HD
ENDBRANCH  41  43
ENDBRANCH   1  41
BRANCH   3  45
ATOM     45  O   UNL     1      18.175  37.906   6.771  1.00  0.00    -0.391 OA
ATOM     46  H   UNL     1      18.970  38.462   6.870  1.00  0.00     0.211 HD
ENDBRANCH   3  45
BRANCH   5  47
ATOM     47  C   UNL     1      19.410  35.026  10.436  1.00  0.00     0.176 C 
BRANCH  47  48
ATOM     48  O   UNL     1      20.322  34.563   9.488  1.00  0.00    -0.388 OA
ATOM     49  H   UNL     1      21.209  34.966   9.634  1.00  0.00     0.211 HD
ENDBRANCH  47  48
BRANCH  47  50
ATOM     50  C   UNL     1      18.945  33.872  11.239  1.00  0.00     0.165 C 
BRANCH  50  51
ATOM     51  O   UNL     1      17.599  33.971  11.616  1.00  0.00    -0.388 OA
ATOM     52  H   UNL     1      17.278  33.207  12.118  1.00  0.00     0.211 HD
ENDBRANCH  50  51
BRANCH  50  53
ATOM     53  C   UNL     1      19.802  33.494  12.414  1.00  0.00     0.154 C 
BRANCH  53  54
ATOM     54  N   UNL     1      21.187  33.403  12.033  1.00  0.00    -0.319 N 
ATOM     55  C   UNL     1      22.187  33.254  13.023  1.00  0.00     0.407 C 
ATOM     56  H   UNL     1      21.460  33.450  10.997  1.00  0.00     0.167 HD
ATOM     57  O   UNL     1      21.930  33.192  14.246  1.00  0.00    -0.225 OA
BRANCH  55  58
ATOM     58  O   UNL     1      23.539  33.166  12.675  1.00  0.00    -0.443 OA
BRANCH  58  59
ATOM     59  C   UNL     1      24.286  34.340  12.526  1.00  0.00     0.294 C 
BRANCH  59  60
ATOM     60  C   UNL     1      24.380  34.870  11.172  1.00  0.00     0.121 A 
ATOM     61  C   UNL     1      25.527  35.187  10.488  1.00  0.00     0.146 A 
ATOM     62  N   UNL     1      23.363  35.152  10.340  1.00  0.00    -0.131 NA
ATOM     63  N   UNL     1      25.183  35.651   9.269  1.00  0.00    -0.202 N 
ATOM     64  N   UNL     1      23.864  35.613   9.221  1.00  0.00    -0.061 NA
BRANCH  63  65
ATOM     65  C   UNL     1      26.102  36.083   8.279  1.00  0.00     0.155 A 
ATOM     66  C   UNL     1      27.074  35.234   7.762  1.00  0.00     0.049 A 
ATOM     67  N   UNL     1      26.073  37.341   7.806  1.00  0.00    -0.237 NA
ATOM     68  C   UNL     1      27.970  35.677   6.799  1.00  0.00     0.011 A 
ATOM     69  C   UNL     1      26.937  37.795   6.867  1.00  0.00     0.119 A 
ATOM     70  C   UNL     1      27.916  36.973   6.334  1.00  0.00    -0.004 A 
BRANCH  70  71
ATOM     71  C   UNL     1      28.881  37.442   5.304  1.00  0.00     0.193 C 
BRANCH  71  72
ATOM     72  O   UNL     1      29.844  38.278   5.869  1.00  0.00    -0.392 OA
ATOM     73  H   UNL     1      29.670  39.225   5.689  1.00  0.00     0.211 HD
ENDBRANCH  71  72
ENDBRANCH  70  71
ENDBRANCH  63  65
ENDBRANCH  59  60
ENDBRANCH  58  59
ENDBRANCH  55  58
ENDBRANCH  53  54
ENDBRANCH  50  53
ENDBRANCH  47  50
ENDBRANCH   5  47
BRANCH   4  74
ATOM     74  N   UNL     1      19.838  37.616   9.081  1.00  0.00    -0.348 N 
ATOM     75  C   UNL     1      21.102  37.680   8.499  1.00  0.00     0.217 C 
ATOM     76  H   UNL     1      19.594  38.266   9.854  1.00  0.00     0.163 HD
ATOM     77  C   UNL     1      22.066  38.704   9.054  1.00  0.00     0.114 C 
ATOM     78  O   UNL     1      21.476  36.957   7.565  1.00  0.00    -0.275 OA
ENDBRANCH   4  74
TORSDOF 32
BEGIN_RES LYS A 131
REMARK  4 active torsions:
REMARK  status: ('A' for Active; 'I' for Inactive)
REMARK    1  A    between atoms: CA   and  CB  
REMARK    2  A    between atoms: CB   and  CG  
REMARK    3  A    between atoms: CG   and  CD  
REMARK    4  A    between atoms: CD   and  CE  
ROOT
ATOM      1  CA  LYS A 131      29.867  25.555  16.977  1.00 20.52     0.186 C 
ENDROOT
BRANCH   1   2
ATOM      2  CB  LYS A 131      28.345  25.722  17.026  1.00 20.94     0.034 C 
BRANCH   2   3
ATOM      3  CG  LYS A 131      27.602  24.399  16.919  1.00 22.96     0.005 C 
BRANCH   3   4
ATOM      4  CD  LYS A 131      26.230  24.469  17.530  1.00 24.33     0.041 C 
BRANCH   4   5
ATOM      5  CE  LYS A 131      25.671  23.059  17.688  1.00 26.91     0.338 C 
ATOM      6  NZ  LYS A 131      24.771  22.987  18.864  1.00 27.40     0.618 N 
ENDBRANCH   4   5
ENDBRANCH   3   4
ENDBRANCH   2   3
ENDBRANCH   1   2
END_RES LYS A 131
BEGIN_RES LYS A 135
REMARK  4 active torsions:
REMARK  status: ('A' for Active; 'I' for Inactive)
REMARK    5  A    between atoms: CA   and  CB  
REMARK    6  A    between atoms: CB   and  CG  
REMARK    7  A    between atoms: CG   and  CD  
REMARK    8  A    between atoms: CD   and  CE  
ROOT
ATOM      7  CA  LYS A 135      33.193  34.663   9.290  1.00 25.02     0.186 C 
ENDROOT
BRANCH   7   8
ATOM      8  CB  LYS A 135      32.060  35.360  10.034  1.00 26.63     0.034 C 
BRANCH   8   9
ATOM      9  CG  LYS A 135      30.725  35.241   9.346  1.00 29.45     0.005 C 
BRANCH   9  10
ATOM     10  CD  LYS A 135      29.664  34.744  10.315  1.00 32.00     0.041 C 
BRANCH  10  11
ATOM     11  CE  LYS A 135      30.092  34.994  11.749  1.00 34.25     0.338 C 
ATOM     12  NZ  LYS A 135      29.363  36.155  12.332  1.00 35.99     0.618 N 
ENDBRANCH  10  11
ENDBRANCH   9  10
ENDBRANCH   8   9
ENDBRANCH   7   8
END_RES LYS A 135
