REMARK VINA RESULT:    -4.384      0.000      0.000
REMARK INTER + INTRA:         -21.987
REMARK INTER:                 -13.465
REMARK INTRA:                  -8.522
REMARK UNBOUND:               -10.939
REMARK SMILES CC(=O)N[C@@H]1[C@@H](O)C[C@](OC[C@H]2O[C@@H](O[C@H]3[C@H](O)[C@@H](O)[C@H](OCCN=[N+]=[N-])O[C@@H]3CO)[C@H](O)[C@@H](O)[C@H]2O)(C(=O)O)O[C@H]1C(O)[C@H](O)CNC(=O)OCc1cn(Cc2ccsc2)nn1
REMARK SMILES IDX 9 1 8 2 6 3 5 4 42 5 41 6 10 7 11 8 12 9 14 10 13 11 32 12
REMARK SMILES IDX 34 13 36 14 15 15 16 16 29 17 28 18 21 19 17 20 19 21 30 22
REMARK SMILES IDX 31 23 22 25 23 26 24 27 25 28 26 29 27 30 18 31 20 33 33 35
REMARK SMILES IDX 35 37 37 39 38 41 39 42 40 43 7 45 43 47 44 48 45 50 46 51
REMARK SMILES IDX 47 53 48 54 49 55 50 57 51 58 52 59 53 60 54 61 63 62 55 63
REMARK SMILES IDX 62 64 56 65 57 66 58 67 61 68 59 69 60 70 4 71 2 72 1 74
REMARK SMILES IDX 3 75
REMARK H PARENT 31 24 18 32 20 34 33 36 35 38 37 40 40 44 7 46 44 49 46 52
REMARK H PARENT 48 56 4 73
REMARK Flexibility Score: inf
ROOT
ATOM      1  C   UNL     1      30.049  32.196  18.079  1.00  0.00     0.272 C 
ATOM      2  C   UNL     1      30.568  31.199  19.071  1.00  0.00     0.113 C 
ATOM      3  C   UNL     1      29.516  30.337  19.714  1.00  0.00     0.145 C 
ATOM      4  C   UNL     1      28.496  29.851  18.758  1.00  0.00     0.142 C 
ATOM      5  C   UNL     1      28.273  30.749  17.557  1.00  0.00     0.178 C 
ATOM      6  O   UNL     1      29.359  31.395  17.085  1.00  0.00    -0.332 OA
ENDROOT
BRANCH   1   7
ATOM      7  O   UNL     1      31.072  32.698  17.355  1.00  0.00    -0.338 OA
BRANCH   7   8
ATOM      8  C   UNL     1      31.241  32.554  16.054  1.00  0.00     0.199 C 
BRANCH   8   9
ATOM      9  C   UNL     1      31.816  33.569  15.156  1.00  0.00     0.179 C 
ATOM     10  C   UNL     1      31.236  34.584  13.205  1.00  0.00     0.282 C 
ATOM     11  O   UNL     1      30.696  34.119  14.426  1.00  0.00    -0.341 OA
ATOM     12  C   UNL     1      32.442  35.439  13.393  1.00  0.00     0.202 C 
ATOM     13  C   UNL     1      32.797  35.790  14.793  1.00  0.00     0.179 C 
ATOM     14  C   UNL     1      32.363  34.808  15.844  1.00  0.00     0.177 C 
BRANCH  10  15
ATOM     15  O   UNL     1      30.227  35.197  12.507  1.00  0.00    -0.341 OA
BRANCH  15  16
ATOM     16  C   UNL     1      29.132  35.572  13.305  1.00  0.00     0.184 C 
ATOM     17  C   UNL     1      27.846  35.051  12.769  1.00  0.00     0.178 C 
ATOM     18  O   UNL     1      27.107  35.884  11.987  1.00  0.00    -0.341 OA
ATOM     19  C   UNL     1      27.710  37.122  11.704  1.00  0.00     0.281 C 
ATOM     20  C   UNL     1      29.155  37.030  13.638  1.00  0.00     0.180 C 
ATOM     21  C   UNL     1      27.950  37.769  13.040  1.00  0.00     0.202 C 
BRANCH  17  22
ATOM     22  C   UNL     1      26.944  34.492  13.858  1.00  0.00     0.191 C 
BRANCH  22  23
ATOM     23  O   UNL     1      27.730  34.358  15.002  1.00  0.00    -0.394 OA
ATOM     24  H   UNL     1      28.665  34.683  14.846  1.00  0.00     0.210 HD
ENDBRANCH  22  23
ENDBRANCH  17  22
BRANCH  19  25
ATOM     25  O   UNL     1      26.870  37.800  10.862  1.00  0.00    -0.350 OA
BRANCH  25  26
ATOM     26  C   UNL     1      26.846  37.310   9.571  1.00  0.00     0.169 C 
BRANCH  26  27
ATOM     27  C   UNL     1      26.367  38.261   8.524  1.00  0.00     0.119 C 
BRANCH  27  28
ATOM     28  N   UNL     1      26.045  37.571   7.303  1.00  0.00    -0.092 NA
ATOM     29  N   UNL     1      26.980  37.126   6.619  1.00  0.00     0.001 N 
ATOM     30  N   UNL     1      27.673  36.506   5.813  1.00  0.00    -0.003 NA
ENDBRANCH  27  28
ENDBRANCH  26  27
ENDBRANCH  25  26
ENDBRANCH  19  25
BRANCH  20  31
ATOM     31  O   UNL     1      29.282  37.305  14.983  1.00  0.00    -0.387 OA
ATOM     32  H   UNL     1      28.472  37.062  15.477  1.00  0.00     0.211 HD
ENDBRANCH  20  31
BRANCH  21  33
ATOM     33  O   UNL     1      28.155  39.121  12.947  1.00  0.00    -0.385 OA
ATOM     34  H   UNL     1      28.884  39.355  12.310  1.00  0.00     0.211 HD
ENDBRANCH  21  33
ENDBRANCH  15  16
ENDBRANCH  10  15
BRANCH  12  35
ATOM     35  O   UNL     1      33.559  34.923  12.685  1.00  0.00    -0.385 OA
ATOM     36  H   UNL     1      33.982  34.197  13.214  1.00  0.00     0.211 HD
ENDBRANCH  12  35
BRANCH  13  37
ATOM     37  O   UNL     1      32.197  37.024  15.116  1.00  0.00    -0.387 OA
ATOM     38  H   UNL     1      31.574  37.262  14.391  1.00  0.00     0.211 HD
ENDBRANCH  13  37
BRANCH  14  39
ATOM     39  O   UNL     1      31.268  35.324  16.579  1.00  0.00    -0.387 OA
ATOM     40  H   UNL     1      31.459  35.055  17.531  1.00  0.00     0.211 HD
ENDBRANCH  14  39
ENDBRANCH   8   9
ENDBRANCH   7   8
ENDBRANCH   1   7
BRANCH   1  41
ATOM     41  C   UNL     1      29.014  33.096  18.586  1.00  0.00     0.364 C 
ATOM     42  O   UNL     1      28.828  33.307  19.800  1.00  0.00    -0.246 OA
BRANCH  41  43
ATOM     43  O   UNL     1      28.145  33.794  17.727  1.00  0.00    -0.477 OA
ATOM     44  H   UNL     1      28.353  33.891  16.743  1.00  0.00     0.296 HD
ENDBRANCH  41  43
ENDBRANCH   1  41
BRANCH   3  45
ATOM     45  O   UNL     1      30.235  29.210  20.198  1.00  0.00    -0.391 OA
ATOM     46  H   UNL     1      31.192  29.454  20.338  1.00  0.00     0.211 HD
ENDBRANCH   3  45
BRANCH   5  47
ATOM     47  C   UNL     1      27.794  29.857  16.385  1.00  0.00     0.176 C 
BRANCH  47  48
ATOM     48  O   UNL     1      28.849  29.682  15.493  1.00  0.00    -0.388 OA
ATOM     49  H   UNL     1      29.653  30.142  15.827  1.00  0.00     0.211 HD
ENDBRANCH  47  48
BRANCH  47  50
ATOM     50  C   UNL     1      26.701  30.578  15.681  1.00  0.00     0.165 C 
BRANCH  50  51
ATOM     51  O   UNL     1      26.696  31.910  16.092  1.00  0.00    -0.388 OA
ATOM     52  H   UNL     1      26.699  31.978  17.077  1.00  0.00     0.211 HD
ENDBRANCH  50  51
BRANCH  50  53
ATOM     53  C   UNL     1      25.323  30.018  15.920  1.00  0.00     0.154 C 
BRANCH  53  54
ATOM     54  N   UNL     1      24.548  29.889  14.724  1.00  0.00    -0.319 N 
ATOM     55  C   UNL     1      23.940  30.944  14.032  1.00  0.00     0.407 C 
ATOM     56  H   UNL     1      24.422  28.908  14.329  1.00  0.00     0.167 HD
ATOM     57  O   UNL     1      24.066  32.109  14.465  1.00  0.00    -0.225 OA
BRANCH  55  58
ATOM     58  O   UNL     1      23.218  30.678  12.888  1.00  0.00    -0.443 OA
BRANCH  58  59
ATOM     59  C   UNL     1      22.955  29.393  12.404  1.00  0.00     0.294 C 
BRANCH  59  60
ATOM     60  C   UNL     1      21.567  29.020  12.743  1.00  0.00     0.120 A 
ATOM     61  C   UNL     1      20.441  29.353  12.057  1.00  0.00     0.138 A 
ATOM     62  N   UNL     1      21.204  28.280  13.800  1.00  0.00    -0.132 NA
ATOM     63  N   UNL     1      19.404  28.805  12.715  1.00  0.00    -0.248 N 
ATOM     64  N   UNL     1      19.873  28.160  13.764  1.00  0.00    -0.067 NA
BRANCH  63  65
ATOM     65  C   UNL     1      18.022  28.914  12.324  1.00  0.00     0.182 C 
BRANCH  65  66
ATOM     66  C   UNL     1      17.821  28.123  11.025  1.00  0.00    -0.016 A 
ATOM     67  C   UNL     1      18.255  26.892  10.844  1.00  0.00     0.017 A 
ATOM     68  C   UNL     1      17.139  28.760   9.990  1.00  0.00     0.070 A 
ATOM     69  C   UNL     1      18.046  26.223   9.652  1.00  0.00     0.065 A 
ATOM     70  S   UNL     1      17.137  27.499   8.701  1.00  0.00    -0.152 S 
ENDBRANCH  65  66
ENDBRANCH  63  65
ENDBRANCH  59  60
ENDBRANCH  58  59
ENDBRANCH  55  58
ENDBRANCH  53  54
ENDBRANCH  50  53
ENDBRANCH  47  50
ENDBRANCH   5  47
BRANCH   4  71
ATOM     71  N   UNL     1      27.215  29.575  19.334  1.00  0.00    -0.348 N 
ATOM     72  C   UNL     1      26.699  28.259  19.468  1.00  0.00     0.217 C 
ATOM     73  H   UNL     1      26.617  30.359  19.677  1.00  0.00     0.163 HD
ATOM     74  C   UNL     1      25.363  27.960  20.069  1.00  0.00     0.114 C 
ATOM     75  O   UNL     1      27.450  27.334  19.042  1.00  0.00    -0.275 OA
ENDBRANCH   4  71
TORSDOF 31
BEGIN_RES LYS A 131
REMARK  4 active torsions:
REMARK  status: ('A' for Active; 'I' for Inactive)
REMARK    1  A    between atoms: CA   and  CB  
REMARK    2  A    between atoms: CB   and  CG  
REMARK    3  A    between atoms: CG   and  CD  
REMARK    4  A    between atoms: CD   and  CE  
ROOT
ATOM      1  CA  LYS A 131      29.867  25.555  16.977  1.00 20.52     0.186 C 
ENDROOT
BRANCH   1   2
ATOM      2  CB  LYS A 131      28.345  25.722  17.026  1.00 20.94     0.034 C 
BRANCH   2   3
ATOM      3  CG  LYS A 131      27.601  24.402  16.897  1.00 22.96     0.005 C 
BRANCH   3   4
ATOM      4  CD  LYS A 131      26.160  24.520  17.310  1.00 24.33     0.041 C 
BRANCH   4   5
ATOM      5  CE  LYS A 131      25.884  23.571  18.471  1.00 26.91     0.338 C 
ATOM      6  NZ  LYS A 131      25.511  24.333  19.686  1.00 27.40     0.618 N 
ENDBRANCH   4   5
ENDBRANCH   3   4
ENDBRANCH   2   3
ENDBRANCH   1   2
END_RES LYS A 131
BEGIN_RES LYS A 135
REMARK  4 active torsions:
REMARK  status: ('A' for Active; 'I' for Inactive)
REMARK    5  A    between atoms: CA   and  CB  
REMARK    6  A    between atoms: CB   and  CG  
REMARK    7  A    between atoms: CG   and  CD  
REMARK    8  A    between atoms: CD   and  CE  
ROOT
ATOM      7  CA  LYS A 135      33.193  34.663   9.290  1.00 25.02     0.186 C 
ENDROOT
BRANCH   7   8
ATOM      8  CB  LYS A 135      32.060  35.360  10.034  1.00 26.63     0.034 C 
BRANCH   8   9
ATOM      9  CG  LYS A 135      30.806  35.517   9.213  1.00 29.45     0.005 C 
BRANCH   9  10
ATOM     10  CD  LYS A 135      30.098  34.180   9.055  1.00 32.00     0.041 C 
BRANCH  10  11
ATOM     11  CE  LYS A 135      28.670  34.386   8.586  1.00 34.25     0.338 C 
ATOM     12  NZ  LYS A 135      27.708  33.659   9.460  1.00 35.99     0.618 N 
ENDBRANCH  10  11
ENDBRANCH   9  10
ENDBRANCH   8   9
ENDBRANCH   7   8
END_RES LYS A 135
