REMARK VINA RESULT:    -4.676      4.008      8.985
REMARK INTER + INTRA:         -23.220
REMARK INTER:                 -12.175
REMARK INTRA:                 -11.046
REMARK UNBOUND:               -10.207
REMARK SMILES CC(=O)N[C@@H]1[C@@H](O)C[C@](OC[C@H]2O[C@@H](O[C@H]3[C@H](O)[C@@H](O)[C@H](OCCN=[N+]=[N-])O[C@@H]3CO)[C@H](O)[C@@H](O)[C@H]2O)(C(=O)O)O[C@H]1C(O)[C@H](O)CNC(=O)OCc1cn(C[C@H](CC(=O)O)CC(C)C)nn1
REMARK SMILES IDX 43 1 42 2 9 3 8 4 41 5 6 6 5 7 10 8 11 9 12 10 14 11 13 12
REMARK SMILES IDX 32 13 34 14 36 15 15 16 16 17 29 18 28 19 21 20 17 21 19 22
REMARK SMILES IDX 30 23 31 24 22 26 23 27 24 28 25 29 26 30 27 31 18 32 20 34
REMARK SMILES IDX 33 36 35 38 37 40 38 42 39 43 40 44 7 46 4 48 2 49 1 51 3 52
REMARK SMILES IDX 44 53 45 55 46 56 47 58 48 59 49 60 50 62 51 63 52 64 53 65
REMARK SMILES IDX 54 66 67 67 55 68 66 69 56 70 57 71 58 72 59 73 60 74 61 75
REMARK SMILES IDX 62 77 63 78 64 79 65 80
REMARK H PARENT 31 25 18 33 20 35 33 37 35 39 37 41 40 45 7 47 4 50 44 54
REMARK H PARENT 46 57 48 61 61 76
REMARK Flexibility Score: inf
ROOT
ATOM      1  C   UNL     1      31.125  34.848  13.953  1.00  0.00     0.176 C 
ENDROOT
BRANCH   1   2
ATOM      2  C   UNL     1      29.915  35.606  14.422  1.00  0.00     0.178 C 
ATOM      3  C   UNL     1      28.806  37.119  12.909  1.00  0.00     0.272 C 
ATOM      4  C   UNL     1      29.506  38.279  13.519  1.00  0.00     0.113 C 
ATOM      5  O   UNL     1      29.224  35.932  13.300  1.00  0.00    -0.332 OA
ATOM      6  C   UNL     1      30.618  37.997  14.447  1.00  0.00     0.145 C 
ATOM      7  C   UNL     1      30.386  36.732  15.276  1.00  0.00     0.142 C 
BRANCH   3   8
ATOM      8  O   UNL     1      28.918  37.196  11.494  1.00  0.00    -0.338 OA
BRANCH   8   9
ATOM      9  C   UNL     1      29.887  38.037  11.043  1.00  0.00     0.199 C 
BRANCH   9  10
ATOM     10  C   UNL     1      29.618  38.419   9.571  1.00  0.00     0.179 C 
ATOM     11  C   UNL     1      28.034  38.189   7.890  1.00  0.00     0.282 C 
ATOM     12  O   UNL     1      28.287  38.236   9.252  1.00  0.00    -0.341 OA
ATOM     13  C   UNL     1      29.020  39.165   7.228  1.00  0.00     0.202 C 
ATOM     14  C   UNL     1      29.260  40.357   8.131  1.00  0.00     0.179 C 
ATOM     15  C   UNL     1      29.917  39.914   9.395  1.00  0.00     0.177 C 
BRANCH  11  16
ATOM     16  O   UNL     1      26.792  38.723   7.653  1.00  0.00    -0.341 OA
BRANCH  16  17
ATOM     17  C   UNL     1      25.764  38.251   8.426  1.00  0.00     0.184 C 
ATOM     18  C   UNL     1      25.012  37.097   7.831  1.00  0.00     0.178 C 
ATOM     19  O   UNL     1      23.705  37.344   7.529  1.00  0.00    -0.341 OA
ATOM     20  C   UNL     1      22.930  37.806   8.574  1.00  0.00     0.281 C 
ATOM     21  C   UNL     1      24.783  39.388   8.615  1.00  0.00     0.180 C 
ATOM     22  C   UNL     1      23.589  38.845   9.412  1.00  0.00     0.202 C 
BRANCH  18  23
ATOM     23  C   UNL     1      25.198  35.902   8.748  1.00  0.00     0.191 C 
BRANCH  23  24
ATOM     24  O   UNL     1      26.090  36.187   9.778  1.00  0.00    -0.394 OA
ATOM     25  H   UNL     1      26.457  37.111   9.714  1.00  0.00     0.210 HD
ENDBRANCH  23  24
ENDBRANCH  18  23
BRANCH  20  26
ATOM     26  O   UNL     1      22.471  36.703   9.279  1.00  0.00    -0.350 OA
BRANCH  26  27
ATOM     27  C   UNL     1      21.128  36.782   9.604  1.00  0.00     0.169 C 
BRANCH  27  28
ATOM     28  C   UNL     1      20.377  37.073   8.312  1.00  0.00     0.119 C 
BRANCH  28  29
ATOM     29  N   UNL     1      20.248  35.791   7.632  1.00  0.00    -0.092 NA
ATOM     30  N   UNL     1      19.314  35.078   7.912  1.00  0.00     0.001 N 
ATOM     31  N   UNL     1      18.567  34.109   8.105  1.00  0.00    -0.003 NA
ENDBRANCH  28  29
ENDBRANCH  27  28
ENDBRANCH  26  27
ENDBRANCH  20  26
BRANCH  21  32
ATOM     32  O   UNL     1      25.393  40.445   9.265  1.00  0.00    -0.387 OA
ATOM     33  H   UNL     1      25.406  40.214  10.247  1.00  0.00     0.211 HD
ENDBRANCH  21  32
BRANCH  22  34
ATOM     34  O   UNL     1      22.766  39.969   9.635  1.00  0.00    -0.385 OA
ATOM     35  H   UNL     1      22.168  40.047   8.862  1.00  0.00     0.211 HD
ENDBRANCH  22  34
ENDBRANCH  16  17
ENDBRANCH  11  16
BRANCH  13  36
ATOM     36  O   UNL     1      30.168  38.552   6.794  1.00  0.00    -0.385 OA
ATOM     37  H   UNL     1      30.029  37.740   6.276  1.00  0.00     0.211 HD
ENDBRANCH  13  36
BRANCH  14  38
ATOM     38  O   UNL     1      27.979  40.861   8.436  1.00  0.00    -0.387 OA
ATOM     39  H   UNL     1      27.496  40.293   9.056  1.00  0.00     0.211 HD
ENDBRANCH  14  38
BRANCH  15  40
ATOM     40  O   UNL     1      29.329  40.639  10.453  1.00  0.00    -0.387 OA
ATOM     41  H   UNL     1      29.971  41.239  10.864  1.00  0.00     0.211 HD
ENDBRANCH  15  40
ENDBRANCH   9  10
ENDBRANCH   8   9
ENDBRANCH   3   8
BRANCH   3  42
ATOM     42  C   UNL     1      27.310  37.264  13.120  1.00  0.00     0.364 C 
ATOM     43  O   UNL     1      26.551  37.398  12.152  1.00  0.00    -0.246 OA
BRANCH  42  44
ATOM     44  O   UNL     1      26.785  37.250  14.380  1.00  0.00    -0.477 OA
ATOM     45  H   UNL     1      26.773  38.066  14.989  1.00  0.00     0.296 HD
ENDBRANCH  42  44
ENDBRANCH   3  42
BRANCH   6  46
ATOM     46  O   UNL     1      31.887  37.967  13.911  1.00  0.00    -0.391 OA
ATOM     47  H   UNL     1      32.315  37.136  14.237  1.00  0.00     0.211 HD
ENDBRANCH   6  46
BRANCH   7  48
ATOM     48  N   UNL     1      29.509  37.129  16.343  1.00  0.00    -0.348 N 
ATOM     49  C   UNL     1      29.683  36.504  17.635  1.00  0.00     0.217 C 
ATOM     50  H   UNL     1      28.741  37.832  16.278  1.00  0.00     0.163 HD
ATOM     51  C   UNL     1      28.767  36.926  18.752  1.00  0.00     0.114 C 
ATOM     52  O   UNL     1      30.561  35.633  17.847  1.00  0.00    -0.275 OA
ENDBRANCH   7  48
ENDBRANCH   1   2
BRANCH   1  53
ATOM     53  O   UNL     1      30.684  33.632  13.349  1.00  0.00    -0.388 OA
ATOM     54  H   UNL     1      31.367  32.929  13.501  1.00  0.00     0.211 HD
ENDBRANCH   1  53
BRANCH   1  55
ATOM     55  C   UNL     1      32.099  34.382  15.011  1.00  0.00     0.165 C 
BRANCH  55  56
ATOM     56  O   UNL     1      33.305  34.194  14.205  1.00  0.00    -0.388 OA
ATOM     57  H   UNL     1      33.281  35.019  13.622  1.00  0.00     0.211 HD
ENDBRANCH  55  56
BRANCH  55  58
ATOM     58  C   UNL     1      31.818  33.000  15.492  1.00  0.00     0.154 C 
BRANCH  58  59
ATOM     59  N   UNL     1      30.912  32.976  16.585  1.00  0.00    -0.319 N 
ATOM     60  C   UNL     1      29.668  32.274  16.368  1.00  0.00     0.407 C 
ATOM     61  H   UNL     1      31.023  33.401  17.523  1.00  0.00     0.167 HD
ATOM     62  O   UNL     1      29.447  31.725  15.252  1.00  0.00    -0.225 OA
BRANCH  60  63
ATOM     63  O   UNL     1      28.680  32.168  17.322  1.00  0.00    -0.443 OA
BRANCH  63  64
ATOM     64  C   UNL     1      27.900  33.234  17.822  1.00  0.00     0.294 C 
BRANCH  64  65
ATOM     65  C   UNL     1      26.837  33.674  16.874  1.00  0.00     0.120 A 
ATOM     66  C   UNL     1      25.559  33.187  16.728  1.00  0.00     0.138 A 
ATOM     67  N   UNL     1      26.978  34.661  15.983  1.00  0.00    -0.132 NA
ATOM     68  N   UNL     1      24.942  33.898  15.736  1.00  0.00    -0.252 N 
ATOM     69  N   UNL     1      25.837  34.766  15.326  1.00  0.00    -0.067 NA
BRANCH  68  70
ATOM     70  C   UNL     1      23.628  33.716  15.239  1.00  0.00     0.150 C 
BRANCH  70  71
ATOM     71  C   UNL     1      23.520  33.026  13.946  1.00  0.00     0.022 C 
BRANCH  71  72
ATOM     72  C   UNL     1      23.129  33.841  12.770  1.00  0.00     0.128 C 
BRANCH  72  73
ATOM     73  C   UNL     1      24.152  34.729  12.202  1.00  0.00     0.303 C 
ATOM     74  O   UNL     1      25.296  34.267  11.949  1.00  0.00    -0.252 OA
BRANCH  73  75
ATOM     75  O   UNL     1      23.935  36.071  11.919  1.00  0.00    -0.481 OA
ATOM     76  H   UNL     1      24.688  36.738  12.004  1.00  0.00     0.296 HD
ENDBRANCH  73  75
ENDBRANCH  72  73
ENDBRANCH  71  72
BRANCH  71  77
ATOM     77  C   UNL     1      22.822  31.696  13.997  1.00  0.00     0.009 C 
BRANCH  77  78
ATOM     78  C   UNL     1      22.900  30.795  12.849  1.00  0.00    -0.017 C 
ATOM     79  C   UNL     1      23.912  29.707  12.852  1.00  0.00     0.007 C 
ATOM     80  C   UNL     1      21.570  30.197  12.429  1.00  0.00     0.007 C 
ENDBRANCH  77  78
ENDBRANCH  71  77
ENDBRANCH  70  71
ENDBRANCH  68  70
ENDBRANCH  64  65
ENDBRANCH  63  64
ENDBRANCH  60  63
ENDBRANCH  58  59
ENDBRANCH  55  58
ENDBRANCH   1  55
TORSDOF 36
BEGIN_RES LYS A 131
REMARK  4 active torsions:
REMARK  status: ('A' for Active; 'I' for Inactive)
REMARK    1  A    between atoms: CA   and  CB  
REMARK    2  A    between atoms: CB   and  CG  
REMARK    3  A    between atoms: CG   and  CD  
REMARK    4  A    between atoms: CD   and  CE  
ROOT
ATOM      1  CA  LYS A 131      29.867  25.555  16.977  1.00 20.52     0.186 C 
ENDROOT
BRANCH   1   2
ATOM      2  CB  LYS A 131      28.345  25.722  17.026  1.00 20.94     0.034 C 
BRANCH   2   3
ATOM      3  CG  LYS A 131      27.849  26.222  18.374  1.00 22.96     0.005 C 
BRANCH   3   4
ATOM      4  CD  LYS A 131      27.010  27.464  18.243  1.00 24.33     0.041 C 
BRANCH   4   5
ATOM      5  CE  LYS A 131      25.548  27.073  18.057  1.00 26.91     0.338 C 
ATOM      6  NZ  LYS A 131      24.878  26.926  19.371  1.00 27.40     0.618 N 
ENDBRANCH   4   5
ENDBRANCH   3   4
ENDBRANCH   2   3
ENDBRANCH   1   2
END_RES LYS A 131
BEGIN_RES LYS A 135
REMARK  4 active torsions:
REMARK  status: ('A' for Active; 'I' for Inactive)
REMARK    5  A    between atoms: CA   and  CB  
REMARK    6  A    between atoms: CB   and  CG  
REMARK    7  A    between atoms: CG   and  CD  
REMARK    8  A    between atoms: CD   and  CE  
ROOT
ATOM      7  CA  LYS A 135      33.193  34.663   9.290  1.00 25.02     0.186 C 
ENDROOT
BRANCH   7   8
ATOM      8  CB  LYS A 135      32.060  35.360  10.034  1.00 26.63     0.034 C 
BRANCH   8   9
ATOM      9  CG  LYS A 135      30.726  34.677   9.876  1.00 29.45     0.005 C 
BRANCH   9  10
ATOM     10  CD  LYS A 135      30.288  34.686   8.420  1.00 32.00     0.041 C 
BRANCH  10  11
ATOM     11  CE  LYS A 135      28.785  34.508   8.314  1.00 34.25     0.338 C 
ATOM     12  NZ  LYS A 135      28.252  33.752   9.481  1.00 35.99     0.618 N 
ENDBRANCH  10  11
ENDBRANCH   9  10
ENDBRANCH   8   9
ENDBRANCH   7   8
END_RES LYS A 135
