REMARK VINA RESULT:    -4.696      2.921      8.017
REMARK INTER + INTRA:         -22.756
REMARK INTER:                 -10.970
REMARK INTRA:                 -11.786
REMARK UNBOUND:               -10.372
REMARK SMILES CC(=O)N[C@@H]1[C@@H](O)C[C@](OC[C@H]2O[C@@H](O[C@H]3[C@H](O)[C@@H](O)[C@H](OCCN=[N+]=[N-])O[C@@H]3CO)[C@H](O)[C@@H](O)[C@H]2O)(C(=O)O)O[C@H]1C(O)[C@H](O)CNC(=O)OCc1cn(CC(=O)NCc2cccs2)nn1
REMARK SMILES IDX 43 1 42 2 9 3 8 4 41 5 6 6 5 7 10 8 11 9 12 10 14 11 13 12
REMARK SMILES IDX 32 13 34 14 36 15 15 16 16 17 29 18 28 19 21 20 17 21 19 22
REMARK SMILES IDX 30 23 31 24 22 26 23 27 24 28 25 29 26 30 27 31 18 32 20 34
REMARK SMILES IDX 33 36 35 38 37 40 38 42 39 43 40 44 7 46 4 48 2 49 1 51 3 52
REMARK SMILES IDX 44 53 45 55 46 56 47 58 48 59 49 60 50 62 51 63 52 64 53 65
REMARK SMILES IDX 54 66 67 67 55 68 66 69 56 70 57 71 58 72 59 73 60 75 61 76
REMARK SMILES IDX 62 77 65 78 63 79 64 80
REMARK H PARENT 31 25 18 33 20 35 33 37 35 39 37 41 40 45 7 47 4 50 44 54
REMARK H PARENT 46 57 48 61 59 74
REMARK Flexibility Score: inf
ROOT
ATOM      1  C   UNL     1      24.146  38.552  11.442  1.00  0.00     0.176 C 
ENDROOT
BRANCH   1   2
ATOM      2  C   UNL     1      22.729  38.248  11.029  1.00  0.00     0.178 C 
ATOM      3  C   UNL     1      22.530  37.271   8.885  1.00  0.00     0.272 C 
ATOM      4  C   UNL     1      22.542  38.699   8.314  1.00  0.00     0.113 C 
ATOM      5  O   UNL     1      22.748  37.181  10.200  1.00  0.00    -0.332 OA
ATOM      6  C   UNL     1      21.673  39.547   9.151  1.00  0.00     0.145 C 
ATOM      7  C   UNL     1      21.905  39.411  10.633  1.00  0.00     0.142 C 
BRANCH   3   8
ATOM      8  O   UNL     1      23.506  36.620   8.169  1.00  0.00    -0.338 OA
BRANCH   8   9
ATOM      9  C   UNL     1      24.664  37.213   7.868  1.00  0.00     0.199 C 
BRANCH   9  10
ATOM     10  C   UNL     1      25.952  36.460   8.036  1.00  0.00     0.179 C 
ATOM     11  C   UNL     1      28.041  36.915   8.871  1.00  0.00     0.282 C 
ATOM     12  O   UNL     1      26.675  37.191   9.012  1.00  0.00    -0.341 OA
ATOM     13  C   UNL     1      28.297  35.456   8.692  1.00  0.00     0.202 C 
ATOM     14  C   UNL     1      27.144  34.561   9.005  1.00  0.00     0.179 C 
ATOM     15  C   UNL     1      25.791  35.088   8.653  1.00  0.00     0.177 C 
BRANCH  11  16
ATOM     16  O   UNL     1      28.790  37.417   9.899  1.00  0.00    -0.341 OA
BRANCH  16  17
ATOM     17  C   UNL     1      29.592  38.495   9.527  1.00  0.00     0.184 C 
ATOM     18  C   UNL     1      28.941  39.800   9.657  1.00  0.00     0.178 C 
ATOM     19  O   UNL     1      28.619  40.489   8.519  1.00  0.00    -0.341 OA
ATOM     20  C   UNL     1      28.713  39.843   7.329  1.00  0.00     0.281 C 
ATOM     21  C   UNL     1      30.200  38.160   8.194  1.00  0.00     0.180 C 
ATOM     22  C   UNL     1      30.153  39.310   7.221  1.00  0.00     0.202 C 
BRANCH  18  23
ATOM     23  C   UNL     1      29.841  40.763  10.459  1.00  0.00     0.191 C 
BRANCH  23  24
ATOM     24  O   UNL     1      30.607  40.105  11.396  1.00  0.00    -0.394 OA
ATOM     25  H   UNL     1      30.533  40.601  12.255  1.00  0.00     0.210 HD
ENDBRANCH  23  24
ENDBRANCH  18  23
BRANCH  20  26
ATOM     26  O   UNL     1      28.624  40.792   6.297  1.00  0.00    -0.350 OA
BRANCH  26  27
ATOM     27  C   UNL     1      27.365  41.353   6.221  1.00  0.00     0.169 C 
BRANCH  27  28
ATOM     28  C   UNL     1      26.436  40.296   5.617  1.00  0.00     0.119 C 
BRANCH  28  29
ATOM     29  N   UNL     1      25.062  40.770   5.690  1.00  0.00    -0.092 NA
ATOM     30  N   UNL     1      24.645  41.262   6.737  1.00  0.00     0.001 N 
ATOM     31  N   UNL     1      24.228  41.945   7.691  1.00  0.00    -0.003 NA
ENDBRANCH  28  29
ENDBRANCH  27  28
ENDBRANCH  26  27
ENDBRANCH  20  26
BRANCH  21  32
ATOM     32  O   UNL     1      31.495  37.643   8.298  1.00  0.00    -0.387 OA
ATOM     33  H   UNL     1      31.691  37.353   9.242  1.00  0.00     0.211 HD
ENDBRANCH  21  32
BRANCH  22  34
ATOM     34  O   UNL     1      30.401  38.818   5.954  1.00  0.00    -0.385 OA
ATOM     35  H   UNL     1      30.614  37.851   5.989  1.00  0.00     0.211 HD
ENDBRANCH  22  34
ENDBRANCH  16  17
ENDBRANCH  11  16
BRANCH  13  36
ATOM     36  O   UNL     1      28.790  35.169   7.398  1.00  0.00    -0.385 OA
ATOM     37  H   UNL     1      28.273  35.578   6.686  1.00  0.00     0.211 HD
ENDBRANCH  13  36
BRANCH  14  38
ATOM     38  O   UNL     1      27.202  34.130  10.352  1.00  0.00    -0.387 OA
ATOM     39  H   UNL     1      27.529  34.869  10.923  1.00  0.00     0.211 HD
ENDBRANCH  14  38
BRANCH  15  40
ATOM     40  O   UNL     1      25.087  35.223   9.874  1.00  0.00    -0.387 OA
ATOM     41  H   UNL     1      24.112  35.208   9.745  1.00  0.00     0.211 HD
ENDBRANCH  15  40
ENDBRANCH   9  10
ENDBRANCH   8   9
ENDBRANCH   3   8
BRANCH   3  42
ATOM     42  C   UNL     1      21.167  36.754   8.546  1.00  0.00     0.364 C 
ATOM     43  O   UNL     1      20.311  36.403   9.389  1.00  0.00    -0.246 OA
BRANCH  42  44
ATOM     44  O   UNL     1      20.797  36.649   7.211  1.00  0.00    -0.477 OA
ATOM     45  H   UNL     1      20.558  37.475   6.678  1.00  0.00     0.296 HD
ENDBRANCH  42  44
ENDBRANCH   3  42
BRANCH   6  46
ATOM     46  O   UNL     1      21.807  40.904   8.738  1.00  0.00    -0.391 OA
ATOM     47  H   UNL     1      22.705  41.249   8.933  1.00  0.00     0.211 HD
ENDBRANCH   6  46
BRANCH   7  48
ATOM     48  N   UNL     1      20.651  39.458  11.358  1.00  0.00    -0.348 N 
ATOM     49  C   UNL     1      20.541  40.224  12.538  1.00  0.00     0.217 C 
ATOM     50  H   UNL     1      19.799  38.928  11.035  1.00  0.00     0.163 HD
ATOM     51  C   UNL     1      19.241  40.260  13.271  1.00  0.00     0.114 C 
ATOM     52  O   UNL     1      21.482  40.892  13.027  1.00  0.00    -0.275 OA
ENDBRANCH   7  48
ENDBRANCH   1   2
BRANCH   1  53
ATOM     53  O   UNL     1      25.051  37.551  11.237  1.00  0.00    -0.388 OA
ATOM     54  H   UNL     1      25.997  37.807  11.240  1.00  0.00     0.211 HD
ENDBRANCH   1  53
BRANCH   1  55
ATOM     55  C   UNL     1      24.656  39.915  11.028  1.00  0.00     0.165 C 
BRANCH  55  56
ATOM     56  O   UNL     1      25.237  39.927   9.797  1.00  0.00    -0.388 OA
ATOM     57  H   UNL     1      25.894  40.643   9.650  1.00  0.00     0.211 HD
ENDBRANCH  55  56
BRANCH  55  58
ATOM     58  C   UNL     1      25.598  40.462  12.087  1.00  0.00     0.154 C 
BRANCH  58  59
ATOM     59  N   UNL     1      26.707  39.595  12.352  1.00  0.00    -0.319 N 
ATOM     60  C   UNL     1      27.716  39.775  13.330  1.00  0.00     0.407 C 
ATOM     61  H   UNL     1      26.842  38.687  11.777  1.00  0.00     0.167 HD
ATOM     62  O   UNL     1      27.727  40.745  14.087  1.00  0.00    -0.225 OA
BRANCH  60  63
ATOM     63  O   UNL     1      28.764  38.845  13.480  1.00  0.00    -0.443 OA
BRANCH  63  64
ATOM     64  C   UNL     1      28.694  37.677  14.231  1.00  0.00     0.294 C 
BRANCH  64  65
ATOM     65  C   UNL     1      27.567  36.796  13.899  1.00  0.00     0.120 A 
ATOM     66  C   UNL     1      26.570  36.366  14.747  1.00  0.00     0.138 A 
ATOM     67  N   UNL     1      27.291  36.241  12.689  1.00  0.00    -0.132 NA
ATOM     68  N   UNL     1      25.732  35.581  14.057  1.00  0.00    -0.243 N 
ATOM     69  N   UNL     1      26.193  35.529  12.830  1.00  0.00    -0.067 NA
BRANCH  68  70
ATOM     70  C   UNL     1      24.533  34.888  14.476  1.00  0.00     0.245 C 
BRANCH  70  71
ATOM     71  C   UNL     1      24.779  33.437  14.393  1.00  0.00     0.242 C 
ATOM     72  O   UNL     1      25.415  32.855  15.290  1.00  0.00    -0.273 OA
ATOM     73  N   UNL     1      24.295  32.689  13.293  1.00  0.00    -0.350 N 
ATOM     74  H   UNL     1      23.750  33.145  12.508  1.00  0.00     0.163 HD
BRANCH  73  75
ATOM     75  C   UNL     1      24.510  31.279  13.176  1.00  0.00     0.162 C 
BRANCH  75  76
ATOM     76  C   UNL     1      23.232  30.617  12.878  1.00  0.00     0.024 A 
ATOM     77  C   UNL     1      22.015  31.115  12.543  1.00  0.00     0.017 A 
ATOM     78  S   UNL     1      22.975  28.878  12.880  1.00  0.00    -0.147 S 
ATOM     79  C   UNL     1      20.998  30.271  12.314  1.00  0.00     0.012 A 
ATOM     80  C   UNL     1      21.186  28.943  12.416  1.00  0.00     0.065 A 
ENDBRANCH  75  76
ENDBRANCH  73  75
ENDBRANCH  70  71
ENDBRANCH  68  70
ENDBRANCH  64  65
ENDBRANCH  63  64
ENDBRANCH  60  63
ENDBRANCH  58  59
ENDBRANCH  55  58
ENDBRANCH   1  55
TORSDOF 33
BEGIN_RES LYS A 131
REMARK  4 active torsions:
REMARK  status: ('A' for Active; 'I' for Inactive)
REMARK    1  A    between atoms: CA   and  CB  
REMARK    2  A    between atoms: CB   and  CG  
REMARK    3  A    between atoms: CG   and  CD  
REMARK    4  A    between atoms: CD   and  CE  
ROOT
ATOM      1  CA  LYS A 131      29.867  25.555  16.977  1.00 20.52     0.186 C 
ENDROOT
BRANCH   1   2
ATOM      2  CB  LYS A 131      28.345  25.722  17.026  1.00 20.94     0.034 C 
BRANCH   2   3
ATOM      3  CG  LYS A 131      27.602  24.399  16.927  1.00 22.96     0.005 C 
BRANCH   3   4
ATOM      4  CD  LYS A 131      26.158  24.529  17.326  1.00 24.33     0.041 C 
BRANCH   4   5
ATOM      5  CE  LYS A 131      25.877  23.625  18.522  1.00 26.91     0.338 C 
ATOM      6  NZ  LYS A 131      25.500  24.434  19.706  1.00 27.40     0.618 N 
ENDBRANCH   4   5
ENDBRANCH   3   4
ENDBRANCH   2   3
ENDBRANCH   1   2
END_RES LYS A 131
BEGIN_RES LYS A 135
REMARK  4 active torsions:
REMARK  status: ('A' for Active; 'I' for Inactive)
REMARK    5  A    between atoms: CA   and  CB  
REMARK    6  A    between atoms: CB   and  CG  
REMARK    7  A    between atoms: CG   and  CD  
REMARK    8  A    between atoms: CD   and  CE  
ROOT
ATOM      7  CA  LYS A 135      33.193  34.663   9.290  1.00 25.02     0.186 C 
ENDROOT
BRANCH   7   8
ATOM      8  CB  LYS A 135      32.060  35.360  10.034  1.00 26.63     0.034 C 
BRANCH   8   9
ATOM      9  CG  LYS A 135      30.932  34.437  10.416  1.00 29.45     0.005 C 
BRANCH   9  10
ATOM     10  CD  LYS A 135      30.371  34.809  11.779  1.00 32.00     0.041 C 
BRANCH  10  11
ATOM     11  CE  LYS A 135      31.276  35.811  12.471  1.00 34.25     0.338 C 
ATOM     12  NZ  LYS A 135      31.892  35.223  13.693  1.00 35.99     0.618 N 
ENDBRANCH  10  11
ENDBRANCH   9  10
ENDBRANCH   8   9
ENDBRANCH   7   8
END_RES LYS A 135
