REMARK VINA RESULT:    -5.097      2.459      5.255
REMARK INTER + INTRA:         -26.232
REMARK INTER:                 -12.003
REMARK INTRA:                 -14.229
REMARK UNBOUND:               -12.046
REMARK SMILES CC(=O)N[C@@H]1[C@@H](O)C[C@](OC[C@H]2O[C@@H](O[C@H]3[C@H](O)[C@@H](O)[C@H](OCCN=[N+]=[N-])O[C@@H]3CO)[C@H](O)[C@@H](O)[C@H]2O)(C(=O)O)O[C@H]1C(O)[C@H](O)CNC(=O)OCc1cn(C[C@@H](C(=O)O)C(c2ccccc2)c2ccccc2)nn1
REMARK SMILES IDX 43 1 42 2 9 3 8 4 41 5 6 6 5 7 10 8 11 9 12 10 14 11 13 12
REMARK SMILES IDX 32 13 34 14 36 15 15 16 16 17 29 18 28 19 21 20 17 21 19 22
REMARK SMILES IDX 30 23 31 24 22 26 23 27 24 28 25 29 26 30 27 31 18 32 20 34
REMARK SMILES IDX 33 36 35 38 37 40 38 42 39 43 40 44 7 46 4 48 2 49 1 51 3 52
REMARK SMILES IDX 44 53 45 55 46 56 47 58 48 59 49 60 50 62 51 63 52 64 53 65
REMARK SMILES IDX 54 66 75 67 55 68 74 69 56 70 57 71 58 72 59 73 60 74 61 76
REMARK SMILES IDX 62 77 63 78 67 79 64 80 66 81 65 82 68 83 69 84 73 85 70 86
REMARK SMILES IDX 72 87 71 88
REMARK H PARENT 31 25 18 33 20 35 33 37 35 39 37 41 40 45 7 47 4 50 44 54
REMARK H PARENT 46 57 48 61 60 75
REMARK Flexibility Score: inf
ROOT
ATOM      1  C   UNL     1      31.498  29.730  21.471  1.00  0.00     0.176 C 
ENDROOT
BRANCH   1   2
ATOM      2  C   UNL     1      30.903  30.946  20.729  1.00  0.00     0.178 C 
ATOM      3  C   UNL     1      29.744  31.765  18.905  1.00  0.00     0.272 C 
ATOM      4  C   UNL     1      29.904  33.005  19.847  1.00  0.00     0.113 C 
ATOM      5  O   UNL     1      30.361  30.666  19.529  1.00  0.00    -0.332 OA
ATOM      6  C   UNL     1      31.329  33.256  20.202  1.00  0.00     0.145 C 
ATOM      7  C   UNL     1      31.969  32.015  20.736  1.00  0.00     0.142 C 
BRANCH   3   8
ATOM      8  O   UNL     1      30.183  32.095  17.736  1.00  0.00    -0.338 OA
BRANCH   8   9
ATOM      9  C   UNL     1      30.677  31.582  16.679  1.00  0.00     0.199 C 
BRANCH   9  10
ATOM     10  C   UNL     1      31.181  32.357  15.490  1.00  0.00     0.179 C 
ATOM     11  C   UNL     1      30.142  33.840  13.959  1.00  0.00     0.282 C 
ATOM     12  O   UNL     1      30.149  32.705  14.673  1.00  0.00    -0.341 OA
ATOM     13  C   UNL     1      31.341  34.706  13.924  1.00  0.00     0.202 C 
ATOM     14  C   UNL     1      32.432  34.338  14.887  1.00  0.00     0.179 C 
ATOM     15  C   UNL     1      31.764  33.675  16.049  1.00  0.00     0.177 C 
BRANCH  11  16
ATOM     16  O   UNL     1      29.099  34.627  14.531  1.00  0.00    -0.341 OA
BRANCH  16  17
ATOM     17  C   UNL     1      28.066  34.872  13.671  1.00  0.00     0.184 C 
ATOM     18  C   UNL     1      27.852  36.357  13.585  1.00  0.00     0.178 C 
ATOM     19  O   UNL     1      27.019  36.837  14.589  1.00  0.00    -0.341 OA
ATOM     20  C   UNL     1      27.039  36.057  15.754  1.00  0.00     0.281 C 
ATOM     21  C   UNL     1      26.759  34.247  14.139  1.00  0.00     0.180 C 
ATOM     22  C   UNL     1      26.432  34.711  15.544  1.00  0.00     0.202 C 
BRANCH  18  23
ATOM     23  C   UNL     1      27.340  36.832  12.255  1.00  0.00     0.191 C 
BRANCH  23  24
ATOM     24  O   UNL     1      28.320  36.888  11.284  1.00  0.00    -0.394 OA
ATOM     25  H   UNL     1      28.901  36.080  11.414  1.00  0.00     0.210 HD
ENDBRANCH  23  24
ENDBRANCH  18  23
BRANCH  20  26
ATOM     26  O   UNL     1      26.313  36.712  16.722  1.00  0.00    -0.350 OA
BRANCH  26  27
ATOM     27  C   UNL     1      27.010  37.459  17.619  1.00  0.00     0.169 C 
BRANCH  27  28
ATOM     28  C   UNL     1      28.361  36.923  17.965  1.00  0.00     0.119 C 
BRANCH  28  29
ATOM     29  N   UNL     1      29.309  38.033  17.745  1.00  0.00    -0.092 NA
ATOM     30  N   UNL     1      30.403  37.739  17.254  1.00  0.00     0.001 N 
ATOM     31  N   UNL     1      31.543  37.447  16.904  1.00  0.00    -0.003 NA
ENDBRANCH  28  29
ENDBRANCH  27  28
ENDBRANCH  26  27
ENDBRANCH  20  26
BRANCH  21  32
ATOM     32  O   UNL     1      25.756  34.720  13.298  1.00  0.00    -0.387 OA
ATOM     33  H   UNL     1      25.195  34.002  12.924  1.00  0.00     0.211 HD
ENDBRANCH  21  32
BRANCH  22  34
ATOM     34  O   UNL     1      26.951  33.821  16.475  1.00  0.00    -0.385 OA
ATOM     35  H   UNL     1      27.927  33.701  16.245  1.00  0.00     0.211 HD
ENDBRANCH  22  34
ENDBRANCH  16  17
ENDBRANCH  11  16
BRANCH  13  36
ATOM     36  O   UNL     1      31.934  34.667  12.639  1.00  0.00    -0.385 OA
ATOM     37  H   UNL     1      32.792  34.157  12.671  1.00  0.00     0.211 HD
ENDBRANCH  13  36
BRANCH  14  38
ATOM     38  O   UNL     1      33.114  35.469  15.288  1.00  0.00    -0.387 OA
ATOM     39  H   UNL     1      34.090  35.308  15.195  1.00  0.00     0.211 HD
ENDBRANCH  14  38
BRANCH  15  40
ATOM     40  O   UNL     1      30.753  34.500  16.519  1.00  0.00    -0.387 OA
ATOM     41  H   UNL     1      29.980  33.939  16.737  1.00  0.00     0.211 HD
ENDBRANCH  15  40
ENDBRANCH   9  10
ENDBRANCH   8   9
ENDBRANCH   3   8
BRANCH   3  42
ATOM     42  C   UNL     1      28.297  31.489  19.003  1.00  0.00     0.364 C 
ATOM     43  O   UNL     1      27.388  32.278  18.673  1.00  0.00    -0.246 OA
BRANCH  42  44
ATOM     44  O   UNL     1      27.866  30.242  19.505  1.00  0.00    -0.477 OA
ATOM     45  H   UNL     1      28.566  29.626  19.860  1.00  0.00     0.296 HD
ENDBRANCH  42  44
ENDBRANCH   3  42
BRANCH   6  46
ATOM     46  O   UNL     1      32.062  33.780  19.127  1.00  0.00    -0.391 OA
ATOM     47  H   UNL     1      32.995  33.976  19.377  1.00  0.00     0.211 HD
ENDBRANCH   6  46
BRANCH   7  48
ATOM     48  N   UNL     1      32.372  32.238  22.106  1.00  0.00    -0.348 N 
ATOM     49  C   UNL     1      33.606  32.860  22.419  1.00  0.00     0.217 C 
ATOM     50  H   UNL     1      31.721  31.927  22.881  1.00  0.00     0.163 HD
ATOM     51  C   UNL     1      34.030  33.095  23.842  1.00  0.00     0.114 C 
ATOM     52  O   UNL     1      34.338  33.208  21.457  1.00  0.00    -0.275 OA
ENDBRANCH   7  48
ENDBRANCH   1   2
BRANCH   1  53
ATOM     53  O   UNL     1      32.523  29.173  20.756  1.00  0.00    -0.388 OA
ATOM     54  H   UNL     1      33.304  28.919  21.298  1.00  0.00     0.211 HD
ENDBRANCH   1  53
BRANCH   1  55
ATOM     55  C   UNL     1      30.451  28.721  21.743  1.00  0.00     0.165 C 
BRANCH  55  56
ATOM     56  O   UNL     1      29.850  28.210  20.574  1.00  0.00    -0.388 OA
ATOM     57  H   UNL     1      29.586  29.032  20.054  1.00  0.00     0.211 HD
ENDBRANCH  55  56
BRANCH  55  58
ATOM     58  C   UNL     1      29.401  28.971  22.759  1.00  0.00     0.154 C 
BRANCH  58  59
ATOM     59  N   UNL     1      28.241  28.161  22.697  1.00  0.00    -0.319 N 
ATOM     60  C   UNL     1      26.919  28.598  22.468  1.00  0.00     0.407 C 
ATOM     61  H   UNL     1      28.377  27.084  22.837  1.00  0.00     0.167 HD
ATOM     62  O   UNL     1      26.616  29.795  22.332  1.00  0.00    -0.225 OA
BRANCH  60  63
ATOM     63  O   UNL     1      25.927  27.644  22.388  1.00  0.00    -0.443 OA
BRANCH  63  64
ATOM     64  C   UNL     1      25.938  26.641  21.434  1.00  0.00     0.294 C 
BRANCH  64  65
ATOM     65  C   UNL     1      26.269  27.088  20.074  1.00  0.00     0.120 A 
ATOM     66  C   UNL     1      25.440  27.551  19.079  1.00  0.00     0.138 A 
ATOM     67  N   UNL     1      27.517  27.094  19.511  1.00  0.00    -0.132 NA
ATOM     68  N   UNL     1      26.163  27.815  17.986  1.00  0.00    -0.251 N 
ATOM     69  N   UNL     1      27.418  27.529  18.276  1.00  0.00    -0.067 NA
BRANCH  68  70
ATOM     70  C   UNL     1      25.698  28.330  16.683  1.00  0.00     0.162 C 
BRANCH  70  71
ATOM     71  C   UNL     1      25.905  29.808  16.619  1.00  0.00     0.132 C 
BRANCH  71  72
ATOM     72  C   UNL     1      27.225  30.134  16.001  1.00  0.00     0.309 C 
ATOM     73  O   UNL     1      27.447  31.202  15.407  1.00  0.00    -0.252 OA
BRANCH  72  74
ATOM     74  O   UNL     1      28.258  29.217  16.086  1.00  0.00    -0.481 OA
ATOM     75  H   UNL     1      28.978  29.201  15.358  1.00  0.00     0.296 HD
ENDBRANCH  72  74
ENDBRANCH  71  72
BRANCH  71  76
ATOM     76  C   UNL     1      24.801  30.648  16.093  1.00  0.00     0.065 C 
BRANCH  76  77
ATOM     77  C   UNL     1      23.949  30.079  15.047  1.00  0.00    -0.040 A 
ATOM     78  C   UNL     1      24.293  30.195  13.692  1.00  0.00     0.004 A 
ATOM     79  C   UNL     1      22.754  29.402  15.302  1.00  0.00     0.004 A 
ATOM     80  C   UNL     1      23.530  29.689  12.688  1.00  0.00     0.000 A 
ATOM     81  C   UNL     1      21.991  28.894  14.280  1.00  0.00     0.000 A 
ATOM     82  C   UNL     1      22.370  29.032  12.960  1.00  0.00     0.000 A 
ENDBRANCH  76  77
BRANCH  76  83
ATOM     83  C   UNL     1      24.077  31.411  17.144  1.00  0.00    -0.040 A 
ATOM     84  C   UNL     1      23.481  32.591  16.755  1.00  0.00     0.004 A 
ATOM     85  C   UNL     1      23.981  30.980  18.440  1.00  0.00     0.004 A 
ATOM     86  C   UNL     1      22.784  33.352  17.651  1.00  0.00     0.000 A 
ATOM     87  C   UNL     1      23.268  31.765  19.342  1.00  0.00     0.000 A 
ATOM     88  C   UNL     1      22.671  32.945  18.960  1.00  0.00     0.000 A 
ENDBRANCH  76  83
ENDBRANCH  71  76
ENDBRANCH  70  71
ENDBRANCH  68  70
ENDBRANCH  64  65
ENDBRANCH  63  64
ENDBRANCH  60  63
ENDBRANCH  58  59
ENDBRANCH  55  58
ENDBRANCH   1  55
TORSDOF 36
BEGIN_RES LYS A 131
REMARK  4 active torsions:
REMARK  status: ('A' for Active; 'I' for Inactive)
REMARK    1  A    between atoms: CA   and  CB  
REMARK    2  A    between atoms: CB   and  CG  
REMARK    3  A    between atoms: CG   and  CD  
REMARK    4  A    between atoms: CD   and  CE  
ROOT
ATOM      1  CA  LYS A 131      29.867  25.555  16.977  1.00 20.52     0.186 C 
ENDROOT
BRANCH   1   2
ATOM      2  CB  LYS A 131      28.345  25.722  17.026  1.00 20.94     0.034 C 
BRANCH   2   3
ATOM      3  CG  LYS A 131      27.599  24.438  16.698  1.00 22.96     0.005 C 
BRANCH   3   4
ATOM      4  CD  LYS A 131      26.953  23.832  17.913  1.00 24.33     0.041 C 
BRANCH   4   5
ATOM      5  CE  LYS A 131      25.594  23.253  17.532  1.00 26.91     0.338 C 
ATOM      6  NZ  LYS A 131      24.538  24.286  17.653  1.00 27.40     0.618 N 
ENDBRANCH   4   5
ENDBRANCH   3   4
ENDBRANCH   2   3
ENDBRANCH   1   2
END_RES LYS A 131
BEGIN_RES LYS A 135
REMARK  4 active torsions:
REMARK  status: ('A' for Active; 'I' for Inactive)
REMARK    5  A    between atoms: CA   and  CB  
REMARK    6  A    between atoms: CB   and  CG  
REMARK    7  A    between atoms: CG   and  CD  
REMARK    8  A    between atoms: CD   and  CE  
ROOT
ATOM      7  CA  LYS A 135      33.193  34.663   9.290  1.00 25.02     0.186 C 
ENDROOT
BRANCH   7   8
ATOM      8  CB  LYS A 135      32.060  35.360  10.034  1.00 26.63     0.034 C 
BRANCH   8   9
ATOM      9  CG  LYS A 135      30.806  35.517   9.213  1.00 29.45     0.005 C 
BRANCH   9  10
ATOM     10  CD  LYS A 135      30.004  34.224   9.206  1.00 32.00     0.041 C 
BRANCH  10  11
ATOM     11  CE  LYS A 135      28.609  34.467   8.664  1.00 34.25     0.338 C 
ATOM     12  NZ  LYS A 135      27.588  33.734   9.464  1.00 35.99     0.618 N 
ENDBRANCH  10  11
ENDBRANCH   9  10
ENDBRANCH   8   9
ENDBRANCH   7   8
END_RES LYS A 135
