REMARK VINA RESULT:    -5.402      0.000      0.000
REMARK INTER + INTRA:         -23.045
REMARK INTER:                 -11.289
REMARK INTRA:                 -11.756
REMARK UNBOUND:                -9.116
REMARK SMILES CC(=O)N[C@@H]1[C@@H](O)C[C@](OC[C@H]2O[C@@H](O[C@H]3[C@H](O)[C@@H](O)[C@H](OCCN=[N+]=[N-])O[C@@H]3CO)[C@H](O)[C@@H](O)[C@H]2O)(C(=O)O)O[C@H]1C(O)[C@H](O)CNC(=O)OCc1cn(CCC2OCCO2)nn1
REMARK SMILES IDX 9 1 8 2 6 3 5 4 42 5 41 6 10 7 11 8 12 9 14 10 13 11 32 12
REMARK SMILES IDX 34 13 36 14 15 15 16 16 29 17 28 18 21 19 17 20 19 21 30 22
REMARK SMILES IDX 31 23 22 25 23 26 24 27 25 28 26 29 27 30 18 31 20 33 33 35
REMARK SMILES IDX 35 37 37 39 38 41 39 42 40 43 7 45 43 47 44 48 45 50 46 51
REMARK SMILES IDX 47 53 48 54 49 55 50 57 51 58 52 59 53 60 54 61 64 62 55 63
REMARK SMILES IDX 63 64 56 65 57 66 58 67 59 68 62 69 60 70 61 71 4 72 2 73
REMARK SMILES IDX 1 75 3 76
REMARK H PARENT 31 24 18 32 20 34 33 36 35 38 37 40 40 44 7 46 44 49 46 52
REMARK H PARENT 48 56 4 74
REMARK Flexibility Score: inf
ROOT
ATOM      1  C   UNL     1      29.596  32.321  17.468  1.00  0.00     0.272 C 
ATOM      2  C   UNL     1      30.429  31.142  18.092  1.00  0.00     0.113 C 
ATOM      3  C   UNL     1      29.827  30.669  19.346  1.00  0.00     0.145 C 
ATOM      4  C   UNL     1      28.406  30.207  19.088  1.00  0.00     0.142 C 
ATOM      5  C   UNL     1      27.824  30.820  17.860  1.00  0.00     0.178 C 
ATOM      6  O   UNL     1      28.251  32.052  17.512  1.00  0.00    -0.332 OA
ENDROOT
BRANCH   1   7
ATOM      7  O   UNL     1      30.032  32.345  16.208  1.00  0.00    -0.338 OA
BRANCH   7   8
ATOM      8  C   UNL     1      31.242  32.568  15.749  1.00  0.00     0.199 C 
BRANCH   8   9
ATOM      9  C   UNL     1      31.527  33.640  14.746  1.00  0.00     0.179 C 
ATOM     10  C   UNL     1      30.433  35.002  13.189  1.00  0.00     0.282 C 
ATOM     11  O   UNL     1      30.441  33.836  13.925  1.00  0.00    -0.341 OA
ATOM     12  C   UNL     1      31.715  35.749  13.144  1.00  0.00     0.202 C 
ATOM     13  C   UNL     1      32.377  35.907  14.485  1.00  0.00     0.179 C 
ATOM     14  C   UNL     1      31.723  34.996  15.469  1.00  0.00     0.177 C 
BRANCH  10  15
ATOM     15  O   UNL     1      29.314  35.748  13.560  1.00  0.00    -0.341 OA
BRANCH  15  16
ATOM     16  C   UNL     1      28.136  35.319  12.964  1.00  0.00     0.184 C 
ATOM     17  C   UNL     1      27.351  36.406  12.296  1.00  0.00     0.178 C 
ATOM     18  O   UNL     1      26.247  35.816  11.676  1.00  0.00    -0.341 OA
ATOM     19  C   UNL     1      25.325  35.297  12.573  1.00  0.00     0.281 C 
ATOM     20  C   UNL     1      27.189  34.765  14.065  1.00  0.00     0.180 C 
ATOM     21  C   UNL     1      26.028  34.150  13.294  1.00  0.00     0.202 C 
BRANCH  17  22
ATOM     22  C   UNL     1      28.176  37.007  11.172  1.00  0.00     0.191 C 
BRANCH  22  23
ATOM     23  O   UNL     1      27.249  37.278  10.134  1.00  0.00    -0.394 OA
ATOM     24  H   UNL     1      26.372  36.870  10.298  1.00  0.00     0.210 HD
ENDBRANCH  22  23
ENDBRANCH  17  22
BRANCH  19  25
ATOM     25  O   UNL     1      24.237  34.847  11.878  1.00  0.00    -0.350 OA
BRANCH  25  26
ATOM     26  C   UNL     1      23.171  35.699  11.809  1.00  0.00     0.169 C 
BRANCH  26  27
ATOM     27  C   UNL     1      23.208  36.672  10.651  1.00  0.00     0.119 C 
BRANCH  27  28
ATOM     28  N   UNL     1      23.630  35.993   9.440  1.00  0.00    -0.092 NA
ATOM     29  N   UNL     1      24.442  36.474   8.654  1.00  0.00     0.001 N 
ATOM     30  N   UNL     1      25.360  36.803   7.906  1.00  0.00    -0.003 NA
ENDBRANCH  27  28
ENDBRANCH  26  27
ENDBRANCH  25  26
ENDBRANCH  19  25
BRANCH  20  31
ATOM     31  O   UNL     1      27.859  33.795  14.769  1.00  0.00    -0.387 OA
ATOM     32  H   UNL     1      27.564  33.830  15.721  1.00  0.00     0.211 HD
ENDBRANCH  20  31
BRANCH  21  33
ATOM     33  O   UNL     1      25.206  33.530  14.211  1.00  0.00    -0.385 OA
ATOM     34  H   UNL     1      24.320  33.971  14.182  1.00  0.00     0.211 HD
ENDBRANCH  21  33
ENDBRANCH  15  16
ENDBRANCH  10  15
BRANCH  12  35
ATOM     35  O   UNL     1      32.589  35.117  12.223  1.00  0.00    -0.385 OA
ATOM     36  H   UNL     1      33.502  35.326  12.555  1.00  0.00     0.211 HD
ENDBRANCH  12  35
BRANCH  13  37
ATOM     37  O   UNL     1      32.394  37.237  14.905  1.00  0.00    -0.387 OA
ATOM     38  H   UNL     1      33.337  37.547  14.882  1.00  0.00     0.211 HD
ENDBRANCH  13  37
BRANCH  14  39
ATOM     39  O   UNL     1      30.498  35.436  15.924  1.00  0.00    -0.387 OA
ATOM     40  H   UNL     1      30.297  35.179  16.858  1.00  0.00     0.211 HD
ENDBRANCH  14  39
ENDBRANCH   8   9
ENDBRANCH   7   8
ENDBRANCH   1   7
BRANCH   1  41
ATOM     41  C   UNL     1      29.864  33.429  18.385  1.00  0.00     0.364 C 
ATOM     42  O   UNL     1      28.865  34.023  18.967  1.00  0.00    -0.246 OA
BRANCH  41  43
ATOM     43  O   UNL     1      31.077  33.966  18.750  1.00  0.00    -0.477 OA
ATOM     44  H   UNL     1      31.682  33.460  19.381  1.00  0.00     0.296 HD
ENDBRANCH  41  43
ENDBRANCH   1  41
BRANCH   3  45
ATOM     45  O   UNL     1      30.618  29.566  19.779  1.00  0.00    -0.391 OA
ATOM     46  H   UNL     1      31.571  29.884  19.746  1.00  0.00     0.211 HD
ENDBRANCH   3  45
BRANCH   5  47
ATOM     47  C   UNL     1      27.799  29.818  16.745  1.00  0.00     0.176 C 
BRANCH  47  48
ATOM     48  O   UNL     1      27.732  28.493  17.200  1.00  0.00    -0.388 OA
ATOM     49  H   UNL     1      28.195  27.874  16.562  1.00  0.00     0.211 HD
ENDBRANCH  47  48
BRANCH  47  50
ATOM     50  C   UNL     1      26.483  29.972  15.932  1.00  0.00     0.165 C 
BRANCH  50  51
ATOM     51  O   UNL     1      26.341  31.294  15.582  1.00  0.00    -0.388 OA
ATOM     52  H   UNL     1      25.523  31.493  15.091  1.00  0.00     0.211 HD
ENDBRANCH  50  51
BRANCH  50  53
ATOM     53  C   UNL     1      25.392  29.346  16.701  1.00  0.00     0.154 C 
BRANCH  53  54
ATOM     54  N   UNL     1      24.351  30.272  17.020  1.00  0.00    -0.319 N 
ATOM     55  C   UNL     1      24.043  30.707  18.308  1.00  0.00     0.407 C 
ATOM     56  H   UNL     1      23.787  30.642  16.214  1.00  0.00     0.167 HD
ATOM     57  O   UNL     1      24.669  30.294  19.297  1.00  0.00    -0.225 OA
BRANCH  55  58
ATOM     58  O   UNL     1      23.021  31.627  18.584  1.00  0.00    -0.443 OA
BRANCH  58  59
ATOM     59  C   UNL     1      23.180  33.003  18.292  1.00  0.00     0.294 C 
BRANCH  59  60
ATOM     60  C   UNL     1      22.733  33.354  16.924  1.00  0.00     0.120 A 
ATOM     61  C   UNL     1      21.829  32.608  16.161  1.00  0.00     0.138 A 
ATOM     62  N   UNL     1      23.064  34.393  16.142  1.00  0.00    -0.132 NA
ATOM     63  N   UNL     1      21.650  33.221  14.960  1.00  0.00    -0.252 N 
ATOM     64  N   UNL     1      22.407  34.293  14.978  1.00  0.00    -0.067 NA
BRANCH  63  65
ATOM     65  C   UNL     1      20.758  32.697  13.935  1.00  0.00     0.151 C 
BRANCH  65  66
ATOM     66  C   UNL     1      21.510  32.501  12.625  1.00  0.00     0.086 C 
BRANCH  66  67
ATOM     67  C   UNL     1      22.194  31.165  12.579  1.00  0.00     0.251 C 
ATOM     68  O   UNL     1      23.537  31.323  12.921  1.00  0.00    -0.350 OA
ATOM     69  O   UNL     1      21.685  30.253  13.482  1.00  0.00    -0.350 OA
ATOM     70  C   UNL     1      23.966  30.045  13.262  1.00  0.00     0.192 C 
ATOM     71  C   UNL     1      22.681  29.250  13.419  1.00  0.00     0.192 C 
ENDBRANCH  66  67
ENDBRANCH  65  66
ENDBRANCH  63  65
ENDBRANCH  59  60
ENDBRANCH  58  59
ENDBRANCH  55  58
ENDBRANCH  53  54
ENDBRANCH  50  53
ENDBRANCH  47  50
ENDBRANCH   5  47
BRANCH   4  72
ATOM     72  N   UNL     1      27.577  30.406  20.275  1.00  0.00    -0.348 N 
ATOM     73  C   UNL     1      27.448  29.457  21.294  1.00  0.00     0.217 C 
ATOM     74  H   UNL     1      27.060  31.330  20.336  1.00  0.00     0.163 HD
ATOM     75  C   UNL     1      26.577  29.736  22.482  1.00  0.00     0.114 C 
ATOM     76  O   UNL     1      28.086  28.376  21.171  1.00  0.00    -0.275 OA
ENDBRANCH   4  72
TORSDOF 32
BEGIN_RES LYS A 131
REMARK  4 active torsions:
REMARK  status: ('A' for Active; 'I' for Inactive)
REMARK    1  A    between atoms: CA   and  CB  
REMARK    2  A    between atoms: CB   and  CG  
REMARK    3  A    between atoms: CG   and  CD  
REMARK    4  A    between atoms: CD   and  CE  
ROOT
ATOM      1  CA  LYS A 131      29.867  25.555  16.977  1.00 20.52     0.186 C 
ENDROOT
BRANCH   1   2
ATOM      2  CB  LYS A 131      28.345  25.722  17.026  1.00 20.94     0.034 C 
BRANCH   2   3
ATOM      3  CG  LYS A 131      27.601  24.402  16.893  1.00 22.96     0.005 C 
BRANCH   3   4
ATOM      4  CD  LYS A 131      26.152  24.528  17.273  1.00 24.33     0.041 C 
BRANCH   4   5
ATOM      5  CE  LYS A 131      26.038  24.775  18.774  1.00 26.91     0.338 C 
ATOM      6  NZ  LYS A 131      25.540  23.561  19.463  1.00 27.40     0.618 N 
ENDBRANCH   4   5
ENDBRANCH   3   4
ENDBRANCH   2   3
ENDBRANCH   1   2
END_RES LYS A 131
BEGIN_RES LYS A 135
REMARK  4 active torsions:
REMARK  status: ('A' for Active; 'I' for Inactive)
REMARK    5  A    between atoms: CA   and  CB  
REMARK    6  A    between atoms: CB   and  CG  
REMARK    7  A    between atoms: CG   and  CD  
REMARK    8  A    between atoms: CD   and  CE  
ROOT
ATOM      7  CA  LYS A 135      33.193  34.663   9.290  1.00 25.02     0.186 C 
ENDROOT
BRANCH   7   8
ATOM      8  CB  LYS A 135      32.060  35.360  10.034  1.00 26.63     0.034 C 
BRANCH   8   9
ATOM      9  CG  LYS A 135      30.800  35.498   9.220  1.00 29.45     0.005 C 
BRANCH   9  10
ATOM     10  CD  LYS A 135      30.138  34.143   9.021  1.00 32.00     0.041 C 
BRANCH  10  11
ATOM     11  CE  LYS A 135      28.674  34.313   8.664  1.00 34.25     0.338 C 
ATOM     12  NZ  LYS A 135      27.797  33.631   9.656  1.00 35.99     0.618 N 
ENDBRANCH  10  11
ENDBRANCH   9  10
ENDBRANCH   8   9
ENDBRANCH   7   8
END_RES LYS A 135
