REMARK VINA RESULT:    -4.560      2.191      4.721
REMARK INTER + INTRA:         -21.765
REMARK INTER:                 -11.601
REMARK INTRA:                 -10.164
REMARK UNBOUND:               -10.541
REMARK SMILES CC(=O)N[C@@H]1[C@@H](O)C[C@](OC[C@H]2O[C@@H](O[C@H]3[C@H](O)[C@@H](O)[C@H](OCCN=[N+]=[N-])O[C@@H]3CO)[C@H](O)[C@@H](O)[C@H]2O)(C(=O)O)O[C@H]1C(O)[C@H](O)CNC(=O)OCc1cn(-c2ccccc2)nn1
REMARK SMILES IDX 9 1 8 2 6 3 5 4 42 5 41 6 10 7 11 8 12 9 14 10 13 11 32 12
REMARK SMILES IDX 34 13 36 14 15 15 16 16 29 17 28 18 21 19 17 20 19 21 30 22
REMARK SMILES IDX 31 23 22 25 23 26 24 27 25 28 26 29 27 30 18 31 20 33 33 35
REMARK SMILES IDX 35 37 37 39 38 41 39 42 40 43 7 45 43 47 44 48 45 50 46 51
REMARK SMILES IDX 47 53 48 54 49 55 50 57 51 58 52 59 53 60 54 61 63 62 55 63
REMARK SMILES IDX 62 64 56 65 57 66 61 67 58 68 60 69 59 70 4 71 2 72 1 74
REMARK SMILES IDX 3 75
REMARK H PARENT 31 24 18 32 20 34 33 36 35 38 37 40 40 44 7 46 44 49 46 52
REMARK H PARENT 48 56 4 73
REMARK Flexibility Score: inf
ROOT
ATOM      1  C   UNL     1      30.548  32.806  18.050  1.00  0.00     0.272 C 
ATOM      2  C   UNL     1      30.296  31.347  17.945  1.00  0.00     0.113 C 
ATOM      3  C   UNL     1      28.920  30.917  18.292  1.00  0.00     0.145 C 
ATOM      4  C   UNL     1      27.899  31.883  17.719  1.00  0.00     0.142 C 
ATOM      5  C   UNL     1      28.239  33.239  18.295  1.00  0.00     0.178 C 
ATOM      6  O   UNL     1      29.418  33.607  17.702  1.00  0.00    -0.332 OA
ENDROOT
BRANCH   1   7
ATOM      7  O   UNL     1      31.506  33.296  17.212  1.00  0.00    -0.338 OA
BRANCH   7   8
ATOM      8  C   UNL     1      31.596  33.012  15.926  1.00  0.00     0.199 C 
BRANCH   8   9
ATOM      9  C   UNL     1      31.851  34.029  14.883  1.00  0.00     0.179 C 
ATOM     10  C   UNL     1      30.660  35.251  13.291  1.00  0.00     0.282 C 
ATOM     11  O   UNL     1      30.611  34.155  14.179  1.00  0.00    -0.341 OA
ATOM     12  C   UNL     1      32.010  35.876  13.161  1.00  0.00     0.202 C 
ATOM     13  C   UNL     1      32.524  36.357  14.501  1.00  0.00     0.179 C 
ATOM     14  C   UNL     1      32.067  35.391  15.554  1.00  0.00     0.177 C 
BRANCH  10  15
ATOM     15  O   UNL     1      29.785  36.175  13.731  1.00  0.00    -0.341 OA
BRANCH  15  16
ATOM     16  C   UNL     1      28.918  36.794  12.909  1.00  0.00     0.184 C 
ATOM     17  C   UNL     1      27.897  37.675  13.590  1.00  0.00     0.178 C 
ATOM     18  O   UNL     1      26.809  37.752  12.699  1.00  0.00    -0.341 OA
ATOM     19  C   UNL     1      26.056  36.582  12.940  1.00  0.00     0.281 C 
ATOM     20  C   UNL     1      28.172  35.826  11.990  1.00  0.00     0.180 C 
ATOM     21  C   UNL     1      26.897  35.354  12.658  1.00  0.00     0.202 C 
BRANCH  17  22
ATOM     22  C   UNL     1      28.398  39.089  13.791  1.00  0.00     0.191 C 
BRANCH  22  23
ATOM     23  O   UNL     1      29.488  39.051  14.665  1.00  0.00    -0.394 OA
ATOM     24  H   UNL     1      29.818  39.979  14.879  1.00  0.00     0.210 HD
ENDBRANCH  22  23
ENDBRANCH  17  22
BRANCH  19  25
ATOM     25  O   UNL     1      24.929  36.527  12.179  1.00  0.00    -0.350 OA
BRANCH  25  26
ATOM     26  C   UNL     1      24.562  35.313  11.667  1.00  0.00     0.169 C 
BRANCH  26  27
ATOM     27  C   UNL     1      23.282  35.306  10.895  1.00  0.00     0.119 C 
BRANCH  27  28
ATOM     28  N   UNL     1      23.501  35.381   9.497  1.00  0.00    -0.092 NA
ATOM     29  N   UNL     1      24.604  35.703   9.018  1.00  0.00     0.001 N 
ATOM     30  N   UNL     1      25.626  36.348   8.735  1.00  0.00    -0.003 NA
ENDBRANCH  27  28
ENDBRANCH  26  27
ENDBRANCH  25  26
ENDBRANCH  19  25
BRANCH  20  31
ATOM     31  O   UNL     1      27.810  36.397  10.778  1.00  0.00    -0.387 OA
ATOM     32  H   UNL     1      27.254  37.203  10.907  1.00  0.00     0.211 HD
ENDBRANCH  20  31
BRANCH  21  33
ATOM     33  O   UNL     1      27.136  34.643  13.817  1.00  0.00    -0.385 OA
ATOM     34  H   UNL     1      27.995  34.162  13.815  1.00  0.00     0.211 HD
ENDBRANCH  21  33
ENDBRANCH  15  16
ENDBRANCH  10  15
BRANCH  12  35
ATOM     35  O   UNL     1      32.933  35.125  12.445  1.00  0.00    -0.385 OA
ATOM     36  H   UNL     1      33.760  35.073  12.991  1.00  0.00     0.211 HD
ENDBRANCH  12  35
BRANCH  13  37
ATOM     37  O   UNL     1      31.974  37.597  14.767  1.00  0.00    -0.387 OA
ATOM     38  H   UNL     1      32.033  37.872  15.716  1.00  0.00     0.211 HD
ENDBRANCH  13  37
BRANCH  14  39
ATOM     39  O   UNL     1      30.802  35.762  16.067  1.00  0.00    -0.387 OA
ATOM     40  H   UNL     1      30.779  36.713  16.302  1.00  0.00     0.211 HD
ENDBRANCH  14  39
ENDBRANCH   8   9
ENDBRANCH   7   8
ENDBRANCH   1   7
BRANCH   1  41
ATOM     41  C   UNL     1      30.758  33.179  19.467  1.00  0.00     0.364 C 
ATOM     42  O   UNL     1      30.940  32.334  20.343  1.00  0.00    -0.246 OA
BRANCH  41  43
ATOM     43  O   UNL     1      30.752  34.537  19.849  1.00  0.00    -0.477 OA
ATOM     44  H   UNL     1      31.586  35.091  19.665  1.00  0.00     0.296 HD
ENDBRANCH  41  43
ENDBRANCH   1  41
BRANCH   3  45
ATOM     45  O   UNL     1      28.706  29.618  17.834  1.00  0.00    -0.391 OA
ATOM     46  H   UNL     1      27.784  29.389  18.040  1.00  0.00     0.211 HD
ENDBRANCH   3  45
BRANCH   5  47
ATOM     47  C   UNL     1      27.205  34.284  17.886  1.00  0.00     0.176 C 
BRANCH  47  48
ATOM     48  O   UNL     1      26.812  34.006  16.605  1.00  0.00    -0.388 OA
ATOM     49  H   UNL     1      26.349  33.146  16.495  1.00  0.00     0.211 HD
ENDBRANCH  47  48
BRANCH  47  50
ATOM     50  C   UNL     1      26.071  34.458  18.808  1.00  0.00     0.165 C 
BRANCH  50  51
ATOM     51  O   UNL     1      24.983  33.719  18.243  1.00  0.00    -0.388 OA
ATOM     52  H   UNL     1      25.198  32.778  18.380  1.00  0.00     0.211 HD
ENDBRANCH  50  51
BRANCH  50  53
ATOM     53  C   UNL     1      25.547  35.904  18.809  1.00  0.00     0.154 C 
BRANCH  53  54
ATOM     54  N   UNL     1      24.500  36.099  17.837  1.00  0.00    -0.319 N 
ATOM     55  C   UNL     1      24.747  36.758  16.584  1.00  0.00     0.407 C 
ATOM     56  H   UNL     1      23.520  35.778  17.982  1.00  0.00     0.167 HD
ATOM     57  O   UNL     1      25.892  37.174  16.293  1.00  0.00    -0.225 OA
BRANCH  55  58
ATOM     58  O   UNL     1      23.730  36.947  15.667  1.00  0.00    -0.443 OA
BRANCH  58  59
ATOM     59  C   UNL     1      22.653  36.023  15.555  1.00  0.00     0.294 C 
BRANCH  59  60
ATOM     60  C   UNL     1      23.268  34.746  15.089  1.00  0.00     0.121 A 
ATOM     61  C   UNL     1      22.550  33.740  14.455  1.00  0.00     0.144 A 
ATOM     62  N   UNL     1      24.525  34.301  15.157  1.00  0.00    -0.131 NA
ATOM     63  N   UNL     1      23.392  32.716  14.158  1.00  0.00    -0.220 N 
ATOM     64  N   UNL     1      24.574  33.089  14.596  1.00  0.00    -0.062 NA
BRANCH  63  65
ATOM     65  C   UNL     1      23.055  31.498  13.514  1.00  0.00     0.066 A 
ATOM     66  C   UNL     1      23.964  30.475  13.378  1.00  0.00     0.028 A 
ATOM     67  C   UNL     1      21.786  31.313  13.012  1.00  0.00     0.028 A 
ATOM     68  C   UNL     1      23.642  29.285  12.759  1.00  0.00     0.002 A 
ATOM     69  C   UNL     1      21.466  30.115  12.391  1.00  0.00     0.002 A 
ATOM     70  C   UNL     1      22.360  29.083  12.244  1.00  0.00     0.000 A 
ENDBRANCH  63  65
ENDBRANCH  59  60
ENDBRANCH  58  59
ENDBRANCH  55  58
ENDBRANCH  53  54
ENDBRANCH  50  53
ENDBRANCH  47  50
ENDBRANCH   5  47
BRANCH   4  71
ATOM     71  N   UNL     1      26.568  31.429  17.911  1.00  0.00    -0.348 N 
ATOM     72  C   UNL     1      25.940  30.674  16.887  1.00  0.00     0.217 C 
ATOM     73  H   UNL     1      26.036  31.615  18.781  1.00  0.00     0.163 HD
ATOM     74  C   UNL     1      24.539  30.184  17.063  1.00  0.00     0.114 C 
ATOM     75  O   UNL     1      26.524  30.386  15.798  1.00  0.00    -0.275 OA
ENDBRANCH   4  71
TORSDOF 30
BEGIN_RES LYS A 131
REMARK  4 active torsions:
REMARK  status: ('A' for Active; 'I' for Inactive)
REMARK    1  A    between atoms: CA   and  CB  
REMARK    2  A    between atoms: CB   and  CG  
REMARK    3  A    between atoms: CG   and  CD  
REMARK    4  A    between atoms: CD   and  CE  
ROOT
ATOM      1  CA  LYS A 131      29.867  25.555  16.977  1.00 20.52     0.186 C 
ENDROOT
BRANCH   1   2
ATOM      2  CB  LYS A 131      28.345  25.722  17.026  1.00 20.94     0.034 C 
BRANCH   2   3
ATOM      3  CG  LYS A 131      27.846  26.199  18.381  1.00 22.96     0.005 C 
BRANCH   3   4
ATOM      4  CD  LYS A 131      26.530  26.918  18.280  1.00 24.33     0.041 C 
BRANCH   4   5
ATOM      5  CE  LYS A 131      26.278  27.703  19.563  1.00 26.91     0.338 C 
ATOM      6  NZ  LYS A 131      27.473  27.663  20.439  1.00 27.40     0.618 N 
ENDBRANCH   4   5
ENDBRANCH   3   4
ENDBRANCH   2   3
ENDBRANCH   1   2
END_RES LYS A 131
BEGIN_RES LYS A 135
REMARK  4 active torsions:
REMARK  status: ('A' for Active; 'I' for Inactive)
REMARK    5  A    between atoms: CA   and  CB  
REMARK    6  A    between atoms: CB   and  CG  
REMARK    7  A    between atoms: CG   and  CD  
REMARK    8  A    between atoms: CD   and  CE  
ROOT
ATOM      7  CA  LYS A 135      33.193  34.663   9.290  1.00 25.02     0.186 C 
ENDROOT
BRANCH   7   8
ATOM      8  CB  LYS A 135      32.060  35.360  10.034  1.00 26.63     0.034 C 
BRANCH   8   9
ATOM      9  CG  LYS A 135      30.694  34.824   9.690  1.00 29.45     0.005 C 
BRANCH   9  10
ATOM     10  CD  LYS A 135      30.404  35.005   8.208  1.00 32.00     0.041 C 
BRANCH  10  11
ATOM     11  CE  LYS A 135      28.927  34.808   7.927  1.00 34.25     0.338 C 
ATOM     12  NZ  LYS A 135      28.518  35.518   6.684  1.00 35.99     0.618 N 
ENDBRANCH  10  11
ENDBRANCH   9  10
ENDBRANCH   8   9
ENDBRANCH   7   8
END_RES LYS A 135
