REMARK VINA RESULT:    -5.404      0.000      0.000
REMARK INTER + INTRA:         -23.752
REMARK INTER:                 -10.821
REMARK INTRA:                 -12.932
REMARK UNBOUND:                -9.660
REMARK SMILES CC(=O)N[C@@H]1[C@@H](O)C[C@](OC[C@H]2O[C@@H](O[C@H]3[C@H](O)[C@@H](O)[C@H](OCCN=[N+]=[N-])O[C@@H]3CO)[C@H](O)[C@@H](O)[C@H]2O)(C(=O)O)O[C@H]1C(O)[C@H](O)CNC(=O)OCc1cn(CCC(=O)O)nn1
REMARK SMILES IDX 43 1 42 2 9 3 8 4 41 5 6 6 5 7 10 8 11 9 12 10 14 11 13 12
REMARK SMILES IDX 32 13 34 14 36 15 15 16 16 17 29 18 28 19 21 20 17 21 19 22
REMARK SMILES IDX 30 23 31 24 22 26 23 27 24 28 25 29 26 30 27 31 18 32 20 34
REMARK SMILES IDX 33 36 35 38 37 40 38 42 39 43 40 44 7 46 4 48 2 49 1 51 3 52
REMARK SMILES IDX 44 53 45 55 46 56 47 58 48 59 49 60 50 62 51 63 52 64 53 65
REMARK SMILES IDX 54 66 62 67 55 68 61 69 56 70 57 71 58 72 59 73 60 74
REMARK H PARENT 31 25 18 33 20 35 33 37 35 39 37 41 40 45 7 47 4 50 44 54
REMARK H PARENT 46 57 48 61 60 75
REMARK Flexibility Score: inf
ROOT
ATOM      1  C   UNL     1      28.049  37.276  11.189  1.00  0.00     0.176 C 
ENDROOT
BRANCH   1   2
ATOM      2  C   UNL     1      28.139  36.055  10.304  1.00  0.00     0.178 C 
ATOM      3  C   UNL     1      28.944  35.367   8.211  1.00  0.00     0.272 C 
ATOM      4  C   UNL     1      28.508  34.080   8.887  1.00  0.00     0.113 C 
ATOM      5  O   UNL     1      28.223  36.364   8.971  1.00  0.00    -0.332 OA
ATOM      6  C   UNL     1      27.029  34.152   9.319  1.00  0.00     0.145 C 
ATOM      7  C   UNL     1      26.919  35.157  10.459  1.00  0.00     0.142 C 
BRANCH   3   8
ATOM      8  O   UNL     1      28.519  35.404   6.934  1.00  0.00    -0.338 OA
BRANCH   8   9
ATOM      9  C   UNL     1      28.850  36.223   5.974  1.00  0.00     0.199 C 
BRANCH   9  10
ATOM     10  C   UNL     1      28.246  37.524   5.664  1.00  0.00     0.179 C 
ATOM     11  C   UNL     1      26.633  39.115   6.041  1.00  0.00     0.282 C 
ATOM     12  O   UNL     1      27.067  37.843   6.280  1.00  0.00    -0.341 OA
ATOM     13  C   UNL     1      27.489  39.941   5.123  1.00  0.00     0.202 C 
ATOM     14  C   UNL     1      28.961  39.842   5.475  1.00  0.00     0.179 C 
ATOM     15  C   UNL     1      29.254  38.579   6.252  1.00  0.00     0.177 C 
BRANCH  11  16
ATOM     16  O   UNL     1      26.455  39.871   7.200  1.00  0.00    -0.341 OA
BRANCH  16  17
ATOM     17  C   UNL     1      25.980  41.157   6.955  1.00  0.00     0.184 C 
ATOM     18  C   UNL     1      26.011  41.928   8.228  1.00  0.00     0.178 C 
ATOM     19  O   UNL     1      24.739  42.272   8.716  1.00  0.00    -0.341 OA
ATOM     20  C   UNL     1      24.027  41.055   8.750  1.00  0.00     0.281 C 
ATOM     21  C   UNL     1      24.618  41.023   6.342  1.00  0.00     0.180 C 
ATOM     22  C   UNL     1      23.518  40.844   7.342  1.00  0.00     0.202 C 
BRANCH  18  23
ATOM     23  C   UNL     1      26.816  43.210   8.081  1.00  0.00     0.191 C 
BRANCH  23  24
ATOM     24  O   UNL     1      28.179  42.931   8.124  1.00  0.00    -0.394 OA
ATOM     25  H   UNL     1      28.555  43.345   8.936  1.00  0.00     0.210 HD
ENDBRANCH  23  24
ENDBRANCH  18  23
BRANCH  20  26
ATOM     26  O   UNL     1      23.010  41.081   9.675  1.00  0.00    -0.350 OA
BRANCH  26  27
ATOM     27  C   UNL     1      23.317  40.210  10.717  1.00  0.00     0.169 C 
BRANCH  27  28
ATOM     28  C   UNL     1      22.428  38.977  10.617  1.00  0.00     0.119 C 
BRANCH  28  29
ATOM     29  N   UNL     1      23.318  37.838  10.534  1.00  0.00    -0.092 NA
ATOM     30  N   UNL     1      23.784  37.536   9.436  1.00  0.00     0.001 N 
ATOM     31  N   UNL     1      24.459  37.079   8.490  1.00  0.00    -0.003 NA
ENDBRANCH  28  29
ENDBRANCH  27  28
ENDBRANCH  26  27
ENDBRANCH  20  26
BRANCH  21  32
ATOM     32  O   UNL     1      24.372  42.184   5.617  1.00  0.00    -0.387 OA
ATOM     33  H   UNL     1      23.756  42.743   6.130  1.00  0.00     0.211 HD
ENDBRANCH  21  32
BRANCH  22  34
ATOM     34  O   UNL     1      22.917  39.591   7.207  1.00  0.00    -0.385 OA
ATOM     35  H   UNL     1      23.527  38.967   6.724  1.00  0.00     0.211 HD
ENDBRANCH  22  34
ENDBRANCH  16  17
ENDBRANCH  11  16
BRANCH  13  36
ATOM     36  O   UNL     1      27.259  39.678   3.765  1.00  0.00    -0.385 OA
ATOM     37  H   UNL     1      26.803  40.432   3.358  1.00  0.00     0.211 HD
ENDBRANCH  13  36
BRANCH  14  38
ATOM     38  O   UNL     1      29.382  40.983   6.119  1.00  0.00    -0.387 OA
ATOM     39  H   UNL     1      30.255  41.274   5.787  1.00  0.00     0.211 HD
ENDBRANCH  14  38
BRANCH  15  40
ATOM     40  O   UNL     1      28.930  38.686   7.584  1.00  0.00    -0.387 OA
ATOM     41  H   UNL     1      27.969  38.615   7.787  1.00  0.00     0.211 HD
ENDBRANCH  15  40
ENDBRANCH   9  10
ENDBRANCH   8   9
ENDBRANCH   3   8
BRANCH   3  42
ATOM     42  C   UNL     1      30.363  35.685   8.390  1.00  0.00     0.364 C 
ATOM     43  O   UNL     1      30.710  36.835   8.755  1.00  0.00    -0.246 OA
BRANCH  42  44
ATOM     44  O   UNL     1      31.341  34.749   8.169  1.00  0.00    -0.477 OA
ATOM     45  H   UNL     1      31.397  33.848   8.598  1.00  0.00     0.296 HD
ENDBRANCH  42  44
ENDBRANCH   3  42
BRANCH   6  46
ATOM     46  O   UNL     1      26.316  34.634   8.243  1.00  0.00    -0.391 OA
ATOM     47  H   UNL     1      26.273  35.631   8.324  1.00  0.00     0.211 HD
ENDBRANCH   6  46
BRANCH   7  48
ATOM     48  N   UNL     1      26.892  34.491  11.720  1.00  0.00    -0.348 N 
ATOM     49  C   UNL     1      25.755  34.628  12.559  1.00  0.00     0.217 C 
ATOM     50  H   UNL     1      27.679  33.898  12.064  1.00  0.00     0.163 HD
ATOM     51  C   UNL     1      25.645  33.973  13.885  1.00  0.00     0.114 C 
ATOM     52  O   UNL     1      24.766  35.332  12.200  1.00  0.00    -0.275 OA
ENDBRANCH   7  48
ENDBRANCH   1   2
BRANCH   1  53
ATOM     53  O   UNL     1      29.221  38.015  11.027  1.00  0.00    -0.388 OA
ATOM     54  H   UNL     1      30.015  37.473  11.209  1.00  0.00     0.211 HD
ENDBRANCH   1  53
BRANCH   1  55
ATOM     55  C   UNL     1      26.880  38.166  10.910  1.00  0.00     0.165 C 
BRANCH  55  56
ATOM     56  O   UNL     1      27.225  39.046   9.879  1.00  0.00    -0.388 OA
ATOM     57  H   UNL     1      27.652  38.529   9.155  1.00  0.00     0.211 HD
ENDBRANCH  55  56
BRANCH  55  58
ATOM     58  C   UNL     1      26.660  39.011  12.170  1.00  0.00     0.154 C 
BRANCH  58  59
ATOM     59  N   UNL     1      27.328  40.278  12.059  1.00  0.00    -0.319 N 
ATOM     60  C   UNL     1      28.480  40.651  12.804  1.00  0.00     0.407 C 
ATOM     61  H   UNL     1      26.970  41.017  11.382  1.00  0.00     0.167 HD
ATOM     62  O   UNL     1      28.946  39.812  13.616  1.00  0.00    -0.225 OA
BRANCH  60  63
ATOM     63  O   UNL     1      29.088  41.885  12.663  1.00  0.00    -0.443 OA
BRANCH  63  64
ATOM     64  C   UNL     1      30.437  41.946  12.272  1.00  0.00     0.294 C 
BRANCH  64  65
ATOM     65  C   UNL     1      30.581  41.659  10.832  1.00  0.00     0.120 A 
ATOM     66  C   UNL     1      31.625  42.156  10.062  1.00  0.00     0.138 A 
ATOM     67  N   UNL     1      29.792  40.897  10.036  1.00  0.00    -0.132 NA
ATOM     68  N   UNL     1      31.423  41.667   8.815  1.00  0.00    -0.252 N 
ATOM     69  N   UNL     1      30.326  40.923   8.833  1.00  0.00    -0.067 NA
BRANCH  68  70
ATOM     70  C   UNL     1      32.259  41.902   7.658  1.00  0.00     0.158 C 
BRANCH  70  71
ATOM     71  C   UNL     1      33.518  41.064   7.651  1.00  0.00     0.146 C 
BRANCH  71  72
ATOM     72  C   UNL     1      33.216  39.787   6.992  1.00  0.00     0.305 C 
ATOM     73  O   UNL     1      33.705  39.540   5.868  1.00  0.00    -0.252 OA
BRANCH  72  74
ATOM     74  O   UNL     1      32.392  38.831   7.583  1.00  0.00    -0.481 OA
ATOM     75  H   UNL     1      32.268  38.744   8.586  1.00  0.00     0.296 HD
ENDBRANCH  72  74
ENDBRANCH  71  72
ENDBRANCH  70  71
ENDBRANCH  68  70
ENDBRANCH  64  65
ENDBRANCH  63  64
ENDBRANCH  60  63
ENDBRANCH  58  59
ENDBRANCH  55  58
ENDBRANCH   1  55
TORSDOF 33
BEGIN_RES LYS A 131
REMARK  4 active torsions:
REMARK  status: ('A' for Active; 'I' for Inactive)
REMARK    1  A    between atoms: CA   and  CB  
REMARK    2  A    between atoms: CB   and  CG  
REMARK    3  A    between atoms: CG   and  CD  
REMARK    4  A    between atoms: CD   and  CE  
ROOT
ATOM      1  CA  LYS A 131      29.867  25.555  16.977  1.00 20.52     0.186 C 
ENDROOT
BRANCH   1   2
ATOM      2  CB  LYS A 131      28.345  25.722  17.026  1.00 20.94     0.034 C 
BRANCH   2   3
ATOM      3  CG  LYS A 131      27.601  24.403  16.887  1.00 22.96     0.005 C 
BRANCH   3   4
ATOM      4  CD  LYS A 131      26.648  24.167  18.026  1.00 24.33     0.041 C 
BRANCH   4   5
ATOM      5  CE  LYS A 131      25.560  23.193  17.586  1.00 26.91     0.338 C 
ATOM      6  NZ  LYS A 131      24.452  23.919  16.920  1.00 27.40     0.618 N 
ENDBRANCH   4   5
ENDBRANCH   3   4
ENDBRANCH   2   3
ENDBRANCH   1   2
END_RES LYS A 131
BEGIN_RES LYS A 135
REMARK  4 active torsions:
REMARK  status: ('A' for Active; 'I' for Inactive)
REMARK    5  A    between atoms: CA   and  CB  
REMARK    6  A    between atoms: CB   and  CG  
REMARK    7  A    between atoms: CG   and  CD  
REMARK    8  A    between atoms: CD   and  CE  
ROOT
ATOM      7  CA  LYS A 135      33.193  34.663   9.290  1.00 25.02     0.186 C 
ENDROOT
BRANCH   7   8
ATOM      8  CB  LYS A 135      32.060  35.360  10.034  1.00 26.63     0.034 C 
BRANCH   8   9
ATOM      9  CG  LYS A 135      32.519  36.134  11.243  1.00 29.45     0.005 C 
BRANCH   9  10
ATOM     10  CD  LYS A 135      31.887  35.577  12.509  1.00 32.00     0.041 C 
BRANCH  10  11
ATOM     11  CE  LYS A 135      30.680  34.722  12.170  1.00 34.25     0.338 C 
ATOM     12  NZ  LYS A 135      29.911  34.370  13.395  1.00 35.99     0.618 N 
ENDBRANCH  10  11
ENDBRANCH   9  10
ENDBRANCH   8   9
ENDBRANCH   7   8
END_RES LYS A 135
