REMARK VINA RESULT:    -5.396      4.719      9.837
REMARK INTER + INTRA:         -23.733
REMARK INTER:                 -12.564
REMARK INTRA:                 -11.170
REMARK UNBOUND:                -9.504
REMARK SMILES CC(=O)N[C@@H]1[C@@H](O)C[C@](OC[C@H]2O[C@@H](O[C@H]3[C@H](O)[C@@H](O)[C@H](OCCN=[N+]=[N-])O[C@@H]3CO)[C@H](O)[C@@H](O)[C@H]2O)(C(=O)O)O[C@H]1C(O)[C@H](O)CNC(=O)OCc1cn(COCc2ccccc2)nn1
REMARK SMILES IDX 43 1 42 2 9 3 8 4 41 5 6 6 5 7 10 8 11 9 12 10 14 11 13 12
REMARK SMILES IDX 32 13 34 14 36 15 15 16 16 17 29 18 28 19 21 20 17 21 19 22
REMARK SMILES IDX 30 23 31 24 22 26 23 27 24 28 25 29 26 30 27 31 18 32 20 34
REMARK SMILES IDX 33 36 35 38 37 40 38 42 39 43 40 44 7 46 4 48 2 49 1 51 3 52
REMARK SMILES IDX 44 53 45 55 46 56 47 58 48 59 49 60 50 62 51 63 52 64 53 65
REMARK SMILES IDX 54 66 66 67 55 68 65 69 56 70 57 71 58 72 59 73 60 74 64 75
REMARK SMILES IDX 61 76 63 77 62 78
REMARK H PARENT 31 25 18 33 20 35 33 37 35 39 37 41 40 45 7 47 4 50 44 54
REMARK H PARENT 46 57 48 61
REMARK Flexibility Score: inf
ROOT
ATOM      1  C   UNL     1      28.099  30.896  17.530  1.00  0.00     0.176 C 
ENDROOT
BRANCH   1   2
ATOM      2  C   UNL     1      28.891  32.208  17.339  1.00  0.00     0.178 C 
ATOM      3  C   UNL     1      29.220  33.746  15.627  1.00  0.00     0.272 C 
ATOM      4  C   UNL     1      30.695  33.833  16.004  1.00  0.00     0.113 C 
ATOM      5  O   UNL     1      28.823  32.492  15.974  1.00  0.00    -0.332 OA
ATOM      6  C   UNL     1      31.176  32.485  16.486  1.00  0.00     0.145 C 
ATOM      7  C   UNL     1      30.329  32.062  17.725  1.00  0.00     0.142 C 
BRANCH   3   8
ATOM      8  O   UNL     1      29.069  33.961  14.243  1.00  0.00    -0.338 OA
BRANCH   8   9
ATOM      9  C   UNL     1      30.185  34.006  13.500  1.00  0.00     0.199 C 
BRANCH   9  10
ATOM     10  C   UNL     1      30.213  35.260  12.658  1.00  0.00     0.179 C 
ATOM     11  C   UNL     1      29.111  37.119  11.976  1.00  0.00     0.282 C 
ATOM     12  O   UNL     1      29.019  35.992  12.824  1.00  0.00    -0.341 OA
ATOM     13  C   UNL     1      30.063  38.152  12.570  1.00  0.00     0.202 C 
ATOM     14  C   UNL     1      30.881  37.396  13.628  1.00  0.00     0.179 C 
ATOM     15  C   UNL     1      31.374  36.144  12.932  1.00  0.00     0.177 C 
BRANCH  11  16
ATOM     16  O   UNL     1      27.869  37.687  11.901  1.00  0.00    -0.341 OA
BRANCH  16  17
ATOM     17  C   UNL     1      26.862  36.920  12.470  1.00  0.00     0.184 C 
ATOM     18  C   UNL     1      26.070  36.146  11.477  1.00  0.00     0.178 C 
ATOM     19  O   UNL     1      25.264  36.987  10.771  1.00  0.00    -0.341 OA
ATOM     20  C   UNL     1      24.247  37.565  11.492  1.00  0.00     0.281 C 
ATOM     21  C   UNL     1      25.998  37.796  13.310  1.00  0.00     0.180 C 
ATOM     22  C   UNL     1      24.598  37.994  12.863  1.00  0.00     0.202 C 
BRANCH  18  23
ATOM     23  C   UNL     1      25.336  35.023  12.171  1.00  0.00     0.191 C 
BRANCH  23  24
ATOM     24  O   UNL     1      26.108  34.472  13.201  1.00  0.00    -0.394 OA
ATOM     25  H   UNL     1      26.429  35.196  13.794  1.00  0.00     0.210 HD
ENDBRANCH  23  24
ENDBRANCH  18  23
BRANCH  20  26
ATOM     26  O   UNL     1      23.212  36.625  11.560  1.00  0.00    -0.350 OA
BRANCH  26  27
ATOM     27  C   UNL     1      22.190  36.846  10.673  1.00  0.00     0.169 C 
BRANCH  27  28
ATOM     28  C   UNL     1      21.893  35.514  10.006  1.00  0.00     0.119 C 
BRANCH  28  29
ATOM     29  N   UNL     1      21.751  35.641   8.573  1.00  0.00    -0.092 NA
ATOM     30  N   UNL     1      20.631  35.525   8.043  1.00  0.00     0.001 N 
ATOM     31  N   UNL     1      19.688  34.885   7.539  1.00  0.00    -0.003 NA
ENDBRANCH  28  29
ENDBRANCH  27  28
ENDBRANCH  26  27
ENDBRANCH  20  26
BRANCH  21  32
ATOM     32  O   UNL     1      25.932  37.276  14.632  1.00  0.00    -0.387 OA
ATOM     33  H   UNL     1      25.578  37.925  15.261  1.00  0.00     0.211 HD
ENDBRANCH  21  32
BRANCH  22  34
ATOM     34  O   UNL     1      24.316  39.384  12.933  1.00  0.00    -0.385 OA
ATOM     35  H   UNL     1      23.340  39.468  12.774  1.00  0.00     0.211 HD
ENDBRANCH  22  34
ENDBRANCH  16  17
ENDBRANCH  11  16
BRANCH  13  36
ATOM     36  O   UNL     1      30.991  38.604  11.632  1.00  0.00    -0.385 OA
ATOM     37  H   UNL     1      30.672  38.315  10.742  1.00  0.00     0.211 HD
ENDBRANCH  13  36
BRANCH  14  38
ATOM     38  O   UNL     1      29.962  37.026  14.601  1.00  0.00    -0.387 OA
ATOM     39  H   UNL     1      30.379  36.709  15.441  1.00  0.00     0.211 HD
ENDBRANCH  14  38
BRANCH  15  40
ATOM     40  O   UNL     1      32.404  35.529  13.626  1.00  0.00    -0.387 OA
ATOM     41  H   UNL     1      32.991  36.168  14.106  1.00  0.00     0.211 HD
ENDBRANCH  15  40
ENDBRANCH   9  10
ENDBRANCH   8   9
ENDBRANCH   3   8
BRANCH   3  42
ATOM     42  C   UNL     1      28.403  34.774  16.272  1.00  0.00     0.364 C 
ATOM     43  O   UNL     1      28.779  35.640  17.105  1.00  0.00    -0.246 OA
BRANCH  42  44
ATOM     44  O   UNL     1      27.025  34.846  15.955  1.00  0.00    -0.477 OA
ATOM     45  H   UNL     1      26.648  35.656  15.465  1.00  0.00     0.296 HD
ENDBRANCH  42  44
ENDBRANCH   3  42
BRANCH   6  46
ATOM     46  O   UNL     1      31.132  31.461  15.608  1.00  0.00    -0.391 OA
ATOM     47  H   UNL     1      30.917  31.757  14.669  1.00  0.00     0.211 HD
ENDBRANCH   6  46
BRANCH   7  48
ATOM     48  N   UNL     1      30.735  32.990  18.752  1.00  0.00    -0.348 N 
ATOM     49  C   UNL     1      30.953  32.506  20.059  1.00  0.00     0.217 C 
ATOM     50  H   UNL     1      30.860  33.983  18.542  1.00  0.00     0.163 HD
ATOM     51  C   UNL     1      31.385  33.440  21.132  1.00  0.00     0.114 C 
ATOM     52  O   UNL     1      30.789  31.275  20.335  1.00  0.00    -0.275 OA
ENDBRANCH   7  48
ENDBRANCH   1   2
BRANCH   1  53
ATOM     53  O   UNL     1      28.956  30.049  18.332  1.00  0.00    -0.388 OA
ATOM     54  H   UNL     1      28.990  29.174  17.844  1.00  0.00     0.211 HD
ENDBRANCH   1  53
BRANCH   1  55
ATOM     55  C   UNL     1      27.834  30.133  16.281  1.00  0.00     0.165 C 
BRANCH  55  56
ATOM     56  O   UNL     1      28.897  29.865  15.465  1.00  0.00    -0.388 OA
ATOM     57  H   UNL     1      28.698  29.892  14.503  1.00  0.00     0.211 HD
ENDBRANCH  55  56
BRANCH  55  58
ATOM     58  C   UNL     1      26.584  30.365  15.524  1.00  0.00     0.154 C 
BRANCH  58  59
ATOM     59  N   UNL     1      25.460  30.913  16.229  1.00  0.00    -0.319 N 
ATOM     60  C   UNL     1      24.627  30.178  17.113  1.00  0.00     0.407 C 
ATOM     61  H   UNL     1      25.217  31.922  16.118  1.00  0.00     0.167 HD
ATOM     62  O   UNL     1      24.853  28.982  17.329  1.00  0.00    -0.225 OA
BRANCH  60  63
ATOM     63  O   UNL     1      23.529  30.727  17.785  1.00  0.00    -0.443 OA
BRANCH  63  64
ATOM     64  C   UNL     1      23.549  32.103  18.171  1.00  0.00     0.294 C 
BRANCH  64  65
ATOM     65  C   UNL     1      23.501  33.017  17.008  1.00  0.00     0.120 A 
ATOM     66  C   UNL     1      22.464  33.043  16.098  1.00  0.00     0.141 A 
ATOM     67  N   UNL     1      24.381  33.941  16.603  1.00  0.00    -0.132 NA
ATOM     68  N   UNL     1      22.755  33.986  15.168  1.00  0.00    -0.226 N 
ATOM     69  N   UNL     1      23.923  34.510  15.504  1.00  0.00    -0.065 NA
BRANCH  68  70
ATOM     70  C   UNL     1      21.971  34.382  14.019  1.00  0.00     0.307 C 
BRANCH  70  71
ATOM     71  O   UNL     1      22.284  33.654  12.904  1.00  0.00    -0.355 OA
BRANCH  71  72
ATOM     72  C   UNL     1      21.310  32.696  12.674  1.00  0.00     0.198 C 
BRANCH  72  73
ATOM     73  C   UNL     1      21.964  31.340  12.635  1.00  0.00    -0.022 A 
ATOM     74  C   UNL     1      23.309  31.264  12.930  1.00  0.00     0.006 A 
ATOM     75  C   UNL     1      21.240  30.220  12.314  1.00  0.00     0.006 A 
ATOM     76  C   UNL     1      23.944  30.040  12.905  1.00  0.00     0.000 A 
ATOM     77  C   UNL     1      21.889  29.020  12.294  1.00  0.00     0.000 A 
ATOM     78  C   UNL     1      23.239  28.899  12.585  1.00  0.00     0.000 A 
ENDBRANCH  72  73
ENDBRANCH  71  72
ENDBRANCH  70  71
ENDBRANCH  68  70
ENDBRANCH  64  65
ENDBRANCH  63  64
ENDBRANCH  60  63
ENDBRANCH  58  59
ENDBRANCH  55  58
ENDBRANCH   1  55
TORSDOF 33
BEGIN_RES LYS A 131
REMARK  4 active torsions:
REMARK  status: ('A' for Active; 'I' for Inactive)
REMARK    1  A    between atoms: CA   and  CB  
REMARK    2  A    between atoms: CB   and  CG  
REMARK    3  A    between atoms: CG   and  CD  
REMARK    4  A    between atoms: CD   and  CE  
ROOT
ATOM      1  CA  LYS A 131      29.867  25.555  16.977  1.00 20.52     0.186 C 
ENDROOT
BRANCH   1   2
ATOM      2  CB  LYS A 131      28.345  25.722  17.026  1.00 20.94     0.034 C 
BRANCH   2   3
ATOM      3  CG  LYS A 131      27.601  24.403  16.888  1.00 22.96     0.005 C 
BRANCH   3   4
ATOM      4  CD  LYS A 131      26.143  24.536  17.229  1.00 24.33     0.041 C 
BRANCH   4   5
ATOM      5  CE  LYS A 131      25.563  23.159  17.534  1.00 26.91     0.338 C 
ATOM      6  NZ  LYS A 131      24.125  23.111  17.178  1.00 27.40     0.618 N 
ENDBRANCH   4   5
ENDBRANCH   3   4
ENDBRANCH   2   3
ENDBRANCH   1   2
END_RES LYS A 131
BEGIN_RES LYS A 135
REMARK  4 active torsions:
REMARK  status: ('A' for Active; 'I' for Inactive)
REMARK    5  A    between atoms: CA   and  CB  
REMARK    6  A    between atoms: CB   and  CG  
REMARK    7  A    between atoms: CG   and  CD  
REMARK    8  A    between atoms: CD   and  CE  
ROOT
ATOM      7  CA  LYS A 135      33.193  34.663   9.290  1.00 25.02     0.186 C 
ENDROOT
BRANCH   7   8
ATOM      8  CB  LYS A 135      32.060  35.360  10.034  1.00 26.63     0.034 C 
BRANCH   8   9
ATOM      9  CG  LYS A 135      30.806  35.516   9.213  1.00 29.45     0.005 C 
BRANCH   9  10
ATOM     10  CD  LYS A 135      30.162  34.162   8.954  1.00 32.00     0.041 C 
BRANCH  10  11
ATOM     11  CE  LYS A 135      28.734  34.146   9.463  1.00 34.25     0.338 C 
ATOM     12  NZ  LYS A 135      27.781  34.570   8.400  1.00 35.99     0.618 N 
ENDBRANCH  10  11
ENDBRANCH   9  10
ENDBRANCH   8   9
ENDBRANCH   7   8
END_RES LYS A 135
