REMARK VINA RESULT:    -5.494      2.585      8.490
REMARK INTER + INTRA:         -25.675
REMARK INTER:                 -14.686
REMARK INTRA:                 -10.989
REMARK UNBOUND:               -11.349
REMARK SMILES CC(=O)N[C@@H]1[C@@H](O)C[C@](OC[C@H]2O[C@@H](O[C@H]3[C@H](O)[C@@H](O)[C@H](OCCN=[N+]=[N-])O[C@@H]3CO)[C@H](O)[C@@H](O)[C@H]2O)(C(=O)O)O[C@H]1C(O)[C@H](O)CNC(=O)OCc1cn(-c2ccc(-c3c4ccc(=O)cc-4oc4cc(O)ccc34)c(C(=O)[O-])c2)nn1
REMARK SMILES IDX 9 1 8 2 6 3 5 4 42 5 41 6 10 7 11 8 12 9 14 10 13 11 32 12
REMARK SMILES IDX 34 13 36 14 15 15 16 16 29 17 28 18 21 19 17 20 19 21 30 22
REMARK SMILES IDX 31 23 22 25 23 26 24 27 25 28 26 29 27 30 18 31 20 33 33 35
REMARK SMILES IDX 35 37 37 39 38 41 39 42 40 43 7 45 43 47 44 48 45 50 46 51
REMARK SMILES IDX 47 53 48 54 49 55 50 57 51 58 52 59 53 60 54 61 82 62 55 63
REMARK SMILES IDX 81 64 56 65 80 66 57 67 76 68 58 69 59 70 77 71 78 72 79 73
REMARK SMILES IDX 60 74 75 75 61 76 74 77 69 78 67 79 62 80 73 81 70 82 68 83
REMARK SMILES IDX 66 84 63 85 71 86 64 87 65 88 72 89 4 91 2 92 1 94 3 95
REMARK H PARENT 31 24 18 32 20 34 33 36 35 38 37 40 40 44 7 46 44 49 46 52
REMARK H PARENT 48 56 72 90 4 93
REMARK Flexibility Score: inf
ROOT
ATOM      1  C   UNL     1      23.170  40.382   7.840  1.00  0.00     0.272 C 
ATOM      2  C   UNL     1      23.837  40.488   9.188  1.00  0.00     0.113 C 
ATOM      3  C   UNL     1      24.651  39.276   9.545  1.00  0.00     0.145 C 
ATOM      4  C   UNL     1      24.241  38.155   8.625  1.00  0.00     0.142 C 
ATOM      5  C   UNL     1      22.737  38.185   8.552  1.00  0.00     0.178 C 
ATOM      6  O   UNL     1      22.334  39.240   7.772  1.00  0.00    -0.332 OA
ENDROOT
BRANCH   1   7
ATOM      7  O   UNL     1      24.002  40.399   6.756  1.00  0.00    -0.338 OA
BRANCH   7   8
ATOM      8  C   UNL     1      24.680  41.552   6.579  1.00  0.00     0.199 C 
BRANCH   8   9
ATOM      9  C   UNL     1      25.971  41.337   5.775  1.00  0.00     0.179 C 
ATOM     10  C   UNL     1      28.250  41.665   5.885  1.00  0.00     0.282 C 
ATOM     11  O   UNL     1      26.995  42.094   6.213  1.00  0.00    -0.341 OA
ATOM     12  C   UNL     1      28.348  40.880   4.636  1.00  0.00     0.202 C 
ATOM     13  C   UNL     1      27.351  39.747   4.573  1.00  0.00     0.179 C 
ATOM     14  C   UNL     1      26.318  39.897   5.678  1.00  0.00     0.177 C 
BRANCH  10  15
ATOM     15  O   UNL     1      28.791  41.090   7.034  1.00  0.00    -0.341 OA
BRANCH  15  16
ATOM     16  C   UNL     1      30.137  41.228   7.135  1.00  0.00     0.184 C 
ATOM     17  C   UNL     1      30.784  40.090   7.862  1.00  0.00     0.178 C 
ATOM     18  O   UNL     1      32.155  40.047   7.572  1.00  0.00    -0.341 OA
ATOM     19  C   UNL     1      32.715  41.319   7.594  1.00  0.00     0.281 C 
ATOM     20  C   UNL     1      30.554  42.478   7.931  1.00  0.00     0.180 C 
ATOM     21  C   UNL     1      31.958  42.265   8.456  1.00  0.00     0.202 C 
BRANCH  17  22
ATOM     22  C   UNL     1      30.172  38.788   7.445  1.00  0.00     0.191 C 
BRANCH  22  23
ATOM     23  O   UNL     1      30.375  38.614   6.075  1.00  0.00    -0.394 OA
ATOM     24  H   UNL     1      30.234  39.490   5.653  1.00  0.00     0.210 HD
ENDBRANCH  22  23
ENDBRANCH  17  22
BRANCH  19  25
ATOM     25  O   UNL     1      32.890  41.812   6.318  1.00  0.00    -0.350 OA
BRANCH  25  26
ATOM     26  C   UNL     1      33.848  41.136   5.572  1.00  0.00     0.169 C 
BRANCH  26  27
ATOM     27  C   UNL     1      35.142  41.220   6.361  1.00  0.00     0.119 C 
BRANCH  27  28
ATOM     28  N   UNL     1      36.124  40.284   5.882  1.00  0.00    -0.092 NA
ATOM     29  N   UNL     1      35.809  39.091   5.784  1.00  0.00     0.001 N 
ATOM     30  N   UNL     1      35.642  37.941   5.377  1.00  0.00    -0.003 NA
ENDBRANCH  27  28
ENDBRANCH  26  27
ENDBRANCH  25  26
ENDBRANCH  19  25
BRANCH  20  31
ATOM     31  O   UNL     1      30.604  43.525   7.015  1.00  0.00    -0.387 OA
ATOM     32  H   UNL     1      29.777  44.053   6.970  1.00  0.00     0.211 HD
ENDBRANCH  20  31
BRANCH  21  33
ATOM     33  O   UNL     1      31.987  41.906   9.804  1.00  0.00    -0.385 OA
ATOM     34  H   UNL     1      31.045  42.043  10.133  1.00  0.00     0.211 HD
ENDBRANCH  21  33
ENDBRANCH  15  16
ENDBRANCH  10  15
BRANCH  12  35
ATOM     35  O   UNL     1      28.175  41.720   3.507  1.00  0.00    -0.385 OA
ATOM     36  H   UNL     1      28.394  42.661   3.780  1.00  0.00     0.211 HD
ENDBRANCH  12  35
BRANCH  13  37
ATOM     37  O   UNL     1      27.961  38.504   4.572  1.00  0.00    -0.387 OA
ATOM     38  H   UNL     1      27.797  38.086   5.449  1.00  0.00     0.211 HD
ENDBRANCH  13  37
BRANCH  14  39
ATOM     39  O   UNL     1      26.855  39.348   6.835  1.00  0.00    -0.387 OA
ATOM     40  H   UNL     1      26.945  38.368   6.650  1.00  0.00     0.211 HD
ENDBRANCH  14  39
ENDBRANCH   8   9
ENDBRANCH   7   8
ENDBRANCH   1   7
BRANCH   1  41
ATOM     41  C   UNL     1      22.168  41.521   7.819  1.00  0.00     0.364 C 
ATOM     42  O   UNL     1      22.144  42.432   8.667  1.00  0.00    -0.246 OA
BRANCH  41  43
ATOM     43  O   UNL     1      21.210  41.582   6.812  1.00  0.00    -0.477 OA
ATOM     44  H   UNL     1      21.284  41.003   5.987  1.00  0.00     0.296 HD
ENDBRANCH  41  43
ENDBRANCH   1  41
BRANCH   3  45
ATOM     45  O   UNL     1      25.995  39.593   9.492  1.00  0.00    -0.391 OA
ATOM     46  H   UNL     1      26.066  40.575   9.396  1.00  0.00     0.211 HD
ENDBRANCH   3  45
BRANCH   5  47
ATOM     47  C   UNL     1      22.207  36.923   7.865  1.00  0.00     0.176 C 
BRANCH  47  48
ATOM     48  O   UNL     1      22.528  37.018   6.489  1.00  0.00    -0.388 OA
ATOM     49  H   UNL     1      21.918  37.593   6.001  1.00  0.00     0.211 HD
ENDBRANCH  47  48
BRANCH  47  50
ATOM     50  C   UNL     1      20.716  36.863   7.932  1.00  0.00     0.165 C 
BRANCH  50  51
ATOM     51  O   UNL     1      20.258  37.615   9.016  1.00  0.00    -0.388 OA
ATOM     52  H   UNL     1      20.166  38.559   8.727  1.00  0.00     0.211 HD
ENDBRANCH  50  51
BRANCH  50  53
ATOM     53  C   UNL     1      20.124  35.498   7.937  1.00  0.00     0.154 C 
BRANCH  53  54
ATOM     54  N   UNL     1      20.335  34.815   9.194  1.00  0.00    -0.319 N 
ATOM     55  C   UNL     1      19.300  34.428  10.077  1.00  0.00     0.407 C 
ATOM     56  H   UNL     1      21.315  34.561   9.526  1.00  0.00     0.167 HD
ATOM     57  O   UNL     1      18.112  34.672   9.789  1.00  0.00    -0.225 OA
BRANCH  55  58
ATOM     58  O   UNL     1      19.541  33.775  11.279  1.00  0.00    -0.443 OA
BRANCH  58  59
ATOM     59  C   UNL     1      19.692  34.482  12.515  1.00  0.00     0.294 C 
BRANCH  59  60
ATOM     60  C   UNL     1      20.946  35.265  12.386  1.00  0.00     0.121 A 
ATOM     61  C   UNL     1      22.208  34.865  12.728  1.00  0.00     0.144 A 
ATOM     62  N   UNL     1      21.079  36.533  11.900  1.00  0.00    -0.131 NA
ATOM     63  N   UNL     1      23.077  35.862  12.458  1.00  0.00    -0.220 N 
ATOM     64  N   UNL     1      22.356  36.861  11.955  1.00  0.00    -0.062 NA
BRANCH  63  65
ATOM     65  C   UNL     1      24.479  35.822  12.674  1.00  0.00     0.067 A 
ATOM     66  C   UNL     1      25.092  36.584  13.640  1.00  0.00     0.039 A 
ATOM     67  C   UNL     1      25.244  34.990  11.895  1.00  0.00     0.029 A 
ATOM     68  C   UNL     1      26.454  36.505  13.813  1.00  0.00     0.007 A 
ATOM     69  C   UNL     1      26.609  34.913  12.071  1.00  0.00     0.012 A 
ATOM     70  C   UNL     1      27.244  35.666  13.030  1.00  0.00    -0.008 A 
BRANCH  68  71
ATOM     71  C   UNL     1      27.139  37.303  14.833  1.00  0.00     0.072 C 
ATOM     72  O   UNL     1      27.512  38.481  14.616  1.00  0.00    -0.545 OA
ATOM     73  O   UNL     1      27.384  36.749  16.065  1.00  0.00    -0.545 OA
ENDBRANCH  68  71
BRANCH  70  74
ATOM     74  C   UNL     1      28.680  35.590  13.226  1.00  0.00     0.004 A 
ATOM     75  C   UNL     1      29.189  34.610  14.041  1.00  0.00     0.026 A 
ATOM     76  C   UNL     1      29.547  36.466  12.624  1.00  0.00     0.026 A 
ATOM     77  C   UNL     1      28.396  33.689  14.685  1.00  0.00     0.016 A 
ATOM     78  C   UNL     1      30.566  34.552  14.220  1.00  0.00     0.139 A 
ATOM     79  C   UNL     1      31.006  36.364  12.846  1.00  0.00     0.139 A 
ATOM     80  C   UNL     1      29.113  37.470  11.797  1.00  0.00     0.016 A 
ATOM     81  C   UNL     1      28.918  32.705  15.505  1.00  0.00     0.047 A 
ATOM     82  C   UNL     1      31.078  33.573  15.036  1.00  0.00     0.093 A 
ATOM     83  O   UNL     1      31.393  35.399  13.638  1.00  0.00    -0.456 OA
ATOM     84  C   UNL     1      31.869  37.243  12.242  1.00  0.00     0.099 A 
ATOM     85  C   UNL     1      29.996  38.350  11.195  1.00  0.00     0.053 A 
ATOM     86  C   UNL     1      30.282  32.641  15.688  1.00  0.00     0.119 A 
ATOM     87  C   UNL     1      31.354  38.222  11.426  1.00  0.00     0.182 A 
ATOM     88  O   UNL     1      32.105  39.053  10.849  1.00  0.00    -0.290 OA
BRANCH  86  89
ATOM     89  O   UNL     1      30.798  31.651  16.511  1.00  0.00    -0.508 OA
ATOM     90  H   UNL     1      31.445  30.995  16.081  1.00  0.00     0.293 HD
ENDBRANCH  86  89
ENDBRANCH  70  74
ENDBRANCH  63  65
ENDBRANCH  59  60
ENDBRANCH  58  59
ENDBRANCH  55  58
ENDBRANCH  53  54
ENDBRANCH  50  53
ENDBRANCH  47  50
ENDBRANCH   5  47
BRANCH   4  91
ATOM     91  N   UNL     1      24.740  36.868   9.060  1.00  0.00    -0.348 N 
ATOM     92  C   UNL     1      25.703  36.214   8.266  1.00  0.00     0.217 C 
ATOM     93  H   UNL     1      24.422  36.397   9.935  1.00  0.00     0.163 HD
ATOM     94  C   UNL     1      26.283  34.893   8.614  1.00  0.00     0.114 C 
ATOM     95  O   UNL     1      26.134  36.738   7.181  1.00  0.00    -0.275 OA
ENDBRANCH   4  91
TORSDOF 33
BEGIN_RES LYS A 131
REMARK  4 active torsions:
REMARK  status: ('A' for Active; 'I' for Inactive)
REMARK    1  A    between atoms: CA   and  CB  
REMARK    2  A    between atoms: CB   and  CG  
REMARK    3  A    between atoms: CG   and  CD  
REMARK    4  A    between atoms: CD   and  CE  
ROOT
ATOM      1  CA  LYS A 131      29.867  25.555  16.977  1.00 20.52     0.186 C 
ENDROOT
BRANCH   1   2
ATOM      2  CB  LYS A 131      28.345  25.722  17.026  1.00 20.94     0.034 C 
BRANCH   2   3
ATOM      3  CG  LYS A 131      27.602  24.399  16.920  1.00 22.96     0.005 C 
BRANCH   3   4
ATOM      4  CD  LYS A 131      26.165  24.521  17.345  1.00 24.33     0.041 C 
BRANCH   4   5
ATOM      5  CE  LYS A 131      25.870  23.502  18.442  1.00 26.91     0.338 C 
ATOM      6  NZ  LYS A 131      25.468  24.188  19.693  1.00 27.40     0.618 N 
ENDBRANCH   4   5
ENDBRANCH   3   4
ENDBRANCH   2   3
ENDBRANCH   1   2
END_RES LYS A 131
BEGIN_RES LYS A 135
REMARK  4 active torsions:
REMARK  status: ('A' for Active; 'I' for Inactive)
REMARK    5  A    between atoms: CA   and  CB  
REMARK    6  A    between atoms: CB   and  CG  
REMARK    7  A    between atoms: CG   and  CD  
REMARK    8  A    between atoms: CD   and  CE  
ROOT
ATOM      7  CA  LYS A 135      33.193  34.663   9.290  1.00 25.02     0.186 C 
ENDROOT
BRANCH   7   8
ATOM      8  CB  LYS A 135      32.060  35.360  10.034  1.00 26.63     0.034 C 
BRANCH   8   9
ATOM      9  CG  LYS A 135      30.703  34.767   9.757  1.00 29.45     0.005 C 
BRANCH   9  10
ATOM     10  CD  LYS A 135      29.964  35.585   8.709  1.00 32.00     0.041 C 
BRANCH  10  11
ATOM     11  CE  LYS A 135      29.684  34.745   7.477  1.00 34.25     0.338 C 
ATOM     12  NZ  LYS A 135      29.037  35.557   6.410  1.00 35.99     0.618 N 
ENDBRANCH  10  11
ENDBRANCH   9  10
ENDBRANCH   8   9
ENDBRANCH   7   8
END_RES LYS A 135
