REMARK VINA RESULT:    -4.721      3.376     11.142
REMARK INTER + INTRA:         -25.345
REMARK INTER:                 -12.212
REMARK INTRA:                 -13.133
REMARK UNBOUND:               -11.931
REMARK SMILES CC(=O)N[C@@H]1[C@@H](O)C[C@](OC[C@H]2O[C@@H](O[C@H]3[C@H](O)[C@@H](O)[C@H](OCCN=[N+]=[N-])O[C@@H]3CO)[C@H](O)[C@@H](O)[C@H]2O)(C(=O)O)O[C@H]1C(O)[C@H](O)CNC(=O)OCc1cn(CC(=O)NCC(O)Cn2ccnc2[N+](=O)[O-])nn1
REMARK SMILES IDX 47 1 45 2 43 3 42 4 9 5 8 6 41 7 6 8 5 9 10 10 11 11 12 12
REMARK SMILES IDX 14 13 13 14 32 15 34 16 36 17 15 18 16 19 29 20 28 21 21 22
REMARK SMILES IDX 17 23 19 24 30 25 31 26 22 28 23 29 24 30 25 31 26 32 27 33
REMARK SMILES IDX 18 34 20 36 33 38 35 40 37 42 38 44 39 45 40 46 7 48 4 50
REMARK SMILES IDX 2 51 1 53 3 54 44 55 46 57 48 59 49 60 50 62 51 63 52 64
REMARK SMILES IDX 53 65 54 66 73 67 55 68 72 69 56 70 57 71 58 72 59 73 60 75
REMARK SMILES IDX 61 76 62 77 63 79 64 80 65 81 68 82 66 83 67 84 69 85 70 86
REMARK SMILES IDX 71 87
REMARK H PARENT 31 27 18 35 20 37 33 39 35 41 37 43 40 47 7 49 4 52 44 56
REMARK H PARENT 46 58 48 61 59 74 62 78
REMARK Flexibility Score: inf
ROOT
ATOM      1  C   UNL     1      27.254  39.144   6.251  1.00  0.00     0.154 C 
ENDROOT
BRANCH   1   2
ATOM      2  C   UNL     1      26.017  39.021   7.077  1.00  0.00     0.165 C 
BRANCH   2   3
ATOM      3  C   UNL     1      25.888  37.786   7.888  1.00  0.00     0.176 C 
BRANCH   3   4
ATOM      4  C   UNL     1      24.566  37.404   8.412  1.00  0.00     0.178 C 
ATOM      5  C   UNL     1      22.548  38.140   9.301  1.00  0.00     0.272 C 
ATOM      6  C   UNL     1      22.118  36.805   8.803  1.00  0.00     0.113 C 
ATOM      7  O   UNL     1      23.865  38.471   8.933  1.00  0.00    -0.332 OA
ATOM      8  C   UNL     1      23.045  35.683   9.133  1.00  0.00     0.145 C 
ATOM      9  C   UNL     1      24.482  36.243   9.329  1.00  0.00     0.142 C 
BRANCH   5  10
ATOM     10  O   UNL     1      22.425  38.370  10.640  1.00  0.00    -0.338 OA
BRANCH  10  11
ATOM     11  C   UNL     1      21.334  37.866  11.275  1.00  0.00     0.199 C 
BRANCH  11  12
ATOM     12  C   UNL     1      21.654  37.296  12.643  1.00  0.00     0.179 C 
ATOM     13  C   UNL     1      22.009  35.272  13.744  1.00  0.00     0.282 C 
ATOM     14  O   UNL     1      21.297  36.003  12.800  1.00  0.00    -0.341 OA
ATOM     15  C   UNL     1      22.390  36.115  14.936  1.00  0.00     0.202 C 
ATOM     16  C   UNL     1      23.199  37.323  14.524  1.00  0.00     0.179 C 
ATOM     17  C   UNL     1      23.088  37.539  13.027  1.00  0.00     0.177 C 
BRANCH  13  18
ATOM     18  O   UNL     1      23.104  34.652  13.258  1.00  0.00    -0.341 OA
BRANCH  18  19
ATOM     19  C   UNL     1      23.403  33.380  13.566  1.00  0.00     0.184 C 
ATOM     20  C   UNL     1      24.859  33.012  13.654  1.00  0.00     0.178 C 
ATOM     21  O   UNL     1      24.918  31.830  14.398  1.00  0.00    -0.341 OA
ATOM     22  C   UNL     1      24.397  30.759  13.681  1.00  0.00     0.281 C 
ATOM     23  C   UNL     1      22.828  32.377  12.554  1.00  0.00     0.180 C 
ATOM     24  C   UNL     1      23.007  31.012  13.180  1.00  0.00     0.202 C 
BRANCH  20  25
ATOM     25  C   UNL     1      25.607  34.058  14.428  1.00  0.00     0.191 C 
BRANCH  25  26
ATOM     26  O   UNL     1      25.989  35.132  13.613  1.00  0.00    -0.394 OA
ATOM     27  H   UNL     1      25.523  34.956  12.735  1.00  0.00     0.210 HD
ENDBRANCH  25  26
ENDBRANCH  20  25
BRANCH  22  28
ATOM     28  O   UNL     1      24.338  29.672  14.550  1.00  0.00    -0.350 OA
BRANCH  28  29
ATOM     29  C   UNL     1      23.737  30.021  15.760  1.00  0.00     0.169 C 
BRANCH  29  30
ATOM     30  C   UNL     1      23.804  28.771  16.641  1.00  0.00     0.119 C 
BRANCH  30  31
ATOM     31  N   UNL     1      22.787  27.815  16.237  1.00  0.00    -0.092 NA
ATOM     32  N   UNL     1      23.058  26.607  16.401  1.00  0.00     0.001 N 
ATOM     33  N   UNL     1      23.136  25.450  16.796  1.00  0.00    -0.003 NA
ENDBRANCH  30  31
ENDBRANCH  29  30
ENDBRANCH  28  29
ENDBRANCH  22  28
BRANCH  23  34
ATOM     34  O   UNL     1      21.461  32.565  12.380  1.00  0.00    -0.387 OA
ATOM     35  H   UNL     1      21.279  32.254  11.437  1.00  0.00     0.211 HD
ENDBRANCH  23  34
BRANCH  24  36
ATOM     36  O   UNL     1      22.665  29.973  12.316  1.00  0.00    -0.385 OA
ATOM     37  H   UNL     1      21.665  29.927  12.271  1.00  0.00     0.211 HD
ENDBRANCH  24  36
ENDBRANCH  18  19
ENDBRANCH  13  18
BRANCH  15  38
ATOM     38  O   UNL     1      21.267  36.482  15.689  1.00  0.00    -0.385 OA
ATOM     39  H   UNL     1      20.482  36.101  15.183  1.00  0.00     0.211 HD
ENDBRANCH  15  38
BRANCH  16  40
ATOM     40  O   UNL     1      24.548  37.146  14.817  1.00  0.00    -0.387 OA
ATOM     41  H   UNL     1      24.770  37.419  15.755  1.00  0.00     0.211 HD
ENDBRANCH  16  40
BRANCH  17  42
ATOM     42  O   UNL     1      24.004  36.829  12.287  1.00  0.00    -0.387 OA
ATOM     43  H   UNL     1      24.866  36.689  12.767  1.00  0.00     0.211 HD
ENDBRANCH  17  42
ENDBRANCH  11  12
ENDBRANCH  10  11
ENDBRANCH   5  10
BRANCH   5  44
ATOM     44  C   UNL     1      21.730  39.162   8.549  1.00  0.00     0.364 C 
ATOM     45  O   UNL     1      22.319  40.195   8.182  1.00  0.00    -0.246 OA
BRANCH  44  46
ATOM     46  O   UNL     1      20.395  38.999   8.263  1.00  0.00    -0.477 OA
ATOM     47  H   UNL     1      19.679  39.127   9.001  1.00  0.00     0.296 HD
ENDBRANCH  44  46
ENDBRANCH   5  44
BRANCH   8  48
ATOM     48  O   UNL     1      22.704  34.874  10.168  1.00  0.00    -0.391 OA
ATOM     49  H   UNL     1      22.043  35.213  10.789  1.00  0.00     0.211 HD
ENDBRANCH   8  48
BRANCH   9  50
ATOM     50  N   UNL     1      25.370  35.162   9.115  1.00  0.00    -0.348 N 
ATOM     51  C   UNL     1      26.446  34.889  10.034  1.00  0.00     0.217 C 
ATOM     52  H   UNL     1      25.272  34.531   8.310  1.00  0.00     0.163 HD
ATOM     53  C   UNL     1      27.395  33.764   9.823  1.00  0.00     0.114 C 
ATOM     54  O   UNL     1      26.570  35.635  11.028  1.00  0.00    -0.275 OA
ENDBRANCH   9  50
ENDBRANCH   3   4
BRANCH   3  55
ATOM     55  O   UNL     1      26.859  37.865   8.918  1.00  0.00    -0.388 OA
ATOM     56  H   UNL     1      26.756  38.728   9.350  1.00  0.00     0.211 HD
ENDBRANCH   3  55
ENDBRANCH   2   3
BRANCH   2  57
ATOM     57  O   UNL     1      24.887  39.466   6.435  1.00  0.00    -0.388 OA
ATOM     58  H   UNL     1      24.974  39.625   5.477  1.00  0.00     0.211 HD
ENDBRANCH   2  57
ENDBRANCH   1   2
BRANCH   1  59
ATOM     59  N   UNL     1      28.319  39.729   7.019  1.00  0.00    -0.319 N 
ATOM     60  C   UNL     1      29.687  39.623   6.663  1.00  0.00     0.407 C 
ATOM     61  H   UNL     1      28.106  40.275   7.905  1.00  0.00     0.167 HD
ATOM     62  O   UNL     1      30.001  39.003   5.626  1.00  0.00    -0.225 OA
BRANCH  60  63
ATOM     63  O   UNL     1      30.723  40.165   7.394  1.00  0.00    -0.443 OA
BRANCH  63  64
ATOM     64  C   UNL     1      31.633  39.365   8.102  1.00  0.00     0.294 C 
BRANCH  64  65
ATOM     65  C   UNL     1      31.179  38.836   9.387  1.00  0.00     0.120 A 
ATOM     66  C   UNL     1      31.921  38.234  10.371  1.00  0.00     0.138 A 
ATOM     67  N   UNL     1      29.918  38.828   9.849  1.00  0.00    -0.132 NA
ATOM     68  N   UNL     1      31.101  37.882  11.388  1.00  0.00    -0.243 N 
ATOM     69  N   UNL     1      29.901  38.245  11.059  1.00  0.00    -0.067 NA
BRANCH  68  70
ATOM     70  C   UNL     1      31.502  37.239  12.634  1.00  0.00     0.245 C 
BRANCH  70  71
ATOM     71  C   UNL     1      30.624  37.711  13.724  1.00  0.00     0.241 C 
ATOM     72  O   UNL     1      31.046  38.537  14.603  1.00  0.00    -0.273 OA
ATOM     73  N   UNL     1      29.269  37.288  13.865  1.00  0.00    -0.352 N 
ATOM     74  H   UNL     1      28.880  36.619  13.178  1.00  0.00     0.163 HD
BRANCH  73  75
ATOM     75  C   UNL     1      28.484  37.809  14.968  1.00  0.00     0.151 C 
BRANCH  75  76
ATOM     76  C   UNL     1      27.839  36.724  15.773  1.00  0.00     0.168 C 
BRANCH  76  77
ATOM     77  O   UNL     1      26.974  37.219  16.733  1.00  0.00    -0.388 OA
ATOM     78  H   UNL     1      26.056  37.116  16.388  1.00  0.00     0.211 HD
ENDBRANCH  76  77
BRANCH  76  79
ATOM     79  C   UNL     1      28.953  35.916  16.421  1.00  0.00     0.239 C 
BRANCH  79  80
ATOM     80  N   UNL     1      28.730  34.505  16.293  1.00  0.00    -0.227 N 
ATOM     81  C   UNL     1      28.182  33.717  17.256  1.00  0.00     0.204 A 
ATOM     82  C   UNL     1      29.009  33.669  15.262  1.00  0.00     0.434 A 
ATOM     83  C   UNL     1      28.133  32.420  16.807  1.00  0.00     0.245 A 
ATOM     84  N   UNL     1      28.645  32.411  15.581  1.00  0.00    -0.074 NA
BRANCH  82  85
ATOM     85  N   UNL     1      29.587  34.064  14.019  1.00  0.00    -0.047 N 
ATOM     86  O   UNL     1      28.940  34.482  13.059  1.00  0.00    -0.390 OA
ATOM     87  O   UNL     1      30.965  33.963  13.877  1.00  0.00    -0.390 OA
ENDBRANCH  82  85
ENDBRANCH  79  80
ENDBRANCH  76  79
ENDBRANCH  75  76
ENDBRANCH  73  75
ENDBRANCH  70  71
ENDBRANCH  68  70
ENDBRANCH  64  65
ENDBRANCH  63  64
ENDBRANCH  60  63
ENDBRANCH   1  59
TORSDOF 37
BEGIN_RES LYS A 131
REMARK  4 active torsions:
REMARK  status: ('A' for Active; 'I' for Inactive)
REMARK    1  A    between atoms: CA   and  CB  
REMARK    2  A    between atoms: CB   and  CG  
REMARK    3  A    between atoms: CG   and  CD  
REMARK    4  A    between atoms: CD   and  CE  
ROOT
ATOM      1  CA  LYS A 131      29.867  25.555  16.977  1.00 20.52     0.186 C 
ENDROOT
BRANCH   1   2
ATOM      2  CB  LYS A 131      28.345  25.722  17.026  1.00 20.94     0.034 C 
BRANCH   2   3
ATOM      3  CG  LYS A 131      27.599  24.483  16.556  1.00 22.96     0.005 C 
BRANCH   3   4
ATOM      4  CD  LYS A 131      27.339  23.518  17.679  1.00 24.33     0.041 C 
BRANCH   4   5
ATOM      5  CE  LYS A 131      25.839  23.267  17.799  1.00 26.91     0.338 C 
ATOM      6  NZ  LYS A 131      25.419  23.301  19.219  1.00 27.40     0.618 N 
ENDBRANCH   4   5
ENDBRANCH   3   4
ENDBRANCH   2   3
ENDBRANCH   1   2
END_RES LYS A 131
BEGIN_RES LYS A 135
REMARK  4 active torsions:
REMARK  status: ('A' for Active; 'I' for Inactive)
REMARK    5  A    between atoms: CA   and  CB  
REMARK    6  A    between atoms: CB   and  CG  
REMARK    7  A    between atoms: CG   and  CD  
REMARK    8  A    between atoms: CD   and  CE  
ROOT
ATOM      7  CA  LYS A 135      33.193  34.663   9.290  1.00 25.02     0.186 C 
ENDROOT
BRANCH   7   8
ATOM      8  CB  LYS A 135      32.060  35.360  10.034  1.00 26.63     0.034 C 
BRANCH   8   9
ATOM      9  CG  LYS A 135      30.702  34.773   9.750  1.00 29.45     0.005 C 
BRANCH   9  10
ATOM     10  CD  LYS A 135      30.426  34.756   8.254  1.00 32.00     0.041 C 
BRANCH  10  11
ATOM     11  CE  LYS A 135      29.538  35.922   7.863  1.00 34.25     0.338 C 
ATOM     12  NZ  LYS A 135      28.668  35.569   6.707  1.00 35.99     0.618 N 
ENDBRANCH  10  11
ENDBRANCH   9  10
ENDBRANCH   8   9
ENDBRANCH   7   8
END_RES LYS A 135
