REMARK VINA RESULT:    -5.333      4.229     10.095
REMARK INTER + INTRA:         -21.353
REMARK INTER:                  -8.959
REMARK INTRA:                 -12.394
REMARK UNBOUND:                -8.226
REMARK SMILES CC(=O)N[C@@H]1[C@@H](O)C[C@](OC[C@H]2O[C@@H](O[C@H]3[C@H](O)[C@@H](O)[C@H](OCCN=[N+]=[N-])O[C@@H]3CO)[C@H](O)[C@@H](O)[C@H]2O)(C(=O)O)O[C@H]1C(O)[C@H](O)CNC(=O)OCc1cn(-c2ccccc2Br)nn1
REMARK SMILES IDX 9 1 8 2 6 3 5 4 42 5 41 6 10 7 11 8 12 9 14 10 13 11 32 12
REMARK SMILES IDX 34 13 36 14 15 15 16 16 29 17 28 18 21 19 17 20 19 21 30 22
REMARK SMILES IDX 31 23 22 25 23 26 24 27 25 28 26 29 27 30 18 31 20 33 33 35
REMARK SMILES IDX 35 37 37 39 38 41 39 42 40 43 7 45 43 47 44 48 45 50 46 51
REMARK SMILES IDX 47 53 48 54 49 55 50 57 51 58 52 59 53 60 54 61 64 62 55 63
REMARK SMILES IDX 63 64 56 65 57 66 61 67 58 68 60 69 62 70 59 71 4 72 2 73
REMARK SMILES IDX 1 75 3 76
REMARK H PARENT 31 24 18 32 20 34 33 36 35 38 37 40 40 44 7 46 44 49 46 52
REMARK H PARENT 48 56 4 74
REMARK Flexibility Score: inf
ROOT
ATOM      1  C   UNL     1      29.786  32.726  18.496  1.00  0.00     0.272 C 
ATOM      2  C   UNL     1      30.700  31.646  18.939  1.00  0.00     0.113 C 
ATOM      3  C   UNL     1      29.989  30.602  19.737  1.00  0.00     0.145 C 
ATOM      4  C   UNL     1      28.678  30.156  19.196  1.00  0.00     0.142 C 
ATOM      5  C   UNL     1      28.172  31.057  18.125  1.00  0.00     0.178 C 
ATOM      6  O   UNL     1      28.485  32.372  18.211  1.00  0.00    -0.332 OA
ENDROOT
BRANCH   1   7
ATOM      7  O   UNL     1      30.197  33.433  17.381  1.00  0.00    -0.338 OA
BRANCH   7   8
ATOM      8  C   UNL     1      31.512  33.399  17.065  1.00  0.00     0.199 C 
BRANCH   8   9
ATOM      9  C   UNL     1      31.664  34.094  15.689  1.00  0.00     0.179 C 
ATOM     10  C   UNL     1      30.319  34.619  13.884  1.00  0.00     0.282 C 
ATOM     11  O   UNL     1      30.724  33.699  14.815  1.00  0.00    -0.341 OA
ATOM     12  C   UNL     1      31.456  35.466  13.360  1.00  0.00     0.202 C 
ATOM     13  C   UNL     1      32.183  36.156  14.494  1.00  0.00     0.179 C 
ATOM     14  C   UNL     1      31.797  35.557  15.833  1.00  0.00     0.177 C 
BRANCH  10  15
ATOM     15  O   UNL     1      29.242  35.382  14.310  1.00  0.00    -0.341 OA
BRANCH  15  16
ATOM     16  C   UNL     1      28.015  34.923  13.890  1.00  0.00     0.184 C 
ATOM     17  C   UNL     1      27.252  35.894  13.023  1.00  0.00     0.178 C 
ATOM     18  O   UNL     1      26.282  35.154  12.364  1.00  0.00    -0.341 OA
ATOM     19  C   UNL     1      25.415  34.486  13.168  1.00  0.00     0.281 C 
ATOM     20  C   UNL     1      27.090  34.666  15.074  1.00  0.00     0.180 C 
ATOM     21  C   UNL     1      25.725  34.378  14.602  1.00  0.00     0.202 C 
BRANCH  17  22
ATOM     22  C   UNL     1      28.085  36.624  12.022  1.00  0.00     0.191 C 
BRANCH  22  23
ATOM     23  O   UNL     1      28.745  37.672  12.658  1.00  0.00    -0.394 OA
ATOM     24  H   UNL     1      29.268  37.329  13.403  1.00  0.00     0.210 HD
ENDBRANCH  22  23
ENDBRANCH  17  22
BRANCH  19  25
ATOM     25  O   UNL     1      25.308  33.179  12.637  1.00  0.00    -0.350 OA
BRANCH  25  26
ATOM     26  C   UNL     1      24.378  32.405  13.271  1.00  0.00     0.169 C 
BRANCH  26  27
ATOM     27  C   UNL     1      24.603  30.928  13.188  1.00  0.00     0.119 C 
BRANCH  27  28
ATOM     28  N   UNL     1      23.293  30.297  13.132  1.00  0.00    -0.092 NA
ATOM     29  N   UNL     1      23.059  29.311  13.816  1.00  0.00     0.001 N 
ATOM     30  N   UNL     1      22.779  28.366  14.543  1.00  0.00    -0.003 NA
ENDBRANCH  27  28
ENDBRANCH  26  27
ENDBRANCH  25  26
ENDBRANCH  19  25
BRANCH  20  31
ATOM     31  O   UNL     1      27.551  33.625  15.863  1.00  0.00    -0.387 OA
ATOM     32  H   UNL     1      28.523  33.655  16.020  1.00  0.00     0.211 HD
ENDBRANCH  20  31
BRANCH  21  33
ATOM     33  O   UNL     1      24.863  35.213  15.373  1.00  0.00    -0.385 OA
ATOM     34  H   UNL     1      25.106  36.162  15.267  1.00  0.00     0.211 HD
ENDBRANCH  21  33
ENDBRANCH  15  16
ENDBRANCH  10  15
BRANCH  12  35
ATOM     35  O   UNL     1      32.319  34.724  12.552  1.00  0.00    -0.385 OA
ATOM     36  H   UNL     1      32.862  34.092  13.085  1.00  0.00     0.211 HD
ENDBRANCH  12  35
BRANCH  13  37
ATOM     37  O   UNL     1      32.008  37.525  14.438  1.00  0.00    -0.387 OA
ATOM     38  H   UNL     1      31.752  37.881  15.312  1.00  0.00     0.211 HD
ENDBRANCH  13  37
BRANCH  14  39
ATOM     39  O   UNL     1      30.648  36.196  16.268  1.00  0.00    -0.387 OA
ATOM     40  H   UNL     1      30.243  36.774  15.577  1.00  0.00     0.211 HD
ENDBRANCH  14  39
ENDBRANCH   8   9
ENDBRANCH   7   8
ENDBRANCH   1   7
BRANCH   1  41
ATOM     41  C   UNL     1      29.650  33.663  19.683  1.00  0.00     0.364 C 
ATOM     42  O   UNL     1      28.591  33.580  20.340  1.00  0.00    -0.246 OA
BRANCH  41  43
ATOM     43  O   UNL     1      30.606  34.563  20.049  1.00  0.00    -0.477 OA
ATOM     44  H   UNL     1      30.950  35.261  19.372  1.00  0.00     0.296 HD
ENDBRANCH  41  43
ENDBRANCH   1  41
BRANCH   3  45
ATOM     45  O   UNL     1      30.867  29.506  19.904  1.00  0.00    -0.391 OA
ATOM     46  H   UNL     1      30.303  28.690  20.004  1.00  0.00     0.211 HD
ENDBRANCH   3  45
BRANCH   5  47
ATOM     47  C   UNL     1      28.361  30.441  16.739  1.00  0.00     0.176 C 
BRANCH  47  48
ATOM     48  O   UNL     1      29.042  31.254  15.868  1.00  0.00    -0.388 OA
ATOM     49  H   UNL     1      28.829  31.033  14.914  1.00  0.00     0.211 HD
ENDBRANCH  47  48
BRANCH  47  50
ATOM     50  C   UNL     1      27.007  30.095  16.097  1.00  0.00     0.165 C 
BRANCH  50  51
ATOM     51  O   UNL     1      26.163  31.154  16.311  1.00  0.00    -0.388 OA
ATOM     52  H   UNL     1      26.331  31.703  17.097  1.00  0.00     0.211 HD
ENDBRANCH  50  51
BRANCH  50  53
ATOM     53  C   UNL     1      26.464  28.833  16.682  1.00  0.00     0.154 C 
BRANCH  53  54
ATOM     54  N   UNL     1      25.049  28.868  16.830  1.00  0.00    -0.319 N 
ATOM     55  C   UNL     1      24.282  28.399  17.917  1.00  0.00     0.407 C 
ATOM     56  H   UNL     1      24.479  29.299  16.034  1.00  0.00     0.167 HD
ATOM     57  O   UNL     1      24.825  27.895  18.904  1.00  0.00    -0.225 OA
BRANCH  55  58
ATOM     58  O   UNL     1      22.891  28.497  17.898  1.00  0.00    -0.443 OA
BRANCH  58  59
ATOM     59  C   UNL     1      22.159  29.599  18.378  1.00  0.00     0.294 C 
BRANCH  59  60
ATOM     60  C   UNL     1      22.769  30.889  17.920  1.00  0.00     0.121 A 
ATOM     61  C   UNL     1      23.193  31.909  18.772  1.00  0.00     0.144 A 
ATOM     62  N   UNL     1      23.008  31.317  16.691  1.00  0.00    -0.131 NA
ATOM     63  N   UNL     1      23.667  32.899  18.002  1.00  0.00    -0.219 N 
ATOM     64  N   UNL     1      23.554  32.537  16.747  1.00  0.00    -0.062 NA
BRANCH  63  65
ATOM     65  C   UNL     1      24.200  34.133  18.449  1.00  0.00     0.081 A 
ATOM     66  C   UNL     1      25.544  34.290  18.705  1.00  0.00     0.029 A 
ATOM     67  C   UNL     1      23.376  35.210  18.636  1.00  0.00     0.043 A 
ATOM     68  C   UNL     1      26.031  35.519  19.143  1.00  0.00     0.002 A 
ATOM     69  C   UNL     1      23.850  36.425  19.069  1.00  0.00     0.018 A 
ATOM     70  Br  UNL     1      21.509  35.034  18.298  1.00  0.00    -0.048 Br
ATOM     71  C   UNL     1      25.190  36.595  19.327  1.00  0.00     0.001 A 
ENDBRANCH  63  65
ENDBRANCH  59  60
ENDBRANCH  58  59
ENDBRANCH  55  58
ENDBRANCH  53  54
ENDBRANCH  50  53
ENDBRANCH  47  50
ENDBRANCH   5  47
BRANCH   4  72
ATOM     72  N   UNL     1      27.671  29.978  20.218  1.00  0.00    -0.348 N 
ATOM     73  C   UNL     1      27.561  28.765  20.939  1.00  0.00     0.217 C 
ATOM     74  H   UNL     1      27.009  30.747  20.439  1.00  0.00     0.163 HD
ATOM     75  C   UNL     1      26.491  28.667  21.978  1.00  0.00     0.114 C 
ATOM     76  O   UNL     1      28.318  27.798  20.732  1.00  0.00    -0.275 OA
ENDBRANCH   4  72
TORSDOF 30
BEGIN_RES LYS A 131
REMARK  4 active torsions:
REMARK  status: ('A' for Active; 'I' for Inactive)
REMARK    1  A    between atoms: CA   and  CB  
REMARK    2  A    between atoms: CB   and  CG  
REMARK    3  A    between atoms: CG   and  CD  
REMARK    4  A    between atoms: CD   and  CE  
ROOT
ATOM      1  CA  LYS A 131      29.867  25.555  16.977  1.00 20.52     0.186 C 
ENDROOT
BRANCH   1   2
ATOM      2  CB  LYS A 131      28.345  25.722  17.026  1.00 20.94     0.034 C 
BRANCH   2   3
ATOM      3  CG  LYS A 131      27.599  24.475  16.577  1.00 22.96     0.005 C 
BRANCH   3   4
ATOM      4  CD  LYS A 131      27.022  23.712  17.738  1.00 24.33     0.041 C 
BRANCH   4   5
ATOM      5  CE  LYS A 131      25.711  24.359  18.171  1.00 26.91     0.338 C 
ATOM      6  NZ  LYS A 131      24.858  24.642  16.993  1.00 27.40     0.618 N 
ENDBRANCH   4   5
ENDBRANCH   3   4
ENDBRANCH   2   3
ENDBRANCH   1   2
END_RES LYS A 131
BEGIN_RES LYS A 135
REMARK  4 active torsions:
REMARK  status: ('A' for Active; 'I' for Inactive)
REMARK    5  A    between atoms: CA   and  CB  
REMARK    6  A    between atoms: CB   and  CG  
REMARK    7  A    between atoms: CG   and  CD  
REMARK    8  A    between atoms: CD   and  CE  
ROOT
ATOM      7  CA  LYS A 135      33.193  34.663   9.290  1.00 25.02     0.186 C 
ENDROOT
BRANCH   7   8
ATOM      8  CB  LYS A 135      32.060  35.360  10.034  1.00 26.63     0.034 C 
BRANCH   8   9
ATOM      9  CG  LYS A 135      30.703  34.767   9.756  1.00 29.45     0.005 C 
BRANCH   9  10
ATOM     10  CD  LYS A 135      30.471  34.635   8.259  1.00 32.00     0.041 C 
BRANCH  10  11
ATOM     11  CE  LYS A 135      29.007  34.854   7.926  1.00 34.25     0.338 C 
ATOM     12  NZ  LYS A 135      28.124  34.231   8.950  1.00 35.99     0.618 N 
ENDBRANCH  10  11
ENDBRANCH   9  10
ENDBRANCH   8   9
ENDBRANCH   7   8
END_RES LYS A 135
