REMARK VINA RESULT:    -3.845      3.910      8.508
REMARK INTER + INTRA:         -23.135
REMARK INTER:                  -9.461
REMARK INTRA:                 -13.674
REMARK UNBOUND:               -13.108
REMARK SMILES CC(=O)N[C@@H]1[C@@H](O)C[C@](OC[C@H]2O[C@@H](O[C@H]3[C@H](O)[C@@H](O)[C@H](OCCN=[N+]=[N-])O[C@@H]3CO)[C@H](O)[C@@H](O)[C@H]2O)(C(=O)O)O[C@H]1C(O)[C@H](O)CNC(=O)OCc1cn(-c2cccc(C=CC(=O)O)c2)nn1
REMARK SMILES IDX 43 1 42 2 9 3 8 4 41 5 6 6 5 7 10 8 11 9 12 10 14 11 13 12
REMARK SMILES IDX 32 13 34 14 36 15 15 16 16 17 29 18 28 19 21 20 17 21 19 22
REMARK SMILES IDX 30 23 31 24 22 26 23 27 24 28 25 29 26 30 27 31 18 32 20 34
REMARK SMILES IDX 33 36 35 38 37 40 38 42 39 43 40 44 7 46 4 48 2 49 1 51 3 52
REMARK SMILES IDX 44 53 45 55 46 56 47 58 48 59 49 60 50 62 51 63 52 64 53 65
REMARK SMILES IDX 54 66 68 67 55 68 67 69 56 70 66 71 57 72 60 73 58 74 59 75
REMARK SMILES IDX 61 76 62 77 63 78 64 79 65 80
REMARK H PARENT 31 25 18 33 20 35 33 37 35 39 37 41 40 45 7 47 4 50 44 54
REMARK H PARENT 46 57 48 61 65 81
REMARK Flexibility Score: inf
ROOT
ATOM      1  C   UNL     1      25.495  41.033   7.563  1.00  0.00     0.176 C 
ENDROOT
BRANCH   1   2
ATOM      2  C   UNL     1      26.478  40.370   6.619  1.00  0.00     0.178 C 
ATOM      3  C   UNL     1      27.982  38.555   6.667  1.00  0.00     0.272 C 
ATOM      4  C   UNL     1      28.159  39.192   5.206  1.00  0.00     0.113 C 
ATOM      5  O   UNL     1      27.107  39.388   7.333  1.00  0.00    -0.332 OA
ATOM      6  C   UNL     1      28.599  40.592   5.443  1.00  0.00     0.145 C 
ATOM      7  C   UNL     1      27.484  41.367   6.117  1.00  0.00     0.142 C 
BRANCH   3   8
ATOM      8  O   UNL     1      29.209  38.689   7.185  1.00  0.00    -0.338 OA
BRANCH   8   9
ATOM      9  C   UNL     1      29.812  37.859   8.016  1.00  0.00     0.199 C 
BRANCH   9  10
ATOM     10  C   UNL     1      30.270  38.363   9.368  1.00  0.00     0.179 C 
ATOM     11  C   UNL     1      29.925  40.480  10.364  1.00  0.00     0.282 C 
ATOM     12  O   UNL     1      30.354  39.703   9.306  1.00  0.00    -0.341 OA
ATOM     13  C   UNL     1      30.137  39.761  11.637  1.00  0.00     0.202 C 
ATOM     14  C   UNL     1      29.498  38.408  11.728  1.00  0.00     0.179 C 
ATOM     15  C   UNL     1      29.180  37.927  10.337  1.00  0.00     0.177 C 
BRANCH  11  16
ATOM     16  O   UNL     1      28.645  40.885  10.053  1.00  0.00    -0.341 OA
BRANCH  16  17
ATOM     17  C   UNL     1      28.349  42.179  10.308  1.00  0.00     0.184 C 
ATOM     18  C   UNL     1      27.000  42.318  10.945  1.00  0.00     0.178 C 
ATOM     19  O   UNL     1      26.988  43.623  11.493  1.00  0.00    -0.341 OA
ATOM     20  C   UNL     1      26.879  44.562  10.464  1.00  0.00     0.281 C 
ATOM     21  C   UNL     1      28.272  43.029   9.036  1.00  0.00     0.180 C 
ATOM     22  C   UNL     1      27.972  44.454   9.452  1.00  0.00     0.202 C 
BRANCH  18  23
ATOM     23  C   UNL     1      26.701  41.334  12.018  1.00  0.00     0.191 C 
BRANCH  23  24
ATOM     24  O   UNL     1      26.278  40.140  11.439  1.00  0.00    -0.394 OA
ATOM     25  H   UNL     1      25.272  40.093  11.440  1.00  0.00     0.210 HD
ENDBRANCH  23  24
ENDBRANCH  18  23
BRANCH  20  26
ATOM     26  O   UNL     1      26.931  45.825  11.047  1.00  0.00    -0.350 OA
BRANCH  26  27
ATOM     27  C   UNL     1      25.705  46.481  10.978  1.00  0.00     0.169 C 
BRANCH  27  28
ATOM     28  C   UNL     1      25.260  46.789  12.390  1.00  0.00     0.119 C 
BRANCH  28  29
ATOM     29  N   UNL     1      23.989  46.153  12.642  1.00  0.00    -0.092 NA
ATOM     30  N   UNL     1      23.884  44.915  12.596  1.00  0.00     0.001 N 
ATOM     31  N   UNL     1      23.668  43.770  12.169  1.00  0.00    -0.003 NA
ENDBRANCH  28  29
ENDBRANCH  27  28
ENDBRANCH  26  27
ENDBRANCH  20  26
BRANCH  21  32
ATOM     32  O   UNL     1      29.477  43.055   8.346  1.00  0.00    -0.387 OA
ATOM     33  H   UNL     1      30.072  42.429   8.830  1.00  0.00     0.211 HD
ENDBRANCH  21  32
BRANCH  22  34
ATOM     34  O   UNL     1      27.518  45.106   8.283  1.00  0.00    -0.385 OA
ATOM     35  H   UNL     1      28.232  45.620   7.844  1.00  0.00     0.211 HD
ENDBRANCH  22  34
ENDBRANCH  16  17
ENDBRANCH  11  16
BRANCH  13  36
ATOM     36  O   UNL     1      31.535  39.568  11.834  1.00  0.00    -0.385 OA
ATOM     37  H   UNL     1      32.023  39.844  11.008  1.00  0.00     0.211 HD
ENDBRANCH  13  36
BRANCH  14  38
ATOM     38  O   UNL     1      28.375  38.369  12.557  1.00  0.00    -0.387 OA
ATOM     39  H   UNL     1      28.529  37.812  13.362  1.00  0.00     0.211 HD
ENDBRANCH  14  38
BRANCH  15  40
ATOM     40  O   UNL     1      27.951  38.427   9.954  1.00  0.00    -0.387 OA
ATOM     41  H   UNL     1      27.454  38.844  10.724  1.00  0.00     0.211 HD
ENDBRANCH  15  40
ENDBRANCH   9  10
ENDBRANCH   8   9
ENDBRANCH   3   8
BRANCH   3  42
ATOM     42  C   UNL     1      27.391  37.247   6.438  1.00  0.00     0.364 C 
ATOM     43  O   UNL     1      27.700  36.387   5.594  1.00  0.00    -0.246 OA
BRANCH  42  44
ATOM     44  O   UNL     1      26.312  36.869   7.274  1.00  0.00    -0.477 OA
ATOM     45  H   UNL     1      25.804  37.623   7.760  1.00  0.00     0.296 HD
ENDBRANCH  42  44
ENDBRANCH   3  42
BRANCH   6  46
ATOM     46  O   UNL     1      29.702  40.508   6.357  1.00  0.00    -0.391 OA
ATOM     47  H   UNL     1      30.271  41.321   6.262  1.00  0.00     0.211 HD
ENDBRANCH   6  46
BRANCH   7  48
ATOM     48  N   UNL     1      26.964  42.458   5.375  1.00  0.00    -0.348 N 
ATOM     49  C   UNL     1      27.514  43.731   5.200  1.00  0.00     0.217 C 
ATOM     50  H   UNL     1      26.003  42.324   4.891  1.00  0.00     0.163 HD
ATOM     51  C   UNL     1      26.757  44.749   4.368  1.00  0.00     0.114 C 
ATOM     52  O   UNL     1      28.614  44.105   5.690  1.00  0.00    -0.275 OA
ENDBRANCH   7  48
ENDBRANCH   1   2
BRANCH   1  53
ATOM     53  O   UNL     1      24.682  41.894   6.849  1.00  0.00    -0.388 OA
ATOM     54  H   UNL     1      24.919  42.837   6.915  1.00  0.00     0.211 HD
ENDBRANCH   1  53
BRANCH   1  55
ATOM     55  C   UNL     1      24.562  40.015   8.219  1.00  0.00     0.165 C 
BRANCH  55  56
ATOM     56  O   UNL     1      25.205  39.113   9.020  1.00  0.00    -0.388 OA
ATOM     57  H   UNL     1      26.024  39.452   9.449  1.00  0.00     0.211 HD
ENDBRANCH  55  56
BRANCH  55  58
ATOM     58  C   UNL     1      23.694  39.343   7.203  1.00  0.00     0.154 C 
BRANCH  58  59
ATOM     59  N   UNL     1      23.596  37.945   7.423  1.00  0.00    -0.319 N 
ATOM     60  C   UNL     1      22.493  37.348   8.074  1.00  0.00     0.407 C 
ATOM     61  H   UNL     1      24.361  37.293   7.100  1.00  0.00     0.167 HD
ATOM     62  O   UNL     1      21.532  38.047   8.499  1.00  0.00    -0.225 OA
BRANCH  60  63
ATOM     63  O   UNL     1      22.402  35.974   8.281  1.00  0.00    -0.443 OA
BRANCH  63  64
ATOM     64  C   UNL     1      22.369  35.535   9.644  1.00  0.00     0.294 C 
BRANCH  64  65
ATOM     65  C   UNL     1      23.732  35.693  10.183  1.00  0.00     0.121 A 
ATOM     66  C   UNL     1      24.193  35.357  11.453  1.00  0.00     0.144 A 
ATOM     67  N   UNL     1      24.791  36.191   9.524  1.00  0.00    -0.131 NA
ATOM     68  N   UNL     1      25.510  35.662  11.511  1.00  0.00    -0.220 N 
ATOM     69  N   UNL     1      25.838  36.162  10.337  1.00  0.00    -0.062 NA
BRANCH  68  70
ATOM     70  C   UNL     1      26.317  35.443  12.657  1.00  0.00     0.067 A 
ATOM     71  C   UNL     1      27.667  35.131  12.501  1.00  0.00     0.036 A 
ATOM     72  C   UNL     1      25.807  35.532  13.909  1.00  0.00     0.028 A 
ATOM     73  C   UNL     1      28.482  34.913  13.569  1.00  0.00    -0.023 A 
ATOM     74  C   UNL     1      26.603  35.318  15.031  1.00  0.00     0.003 A 
ATOM     75  C   UNL     1      27.930  35.012  14.831  1.00  0.00     0.008 A 
BRANCH  73  76
ATOM     76  C   UNL     1      29.883  34.585  13.411  1.00  0.00     0.015 C 
ATOM     77  C   UNL     1      30.820  35.444  13.722  1.00  0.00     0.094 C 
BRANCH  77  78
ATOM     78  C   UNL     1      32.225  35.069  13.546  1.00  0.00     0.328 C 
ATOM     79  O   UNL     1      32.933  35.605  12.686  1.00  0.00    -0.247 OA
BRANCH  78  80
ATOM     80  O   UNL     1      32.796  34.089  14.354  1.00  0.00    -0.478 OA
ATOM     81  H   UNL     1      33.736  33.770  14.108  1.00  0.00     0.297 HD
ENDBRANCH  78  80
ENDBRANCH  77  78
ENDBRANCH  73  76
ENDBRANCH  68  70
ENDBRANCH  64  65
ENDBRANCH  63  64
ENDBRANCH  60  63
ENDBRANCH  58  59
ENDBRANCH  55  58
ENDBRANCH   1  55
TORSDOF 33
BEGIN_RES LYS A 131
REMARK  4 active torsions:
REMARK  status: ('A' for Active; 'I' for Inactive)
REMARK    1  A    between atoms: CA   and  CB  
REMARK    2  A    between atoms: CB   and  CG  
REMARK    3  A    between atoms: CG   and  CD  
REMARK    4  A    between atoms: CD   and  CE  
ROOT
ATOM      1  CA  LYS A 131      29.867  25.555  16.977  1.00 20.52     0.186 C 
ENDROOT
BRANCH   1   2
ATOM      2  CB  LYS A 131      28.345  25.722  17.026  1.00 20.94     0.034 C 
BRANCH   2   3
ATOM      3  CG  LYS A 131      27.602  24.399  16.924  1.00 22.96     0.005 C 
BRANCH   3   4
ATOM      4  CD  LYS A 131      26.629  24.207  18.054  1.00 24.33     0.041 C 
BRANCH   4   5
ATOM      5  CE  LYS A 131      26.455  25.523  18.805  1.00 26.91     0.338 C 
ATOM      6  NZ  LYS A 131      25.402  25.395  19.840  1.00 27.40     0.618 N 
ENDBRANCH   4   5
ENDBRANCH   3   4
ENDBRANCH   2   3
ENDBRANCH   1   2
END_RES LYS A 131
BEGIN_RES LYS A 135
REMARK  4 active torsions:
REMARK  status: ('A' for Active; 'I' for Inactive)
REMARK    5  A    between atoms: CA   and  CB  
REMARK    6  A    between atoms: CB   and  CG  
REMARK    7  A    between atoms: CG   and  CD  
REMARK    8  A    between atoms: CD   and  CE  
ROOT
ATOM      7  CA  LYS A 135      33.193  34.663   9.290  1.00 25.02     0.186 C 
ENDROOT
BRANCH   7   8
ATOM      8  CB  LYS A 135      32.060  35.360  10.034  1.00 26.63     0.034 C 
BRANCH   8   9
ATOM      9  CG  LYS A 135      30.757  34.605   9.991  1.00 29.45     0.005 C 
BRANCH   9  10
ATOM     10  CD  LYS A 135      30.349  34.318   8.554  1.00 32.00     0.041 C 
BRANCH  10  11
ATOM     11  CE  LYS A 135      28.846  34.432   8.394  1.00 34.25     0.338 C 
ATOM     12  NZ  LYS A 135      28.134  33.670   9.458  1.00 35.99     0.618 N 
ENDBRANCH  10  11
ENDBRANCH   9  10
ENDBRANCH   8   9
ENDBRANCH   7   8
END_RES LYS A 135
