REMARK VINA RESULT:    -3.549      6.820     14.097
REMARK INTER + INTRA:         -22.457
REMARK INTER:                 -10.063
REMARK INTRA:                 -12.394
REMARK UNBOUND:               -13.100
REMARK SMILES CC(=O)N[C@@H]1[C@@H](O)C[C@](OC[C@H]2O[C@@H](O[C@H]3[C@H](O)[C@@H](O)[C@H](OCCN=[N+]=[N-])O[C@@H]3CO)[C@H](O)[C@@H](O)[C@H]2O)(C(=O)O)O[C@H]1C(O)[C@H](O)CNC(=O)OCc1cn(CCNS(C)(=O)=O)nn1
REMARK SMILES IDX 43 1 42 2 9 3 8 4 41 5 6 6 5 7 10 8 11 9 12 10 14 11 13 12
REMARK SMILES IDX 32 13 34 14 36 15 15 16 16 17 29 18 28 19 21 20 17 21 19 22
REMARK SMILES IDX 30 23 31 24 22 26 23 27 24 28 25 29 26 30 27 31 18 32 20 34
REMARK SMILES IDX 33 36 35 38 37 40 38 42 39 43 40 44 7 46 4 48 2 49 1 51 3 52
REMARK SMILES IDX 44 53 45 55 46 56 47 58 48 59 49 60 50 62 51 63 52 64 53 65
REMARK SMILES IDX 54 66 64 67 55 68 63 69 56 70 57 71 58 72 59 74 61 75 62 76
REMARK SMILES IDX 60 77
REMARK H PARENT 31 25 18 33 20 35 33 37 35 39 37 41 40 45 7 47 4 50 44 54
REMARK H PARENT 46 57 48 61 58 73
REMARK Flexibility Score: inf
ROOT
ATOM      1  C   UNL     1      27.031  39.435   5.011  1.00  0.00     0.176 C 
ENDROOT
BRANCH   1   2
ATOM      2  C   UNL     1      26.838  40.250   6.303  1.00  0.00     0.178 C 
ATOM      3  C   UNL     1      25.141  40.585   7.881  1.00  0.00     0.272 C 
ATOM      4  C   UNL     1      24.990  42.028   7.605  1.00  0.00     0.113 C 
ATOM      5  O   UNL     1      25.626  39.888   6.782  1.00  0.00    -0.332 OA
ATOM      6  C   UNL     1      25.848  42.568   6.494  1.00  0.00     0.145 C 
ATOM      7  C   UNL     1      26.956  41.695   6.015  1.00  0.00     0.142 C 
BRANCH   3   8
ATOM      8  O   UNL     1      23.973  39.900   8.229  1.00  0.00    -0.338 OA
BRANCH   8   9
ATOM      9  C   UNL     1      23.658  38.892   7.334  1.00  0.00     0.199 C 
BRANCH   9  10
ATOM     10  C   UNL     1      23.352  37.630   8.064  1.00  0.00     0.179 C 
ATOM     11  C   UNL     1      23.459  36.515  10.080  1.00  0.00     0.282 C 
ATOM     12  O   UNL     1      23.527  37.759   9.431  1.00  0.00    -0.341 OA
ATOM     13  C   UNL     1      22.115  35.890   9.931  1.00  0.00     0.202 C 
ATOM     14  C   UNL     1      21.895  35.646   8.453  1.00  0.00     0.179 C 
ATOM     15  C   UNL     1      22.101  36.910   7.688  1.00  0.00     0.177 C 
BRANCH  11  16
ATOM     16  O   UNL     1      23.785  36.731  11.385  1.00  0.00    -0.341 OA
BRANCH  16  17
ATOM     17  C   UNL     1      24.448  35.736  12.017  1.00  0.00     0.184 C 
ATOM     18  C   UNL     1      24.782  35.845  13.451  1.00  0.00     0.178 C 
ATOM     19  O   UNL     1      25.896  35.046  13.707  1.00  0.00    -0.341 OA
ATOM     20  C   UNL     1      27.055  35.606  13.251  1.00  0.00     0.281 C 
ATOM     21  C   UNL     1      25.741  35.347  11.247  1.00  0.00     0.180 C 
ATOM     22  C   UNL     1      26.811  36.209  11.883  1.00  0.00     0.202 C 
BRANCH  18  23
ATOM     23  C   UNL     1      23.675  35.236  14.306  1.00  0.00     0.191 C 
BRANCH  23  24
ATOM     24  O   UNL     1      22.579  34.886  13.483  1.00  0.00    -0.394 OA
ATOM     25  H   UNL     1      22.118  34.085  13.813  1.00  0.00     0.210 HD
ENDBRANCH  23  24
ENDBRANCH  18  23
BRANCH  20  26
ATOM     26  O   UNL     1      28.101  34.672  13.214  1.00  0.00    -0.350 OA
BRANCH  26  27
ATOM     27  C   UNL     1      29.245  35.126  12.608  1.00  0.00     0.169 C 
BRANCH  27  28
ATOM     28  C   UNL     1      30.421  34.656  13.403  1.00  0.00     0.119 C 
BRANCH  28  29
ATOM     29  N   UNL     1      31.665  35.271  12.959  1.00  0.00    -0.092 NA
ATOM     30  N   UNL     1      32.673  34.939  13.607  1.00  0.00     0.001 N 
ATOM     31  N   UNL     1      33.801  34.857  14.081  1.00  0.00    -0.003 NA
ENDBRANCH  28  29
ENDBRANCH  27  28
ENDBRANCH  26  27
ENDBRANCH  20  26
BRANCH  21  32
ATOM     32  O   UNL     1      26.060  34.012  11.510  1.00  0.00    -0.387 OA
ATOM     33  H   UNL     1      25.356  33.622  12.092  1.00  0.00     0.211 HD
ENDBRANCH  21  32
BRANCH  22  34
ATOM     34  O   UNL     1      26.495  37.548  11.939  1.00  0.00    -0.385 OA
ATOM     35  H   UNL     1      26.269  37.948  11.061  1.00  0.00     0.211 HD
ENDBRANCH  22  34
ENDBRANCH  16  17
ENDBRANCH  11  16
BRANCH  13  36
ATOM     36  O   UNL     1      22.083  34.618  10.520  1.00  0.00    -0.385 OA
ATOM     37  H   UNL     1      21.337  34.066  10.172  1.00  0.00     0.211 HD
ENDBRANCH  13  36
BRANCH  14  38
ATOM     38  O   UNL     1      20.708  35.004   8.200  1.00  0.00    -0.387 OA
ATOM     39  H   UNL     1      20.817  34.245   7.545  1.00  0.00     0.211 HD
ENDBRANCH  14  38
BRANCH  15  40
ATOM     40  O   UNL     1      21.020  37.753   7.923  1.00  0.00    -0.387 OA
ATOM     41  H   UNL     1      20.985  38.523   7.299  1.00  0.00     0.211 HD
ENDBRANCH  15  40
ENDBRANCH   9  10
ENDBRANCH   8   9
ENDBRANCH   3   8
BRANCH   3  42
ATOM     42  C   UNL     1      26.053  40.353   9.027  1.00  0.00     0.364 C 
ATOM     43  O   UNL     1      26.792  41.279   9.499  1.00  0.00    -0.246 OA
BRANCH  42  44
ATOM     44  O   UNL     1      26.189  39.143   9.678  1.00  0.00    -0.477 OA
ATOM     45  H   UNL     1      25.863  38.260   9.294  1.00  0.00     0.296 HD
ENDBRANCH  42  44
ENDBRANCH   3  42
BRANCH   6  46
ATOM     46  O   UNL     1      25.074  42.974   5.416  1.00  0.00    -0.391 OA
ATOM     47  H   UNL     1      24.216  43.386   5.641  1.00  0.00     0.211 HD
ENDBRANCH   6  46
BRANCH   7  48
ATOM     48  N   UNL     1      28.211  42.212   6.585  1.00  0.00    -0.348 N 
ATOM     49  C   UNL     1      29.098  43.096   5.963  1.00  0.00     0.217 C 
ATOM     50  H   UNL     1      28.474  41.918   7.591  1.00  0.00     0.163 HD
ATOM     51  C   UNL     1      30.363  43.544   6.646  1.00  0.00     0.114 C 
ATOM     52  O   UNL     1      28.883  43.554   4.808  1.00  0.00    -0.275 OA
ENDBRANCH   7  48
ENDBRANCH   1   2
BRANCH   1  53
ATOM     53  O   UNL     1      28.021  40.061   4.234  1.00  0.00    -0.388 OA
ATOM     54  H   UNL     1      28.507  39.356   3.768  1.00  0.00     0.211 HD
ENDBRANCH   1  53
BRANCH   1  55
ATOM     55  C   UNL     1      27.489  38.060   5.335  1.00  0.00     0.165 C 
BRANCH  55  56
ATOM     56  O   UNL     1      26.874  37.455   6.403  1.00  0.00    -0.388 OA
ATOM     57  H   UNL     1      26.236  36.740   6.141  1.00  0.00     0.211 HD
ENDBRANCH  55  56
BRANCH  55  58
ATOM     58  C   UNL     1      28.972  37.863   5.373  1.00  0.00     0.154 C 
BRANCH  58  59
ATOM     59  N   UNL     1      29.549  38.304   6.615  1.00  0.00    -0.319 N 
ATOM     60  C   UNL     1      30.395  39.477   6.582  1.00  0.00     0.407 C 
ATOM     61  H   UNL     1      29.400  37.839   7.525  1.00  0.00     0.167 HD
ATOM     62  O   UNL     1      30.540  40.035   5.465  1.00  0.00    -0.225 OA
BRANCH  60  63
ATOM     63  O   UNL     1      31.000  39.941   7.721  1.00  0.00    -0.443 OA
BRANCH  63  64
ATOM     64  C   UNL     1      31.523  39.038   8.667  1.00  0.00     0.294 C 
BRANCH  64  65
ATOM     65  C   UNL     1      30.647  38.944   9.849  1.00  0.00     0.120 A 
ATOM     66  C   UNL     1      31.032  38.825  11.175  1.00  0.00     0.138 A 
ATOM     67  N   UNL     1      29.322  38.992   9.872  1.00  0.00    -0.132 NA
ATOM     68  N   UNL     1      29.950  38.806  11.954  1.00  0.00    -0.251 N 
ATOM     69  N   UNL     1      28.899  38.908  11.139  1.00  0.00    -0.067 NA
BRANCH  68  70
ATOM     70  C   UNL     1      29.926  38.685  13.402  1.00  0.00     0.162 C 
BRANCH  70  71
ATOM     71  C   UNL     1      29.072  39.803  13.998  1.00  0.00     0.122 C 
BRANCH  71  72
ATOM     72  N   UNL     1      27.683  39.445  13.986  1.00  0.00    -0.214 NA
ATOM     73  H   UNL     1      27.391  39.176  14.964  1.00  0.00     0.141 HD
BRANCH  72  74
ATOM     74  S   UNL     1      26.660  40.739  13.499  1.00  0.00     0.208 S 
ATOM     75  O   UNL     1      25.636  40.241  12.492  1.00  0.00    -0.213 OA
ATOM     76  O   UNL     1      25.923  41.189  14.747  1.00  0.00    -0.213 OA
ATOM     77  C   UNL     1      27.600  42.076  12.831  1.00  0.00     0.176 C 
ENDBRANCH  72  74
ENDBRANCH  71  72
ENDBRANCH  70  71
ENDBRANCH  68  70
ENDBRANCH  64  65
ENDBRANCH  63  64
ENDBRANCH  60  63
ENDBRANCH  58  59
ENDBRANCH  55  58
ENDBRANCH   1  55
TORSDOF 33
BEGIN_RES LYS A 131
REMARK  4 active torsions:
REMARK  status: ('A' for Active; 'I' for Inactive)
REMARK    1  A    between atoms: CA   and  CB  
REMARK    2  A    between atoms: CB   and  CG  
REMARK    3  A    between atoms: CG   and  CD  
REMARK    4  A    between atoms: CD   and  CE  
ROOT
ATOM      1  CA  LYS A 131      29.867  25.555  16.977  1.00 20.52     0.186 C 
ENDROOT
BRANCH   1   2
ATOM      2  CB  LYS A 131      28.345  25.722  17.026  1.00 20.94     0.034 C 
BRANCH   2   3
ATOM      3  CG  LYS A 131      27.605  24.393  17.037  1.00 22.96     0.005 C 
BRANCH   3   4
ATOM      4  CD  LYS A 131      26.519  24.359  18.077  1.00 24.33     0.041 C 
BRANCH   4   5
ATOM      5  CE  LYS A 131      25.231  23.835  17.450  1.00 26.91     0.338 C 
ATOM      6  NZ  LYS A 131      25.193  22.354  17.502  1.00 27.40     0.618 N 
ENDBRANCH   4   5
ENDBRANCH   3   4
ENDBRANCH   2   3
ENDBRANCH   1   2
END_RES LYS A 131
BEGIN_RES LYS A 135
REMARK  4 active torsions:
REMARK  status: ('A' for Active; 'I' for Inactive)
REMARK    5  A    between atoms: CA   and  CB  
REMARK    6  A    between atoms: CB   and  CG  
REMARK    7  A    between atoms: CG   and  CD  
REMARK    8  A    between atoms: CD   and  CE  
ROOT
ATOM      7  CA  LYS A 135      33.193  34.663   9.290  1.00 25.02     0.186 C 
ENDROOT
BRANCH   7   8
ATOM      8  CB  LYS A 135      32.060  35.360  10.034  1.00 26.63     0.034 C 
BRANCH   8   9
ATOM      9  CG  LYS A 135      30.777  35.433   9.246  1.00 29.45     0.005 C 
BRANCH   9  10
ATOM     10  CD  LYS A 135      30.177  34.047   9.069  1.00 32.00     0.041 C 
BRANCH  10  11
ATOM     11  CE  LYS A 135      28.663  34.124   9.029  1.00 34.25     0.338 C 
ATOM     12  NZ  LYS A 135      28.205  35.490   8.654  1.00 35.99     0.618 N 
ENDBRANCH  10  11
ENDBRANCH   9  10
ENDBRANCH   8   9
ENDBRANCH   7   8
END_RES LYS A 135
