REMARK VINA RESULT:    -5.019      2.752      7.341
REMARK INTER + INTRA:         -24.263
REMARK INTER:                 -13.740
REMARK INTRA:                 -10.523
REMARK UNBOUND:               -11.174
REMARK SMILES CC(=O)N[C@@H]1[C@@H](O)C[C@](OC[C@H]2O[C@@H](O[C@H]3[C@H](O)[C@@H](O)[C@H](OCCN=[N+]=[N-])O[C@@H]3CO)[C@H](O)[C@@H](O)[C@H]2O)(C(=O)O)O[C@H]1C(O)[C@H](O)CNC(=O)OCc1cn(-c2cc(C(=O)O)nc(-c3ccccc3)c2)nn1
REMARK SMILES IDX 9 1 8 2 6 3 5 4 42 5 41 6 10 7 11 8 12 9 14 10 13 11 32 12
REMARK SMILES IDX 34 13 36 14 15 15 16 16 29 17 28 18 21 19 17 20 19 21 30 22
REMARK SMILES IDX 31 23 22 25 23 26 24 27 25 28 26 29 27 30 18 31 20 33 33 35
REMARK SMILES IDX 35 37 37 39 38 41 39 42 40 43 7 45 43 47 44 48 45 50 46 51
REMARK SMILES IDX 47 53 48 54 49 55 50 57 51 58 52 59 53 60 54 61 72 62 55 63
REMARK SMILES IDX 71 64 56 65 57 66 70 67 58 68 63 69 62 70 59 71 60 72 61 73
REMARK SMILES IDX 64 75 65 76 69 77 66 78 68 79 67 80 4 81 2 82 1 84 3 85
REMARK H PARENT 31 24 18 32 20 34 33 36 35 38 37 40 40 44 7 46 44 49 46 52
REMARK H PARENT 48 56 61 74 4 83
REMARK Flexibility Score: inf
ROOT
ATOM      1  C   UNL     1      27.982  30.977  20.138  1.00  0.00     0.272 C 
ATOM      2  C   UNL     1      26.922  30.909  21.256  1.00  0.00     0.113 C 
ATOM      3  C   UNL     1      27.010  29.691  22.102  1.00  0.00     0.145 C 
ATOM      4  C   UNL     1      27.303  28.425  21.306  1.00  0.00     0.142 C 
ATOM      5  C   UNL     1      27.224  28.871  19.844  1.00  0.00     0.178 C 
ATOM      6  O   UNL     1      28.301  29.709  19.656  1.00  0.00    -0.332 OA
ENDROOT
BRANCH   1   7
ATOM      7  O   UNL     1      29.078  31.530  20.718  1.00  0.00    -0.338 OA
BRANCH   7   8
ATOM      8  C   UNL     1      29.076  32.848  21.041  1.00  0.00     0.199 C 
BRANCH   8   9
ATOM      9  C   UNL     1      30.352  33.541  20.499  1.00  0.00     0.179 C 
ATOM     10  C   UNL     1      31.480  33.821  18.470  1.00  0.00     0.282 C 
ATOM     11  O   UNL     1      30.450  33.254  19.175  1.00  0.00    -0.341 OA
ATOM     12  C   UNL     1      32.106  34.916  19.314  1.00  0.00     0.202 C 
ATOM     13  C   UNL     1      31.089  35.837  19.941  1.00  0.00     0.179 C 
ATOM     14  C   UNL     1      30.079  35.027  20.671  1.00  0.00     0.177 C 
BRANCH  10  15
ATOM     15  O   UNL     1      30.959  34.325  17.293  1.00  0.00    -0.341 OA
BRANCH  15  16
ATOM     16  C   UNL     1      31.592  33.892  16.140  1.00  0.00     0.184 C 
ATOM     17  C   UNL     1      31.814  34.966  15.140  1.00  0.00     0.178 C 
ATOM     18  O   UNL     1      31.149  34.716  13.952  1.00  0.00    -0.341 OA
ATOM     19  C   UNL     1      29.798  34.435  14.149  1.00  0.00     0.281 C 
ATOM     20  C   UNL     1      30.824  32.710  15.623  1.00  0.00     0.180 C 
ATOM     21  C   UNL     1      29.726  33.016  14.666  1.00  0.00     0.202 C 
BRANCH  17  22
ATOM     22  C   UNL     1      33.289  35.051  14.808  1.00  0.00     0.191 C 
BRANCH  22  23
ATOM     23  O   UNL     1      33.674  34.097  13.884  1.00  0.00    -0.394 OA
ATOM     24  H   UNL     1      33.436  34.407  12.971  1.00  0.00     0.210 HD
ENDBRANCH  22  23
ENDBRANCH  17  22
BRANCH  19  25
ATOM     25  O   UNL     1      29.188  34.498  12.905  1.00  0.00    -0.350 OA
BRANCH  25  26
ATOM     26  C   UNL     1      27.861  34.921  12.997  1.00  0.00     0.169 C 
BRANCH  26  27
ATOM     27  C   UNL     1      27.705  35.936  14.101  1.00  0.00     0.119 C 
BRANCH  27  28
ATOM     28  N   UNL     1      26.930  35.357  15.175  1.00  0.00    -0.092 NA
ATOM     29  N   UNL     1      26.010  36.008  15.650  1.00  0.00     0.001 N 
ATOM     30  N   UNL     1      24.902  36.297  16.133  1.00  0.00    -0.003 NA
ENDBRANCH  27  28
ENDBRANCH  26  27
ENDBRANCH  25  26
ENDBRANCH  19  25
BRANCH  20  31
ATOM     31  O   UNL     1      31.748  31.890  14.935  1.00  0.00    -0.387 OA
ATOM     32  H   UNL     1      32.675  32.124  15.191  1.00  0.00     0.211 HD
ENDBRANCH  20  31
BRANCH  21  33
ATOM     33  O   UNL     1      28.496  32.765  15.309  1.00  0.00    -0.385 OA
ATOM     34  H   UNL     1      27.882  33.547  15.238  1.00  0.00     0.211 HD
ENDBRANCH  21  33
ENDBRANCH  15  16
ENDBRANCH  10  15
BRANCH  12  35
ATOM     35  O   UNL     1      32.931  34.430  20.320  1.00  0.00    -0.385 OA
ATOM     36  H   UNL     1      33.520  33.758  19.874  1.00  0.00     0.211 HD
ENDBRANCH  12  35
BRANCH  13  37
ATOM     37  O   UNL     1      30.539  36.593  18.905  1.00  0.00    -0.387 OA
ATOM     38  H   UNL     1      31.181  37.322  18.709  1.00  0.00     0.211 HD
ENDBRANCH  13  37
BRANCH  14  39
ATOM     39  O   UNL     1      28.829  35.308  20.083  1.00  0.00    -0.387 OA
ATOM     40  H   UNL     1      28.083  34.985  20.614  1.00  0.00     0.211 HD
ENDBRANCH  14  39
ENDBRANCH   8   9
ENDBRANCH   7   8
ENDBRANCH   1   7
BRANCH   1  41
ATOM     41  C   UNL     1      27.408  31.738  19.000  1.00  0.00     0.364 C 
ATOM     42  O   UNL     1      26.261  32.259  19.047  1.00  0.00    -0.246 OA
BRANCH  41  43
ATOM     43  O   UNL     1      28.126  31.902  17.837  1.00  0.00    -0.477 OA
ATOM     44  H   UNL     1      27.708  31.863  16.898  1.00  0.00     0.296 HD
ENDBRANCH  41  43
ENDBRANCH   1  41
BRANCH   3  45
ATOM     45  O   UNL     1      27.833  29.834  23.198  1.00  0.00    -0.391 OA
ATOM     46  H   UNL     1      28.614  30.367  22.946  1.00  0.00     0.211 HD
ENDBRANCH   3  45
BRANCH   5  47
ATOM     47  C   UNL     1      27.078  27.754  18.881  1.00  0.00     0.176 C 
BRANCH  47  48
ATOM     48  O   UNL     1      28.138  26.841  19.086  1.00  0.00    -0.388 OA
ATOM     49  H   UNL     1      28.524  26.973  20.009  1.00  0.00     0.211 HD
ENDBRANCH  47  48
BRANCH  47  50
ATOM     50  C   UNL     1      27.004  28.137  17.430  1.00  0.00     0.165 C 
BRANCH  50  51
ATOM     51  O   UNL     1      28.118  28.874  17.084  1.00  0.00    -0.388 OA
ATOM     52  H   UNL     1      28.926  28.308  16.959  1.00  0.00     0.211 HD
ENDBRANCH  50  51
BRANCH  50  53
ATOM     53  C   UNL     1      25.726  28.920  17.251  1.00  0.00     0.154 C 
BRANCH  53  54
ATOM     54  N   UNL     1      25.846  30.180  16.610  1.00  0.00    -0.319 N 
ATOM     55  C   UNL     1      25.141  30.483  15.417  1.00  0.00     0.407 C 
ATOM     56  H   UNL     1      26.465  30.929  17.006  1.00  0.00     0.167 HD
ATOM     57  O   UNL     1      24.410  29.616  14.902  1.00  0.00    -0.225 OA
BRANCH  55  58
ATOM     58  O   UNL     1      25.256  31.749  14.811  1.00  0.00    -0.443 OA
BRANCH  58  59
ATOM     59  C   UNL     1      24.237  32.693  15.026  1.00  0.00     0.294 C 
BRANCH  59  60
ATOM     60  C   UNL     1      23.765  33.278  13.749  1.00  0.00     0.121 A 
ATOM     61  C   UNL     1      24.376  34.181  12.910  1.00  0.00     0.144 A 
ATOM     62  N   UNL     1      22.563  33.043  13.148  1.00  0.00    -0.131 NA
ATOM     63  N   UNL     1      23.578  34.473  11.860  1.00  0.00    -0.220 N 
ATOM     64  N   UNL     1      22.472  33.753  12.043  1.00  0.00    -0.062 NA
BRANCH  63  65
ATOM     65  C   UNL     1      23.856  35.382  10.809  1.00  0.00     0.071 A 
ATOM     66  C   UNL     1      22.802  35.748   9.986  1.00  0.00     0.064 A 
ATOM     67  C   UNL     1      25.088  35.946  10.546  1.00  0.00     0.057 A 
ATOM     68  C   UNL     1      23.028  36.645   8.958  1.00  0.00     0.151 A 
ATOM     69  C   UNL     1      25.301  36.827   9.534  1.00  0.00     0.073 A 
ATOM     70  N   UNL     1      24.256  37.162   8.752  1.00  0.00    -0.241 NA
BRANCH  68  71
ATOM     71  C   UNL     1      21.941  37.051   8.079  1.00  0.00     0.354 C 
ATOM     72  O   UNL     1      21.041  37.790   8.554  1.00  0.00    -0.245 OA
BRANCH  71  73
ATOM     73  O   UNL     1      21.839  36.677   6.760  1.00  0.00    -0.477 OA
ATOM     74  H   UNL     1      21.030  36.915   6.173  1.00  0.00     0.297 HD
ENDBRANCH  71  73
ENDBRANCH  68  71
BRANCH  69  75
ATOM     75  C   UNL     1      26.611  37.416   9.279  1.00  0.00     0.000 A 
ATOM     76  C   UNL     1      27.562  37.355  10.295  1.00  0.00     0.010 A 
ATOM     77  C   UNL     1      26.958  38.023   8.107  1.00  0.00     0.010 A 
ATOM     78  C   UNL     1      28.818  37.879  10.143  1.00  0.00     0.001 A 
ATOM     79  C   UNL     1      28.230  38.550   7.965  1.00  0.00     0.001 A 
ATOM     80  C   UNL     1      29.168  38.494   8.954  1.00  0.00     0.000 A 
ENDBRANCH  69  75
ENDBRANCH  63  65
ENDBRANCH  59  60
ENDBRANCH  58  59
ENDBRANCH  55  58
ENDBRANCH  53  54
ENDBRANCH  50  53
ENDBRANCH  47  50
ENDBRANCH   5  47
BRANCH   4  81
ATOM     81  N   UNL     1      26.402  27.366  21.626  1.00  0.00    -0.348 N 
ATOM     82  C   UNL     1      26.673  26.507  22.721  1.00  0.00     0.217 C 
ATOM     83  H   UNL     1      25.545  27.237  21.040  1.00  0.00     0.163 HD
ATOM     84  C   UNL     1      25.771  25.389  23.102  1.00  0.00     0.114 C 
ATOM     85  O   UNL     1      27.722  26.670  23.432  1.00  0.00    -0.275 OA
ENDBRANCH   4  81
TORSDOF 33
BEGIN_RES LYS A 131
REMARK  4 active torsions:
REMARK  status: ('A' for Active; 'I' for Inactive)
REMARK    1  A    between atoms: CA   and  CB  
REMARK    2  A    between atoms: CB   and  CG  
REMARK    3  A    between atoms: CG   and  CD  
REMARK    4  A    between atoms: CD   and  CE  
ROOT
ATOM      1  CA  LYS A 131      29.867  25.555  16.977  1.00 20.52     0.186 C 
ENDROOT
BRANCH   1   2
ATOM      2  CB  LYS A 131      28.345  25.722  17.026  1.00 20.94     0.034 C 
BRANCH   2   3
ATOM      3  CG  LYS A 131      27.599  24.477  16.570  1.00 22.96     0.005 C 
BRANCH   3   4
ATOM      4  CD  LYS A 131      27.009  23.716  17.725  1.00 24.33     0.041 C 
BRANCH   4   5
ATOM      5  CE  LYS A 131      25.677  24.346  18.122  1.00 26.91     0.338 C 
ATOM      6  NZ  LYS A 131      24.756  24.387  16.962  1.00 27.40     0.618 N 
ENDBRANCH   4   5
ENDBRANCH   3   4
ENDBRANCH   2   3
ENDBRANCH   1   2
END_RES LYS A 131
BEGIN_RES LYS A 135
REMARK  4 active torsions:
REMARK  status: ('A' for Active; 'I' for Inactive)
REMARK    5  A    between atoms: CA   and  CB  
REMARK    6  A    between atoms: CB   and  CG  
REMARK    7  A    between atoms: CG   and  CD  
REMARK    8  A    between atoms: CD   and  CE  
ROOT
ATOM      7  CA  LYS A 135      33.193  34.663   9.290  1.00 25.02     0.186 C 
ENDROOT
BRANCH   7   8
ATOM      8  CB  LYS A 135      32.060  35.360  10.034  1.00 26.63     0.034 C 
BRANCH   8   9
ATOM      9  CG  LYS A 135      30.708  34.742   9.788  1.00 29.45     0.005 C 
BRANCH   9  10
ATOM     10  CD  LYS A 135      30.477  34.530   8.300  1.00 32.00     0.041 C 
BRANCH  10  11
ATOM     11  CE  LYS A 135      29.045  34.867   7.930  1.00 34.25     0.338 C 
ATOM     12  NZ  LYS A 135      28.962  35.413   6.547  1.00 35.99     0.618 N 
ENDBRANCH  10  11
ENDBRANCH   9  10
ENDBRANCH   8   9
ENDBRANCH   7   8
END_RES LYS A 135
