REMARK VINA RESULT:    -4.227      5.863      9.818
REMARK INTER + INTRA:         -22.266
REMARK INTER:                  -7.213
REMARK INTRA:                 -15.053
REMARK UNBOUND:               -11.119
REMARK SMILES CC(=O)N[C@@H]1[C@@H](O)C[C@](OC[C@H]2O[C@@H](O[C@H]3[C@H](O)[C@@H](O)[C@H](OCCN=[N+]=[N-])O[C@@H]3CO)[C@H](O)[C@@H](O)[C@H]2O)(C(=O)O)O[C@H]1C(O)[C@H](O)CNC(=O)OCc1cn(CC(O)CO)nn1
REMARK SMILES IDX 43 1 42 2 9 3 8 4 41 5 6 6 5 7 10 8 11 9 12 10 14 11 13 12
REMARK SMILES IDX 32 13 34 14 36 15 15 16 16 17 29 18 28 19 21 20 17 21 19 22
REMARK SMILES IDX 30 23 31 24 22 26 23 27 24 28 25 29 26 30 27 31 18 32 20 34
REMARK SMILES IDX 33 36 35 38 37 40 38 42 39 43 40 44 7 46 4 48 2 49 1 51 3 52
REMARK SMILES IDX 44 53 45 55 46 56 47 58 48 59 49 60 50 62 51 63 52 64 53 65
REMARK SMILES IDX 54 66 62 67 55 68 61 69 56 70 57 71 58 72 59 74 60 75
REMARK H PARENT 31 25 18 33 20 35 33 37 35 39 37 41 40 45 7 47 4 50 44 54
REMARK H PARENT 46 57 48 61 58 73 60 76
REMARK Flexibility Score: inf
ROOT
ATOM      1  C   UNL     1      27.014  29.805  21.992  1.00  0.00     0.176 C 
ENDROOT
BRANCH   1   2
ATOM      2  C   UNL     1      28.542  29.669  21.849  1.00  0.00     0.178 C 
ATOM      3  C   UNL     1      30.327  30.055  20.351  1.00  0.00     0.272 C 
ATOM      4  C   UNL     1      30.827  28.652  20.556  1.00  0.00     0.113 C 
ATOM      5  O   UNL     1      28.960  30.102  20.663  1.00  0.00    -0.332 OA
ATOM      6  C   UNL     1      29.912  27.696  21.225  1.00  0.00     0.145 C 
ATOM      7  C   UNL     1      28.923  28.273  22.168  1.00  0.00     0.142 C 
BRANCH   3   8
ATOM      8  O   UNL     1      30.464  30.424  19.095  1.00  0.00    -0.338 OA
BRANCH   8   9
ATOM      9  C   UNL     1      30.545  31.409  18.304  1.00  0.00     0.199 C 
BRANCH   9  10
ATOM     10  C   UNL     1      29.401  32.010  17.555  1.00  0.00     0.179 C 
ATOM     11  C   UNL     1      27.646  31.418  16.212  1.00  0.00     0.282 C 
ATOM     12  O   UNL     1      28.444  30.965  17.258  1.00  0.00    -0.341 OA
ATOM     13  C   UNL     1      27.529  32.899  16.096  1.00  0.00     0.202 C 
ATOM     14  C   UNL     1      27.635  33.658  17.383  1.00  0.00     0.179 C 
ATOM     15  C   UNL     1      28.530  32.951  18.388  1.00  0.00     0.177 C 
BRANCH  11  16
ATOM     16  O   UNL     1      26.387  30.855  16.168  1.00  0.00    -0.341 OA
BRANCH  16  17
ATOM     17  C   UNL     1      26.046  30.137  17.312  1.00  0.00     0.184 C 
ATOM     18  C   UNL     1      25.942  28.681  16.975  1.00  0.00     0.178 C 
ATOM     19  O   UNL     1      24.664  28.168  17.137  1.00  0.00    -0.341 OA
ATOM     20  C   UNL     1      23.698  29.054  16.632  1.00  0.00     0.281 C 
ATOM     21  C   UNL     1      24.867  30.736  17.959  1.00  0.00     0.180 C 
ATOM     22  C   UNL     1      23.539  30.116  17.694  1.00  0.00     0.202 C 
BRANCH  18  23
ATOM     23  C   UNL     1      26.884  27.833  17.806  1.00  0.00     0.191 C 
BRANCH  23  24
ATOM     24  O   UNL     1      27.860  28.602  18.423  1.00  0.00    -0.394 OA
ATOM     25  H   UNL     1      28.447  28.968  17.687  1.00  0.00     0.210 HD
ENDBRANCH  23  24
ENDBRANCH  18  23
BRANCH  20  26
ATOM     26  O   UNL     1      22.535  28.315  16.484  1.00  0.00    -0.350 OA
BRANCH  26  27
ATOM     27  C   UNL     1      22.454  27.207  17.314  1.00  0.00     0.169 C 
BRANCH  27  28
ATOM     28  C   UNL     1      21.053  26.956  17.826  1.00  0.00     0.119 C 
BRANCH  28  29
ATOM     29  N   UNL     1      20.832  27.527  19.127  1.00  0.00    -0.092 NA
ATOM     30  N   UNL     1      20.604  28.709  19.357  1.00  0.00     0.001 N 
ATOM     31  N   UNL     1      20.482  29.930  19.452  1.00  0.00    -0.003 NA
ENDBRANCH  28  29
ENDBRANCH  27  28
ENDBRANCH  26  27
ENDBRANCH  20  26
BRANCH  21  32
ATOM     32  O   UNL     1      25.026  30.825  19.364  1.00  0.00    -0.387 OA
ATOM     33  H   UNL     1      24.807  31.790  19.569  1.00  0.00     0.211 HD
ENDBRANCH  21  32
BRANCH  22  34
ATOM     34  O   UNL     1      22.546  31.035  17.366  1.00  0.00    -0.385 OA
ATOM     35  H   UNL     1      22.895  31.886  17.054  1.00  0.00     0.211 HD
ENDBRANCH  22  34
ENDBRANCH  16  17
ENDBRANCH  11  16
BRANCH  13  36
ATOM     36  O   UNL     1      28.367  33.419  15.082  1.00  0.00    -0.385 OA
ATOM     37  H   UNL     1      28.580  32.766  14.391  1.00  0.00     0.211 HD
ENDBRANCH  13  36
BRANCH  14  38
ATOM     38  O   UNL     1      26.401  33.969  17.949  1.00  0.00    -0.387 OA
ATOM     39  H   UNL     1      26.546  34.407  18.821  1.00  0.00     0.211 HD
ENDBRANCH  14  38
BRANCH  15  40
ATOM     40  O   UNL     1      27.679  32.113  19.158  1.00  0.00    -0.387 OA
ATOM     41  H   UNL     1      27.898  32.184  20.118  1.00  0.00     0.211 HD
ENDBRANCH  15  40
ENDBRANCH   9  10
ENDBRANCH   8   9
ENDBRANCH   3   8
BRANCH   3  42
ATOM     42  C   UNL     1      31.021  31.013  21.273  1.00  0.00     0.364 C 
ATOM     43  O   UNL     1      32.108  30.609  21.790  1.00  0.00    -0.246 OA
BRANCH  42  44
ATOM     44  O   UNL     1      30.545  32.263  21.571  1.00  0.00    -0.477 OA
ATOM     45  H   UNL     1      30.225  32.512  22.514  1.00  0.00     0.296 HD
ENDBRANCH  42  44
ENDBRANCH   3  42
BRANCH   6  46
ATOM     46  O   UNL     1      29.203  27.019  20.204  1.00  0.00    -0.391 OA
ATOM     47  H   UNL     1      28.262  27.282  20.232  1.00  0.00     0.211 HD
ENDBRANCH   6  46
BRANCH   7  48
ATOM     48  N   UNL     1      29.407  28.099  23.535  1.00  0.00    -0.348 N 
ATOM     49  C   UNL     1      28.907  27.082  24.387  1.00  0.00     0.217 C 
ATOM     50  H   UNL     1      30.140  28.718  23.935  1.00  0.00     0.163 HD
ATOM     51  C   UNL     1      29.396  26.901  25.778  1.00  0.00     0.114 C 
ATOM     52  O   UNL     1      28.020  26.321  23.925  1.00  0.00    -0.275 OA
ENDBRANCH   7  48
ENDBRANCH   1   2
BRANCH   1  53
ATOM     53  O   UNL     1      26.525  28.716  22.687  1.00  0.00    -0.388 OA
ATOM     54  H   UNL     1      26.837  28.732  23.626  1.00  0.00     0.211 HD
ENDBRANCH   1  53
BRANCH   1  55
ATOM     55  C   UNL     1      26.676  31.085  22.739  1.00  0.00     0.165 C 
BRANCH  55  56
ATOM     56  O   UNL     1      27.930  31.693  22.994  1.00  0.00    -0.388 OA
ATOM     57  H   UNL     1      28.653  31.087  22.702  1.00  0.00     0.211 HD
ENDBRANCH  55  56
BRANCH  55  58
ATOM     58  C   UNL     1      25.987  30.863  24.041  1.00  0.00     0.154 C 
BRANCH  58  59
ATOM     59  N   UNL     1      24.577  30.581  23.875  1.00  0.00    -0.319 N 
ATOM     60  C   UNL     1      23.987  29.453  24.489  1.00  0.00     0.407 C 
ATOM     61  H   UNL     1      23.945  31.203  23.297  1.00  0.00     0.167 HD
ATOM     62  O   UNL     1      24.652  28.651  25.184  1.00  0.00    -0.225 OA
BRANCH  60  63
ATOM     63  O   UNL     1      22.639  29.189  24.352  1.00  0.00    -0.443 OA
BRANCH  63  64
ATOM     64  C   UNL     1      21.977  28.715  23.232  1.00  0.00     0.294 C 
BRANCH  64  65
ATOM     65  C   UNL     1      22.840  28.179  22.155  1.00  0.00     0.120 A 
ATOM     66  C   UNL     1      22.981  26.855  21.852  1.00  0.00     0.138 A 
ATOM     67  N   UNL     1      23.630  28.910  21.313  1.00  0.00    -0.132 NA
ATOM     68  N   UNL     1      23.855  26.802  20.830  1.00  0.00    -0.249 N 
ATOM     69  N   UNL     1      24.226  28.022  20.527  1.00  0.00    -0.067 NA
BRANCH  68  70
ATOM     70  C   UNL     1      24.334  25.611  20.162  1.00  0.00     0.180 C 
BRANCH  70  71
ATOM     71  C   UNL     1      25.588  25.151  20.919  1.00  0.00     0.161 C 
BRANCH  71  72
ATOM     72  O   UNL     1      26.304  26.277  21.243  1.00  0.00    -0.389 OA
ATOM     73  H   UNL     1      27.215  26.066  21.564  1.00  0.00     0.211 HD
ENDBRANCH  71  72
BRANCH  71  74
ATOM     74  C   UNL     1      25.180  24.373  22.148  1.00  0.00     0.189 C 
BRANCH  74  75
ATOM     75  O   UNL     1      25.695  24.967  23.278  1.00  0.00    -0.394 OA
ATOM     76  H   UNL     1      26.332  25.681  23.016  1.00  0.00     0.210 HD
ENDBRANCH  74  75
ENDBRANCH  71  74
ENDBRANCH  70  71
ENDBRANCH  68  70
ENDBRANCH  64  65
ENDBRANCH  63  64
ENDBRANCH  60  63
ENDBRANCH  58  59
ENDBRANCH  55  58
ENDBRANCH   1  55
TORSDOF 34
BEGIN_RES LYS A 131
REMARK  4 active torsions:
REMARK  status: ('A' for Active; 'I' for Inactive)
REMARK    1  A    between atoms: CA   and  CB  
REMARK    2  A    between atoms: CB   and  CG  
REMARK    3  A    between atoms: CG   and  CD  
REMARK    4  A    between atoms: CD   and  CE  
ROOT
ATOM      1  CA  LYS A 131      29.867  25.555  16.977  1.00 20.52     0.186 C 
ENDROOT
BRANCH   1   2
ATOM      2  CB  LYS A 131      28.345  25.722  17.026  1.00 20.94     0.034 C 
BRANCH   2   3
ATOM      3  CG  LYS A 131      27.599  24.447  16.666  1.00 22.96     0.005 C 
BRANCH   3   4
ATOM      4  CD  LYS A 131      27.001  23.780  17.874  1.00 24.33     0.041 C 
BRANCH   4   5
ATOM      5  CE  LYS A 131      25.613  23.250  17.528  1.00 26.91     0.338 C 
ATOM      6  NZ  LYS A 131      24.792  24.315  16.902  1.00 27.40     0.618 N 
ENDBRANCH   4   5
ENDBRANCH   3   4
ENDBRANCH   2   3
ENDBRANCH   1   2
END_RES LYS A 131
BEGIN_RES LYS A 135
REMARK  4 active torsions:
REMARK  status: ('A' for Active; 'I' for Inactive)
REMARK    5  A    between atoms: CA   and  CB  
REMARK    6  A    between atoms: CB   and  CG  
REMARK    7  A    between atoms: CG   and  CD  
REMARK    8  A    between atoms: CD   and  CE  
ROOT
ATOM      7  CA  LYS A 135      33.193  34.663   9.290  1.00 25.02     0.186 C 
ENDROOT
BRANCH   7   8
ATOM      8  CB  LYS A 135      32.060  35.360  10.034  1.00 26.63     0.034 C 
BRANCH   8   9
ATOM      9  CG  LYS A 135      30.734  34.656   9.908  1.00 29.45     0.005 C 
BRANCH   9  10
ATOM     10  CD  LYS A 135      30.334  34.521   8.447  1.00 32.00     0.041 C 
BRANCH  10  11
ATOM     11  CE  LYS A 135      28.824  34.544   8.304  1.00 34.25     0.338 C 
ATOM     12  NZ  LYS A 135      28.168  33.807   9.420  1.00 35.99     0.618 N 
ENDBRANCH  10  11
ENDBRANCH   9  10
ENDBRANCH   8   9
ENDBRANCH   7   8
END_RES LYS A 135
