REMARK VINA RESULT:    -3.764      2.814      8.012
REMARK INTER + INTRA:         -23.807
REMARK INTER:                 -13.193
REMARK INTRA:                 -10.614
REMARK UNBOUND:               -13.881
REMARK SMILES CCOC(=O)c1cccc(-n2cc(COC(=O)NC[C@@H](O)C(O)[C@@H]3O[C@@](OC[C@H]4O[C@@H](O[C@H]5[C@H](O)[C@@H](O)[C@H](OCCN=[N+]=[N-])O[C@@H]5CO)[C@H](O)[C@@H](O)[C@H]4O)(C(=O)O)C[C@H](O)[C@H]3NC(C)=O)nn2)c1
REMARK SMILES IDX 22 1 24 2 26 3 58 4 25 5 59 6 61 7 27 8 28 9 29 10 31 11
REMARK SMILES IDX 30 12 49 13 51 14 53 15 32 16 33 17 46 18 45 19 38 20 34 21
REMARK SMILES IDX 36 22 47 23 48 24 39 26 40 27 41 28 42 29 43 30 44 31 35 32
REMARK SMILES IDX 37 34 50 36 52 38 54 40 55 42 56 43 57 44 60 46 62 48 63 49
REMARK SMILES IDX 64 51 65 52 23 53 20 55 21 56 19 58 18 59 16 60 17 62 15 63
REMARK SMILES IDX 14 64 13 65 12 66 66 67 11 68 67 69 10 70 68 71 9 72 6 73
REMARK SMILES IDX 8 74 7 75 4 76 5 77 3 78 2 79 1 80
REMARK H PARENT 48 25 35 33 37 35 50 37 52 39 54 41 57 45 60 47 62 50 23 54
REMARK H PARENT 21 57 18 61
REMARK Flexibility Score: inf
ROOT
ATOM      1  C   UNL     1      28.391  34.292  14.334  1.00  0.00     0.176 C 
ENDROOT
BRANCH   1   2
ATOM      2  C   UNL     1      29.675  34.991  14.497  1.00  0.00     0.178 C 
ATOM      3  C   UNL     1      30.720  36.847  13.472  1.00  0.00     0.272 C 
ATOM      4  C   UNL     1      31.733  36.463  14.500  1.00  0.00     0.113 C 
ATOM      5  O   UNL     1      29.970  35.629  13.290  1.00  0.00    -0.332 OA
ATOM      6  C   UNL     1      32.117  34.992  14.452  1.00  0.00     0.145 C 
ATOM      7  C   UNL     1      30.856  34.176  14.890  1.00  0.00     0.142 C 
BRANCH   3   8
ATOM      8  O   UNL     1      31.318  37.076  12.273  1.00  0.00    -0.338 OA
BRANCH   8   9
ATOM      9  C   UNL     1      31.542  38.239  11.712  1.00  0.00     0.199 C 
BRANCH   9  10
ATOM     10  C   UNL     1      31.442  38.587  10.289  1.00  0.00     0.179 C 
ATOM     11  C   UNL     1      30.129  38.339   8.368  1.00  0.00     0.282 C 
ATOM     12  O   UNL     1      30.575  37.813   9.602  1.00  0.00    -0.341 OA
ATOM     13  C   UNL     1      31.013  39.453   7.899  1.00  0.00     0.202 C 
ATOM     14  C   UNL     1      31.162  40.557   8.895  1.00  0.00     0.179 C 
ATOM     15  C   UNL     1      30.871  40.041  10.263  1.00  0.00     0.177 C 
BRANCH  11  16
ATOM     16  O   UNL     1      28.815  38.645   8.564  1.00  0.00    -0.341 OA
BRANCH  16  17
ATOM     17  C   UNL     1      27.888  37.662   8.525  1.00  0.00     0.184 C 
ATOM     18  C   UNL     1      26.791  38.075   7.580  1.00  0.00     0.178 C 
ATOM     19  O   UNL     1      25.823  37.077   7.455  1.00  0.00    -0.341 OA
ATOM     20  C   UNL     1      25.132  36.994   8.695  1.00  0.00     0.281 C 
ATOM     21  C   UNL     1      27.222  37.424   9.891  1.00  0.00     0.180 C 
ATOM     22  C   UNL     1      26.120  36.393   9.657  1.00  0.00     0.202 C 
BRANCH  18  23
ATOM     23  C   UNL     1      27.337  38.376   6.213  1.00  0.00     0.191 C 
BRANCH  23  24
ATOM     24  O   UNL     1      27.050  37.306   5.325  1.00  0.00    -0.394 OA
ATOM     25  H   UNL     1      26.199  36.868   5.581  1.00  0.00     0.210 HD
ENDBRANCH  23  24
ENDBRANCH  18  23
BRANCH  20  26
ATOM     26  O   UNL     1      24.006  36.249   8.497  1.00  0.00    -0.350 OA
BRANCH  26  27
ATOM     27  C   UNL     1      22.859  36.890   8.942  1.00  0.00     0.169 C 
BRANCH  27  28
ATOM     28  C   UNL     1      23.006  38.379   9.048  1.00  0.00     0.119 C 
BRANCH  28  29
ATOM     29  N   UNL     1      21.916  38.909   9.878  1.00  0.00    -0.092 NA
ATOM     30  N   UNL     1      22.135  39.047  11.089  1.00  0.00     0.001 N 
ATOM     31  N   UNL     1      22.278  39.467  12.254  1.00  0.00    -0.003 NA
ENDBRANCH  28  29
ENDBRANCH  27  28
ENDBRANCH  26  27
ENDBRANCH  20  26
BRANCH  21  32
ATOM     32  O   UNL     1      28.101  36.822  10.779  1.00  0.00    -0.387 OA
ATOM     33  H   UNL     1      27.659  36.799  11.661  1.00  0.00     0.211 HD
ENDBRANCH  21  32
BRANCH  22  34
ATOM     34  O   UNL     1      25.525  36.021  10.858  1.00  0.00    -0.385 OA
ATOM     35  H   UNL     1      25.947  36.457  11.658  1.00  0.00     0.211 HD
ENDBRANCH  22  34
ENDBRANCH  16  17
ENDBRANCH  11  16
BRANCH  13  36
ATOM     36  O   UNL     1      32.254  38.917   7.500  1.00  0.00    -0.385 OA
ATOM     37  H   UNL     1      32.250  38.628   6.560  1.00  0.00     0.211 HD
ENDBRANCH  13  36
BRANCH  14  38
ATOM     38  O   UNL     1      30.507  41.715   8.543  1.00  0.00    -0.387 OA
ATOM     39  H   UNL     1      29.588  41.456   8.264  1.00  0.00     0.211 HD
ENDBRANCH  14  38
BRANCH  15  40
ATOM     40  O   UNL     1      29.550  40.076  10.580  1.00  0.00    -0.387 OA
ATOM     41  H   UNL     1      29.046  40.529   9.859  1.00  0.00     0.211 HD
ENDBRANCH  15  40
ENDBRANCH   9  10
ENDBRANCH   8   9
ENDBRANCH   3   8
BRANCH   3  42
ATOM     42  C   UNL     1      29.766  37.875  13.863  1.00  0.00     0.364 C 
ATOM     43  O   UNL     1      29.831  38.470  14.949  1.00  0.00    -0.246 OA
BRANCH  42  44
ATOM     44  O   UNL     1      28.721  38.232  13.009  1.00  0.00    -0.477 OA
ATOM     45  H   UNL     1      28.844  38.453  12.043  1.00  0.00     0.296 HD
ENDBRANCH  42  44
ENDBRANCH   3  42
BRANCH   6  46
ATOM     46  O   UNL     1      32.357  34.647  13.145  1.00  0.00    -0.391 OA
ATOM     47  H   UNL     1      31.599  34.939  12.583  1.00  0.00     0.211 HD
ENDBRANCH   6  46
BRANCH   7  48
ATOM     48  N   UNL     1      30.981  33.995  16.317  1.00  0.00    -0.348 N 
ATOM     49  C   UNL     1      30.817  32.734  16.979  1.00  0.00     0.217 C 
ATOM     50  H   UNL     1      31.208  34.805  16.969  1.00  0.00     0.163 HD
ATOM     51  C   UNL     1      30.952  32.585  18.452  1.00  0.00     0.114 C 
ATOM     52  O   UNL     1      30.552  31.715  16.310  1.00  0.00    -0.275 OA
ENDBRANCH   7  48
ENDBRANCH   1   2
BRANCH   1  53
ATOM     53  O   UNL     1      28.202  33.171  15.097  1.00  0.00    -0.388 OA
ATOM     54  H   UNL     1      28.822  33.119  15.862  1.00  0.00     0.211 HD
ENDBRANCH   1  53
BRANCH   1  55
ATOM     55  C   UNL     1      27.150  35.145  14.294  1.00  0.00     0.165 C 
BRANCH  55  56
ATOM     56  O   UNL     1      27.122  35.919  13.130  1.00  0.00    -0.388 OA
ATOM     57  H   UNL     1      28.027  36.276  12.933  1.00  0.00     0.211 HD
ENDBRANCH  55  56
BRANCH  55  58
ATOM     58  C   UNL     1      26.861  35.896  15.559  1.00  0.00     0.154 C 
BRANCH  58  59
ATOM     59  N   UNL     1      25.444  35.994  15.826  1.00  0.00    -0.319 N 
ATOM     60  C   UNL     1      24.644  36.979  15.205  1.00  0.00     0.407 C 
ATOM     61  H   UNL     1      24.973  35.316  16.501  1.00  0.00     0.167 HD
ATOM     62  O   UNL     1      25.053  37.832  14.386  1.00  0.00    -0.225 OA
BRANCH  60  63
ATOM     63  O   UNL     1      23.268  37.061  15.499  1.00  0.00    -0.443 OA
BRANCH  63  64
ATOM     64  C   UNL     1      22.242  36.784  14.598  1.00  0.00     0.294 C 
BRANCH  64  65
ATOM     65  C   UNL     1      22.470  35.654  13.688  1.00  0.00     0.121 A 
ATOM     66  C   UNL     1      22.327  34.307  14.000  1.00  0.00     0.144 A 
ATOM     67  N   UNL     1      22.851  35.700  12.417  1.00  0.00    -0.131 NA
ATOM     68  N   UNL     1      22.628  33.605  12.908  1.00  0.00    -0.220 N 
ATOM     69  N   UNL     1      22.942  34.453  11.956  1.00  0.00    -0.062 NA
BRANCH  68  70
ATOM     70  C   UNL     1      22.606  32.198  12.801  1.00  0.00     0.067 A 
ATOM     71  C   UNL     1      21.429  31.506  12.528  1.00  0.00     0.044 A 
ATOM     72  C   UNL     1      23.739  31.443  12.948  1.00  0.00     0.028 A 
ATOM     73  C   UNL     1      21.360  30.144  12.403  1.00  0.00     0.062 A 
ATOM     74  C   UNL     1      23.711  30.062  12.829  1.00  0.00     0.003 A 
ATOM     75  C   UNL     1      22.530  29.410  12.559  1.00  0.00     0.016 A 
BRANCH  73  76
ATOM     76  C   UNL     1      20.101  29.487  12.121  1.00  0.00     0.338 C 
ATOM     77  O   UNL     1      20.090  28.270  11.852  1.00  0.00    -0.246 OA
BRANCH  76  78
ATOM     78  O   UNL     1      18.930  30.199  12.152  1.00  0.00    -0.462 OA
BRANCH  78  79
ATOM     79  C   UNL     1      18.173  30.529  11.010  1.00  0.00     0.230 C 
ATOM     80  C   UNL     1      17.840  32.005  11.021  1.00  0.00     0.049 C 
ENDBRANCH  78  79
ENDBRANCH  76  78
ENDBRANCH  73  76
ENDBRANCH  68  70
ENDBRANCH  64  65
ENDBRANCH  63  64
ENDBRANCH  60  63
ENDBRANCH  58  59
ENDBRANCH  55  58
ENDBRANCH   1  55
TORSDOF 33
BEGIN_RES LYS A 131
REMARK  4 active torsions:
REMARK  status: ('A' for Active; 'I' for Inactive)
REMARK    1  A    between atoms: CA   and  CB  
REMARK    2  A    between atoms: CB   and  CG  
REMARK    3  A    between atoms: CG   and  CD  
REMARK    4  A    between atoms: CD   and  CE  
ROOT
ATOM      1  CA  LYS A 131      29.867  25.555  16.977  1.00 20.52     0.186 C 
ENDROOT
BRANCH   1   2
ATOM      2  CB  LYS A 131      28.345  25.722  17.026  1.00 20.94     0.034 C 
BRANCH   2   3
ATOM      3  CG  LYS A 131      27.601  24.401  16.900  1.00 22.96     0.005 C 
BRANCH   3   4
ATOM      4  CD  LYS A 131      26.219  24.471  17.486  1.00 24.33     0.041 C 
BRANCH   4   5
ATOM      5  CE  LYS A 131      26.133  25.652  18.447  1.00 26.91     0.338 C 
ATOM      6  NZ  LYS A 131      24.930  26.470  18.160  1.00 27.40     0.618 N 
ENDBRANCH   4   5
ENDBRANCH   3   4
ENDBRANCH   2   3
ENDBRANCH   1   2
END_RES LYS A 131
BEGIN_RES LYS A 135
REMARK  4 active torsions:
REMARK  status: ('A' for Active; 'I' for Inactive)
REMARK    5  A    between atoms: CA   and  CB  
REMARK    6  A    between atoms: CB   and  CG  
REMARK    7  A    between atoms: CG   and  CD  
REMARK    8  A    between atoms: CD   and  CE  
ROOT
ATOM      7  CA  LYS A 135      33.193  34.663   9.290  1.00 25.02     0.186 C 
ENDROOT
BRANCH   7   8
ATOM      8  CB  LYS A 135      32.060  35.360  10.034  1.00 26.63     0.034 C 
BRANCH   8   9
ATOM      9  CG  LYS A 135      30.751  34.616   9.971  1.00 29.45     0.005 C 
BRANCH   9  10
ATOM     10  CD  LYS A 135      30.347  34.360   8.528  1.00 32.00     0.041 C 
BRANCH  10  11
ATOM     11  CE  LYS A 135      28.837  34.303   8.399  1.00 34.25     0.338 C 
ATOM     12  NZ  LYS A 135      28.222  33.648   9.587  1.00 35.99     0.618 N 
ENDBRANCH  10  11
ENDBRANCH   9  10
ENDBRANCH   8   9
ENDBRANCH   7   8
END_RES LYS A 135
