REMARK VINA RESULT:    -5.167      3.246      8.815
REMARK INTER + INTRA:         -22.872
REMARK INTER:                 -10.580
REMARK INTRA:                 -12.291
REMARK UNBOUND:                -9.852
REMARK SMILES CC(=O)N[C@@H]1[C@@H](O)C[C@](OC[C@H]2O[C@@H](O[C@H]3[C@H](O)[C@@H](O)[C@H](OCCN=[N+]=[N-])O[C@@H]3CO)[C@H](O)[C@@H](O)[C@H]2O)(C(=O)O)O[C@H]1C(O)[C@H](O)CNC(=O)OCc1cn(Cc2ccc3c(c2)OCO3)nn1
REMARK SMILES IDX 9 1 8 2 6 3 5 4 42 5 41 6 10 7 11 8 12 9 14 10 13 11 32 12
REMARK SMILES IDX 34 13 36 14 15 15 16 16 29 17 28 18 21 19 17 20 19 21 30 22
REMARK SMILES IDX 31 23 22 25 23 26 24 27 25 28 26 29 27 30 18 31 20 33 33 35
REMARK SMILES IDX 35 37 37 39 38 41 39 42 40 43 7 45 43 47 44 48 45 50 46 51
REMARK SMILES IDX 47 53 48 54 49 55 50 57 51 58 52 59 53 60 54 61 67 62 55 63
REMARK SMILES IDX 66 64 56 65 57 66 58 67 62 68 59 69 61 70 60 71 63 72 65 73
REMARK SMILES IDX 64 74 4 75 2 76 1 78 3 79
REMARK H PARENT 31 24 18 32 20 34 33 36 35 38 37 40 40 44 7 46 44 49 46 52
REMARK H PARENT 48 56 4 77
REMARK Flexibility Score: inf
ROOT
ATOM      1  C   UNL     1      30.850  37.208  13.101  1.00  0.00     0.272 C 
ATOM      2  C   UNL     1      32.272  36.809  13.442  1.00  0.00     0.113 C 
ATOM      3  C   UNL     1      32.349  35.320  13.594  1.00  0.00     0.145 C 
ATOM      4  C   UNL     1      31.430  34.960  14.791  1.00  0.00     0.142 C 
ATOM      5  C   UNL     1      30.089  35.534  14.506  1.00  0.00     0.178 C 
ATOM      6  O   UNL     1      29.981  36.157  13.265  1.00  0.00    -0.332 OA
ENDROOT
BRANCH   1   7
ATOM      7  O   UNL     1      30.785  37.733  11.800  1.00  0.00    -0.338 OA
BRANCH   7   8
ATOM      8  C   UNL     1      31.958  38.091  11.225  1.00  0.00     0.199 C 
BRANCH   8   9
ATOM      9  C   UNL     1      31.673  39.166  10.164  1.00  0.00     0.179 C 
ATOM     10  C   UNL     1      30.229  39.720   8.462  1.00  0.00     0.282 C 
ATOM     11  O   UNL     1      30.699  38.719   9.312  1.00  0.00    -0.341 OA
ATOM     12  C   UNL     1      29.499  40.765   9.311  1.00  0.00     0.202 C 
ATOM     13  C   UNL     1      30.024  40.891  10.695  1.00  0.00     0.179 C 
ATOM     14  C   UNL     1      31.464  40.509  10.767  1.00  0.00     0.177 C 
BRANCH  10  15
ATOM     15  O   UNL     1      29.327  39.200   7.621  1.00  0.00    -0.341 OA
BRANCH  15  16
ATOM     16  C   UNL     1      28.025  39.037   7.987  1.00  0.00     0.184 C 
ATOM     17  C   UNL     1      27.654  37.625   8.347  1.00  0.00     0.178 C 
ATOM     18  O   UNL     1      26.761  37.071   7.490  1.00  0.00    -0.341 OA
ATOM     19  C   UNL     1      25.511  37.717   7.398  1.00  0.00     0.281 C 
ATOM     20  C   UNL     1      27.136  39.549   6.885  1.00  0.00     0.180 C 
ATOM     21  C   UNL     1      25.703  39.208   7.243  1.00  0.00     0.202 C 
BRANCH  17  22
ATOM     22  C   UNL     1      27.105  37.604   9.752  1.00  0.00     0.191 C 
BRANCH  22  23
ATOM     23  O   UNL     1      28.165  37.616  10.696  1.00  0.00    -0.394 OA
ATOM     24  H   UNL     1      27.907  37.203  11.552  1.00  0.00     0.210 HD
ENDBRANCH  22  23
ENDBRANCH  17  22
BRANCH  19  25
ATOM     25  O   UNL     1      24.683  37.349   8.410  1.00  0.00    -0.350 OA
BRANCH  25  26
ATOM     26  C   UNL     1      23.379  37.130   8.256  1.00  0.00     0.169 C 
BRANCH  26  27
ATOM     27  C   UNL     1      22.788  35.999   9.039  1.00  0.00     0.119 C 
BRANCH  27  28
ATOM     28  N   UNL     1      21.678  35.339   8.451  1.00  0.00    -0.092 NA
ATOM     29  N   UNL     1      20.791  35.903   7.815  1.00  0.00     0.001 N 
ATOM     30  N   UNL     1      19.820  36.644   7.581  1.00  0.00    -0.003 NA
ENDBRANCH  27  28
ENDBRANCH  26  27
ENDBRANCH  25  26
ENDBRANCH  19  25
BRANCH  20  31
ATOM     31  O   UNL     1      27.267  40.935   6.836  1.00  0.00    -0.387 OA
ATOM     32  H   UNL     1      27.660  41.294   7.673  1.00  0.00     0.211 HD
ENDBRANCH  20  31
BRANCH  21  33
ATOM     33  O   UNL     1      24.919  39.695   6.200  1.00  0.00    -0.385 OA
ATOM     34  H   UNL     1      24.009  39.295   6.241  1.00  0.00     0.211 HD
ENDBRANCH  21  33
ENDBRANCH  15  16
ENDBRANCH  10  15
BRANCH  12  35
ATOM     35  O   UNL     1      29.502  41.998   8.662  1.00  0.00    -0.385 OA
ATOM     36  H   UNL     1      29.658  42.720   9.293  1.00  0.00     0.211 HD
ENDBRANCH  12  35
BRANCH  13  37
ATOM     37  O   UNL     1      29.261  40.227  11.642  1.00  0.00    -0.387 OA
ATOM     38  H   UNL     1      28.342  40.115  11.289  1.00  0.00     0.211 HD
ENDBRANCH  13  37
BRANCH  14  39
ATOM     39  O   UNL     1      31.844  40.530  12.117  1.00  0.00    -0.387 OA
ATOM     40  H   UNL     1      31.145  40.091  12.638  1.00  0.00     0.211 HD
ENDBRANCH  14  39
ENDBRANCH   8   9
ENDBRANCH   7   8
ENDBRANCH   1   7
BRANCH   1  41
ATOM     41  C   UNL     1      30.443  38.327  13.970  1.00  0.00     0.364 C 
ATOM     42  O   UNL     1      29.278  38.738  14.047  1.00  0.00    -0.246 OA
BRANCH  41  43
ATOM     43  O   UNL     1      31.374  38.995  14.771  1.00  0.00    -0.477 OA
ATOM     44  H   UNL     1      32.276  39.302  14.370  1.00  0.00     0.296 HD
ENDBRANCH  41  43
ENDBRANCH   1  41
BRANCH   3  45
ATOM     45  O   UNL     1      31.897  34.572  12.546  1.00  0.00    -0.391 OA
ATOM     46  H   UNL     1      32.165  33.620  12.579  1.00  0.00     0.211 HD
ENDBRANCH   3  45
BRANCH   5  47
ATOM     47  C   UNL     1      29.033  34.404  14.419  1.00  0.00     0.176 C 
BRANCH  47  48
ATOM     48  O   UNL     1      28.753  34.041  13.136  1.00  0.00    -0.388 OA
ATOM     49  H   UNL     1      28.407  33.118  13.114  1.00  0.00     0.211 HD
ENDBRANCH  47  48
BRANCH  47  50
ATOM     50  C   UNL     1      29.224  33.284  15.343  1.00  0.00     0.165 C 
BRANCH  50  51
ATOM     51  O   UNL     1      29.954  32.202  14.832  1.00  0.00    -0.388 OA
ATOM     52  H   UNL     1      29.426  31.717  14.146  1.00  0.00     0.211 HD
ENDBRANCH  50  51
BRANCH  50  53
ATOM     53  C   UNL     1      27.990  32.721  15.993  1.00  0.00     0.154 C 
BRANCH  53  54
ATOM     54  N   UNL     1      26.891  32.837  15.018  1.00  0.00    -0.319 N 
ATOM     55  C   UNL     1      25.675  33.507  15.334  1.00  0.00     0.407 C 
ATOM     56  H   UNL     1      27.026  32.417  14.093  1.00  0.00     0.167 HD
ATOM     57  O   UNL     1      25.576  34.001  16.489  1.00  0.00    -0.225 OA
BRANCH  55  58
ATOM     58  O   UNL     1      24.633  33.630  14.447  1.00  0.00    -0.443 OA
BRANCH  58  59
ATOM     59  C   UNL     1      24.855  34.043  13.119  1.00  0.00     0.294 C 
BRANCH  59  60
ATOM     60  C   UNL     1      25.258  35.469  13.129  1.00  0.00     0.120 A 
ATOM     61  C   UNL     1      24.456  36.586  13.332  1.00  0.00     0.138 A 
ATOM     62  N   UNL     1      26.494  35.969  12.930  1.00  0.00    -0.132 NA
ATOM     63  N   UNL     1      25.220  37.693  13.252  1.00  0.00    -0.248 N 
ATOM     64  N   UNL     1      26.441  37.292  13.008  1.00  0.00    -0.067 NA
BRANCH  63  65
ATOM     65  C   UNL     1      24.757  39.039  13.412  1.00  0.00     0.181 C 
BRANCH  65  66
ATOM     66  C   UNL     1      24.871  39.871  12.192  1.00  0.00    -0.023 A 
ATOM     67  C   UNL     1      23.970  39.731  11.183  1.00  0.00     0.010 A 
ATOM     68  C   UNL     1      25.908  40.803  12.071  1.00  0.00     0.056 A 
ATOM     69  C   UNL     1      24.095  40.510  10.060  1.00  0.00     0.051 A 
ATOM     70  C   UNL     1      26.045  41.585  10.957  1.00  0.00     0.166 A 
ATOM     71  C   UNL     1      25.113  41.418   9.949  1.00  0.00     0.165 A 
ATOM     72  O   UNL     1      26.917  42.567  10.526  1.00  0.00    -0.454 OA
ATOM     73  O   UNL     1      25.415  42.298   8.901  1.00  0.00    -0.454 OA
ATOM     74  C   UNL     1      26.309  43.252   9.433  1.00  0.00     0.468 C 
ENDBRANCH  65  66
ENDBRANCH  63  65
ENDBRANCH  59  60
ENDBRANCH  58  59
ENDBRANCH  55  58
ENDBRANCH  53  54
ENDBRANCH  50  53
ENDBRANCH  47  50
ENDBRANCH   5  47
BRANCH   4  75
ATOM     75  N   UNL     1      32.111  35.497  15.935  1.00  0.00    -0.348 N 
ATOM     76  C   UNL     1      32.159  34.704  17.130  1.00  0.00     0.217 C 
ATOM     77  H   UNL     1      32.589  36.413  16.008  1.00  0.00     0.163 HD
ATOM     78  C   UNL     1      32.862  35.243  18.344  1.00  0.00     0.114 C 
ATOM     79  O   UNL     1      31.620  33.572  17.161  1.00  0.00    -0.275 OA
ENDBRANCH   4  75
TORSDOF 31
BEGIN_RES LYS A 131
REMARK  4 active torsions:
REMARK  status: ('A' for Active; 'I' for Inactive)
REMARK    1  A    between atoms: CA   and  CB  
REMARK    2  A    between atoms: CB   and  CG  
REMARK    3  A    between atoms: CG   and  CD  
REMARK    4  A    between atoms: CD   and  CE  
ROOT
ATOM      1  CA  LYS A 131      29.867  25.555  16.977  1.00 20.52     0.186 C 
ENDROOT
BRANCH   1   2
ATOM      2  CB  LYS A 131      28.345  25.722  17.026  1.00 20.94     0.034 C 
BRANCH   2   3
ATOM      3  CG  LYS A 131      27.601  24.402  16.889  1.00 22.96     0.005 C 
BRANCH   3   4
ATOM      4  CD  LYS A 131      26.518  24.253  17.922  1.00 24.33     0.041 C 
BRANCH   4   5
ATOM      5  CE  LYS A 131      25.154  24.334  17.244  1.00 26.91     0.338 C 
ATOM      6  NZ  LYS A 131      24.484  23.013  17.268  1.00 27.40     0.618 N 
ENDBRANCH   4   5
ENDBRANCH   3   4
ENDBRANCH   2   3
ENDBRANCH   1   2
END_RES LYS A 131
BEGIN_RES LYS A 135
REMARK  4 active torsions:
REMARK  status: ('A' for Active; 'I' for Inactive)
REMARK    5  A    between atoms: CA   and  CB  
REMARK    6  A    between atoms: CB   and  CG  
REMARK    7  A    between atoms: CG   and  CD  
REMARK    8  A    between atoms: CD   and  CE  
ROOT
ATOM      7  CA  LYS A 135      33.193  34.663   9.290  1.00 25.02     0.186 C 
ENDROOT
BRANCH   7   8
ATOM      8  CB  LYS A 135      32.060  35.360  10.034  1.00 26.63     0.034 C 
BRANCH   8   9
ATOM      9  CG  LYS A 135      30.752  35.351   9.285  1.00 29.45     0.005 C 
BRANCH   9  10
ATOM     10  CD  LYS A 135      29.877  34.197   9.749  1.00 32.00     0.041 C 
BRANCH  10  11
ATOM     11  CE  LYS A 135      28.591  34.148   8.946  1.00 34.25     0.338 C 
ATOM     12  NZ  LYS A 135      27.411  33.956   9.834  1.00 35.99     0.618 N 
ENDBRANCH  10  11
ENDBRANCH   9  10
ENDBRANCH   8   9
ENDBRANCH   7   8
END_RES LYS A 135
