REMARK VINA RESULT:    -5.170      3.694      9.327
REMARK INTER + INTRA:         -22.533
REMARK INTER:                  -8.644
REMARK INTRA:                 -13.889
REMARK UNBOUND:                -9.203
REMARK SMILES CC(=O)N[C@@H]1[C@@H](O)C[C@](OC[C@H]2O[C@@H](O[C@H]3[C@H](O)[C@@H](O)[C@H](OCCN=[N+]=[N-])O[C@@H]3CO)[C@H](O)[C@@H](O)[C@H]2O)(C(=O)O)O[C@H]1C(O)[C@H](O)CNC(=O)OCc1cn(Cc2ccc(C#N)cc2)nn1
REMARK SMILES IDX 9 1 8 2 6 3 5 4 42 5 41 6 10 7 11 8 12 9 14 10 13 11 32 12
REMARK SMILES IDX 34 13 36 14 15 15 16 16 29 17 28 18 21 19 17 20 19 21 30 22
REMARK SMILES IDX 31 23 22 25 23 26 24 27 25 28 26 29 27 30 18 31 20 33 33 35
REMARK SMILES IDX 35 37 37 39 38 41 39 42 40 43 7 45 43 47 44 48 45 50 46 51
REMARK SMILES IDX 47 53 48 54 49 55 50 57 51 58 52 59 53 60 54 61 66 62 55 63
REMARK SMILES IDX 65 64 56 65 57 66 58 67 64 68 59 69 63 70 60 71 61 72 62 73
REMARK SMILES IDX 4 74 2 75 1 77 3 78
REMARK H PARENT 31 24 18 32 20 34 33 36 35 38 37 40 40 44 7 46 44 49 46 52
REMARK H PARENT 48 56 4 76
REMARK Flexibility Score: inf
ROOT
ATOM      1  C   UNL     1      29.668  35.888  14.413  1.00  0.00     0.272 C 
ATOM      2  C   UNL     1      30.751  36.603  13.683  1.00  0.00     0.113 C 
ATOM      3  C   UNL     1      31.125  37.931  14.238  1.00  0.00     0.145 C 
ATOM      4  C   UNL     1      29.871  38.539  14.888  1.00  0.00     0.142 C 
ATOM      5  C   UNL     1      28.699  37.953  14.161  1.00  0.00     0.178 C 
ATOM      6  O   UNL     1      28.503  36.659  14.550  1.00  0.00    -0.332 OA
ENDROOT
BRANCH   1   7
ATOM      7  O   UNL     1      30.017  35.335  15.626  1.00  0.00    -0.338 OA
BRANCH   7   8
ATOM      8  C   UNL     1      31.157  34.605  15.619  1.00  0.00     0.199 C 
BRANCH   8   9
ATOM      9  C   UNL     1      31.167  33.536  16.727  1.00  0.00     0.179 C 
ATOM     10  C   UNL     1      29.773  32.688  18.358  1.00  0.00     0.282 C 
ATOM     11  O   UNL     1      29.986  33.721  17.447  1.00  0.00    -0.341 OA
ATOM     12  C   UNL     1      29.622  31.352  17.707  1.00  0.00     0.202 C 
ATOM     13  C   UNL     1      29.817  31.495  16.216  1.00  0.00     0.179 C 
ATOM     14  C   UNL     1      31.157  32.195  16.042  1.00  0.00     0.177 C 
BRANCH  10  15
ATOM     15  O   UNL     1      28.587  32.981  19.029  1.00  0.00    -0.341 OA
BRANCH  15  16
ATOM     16  C   UNL     1      27.989  34.163  18.598  1.00  0.00     0.184 C 
ATOM     17  C   UNL     1      27.620  34.994  19.773  1.00  0.00     0.178 C 
ATOM     18  O   UNL     1      26.329  34.898  20.206  1.00  0.00    -0.341 OA
ATOM     19  C   UNL     1      25.570  33.896  19.657  1.00  0.00     0.281 C 
ATOM     20  C   UNL     1      26.893  33.927  17.608  1.00  0.00     0.180 C 
ATOM     21  C   UNL     1      25.503  34.100  18.160  1.00  0.00     0.202 C 
BRANCH  17  22
ATOM     22  C   UNL     1      28.034  36.441  19.514  1.00  0.00     0.191 C 
BRANCH  22  23
ATOM     23  O   UNL     1      28.810  36.457  18.355  1.00  0.00    -0.394 OA
ATOM     24  H   UNL     1      29.206  35.551  18.173  1.00  0.00     0.210 HD
ENDBRANCH  22  23
ENDBRANCH  17  22
BRANCH  19  25
ATOM     25  O   UNL     1      24.266  34.065  20.168  1.00  0.00    -0.350 OA
BRANCH  25  26
ATOM     26  C   UNL     1      24.044  33.215  21.243  1.00  0.00     0.169 C 
BRANCH  26  27
ATOM     27  C   UNL     1      23.321  31.959  20.799  1.00  0.00     0.119 C 
BRANCH  27  28
ATOM     28  N   UNL     1      22.456  32.198  19.659  1.00  0.00    -0.092 NA
ATOM     29  N   UNL     1      22.289  31.325  18.823  1.00  0.00     0.001 N 
ATOM     30  N   UNL     1      21.684  30.487  18.138  1.00  0.00    -0.003 NA
ENDBRANCH  27  28
ENDBRANCH  26  27
ENDBRANCH  25  26
ENDBRANCH  19  25
BRANCH  20  31
ATOM     31  O   UNL     1      27.055  34.663  16.428  1.00  0.00    -0.387 OA
ATOM     32  H   UNL     1      26.774  34.112  15.640  1.00  0.00     0.211 HD
ENDBRANCH  20  31
BRANCH  21  33
ATOM     33  O   UNL     1      24.597  33.212  17.577  1.00  0.00    -0.385 OA
ATOM     34  H   UNL     1      25.136  32.501  17.143  1.00  0.00     0.211 HD
ENDBRANCH  21  33
ENDBRANCH  15  16
ENDBRANCH  10  15
BRANCH  12  35
ATOM     35  O   UNL     1      30.486  30.384  18.170  1.00  0.00    -0.385 OA
ATOM     36  H   UNL     1      30.528  30.420  19.167  1.00  0.00     0.211 HD
ENDBRANCH  12  35
BRANCH  13  37
ATOM     37  O   UNL     1      28.763  32.238  15.710  1.00  0.00    -0.387 OA
ATOM     38  H   UNL     1      28.854  32.495  14.767  1.00  0.00     0.211 HD
ENDBRANCH  13  37
BRANCH  14  39
ATOM     39  O   UNL     1      31.577  32.252  14.735  1.00  0.00    -0.387 OA
ATOM     40  H   UNL     1      32.392  32.794  14.668  1.00  0.00     0.211 HD
ENDBRANCH  14  39
ENDBRANCH   8   9
ENDBRANCH   7   8
ENDBRANCH   1   7
BRANCH   1  41
ATOM     41  C   UNL     1      29.225  34.769  13.516  1.00  0.00     0.364 C 
ATOM     42  O   UNL     1      29.881  34.482  12.509  1.00  0.00    -0.246 OA
BRANCH  41  43
ATOM     43  O   UNL     1      28.082  34.077  13.841  1.00  0.00    -0.477 OA
ATOM     44  H   UNL     1      27.951  33.088  13.667  1.00  0.00     0.296 HD
ENDBRANCH  41  43
ENDBRANCH   1  41
BRANCH   3  45
ATOM     45  O   UNL     1      32.218  37.965  15.057  1.00  0.00    -0.391 OA
ATOM     46  H   UNL     1      31.966  37.849  15.996  1.00  0.00     0.211 HD
ENDBRANCH   3  45
BRANCH   5  47
ATOM     47  C   UNL     1      27.418  38.784  14.316  1.00  0.00     0.176 C 
BRANCH  47  48
ATOM     48  O   UNL     1      27.476  39.724  13.261  1.00  0.00    -0.388 OA
ATOM     49  H   UNL     1      28.238  39.481  12.679  1.00  0.00     0.211 HD
ENDBRANCH  47  48
BRANCH  47  50
ATOM     50  C   UNL     1      26.214  37.967  14.166  1.00  0.00     0.165 C 
BRANCH  50  51
ATOM     51  O   UNL     1      25.978  37.180  15.334  1.00  0.00    -0.388 OA
ATOM     52  H   UNL     1      26.851  37.236  15.835  1.00  0.00     0.211 HD
ENDBRANCH  50  51
BRANCH  50  53
ATOM     53  C   UNL     1      26.113  37.106  12.969  1.00  0.00     0.154 C 
BRANCH  53  54
ATOM     54  N   UNL     1      25.920  35.725  13.046  1.00  0.00    -0.319 N 
ATOM     55  C   UNL     1      25.311  34.841  12.136  1.00  0.00     0.407 C 
ATOM     56  H   UNL     1      26.288  35.234  13.934  1.00  0.00     0.167 HD
ATOM     57  O   UNL     1      24.847  35.198  11.044  1.00  0.00    -0.225 OA
BRANCH  55  58
ATOM     58  O   UNL     1      25.200  33.472  12.425  1.00  0.00    -0.443 OA
BRANCH  58  59
ATOM     59  C   UNL     1      24.164  33.009  13.275  1.00  0.00     0.294 C 
BRANCH  59  60
ATOM     60  C   UNL     1      24.774  32.081  14.292  1.00  0.00     0.120 A 
ATOM     61  C   UNL     1      24.135  30.974  14.810  1.00  0.00     0.138 A 
ATOM     62  N   UNL     1      25.982  32.132  14.884  1.00  0.00    -0.132 NA
ATOM     63  N   UNL     1      24.975  30.387  15.701  1.00  0.00    -0.248 N 
ATOM     64  N   UNL     1      26.047  31.109  15.705  1.00  0.00    -0.067 NA
BRANCH  63  65
ATOM     65  C   UNL     1      24.608  29.196  16.452  1.00  0.00     0.181 C 
BRANCH  65  66
ATOM     66  C   UNL     1      25.642  29.099  17.546  1.00  0.00    -0.026 A 
ATOM     67  C   UNL     1      25.637  30.054  18.532  1.00  0.00     0.007 A 
ATOM     68  C   UNL     1      26.572  28.057  17.537  1.00  0.00     0.007 A 
ATOM     69  C   UNL     1      26.544  30.048  19.567  1.00  0.00     0.020 A 
ATOM     70  C   UNL     1      27.476  28.051  18.569  1.00  0.00     0.020 A 
ATOM     71  C   UNL     1      27.468  28.998  19.541  1.00  0.00     0.052 A 
BRANCH  71  72
ATOM     72  C   UNL     1      28.453  28.980  20.616  1.00  0.00     0.099 C 
ATOM     73  N   UNL     1      29.253  28.972  21.461  1.00  0.00    -0.192 NA
ENDBRANCH  71  72
ENDBRANCH  65  66
ENDBRANCH  63  65
ENDBRANCH  59  60
ENDBRANCH  58  59
ENDBRANCH  55  58
ENDBRANCH  53  54
ENDBRANCH  50  53
ENDBRANCH  47  50
ENDBRANCH   5  47
BRANCH   4  74
ATOM     74  N   UNL     1      29.946  39.978  14.854  1.00  0.00    -0.348 N 
ATOM     75  C   UNL     1      30.456  40.660  15.990  1.00  0.00     0.217 C 
ATOM     76  H   UNL     1      29.646  40.533  14.038  1.00  0.00     0.163 HD
ATOM     77  C   UNL     1      30.563  42.129  16.029  1.00  0.00     0.114 C 
ATOM     78  O   UNL     1      30.841  40.016  17.023  1.00  0.00    -0.275 OA
ENDBRANCH   4  74
TORSDOF 32
BEGIN_RES LYS A 131
REMARK  4 active torsions:
REMARK  status: ('A' for Active; 'I' for Inactive)
REMARK    1  A    between atoms: CA   and  CB  
REMARK    2  A    between atoms: CB   and  CG  
REMARK    3  A    between atoms: CG   and  CD  
REMARK    4  A    between atoms: CD   and  CE  
ROOT
ATOM      1  CA  LYS A 131      29.867  25.555  16.977  1.00 20.52     0.186 C 
ENDROOT
BRANCH   1   2
ATOM      2  CB  LYS A 131      28.345  25.722  17.026  1.00 20.94     0.034 C 
BRANCH   2   3
ATOM      3  CG  LYS A 131      27.599  24.475  16.576  1.00 22.96     0.005 C 
BRANCH   3   4
ATOM      4  CD  LYS A 131      27.269  23.567  17.727  1.00 24.33     0.041 C 
BRANCH   4   5
ATOM      5  CE  LYS A 131      25.754  23.445  17.861  1.00 26.91     0.338 C 
ATOM      6  NZ  LYS A 131      25.074  24.394  16.949  1.00 27.40     0.618 N 
ENDBRANCH   4   5
ENDBRANCH   3   4
ENDBRANCH   2   3
ENDBRANCH   1   2
END_RES LYS A 131
BEGIN_RES LYS A 135
REMARK  4 active torsions:
REMARK  status: ('A' for Active; 'I' for Inactive)
REMARK    5  A    between atoms: CA   and  CB  
REMARK    6  A    between atoms: CB   and  CG  
REMARK    7  A    between atoms: CG   and  CD  
REMARK    8  A    between atoms: CD   and  CE  
ROOT
ATOM      7  CA  LYS A 135      33.193  34.663   9.290  1.00 25.02     0.186 C 
ENDROOT
BRANCH   7   8
ATOM      8  CB  LYS A 135      32.060  35.360  10.034  1.00 26.63     0.034 C 
BRANCH   8   9
ATOM      9  CG  LYS A 135      30.788  35.464   9.233  1.00 29.45     0.005 C 
BRANCH   9  10
ATOM     10  CD  LYS A 135      30.220  34.083   8.947  1.00 32.00     0.041 C 
BRANCH  10  11
ATOM     11  CE  LYS A 135      28.716  34.073   9.146  1.00 34.25     0.338 C 
ATOM     12  NZ  LYS A 135      28.024  34.793   8.042  1.00 35.99     0.618 N 
ENDBRANCH  10  11
ENDBRANCH   9  10
ENDBRANCH   8   9
ENDBRANCH   7   8
END_RES LYS A 135
