REMARK VINA RESULT:    -5.480      0.000      0.000
REMARK INTER + INTRA:         -23.904
REMARK INTER:                 -11.416
REMARK INTRA:                 -12.488
REMARK UNBOUND:               -10.416
REMARK SMILES CC(=O)N[C@@H]1[C@@H](O)C[C@](OC[C@H]2O[C@@H](O[C@H]3[C@H](O)[C@@H](O)[C@H](OCCN=[N+]=[N-])O[C@@H]3CO)[C@H](O)[C@@H](O)[C@H]2O)(C(=O)O)O[C@H]1C(O)[C@H](O)CNC(=O)OCc1cn(-c2ccc3c(c2)OCO3)nn1
REMARK SMILES IDX 9 1 8 2 6 3 5 4 42 5 41 6 10 7 11 8 12 9 14 10 13 11 32 12
REMARK SMILES IDX 34 13 36 14 15 15 16 16 29 17 28 18 21 19 17 20 19 21 30 22
REMARK SMILES IDX 31 23 22 25 23 26 24 27 25 28 26 29 27 30 18 31 20 33 33 35
REMARK SMILES IDX 35 37 37 39 38 41 39 42 40 43 7 45 43 47 44 48 45 50 46 51
REMARK SMILES IDX 47 53 48 54 49 55 50 57 51 58 52 59 53 60 54 61 66 62 55 63
REMARK SMILES IDX 65 64 56 65 57 66 61 67 58 68 60 69 59 70 62 71 64 72 63 73
REMARK SMILES IDX 4 74 2 75 1 77 3 78
REMARK H PARENT 31 24 18 32 20 34 33 36 35 38 37 40 40 44 7 46 44 49 46 52
REMARK H PARENT 48 56 4 76
REMARK Flexibility Score: inf
ROOT
ATOM      1  C   UNL     1      29.506  33.045  17.503  1.00  0.00     0.272 C 
ATOM      2  C   UNL     1      30.204  31.728  17.696  1.00  0.00     0.113 C 
ATOM      3  C   UNL     1      29.872  30.729  16.572  1.00  0.00     0.145 C 
ATOM      4  C   UNL     1      28.406  30.399  16.756  1.00  0.00     0.142 C 
ATOM      5  C   UNL     1      27.687  31.732  16.777  1.00  0.00     0.178 C 
ATOM      6  O   UNL     1      28.466  32.817  16.557  1.00  0.00    -0.332 OA
ENDROOT
BRANCH   1   7
ATOM      7  O   UNL     1      30.259  33.992  16.966  1.00  0.00    -0.338 OA
BRANCH   7   8
ATOM      8  C   UNL     1      31.479  34.032  16.527  1.00  0.00     0.199 C 
BRANCH   8   9
ATOM      9  C   UNL     1      31.822  34.537  15.151  1.00  0.00     0.179 C 
ATOM     10  C   UNL     1      30.741  34.971  13.135  1.00  0.00     0.282 C 
ATOM     11  O   UNL     1      30.755  34.292  14.325  1.00  0.00    -0.341 OA
ATOM     12  C   UNL     1      32.021  35.666  12.811  1.00  0.00     0.202 C 
ATOM     13  C   UNL     1      32.449  36.607  13.924  1.00  0.00     0.179 C 
ATOM     14  C   UNL     1      32.049  36.067  15.259  1.00  0.00     0.177 C 
BRANCH  10  15
ATOM     15  O   UNL     1      29.756  35.972  13.247  1.00  0.00    -0.341 OA
BRANCH  15  16
ATOM     16  C   UNL     1      28.704  35.794  12.386  1.00  0.00     0.184 C 
ATOM     17  C   UNL     1      28.155  37.137  11.979  1.00  0.00     0.178 C 
ATOM     18  O   UNL     1      27.224  37.648  12.851  1.00  0.00    -0.341 OA
ATOM     19  C   UNL     1      27.415  37.216  14.165  1.00  0.00     0.281 C 
ATOM     20  C   UNL     1      27.675  34.951  13.103  1.00  0.00     0.180 C 
ATOM     21  C   UNL     1      27.189  35.731  14.305  1.00  0.00     0.202 C 
BRANCH  17  22
ATOM     22  C   UNL     1      27.504  37.080  10.604  1.00  0.00     0.191 C 
BRANCH  22  23
ATOM     23  O   UNL     1      26.119  37.050  10.702  1.00  0.00    -0.394 OA
ATOM     24  H   UNL     1      25.724  36.216  10.299  1.00  0.00     0.210 HD
ENDBRANCH  22  23
ENDBRANCH  17  22
BRANCH  19  25
ATOM     25  O   UNL     1      26.450  37.869  14.919  1.00  0.00    -0.350 OA
BRANCH  25  26
ATOM     26  C   UNL     1      25.194  37.546  14.417  1.00  0.00     0.169 C 
BRANCH  26  27
ATOM     27  C   UNL     1      24.087  38.155  15.271  1.00  0.00     0.119 C 
BRANCH  27  28
ATOM     28  N   UNL     1      22.884  37.343  15.036  1.00  0.00    -0.092 NA
ATOM     29  N   UNL     1      22.830  36.193  15.524  1.00  0.00     0.001 N 
ATOM     30  N   UNL     1      22.992  35.076  16.045  1.00  0.00    -0.003 NA
ENDBRANCH  27  28
ENDBRANCH  26  27
ENDBRANCH  25  26
ENDBRANCH  19  25
BRANCH  20  31
ATOM     31  O   UNL     1      26.642  34.535  12.288  1.00  0.00    -0.387 OA
ATOM     32  H   UNL     1      26.886  34.490  11.317  1.00  0.00     0.211 HD
ENDBRANCH  20  31
BRANCH  21  33
ATOM     33  O   UNL     1      27.923  35.297  15.411  1.00  0.00    -0.385 OA
ATOM     34  H   UNL     1      28.380  36.037  15.885  1.00  0.00     0.211 HD
ENDBRANCH  21  33
ENDBRANCH  15  16
ENDBRANCH  10  15
BRANCH  12  35
ATOM     35  O   UNL     1      33.081  34.814  12.517  1.00  0.00    -0.385 OA
ATOM     36  H   UNL     1      33.826  35.371  12.129  1.00  0.00     0.211 HD
ENDBRANCH  12  35
BRANCH  13  37
ATOM     37  O   UNL     1      31.851  37.847  13.692  1.00  0.00    -0.387 OA
ATOM     38  H   UNL     1      30.884  37.851  13.821  1.00  0.00     0.211 HD
ENDBRANCH  13  37
BRANCH  14  39
ATOM     39  O   UNL     1      30.867  36.689  15.652  1.00  0.00    -0.387 OA
ATOM     40  H   UNL     1      30.959  37.255  16.436  1.00  0.00     0.211 HD
ENDBRANCH  14  39
ENDBRANCH   8   9
ENDBRANCH   7   8
ENDBRANCH   1   7
BRANCH   1  41
ATOM     41  C   UNL     1      28.809  33.471  18.759  1.00  0.00     0.364 C 
ATOM     42  O   UNL     1      29.147  32.839  19.821  1.00  0.00    -0.246 OA
BRANCH  41  43
ATOM     43  O   UNL     1      27.869  34.444  18.867  1.00  0.00    -0.477 OA
ATOM     44  H   UNL     1      28.060  35.384  19.178  1.00  0.00     0.296 HD
ENDBRANCH  41  43
ENDBRANCH   1  41
BRANCH   3  45
ATOM     45  O   UNL     1      30.086  31.433  15.379  1.00  0.00    -0.391 OA
ATOM     46  H   UNL     1      30.604  30.887  14.747  1.00  0.00     0.211 HD
ENDBRANCH   3  45
BRANCH   5  47
ATOM     47  C   UNL     1      26.725  31.671  15.572  1.00  0.00     0.176 C 
BRANCH  47  48
ATOM     48  O   UNL     1      26.225  30.420  15.349  1.00  0.00    -0.388 OA
ATOM     49  H   UNL     1      25.362  30.402  14.866  1.00  0.00     0.211 HD
ENDBRANCH  47  48
BRANCH  47  50
ATOM     50  C   UNL     1      25.582  32.665  15.734  1.00  0.00     0.165 C 
BRANCH  50  51
ATOM     51  O   UNL     1      25.758  33.507  16.780  1.00  0.00    -0.388 OA
ATOM     52  H   UNL     1      25.372  34.404  16.701  1.00  0.00     0.211 HD
ENDBRANCH  50  51
BRANCH  50  53
ATOM     53  C   UNL     1      24.335  31.850  15.871  1.00  0.00     0.154 C 
BRANCH  53  54
ATOM     54  N   UNL     1      23.396  32.103  14.823  1.00  0.00    -0.319 N 
ATOM     55  C   UNL     1      23.368  31.457  13.560  1.00  0.00     0.407 C 
ATOM     56  H   UNL     1      22.616  32.840  14.949  1.00  0.00     0.167 HD
ATOM     57  O   UNL     1      24.197  30.570  13.275  1.00  0.00    -0.225 OA
BRANCH  55  58
ATOM     58  O   UNL     1      22.414  31.790  12.594  1.00  0.00    -0.443 OA
BRANCH  58  59
ATOM     59  C   UNL     1      21.602  32.930  12.664  1.00  0.00     0.294 C 
BRANCH  59  60
ATOM     60  C   UNL     1      22.364  34.094  12.099  1.00  0.00     0.121 A 
ATOM     61  C   UNL     1      21.951  34.899  11.035  1.00  0.00     0.144 A 
ATOM     62  N   UNL     1      23.546  34.591  12.483  1.00  0.00    -0.131 NA
ATOM     63  N   UNL     1      22.893  35.843  10.819  1.00  0.00    -0.220 N 
ATOM     64  N   UNL     1      23.836  35.615  11.720  1.00  0.00    -0.062 NA
BRANCH  63  65
ATOM     65  C   UNL     1      22.893  36.867   9.855  1.00  0.00     0.070 A 
ATOM     66  C   UNL     1      22.979  36.570   8.523  1.00  0.00     0.032 A 
ATOM     67  C   UNL     1      22.802  38.183  10.238  1.00  0.00     0.079 A 
ATOM     68  C   UNL     1      22.974  37.602   7.574  1.00  0.00     0.053 A 
ATOM     69  C   UNL     1      22.796  39.210   9.318  1.00  0.00     0.167 A 
ATOM     70  C   UNL     1      22.883  38.908   7.984  1.00  0.00     0.165 A 
ATOM     71  O   UNL     1      22.714  40.576   9.473  1.00  0.00    -0.454 OA
ATOM     72  O   UNL     1      22.856  40.102   7.274  1.00  0.00    -0.454 OA
ATOM     73  C   UNL     1      23.046  41.139   8.197  1.00  0.00     0.468 C 
ENDBRANCH  63  65
ENDBRANCH  59  60
ENDBRANCH  58  59
ENDBRANCH  55  58
ENDBRANCH  53  54
ENDBRANCH  50  53
ENDBRANCH  47  50
ENDBRANCH   5  47
BRANCH   4  74
ATOM     74  N   UNL     1      28.241  29.622  17.946  1.00  0.00    -0.348 N 
ATOM     75  C   UNL     1      27.375  28.467  17.981  1.00  0.00     0.217 C 
ATOM     76  H   UNL     1      28.710  29.816  18.855  1.00  0.00     0.163 HD
ATOM     77  C   UNL     1      27.212  27.667  19.224  1.00  0.00     0.114 C 
ATOM     78  O   UNL     1      26.762  28.143  16.958  1.00  0.00    -0.275 OA
ENDBRANCH   4  74
TORSDOF 30
BEGIN_RES LYS A 131
REMARK  4 active torsions:
REMARK  status: ('A' for Active; 'I' for Inactive)
REMARK    1  A    between atoms: CA   and  CB  
REMARK    2  A    between atoms: CB   and  CG  
REMARK    3  A    between atoms: CG   and  CD  
REMARK    4  A    between atoms: CD   and  CE  
ROOT
ATOM      1  CA  LYS A 131      29.867  25.555  16.977  1.00 20.52     0.186 C 
ENDROOT
BRANCH   1   2
ATOM      2  CB  LYS A 131      28.345  25.722  17.026  1.00 20.94     0.034 C 
BRANCH   2   3
ATOM      3  CG  LYS A 131      27.599  24.457  16.631  1.00 22.96     0.005 C 
BRANCH   3   4
ATOM      4  CD  LYS A 131      27.015  23.748  17.822  1.00 24.33     0.041 C 
BRANCH   4   5
ATOM      5  CE  LYS A 131      25.502  23.938  17.835  1.00 26.91     0.338 C 
ATOM      6  NZ  LYS A 131      25.092  24.753  19.003  1.00 27.40     0.618 N 
ENDBRANCH   4   5
ENDBRANCH   3   4
ENDBRANCH   2   3
ENDBRANCH   1   2
END_RES LYS A 131
BEGIN_RES LYS A 135
REMARK  4 active torsions:
REMARK  status: ('A' for Active; 'I' for Inactive)
REMARK    5  A    between atoms: CA   and  CB  
REMARK    6  A    between atoms: CB   and  CG  
REMARK    7  A    between atoms: CG   and  CD  
REMARK    8  A    between atoms: CD   and  CE  
ROOT
ATOM      7  CA  LYS A 135      33.193  34.663   9.290  1.00 25.02     0.186 C 
ENDROOT
BRANCH   7   8
ATOM      8  CB  LYS A 135      32.060  35.360  10.034  1.00 26.63     0.034 C 
BRANCH   8   9
ATOM      9  CG  LYS A 135      30.746  35.329   9.297  1.00 29.45     0.005 C 
BRANCH   9  10
ATOM     10  CD  LYS A 135      30.061  33.983   9.478  1.00 32.00     0.041 C 
BRANCH  10  11
ATOM     11  CE  LYS A 135      28.621  34.051   9.006  1.00 34.25     0.338 C 
ATOM     12  NZ  LYS A 135      28.491  34.918   7.803  1.00 35.99     0.618 N 
ENDBRANCH  10  11
ENDBRANCH   9  10
ENDBRANCH   8   9
ENDBRANCH   7   8
END_RES LYS A 135
