REMARK VINA RESULT:    -3.948      3.932      7.147
REMARK INTER + INTRA:         -23.402
REMARK INTER:                 -11.163
REMARK INTRA:                 -12.239
REMARK UNBOUND:               -13.108
REMARK SMILES CC(=O)N[C@@H]1[C@@H](O)C[C@](OC[C@H]2O[C@@H](O[C@H]3[C@H](O)[C@@H](O)[C@H](OCCN=[N+]=[N-])O[C@@H]3CO)[C@H](O)[C@@H](O)[C@H]2O)(C(=O)O)O[C@H]1C(O)[C@H](O)CNC(=O)OCc1cn(-c2cccc(C=CC(=O)O)c2)nn1
REMARK SMILES IDX 43 1 42 2 9 3 8 4 41 5 6 6 5 7 10 8 11 9 12 10 14 11 13 12
REMARK SMILES IDX 32 13 34 14 36 15 15 16 16 17 29 18 28 19 21 20 17 21 19 22
REMARK SMILES IDX 30 23 31 24 22 26 23 27 24 28 25 29 26 30 27 31 18 32 20 34
REMARK SMILES IDX 33 36 35 38 37 40 38 42 39 43 40 44 7 46 4 48 2 49 1 51 3 52
REMARK SMILES IDX 44 53 45 55 46 56 47 58 48 59 49 60 50 62 51 63 52 64 53 65
REMARK SMILES IDX 54 66 68 67 55 68 67 69 56 70 66 71 57 72 60 73 58 74 59 75
REMARK SMILES IDX 61 76 62 77 63 78 64 79 65 80
REMARK H PARENT 31 25 18 33 20 35 33 37 35 39 37 41 40 45 7 47 4 50 44 54
REMARK H PARENT 46 57 48 61 65 81
REMARK Flexibility Score: inf
ROOT
ATOM      1  C   UNL     1      22.780  38.526   8.806  1.00  0.00     0.176 C 
ENDROOT
BRANCH   1   2
ATOM      2  C   UNL     1      22.463  39.897   9.368  1.00  0.00     0.178 C 
ATOM      3  C   UNL     1      22.161  42.086   8.546  1.00  0.00     0.272 C 
ATOM      4  C   UNL     1      21.988  42.220  10.135  1.00  0.00     0.113 C 
ATOM      5  O   UNL     1      22.520  40.774   8.320  1.00  0.00    -0.332 OA
ATOM      6  C   UNL     1      23.280  41.760  10.708  1.00  0.00     0.145 C 
ATOM      7  C   UNL     1      23.466  40.283  10.418  1.00  0.00     0.142 C 
BRANCH   3   8
ATOM      8  O   UNL     1      23.209  42.884   8.308  1.00  0.00    -0.338 OA
BRANCH   8   9
ATOM      9  C   UNL     1      23.321  43.776   7.340  1.00  0.00     0.199 C 
BRANCH   9  10
ATOM     10  C   UNL     1      24.640  43.919   6.611  1.00  0.00     0.179 C 
ATOM     11  C   UNL     1      26.684  42.792   6.993  1.00  0.00     0.282 C 
ATOM     12  O   UNL     1      25.623  43.548   7.450  1.00  0.00    -0.341 OA
ATOM     13  C   UNL     1      26.971  43.127   5.583  1.00  0.00     0.202 C 
ATOM     14  C   UNL     1      25.820  42.980   4.637  1.00  0.00     0.179 C 
ATOM     15  C   UNL     1      24.539  42.964   5.430  1.00  0.00     0.177 C 
BRANCH  11  16
ATOM     16  O   UNL     1      26.388  41.483   7.301  1.00  0.00    -0.341 OA
BRANCH  16  17
ATOM     17  C   UNL     1      27.372  40.772   7.897  1.00  0.00     0.184 C 
ATOM     18  C   UNL     1      27.579  39.449   7.224  1.00  0.00     0.178 C 
ATOM     19  O   UNL     1      28.843  39.002   7.679  1.00  0.00    -0.341 OA
ATOM     20  C   UNL     1      28.742  38.594   9.011  1.00  0.00     0.281 C 
ATOM     21  C   UNL     1      27.052  40.425   9.354  1.00  0.00     0.180 C 
ATOM     22  C   UNL     1      28.235  39.666   9.917  1.00  0.00     0.202 C 
BRANCH  18  23
ATOM     23  C   UNL     1      27.580  39.488   5.738  1.00  0.00     0.191 C 
BRANCH  23  24
ATOM     24  O   UNL     1      26.266  39.568   5.282  1.00  0.00    -0.394 OA
ATOM     25  H   UNL     1      25.776  38.712   5.485  1.00  0.00     0.210 HD
ENDBRANCH  23  24
ENDBRANCH  18  23
BRANCH  20  26
ATOM     26  O   UNL     1      30.017  38.220   9.427  1.00  0.00    -0.350 OA
BRANCH  26  27
ATOM     27  C   UNL     1      30.993  38.576   8.500  1.00  0.00     0.169 C 
BRANCH  27  28
ATOM     28  C   UNL     1      31.901  39.597   9.147  1.00  0.00     0.119 C 
BRANCH  28  29
ATOM     29  N   UNL     1      33.149  39.653   8.424  1.00  0.00    -0.092 NA
ATOM     30  N   UNL     1      33.162  39.921   7.209  1.00  0.00     0.001 N 
ATOM     31  N   UNL     1      33.172  39.780   5.977  1.00  0.00    -0.003 NA
ENDBRANCH  28  29
ENDBRANCH  27  28
ENDBRANCH  26  27
ENDBRANCH  20  26
BRANCH  21  32
ATOM     32  O   UNL     1      26.885  41.557  10.141  1.00  0.00    -0.387 OA
ATOM     33  H   UNL     1      25.910  41.628  10.299  1.00  0.00     0.211 HD
ENDBRANCH  21  32
BRANCH  22  34
ATOM     34  O   UNL     1      27.758  39.028  11.086  1.00  0.00    -0.385 OA
ATOM     35  H   UNL     1      27.157  38.279  10.879  1.00  0.00     0.211 HD
ENDBRANCH  22  34
ENDBRANCH  16  17
ENDBRANCH  11  16
BRANCH  13  36
ATOM     36  O   UNL     1      27.396  44.486   5.505  1.00  0.00    -0.385 OA
ATOM     37  H   UNL     1      26.727  45.064   5.969  1.00  0.00     0.211 HD
ENDBRANCH  13  36
BRANCH  14  38
ATOM     38  O   UNL     1      25.918  41.871   3.793  1.00  0.00    -0.387 OA
ATOM     39  H   UNL     1      25.837  42.124   2.839  1.00  0.00     0.211 HD
ENDBRANCH  14  38
BRANCH  15  40
ATOM     40  O   UNL     1      24.288  41.675   5.859  1.00  0.00    -0.387 OA
ATOM     41  H   UNL     1      24.018  41.644   6.829  1.00  0.00     0.211 HD
ENDBRANCH  15  40
ENDBRANCH   9  10
ENDBRANCH   8   9
ENDBRANCH   3   8
BRANCH   3  42
ATOM     42  C   UNL     1      20.846  42.373   7.999  1.00  0.00     0.364 C 
ATOM     43  O   UNL     1      20.298  41.894   6.990  1.00  0.00    -0.246 OA
BRANCH  42  44
ATOM     44  O   UNL     1      20.053  43.325   8.685  1.00  0.00    -0.477 OA
ATOM     45  H   UNL     1      19.318  43.806   8.145  1.00  0.00     0.296 HD
ENDBRANCH  42  44
ENDBRANCH   3  42
BRANCH   6  46
ATOM     46  O   UNL     1      24.300  42.485  10.007  1.00  0.00    -0.391 OA
ATOM     47  H   UNL     1      24.770  43.091  10.644  1.00  0.00     0.211 HD
ENDBRANCH   6  46
BRANCH   7  48
ATOM     48  N   UNL     1      23.530  39.442  11.558  1.00  0.00    -0.348 N 
ATOM     49  C   UNL     1      24.550  39.342  12.509  1.00  0.00     0.217 C 
ATOM     50  H   UNL     1      22.705  38.757  11.725  1.00  0.00     0.163 HD
ATOM     51  C   UNL     1      24.401  38.346  13.643  1.00  0.00     0.114 C 
ATOM     52  O   UNL     1      25.605  40.031  12.496  1.00  0.00    -0.275 OA
ENDBRANCH   7  48
ENDBRANCH   1   2
BRANCH   1  53
ATOM     53  O   UNL     1      21.816  38.172   7.880  1.00  0.00    -0.388 OA
ATOM     54  H   UNL     1      20.946  38.592   8.009  1.00  0.00     0.211 HD
ENDBRANCH   1  53
BRANCH   1  55
ATOM     55  C   UNL     1      24.112  38.514   8.056  1.00  0.00     0.165 C 
BRANCH  55  56
ATOM     56  O   UNL     1      24.031  38.999   6.780  1.00  0.00    -0.388 OA
ATOM     57  H   UNL     1      23.482  39.811   6.681  1.00  0.00     0.211 HD
ENDBRANCH  55  56
BRANCH  55  58
ATOM     58  C   UNL     1      24.746  37.160   8.100  1.00  0.00     0.154 C 
BRANCH  58  59
ATOM     59  N   UNL     1      25.201  36.823   9.401  1.00  0.00    -0.319 N 
ATOM     60  C   UNL     1      24.543  35.878  10.221  1.00  0.00     0.407 C 
ATOM     61  H   UNL     1      26.062  37.278   9.807  1.00  0.00     0.167 HD
ATOM     62  O   UNL     1      23.503  35.284   9.823  1.00  0.00    -0.225 OA
BRANCH  60  63
ATOM     63  O   UNL     1      24.999  35.549  11.495  1.00  0.00    -0.443 OA
BRANCH  63  64
ATOM     64  C   UNL     1      25.942  34.473  11.578  1.00  0.00     0.294 C 
BRANCH  64  65
ATOM     65  C   UNL     1      27.233  35.061  11.977  1.00  0.00     0.121 A 
ATOM     66  C   UNL     1      28.234  34.479  12.750  1.00  0.00     0.144 A 
ATOM     67  N   UNL     1      27.683  36.284  11.649  1.00  0.00    -0.131 NA
ATOM     68  N   UNL     1      29.247  35.368  12.858  1.00  0.00    -0.220 N 
ATOM     69  N   UNL     1      28.885  36.442  12.186  1.00  0.00    -0.062 NA
BRANCH  68  70
ATOM     70  C   UNL     1      30.446  35.111  13.569  1.00  0.00     0.067 A 
ATOM     71  C   UNL     1      30.427  34.257  14.672  1.00  0.00     0.036 A 
ATOM     72  C   UNL     1      31.622  35.676  13.203  1.00  0.00     0.028 A 
ATOM     73  C   UNL     1      31.550  33.978  15.386  1.00  0.00    -0.023 A 
ATOM     74  C   UNL     1      32.798  35.420  13.903  1.00  0.00     0.003 A 
ATOM     75  C   UNL     1      32.732  34.571  14.984  1.00  0.00     0.008 A 
BRANCH  73  76
ATOM     76  C   UNL     1      31.532  33.096  16.533  1.00  0.00     0.015 C 
ATOM     77  C   UNL     1      30.405  32.657  17.034  1.00  0.00     0.094 C 
BRANCH  77  78
ATOM     78  C   UNL     1      30.434  31.765  18.195  1.00  0.00     0.328 C 
ATOM     79  O   UNL     1      30.799  32.164  19.306  1.00  0.00    -0.247 OA
BRANCH  78  80
ATOM     80  O   UNL     1      30.047  30.433  18.067  1.00  0.00    -0.478 OA
ATOM     81  H   UNL     1      30.414  29.915  17.266  1.00  0.00     0.297 HD
ENDBRANCH  78  80
ENDBRANCH  77  78
ENDBRANCH  73  76
ENDBRANCH  68  70
ENDBRANCH  64  65
ENDBRANCH  63  64
ENDBRANCH  60  63
ENDBRANCH  58  59
ENDBRANCH  55  58
ENDBRANCH   1  55
TORSDOF 33
BEGIN_RES LYS A 131
REMARK  4 active torsions:
REMARK  status: ('A' for Active; 'I' for Inactive)
REMARK    1  A    between atoms: CA   and  CB  
REMARK    2  A    between atoms: CB   and  CG  
REMARK    3  A    between atoms: CG   and  CD  
REMARK    4  A    between atoms: CD   and  CE  
ROOT
ATOM      1  CA  LYS A 131      29.867  25.555  16.977  1.00 20.52     0.186 C 
ENDROOT
BRANCH   1   2
ATOM      2  CB  LYS A 131      28.345  25.722  17.026  1.00 20.94     0.034 C 
BRANCH   2   3
ATOM      3  CG  LYS A 131      27.601  24.403  16.887  1.00 22.96     0.005 C 
BRANCH   3   4
ATOM      4  CD  LYS A 131      26.595  24.201  17.986  1.00 24.33     0.041 C 
BRANCH   4   5
ATOM      5  CE  LYS A 131      25.622  23.096  17.588  1.00 26.91     0.338 C 
ATOM      6  NZ  LYS A 131      24.223  23.574  17.692  1.00 27.40     0.618 N 
ENDBRANCH   4   5
ENDBRANCH   3   4
ENDBRANCH   2   3
ENDBRANCH   1   2
END_RES LYS A 131
BEGIN_RES LYS A 135
REMARK  4 active torsions:
REMARK  status: ('A' for Active; 'I' for Inactive)
REMARK    5  A    between atoms: CA   and  CB  
REMARK    6  A    between atoms: CB   and  CG  
REMARK    7  A    between atoms: CG   and  CD  
REMARK    8  A    between atoms: CD   and  CE  
ROOT
ATOM      7  CA  LYS A 135      33.193  34.663   9.290  1.00 25.02     0.186 C 
ENDROOT
BRANCH   7   8
ATOM      8  CB  LYS A 135      32.060  35.360  10.034  1.00 26.63     0.034 C 
BRANCH   8   9
ATOM      9  CG  LYS A 135      30.690  34.879   9.632  1.00 29.45     0.005 C 
BRANCH   9  10
ATOM     10  CD  LYS A 135      30.641  34.581   8.141  1.00 32.00     0.041 C 
BRANCH  10  11
ATOM     11  CE  LYS A 135      29.367  35.130   7.529  1.00 34.25     0.338 C 
ATOM     12  NZ  LYS A 135      28.204  34.923   8.436  1.00 35.99     0.618 N 
ENDBRANCH  10  11
ENDBRANCH   9  10
ENDBRANCH   8   9
ENDBRANCH   7   8
END_RES LYS A 135
