REMARK VINA RESULT:    -4.733      3.292      7.940
REMARK INTER + INTRA:         -21.361
REMARK INTER:                  -8.007
REMARK INTRA:                 -13.355
REMARK UNBOUND:                -9.712
REMARK SMILES CC(=O)N[C@@H]1[C@@H](O)C[C@](OC[C@H]2O[C@@H](O[C@H]3[C@H](O)[C@@H](O)[C@H](OCCN=[N+]=[N-])O[C@@H]3CO)[C@H](O)[C@@H](O)[C@H]2O)(C(=O)O)O[C@H]1C(O)[C@H](O)CNC(=O)OCc1cn(C2CCCCC2)nn1
REMARK SMILES IDX 9 1 8 2 6 3 5 4 42 5 41 6 10 7 11 8 12 9 14 10 13 11 32 12
REMARK SMILES IDX 34 13 36 14 15 15 16 16 29 17 28 18 21 19 17 20 19 21 30 22
REMARK SMILES IDX 31 23 22 25 23 26 24 27 25 28 26 29 27 30 18 31 20 33 33 35
REMARK SMILES IDX 35 37 37 39 38 41 39 42 40 43 7 45 43 47 44 48 45 50 46 51
REMARK SMILES IDX 47 53 48 54 49 55 50 57 51 58 52 59 53 60 54 61 63 62 55 63
REMARK SMILES IDX 62 64 56 65 57 66 61 67 58 68 60 69 59 70 4 71 2 72 1 74
REMARK SMILES IDX 3 75
REMARK H PARENT 31 24 18 32 20 34 33 36 35 38 37 40 40 44 7 46 44 49 46 52
REMARK H PARENT 48 56 4 73
REMARK Flexibility Score: inf
ROOT
ATOM      1  C   UNL     1      27.078  35.225  11.141  1.00  0.00     0.272 C 
ATOM      2  C   UNL     1      25.899  34.723  12.055  1.00  0.00     0.113 C 
ATOM      3  C   UNL     1      26.097  35.241  13.446  1.00  0.00     0.145 C 
ATOM      4  C   UNL     1      27.445  34.843  13.986  1.00  0.00     0.142 C 
ATOM      5  C   UNL     1      28.530  34.880  12.968  1.00  0.00     0.178 C 
ATOM      6  O   UNL     1      28.269  34.910  11.677  1.00  0.00    -0.332 OA
ENDROOT
BRANCH   1   7
ATOM      7  O   UNL     1      26.855  36.529  11.055  1.00  0.00    -0.338 OA
BRANCH   7   8
ATOM      8  C   UNL     1      27.263  37.479  10.284  1.00  0.00     0.199 C 
BRANCH   8   9
ATOM      9  C   UNL     1      26.319  38.289   9.410  1.00  0.00     0.179 C 
ATOM     10  C   UNL     1      23.991  38.005   9.438  1.00  0.00     0.282 C 
ATOM     11  O   UNL     1      25.239  37.576   8.999  1.00  0.00    -0.341 OA
ATOM     12  C   UNL     1      23.812  39.438   9.103  1.00  0.00     0.202 C 
ATOM     13  C   UNL     1      24.960  40.316   9.538  1.00  0.00     0.179 C 
ATOM     14  C   UNL     1      25.967  39.505  10.260  1.00  0.00     0.177 C 
BRANCH  10  15
ATOM     15  O   UNL     1      23.843  37.595  10.711  1.00  0.00    -0.341 OA
BRANCH  15  16
ATOM     16  C   UNL     1      22.783  36.828  11.068  1.00  0.00     0.184 C 
ATOM     17  C   UNL     1      22.518  37.054  12.541  1.00  0.00     0.178 C 
ATOM     18  O   UNL     1      21.296  36.549  12.943  1.00  0.00    -0.341 OA
ATOM     19  C   UNL     1      20.834  35.507  12.183  1.00  0.00     0.281 C 
ATOM     20  C   UNL     1      23.028  35.340  10.939  1.00  0.00     0.180 C 
ATOM     21  C   UNL     1      21.929  34.631  11.696  1.00  0.00     0.202 C 
BRANCH  17  22
ATOM     22  C   UNL     1      22.741  38.472  12.983  1.00  0.00     0.191 C 
BRANCH  22  23
ATOM     23  O   UNL     1      23.981  38.525  13.619  1.00  0.00    -0.394 OA
ATOM     24  H   UNL     1      23.909  38.363  14.590  1.00  0.00     0.210 HD
ENDBRANCH  22  23
ENDBRANCH  17  22
BRANCH  19  25
ATOM     25  O   UNL     1      19.961  35.979  11.240  1.00  0.00    -0.350 OA
BRANCH  25  26
ATOM     26  C   UNL     1      19.422  35.003  10.416  1.00  0.00     0.169 C 
BRANCH  26  27
ATOM     27  C   UNL     1      19.507  35.328   8.949  1.00  0.00     0.119 C 
BRANCH  27  28
ATOM     28  N   UNL     1      20.199  36.593   8.805  1.00  0.00    -0.092 NA
ATOM     29  N   UNL     1      20.946  36.698   7.823  1.00  0.00     0.001 N 
ATOM     30  N   UNL     1      22.052  36.747   7.255  1.00  0.00    -0.003 NA
ENDBRANCH  27  28
ENDBRANCH  26  27
ENDBRANCH  25  26
ENDBRANCH  19  25
BRANCH  20  31
ATOM     31  O   UNL     1      23.023  34.888   9.642  1.00  0.00    -0.387 OA
ATOM     32  H   UNL     1      23.846  34.398   9.395  1.00  0.00     0.211 HD
ENDBRANCH  20  31
BRANCH  21  33
ATOM     33  O   UNL     1      22.546  34.073  12.842  1.00  0.00    -0.385 OA
ATOM     34  H   UNL     1      23.496  33.869  12.659  1.00  0.00     0.211 HD
ENDBRANCH  21  33
ENDBRANCH  15  16
ENDBRANCH  10  15
BRANCH  12  35
ATOM     35  O   UNL     1      23.787  39.508   7.686  1.00  0.00    -0.385 OA
ATOM     36  H   UNL     1      23.466  40.382   7.374  1.00  0.00     0.211 HD
ENDBRANCH  12  35
BRANCH  13  37
ATOM     37  O   UNL     1      24.508  41.366  10.362  1.00  0.00    -0.387 OA
ATOM     38  H   UNL     1      24.689  41.134  11.287  1.00  0.00     0.211 HD
ENDBRANCH  13  37
BRANCH  14  39
ATOM     39  O   UNL     1      25.704  39.206  11.568  1.00  0.00    -0.387 OA
ATOM     40  H   UNL     1      24.780  38.866  11.627  1.00  0.00     0.211 HD
ENDBRANCH  14  39
ENDBRANCH   8   9
ENDBRANCH   7   8
ENDBRANCH   1   7
BRANCH   1  41
ATOM     41  C   UNL     1      26.908  34.386   9.903  1.00  0.00     0.364 C 
ATOM     42  O   UNL     1      27.569  33.389   9.640  1.00  0.00    -0.246 OA
BRANCH  41  43
ATOM     43  O   UNL     1      25.926  34.741   8.956  1.00  0.00    -0.477 OA
ATOM     44  H   UNL     1      26.094  34.601   7.973  1.00  0.00     0.296 HD
ENDBRANCH  41  43
ENDBRANCH   1  41
BRANCH   3  45
ATOM     45  O   UNL     1      25.888  36.613  13.516  1.00  0.00    -0.391 OA
ATOM     46  H   UNL     1      25.466  36.897  12.654  1.00  0.00     0.211 HD
ENDBRANCH   3  45
BRANCH   5  47
ATOM     47  C   UNL     1      29.489  36.075  13.263  1.00  0.00     0.176 C 
BRANCH  47  48
ATOM     48  O   UNL     1      29.067  36.701  14.452  1.00  0.00    -0.388 OA
ATOM     49  H   UNL     1      28.824  36.047  15.138  1.00  0.00     0.211 HD
ENDBRANCH  47  48
BRANCH  47  50
ATOM     50  C   UNL     1      30.911  35.637  13.332  1.00  0.00     0.165 C 
BRANCH  50  51
ATOM     51  O   UNL     1      31.092  35.067  14.614  1.00  0.00    -0.388 OA
ATOM     52  H   UNL     1      30.990  35.731  15.323  1.00  0.00     0.211 HD
ENDBRANCH  50  51
BRANCH  50  53
ATOM     53  C   UNL     1      31.947  36.688  13.187  1.00  0.00     0.154 C 
BRANCH  53  54
ATOM     54  N   UNL     1      31.520  38.034  13.466  1.00  0.00    -0.319 N 
ATOM     55  C   UNL     1      31.148  38.959  12.453  1.00  0.00     0.407 C 
ATOM     56  H   UNL     1      31.473  38.352  14.449  1.00  0.00     0.167 HD
ATOM     57  O   UNL     1      31.183  38.616  11.245  1.00  0.00    -0.225 OA
BRANCH  55  58
ATOM     58  O   UNL     1      30.747  40.233  12.746  1.00  0.00    -0.443 OA
BRANCH  58  59
ATOM     59  C   UNL     1      29.518  40.829  12.407  1.00  0.00     0.294 C 
BRANCH  59  60
ATOM     60  C   UNL     1      28.467  40.307  13.306  1.00  0.00     0.120 A 
ATOM     61  C   UNL     1      27.917  41.047  14.313  1.00  0.00     0.138 A 
ATOM     62  N   UNL     1      27.883  39.104  13.334  1.00  0.00    -0.132 NA
ATOM     63  N   UNL     1      26.997  40.283  14.947  1.00  0.00    -0.249 N 
ATOM     64  N   UNL     1      26.999  39.104  14.328  1.00  0.00    -0.067 NA
BRANCH  63  65
ATOM     65  C   UNL     1      26.184  40.686  16.077  1.00  0.00     0.109 C 
ATOM     66  C   UNL     1      25.659  39.392  16.691  1.00  0.00     0.027 C 
ATOM     67  C   UNL     1      25.002  41.506  15.612  1.00  0.00     0.027 C 
ATOM     68  C   UNL     1      24.862  39.729  17.952  1.00  0.00     0.002 C 
ATOM     69  C   UNL     1      23.684  40.975  16.137  1.00  0.00     0.002 C 
ATOM     70  C   UNL     1      23.777  40.696  17.606  1.00  0.00     0.000 C 
ENDBRANCH  63  65
ENDBRANCH  59  60
ENDBRANCH  58  59
ENDBRANCH  55  58
ENDBRANCH  53  54
ENDBRANCH  50  53
ENDBRANCH  47  50
ENDBRANCH   5  47
BRANCH   4  71
ATOM     71  N   UNL     1      27.382  33.614  14.732  1.00  0.00    -0.348 N 
ATOM     72  C   UNL     1      28.124  33.346  15.894  1.00  0.00     0.217 C 
ATOM     73  H   UNL     1      26.740  32.813  14.425  1.00  0.00     0.163 HD
ATOM     74  C   UNL     1      27.998  32.043  16.634  1.00  0.00     0.114 C 
ATOM     75  O   UNL     1      28.912  34.168  16.360  1.00  0.00    -0.275 OA
ENDBRANCH   4  71
TORSDOF 30
BEGIN_RES LYS A 131
REMARK  4 active torsions:
REMARK  status: ('A' for Active; 'I' for Inactive)
REMARK    1  A    between atoms: CA   and  CB  
REMARK    2  A    between atoms: CB   and  CG  
REMARK    3  A    between atoms: CG   and  CD  
REMARK    4  A    between atoms: CD   and  CE  
ROOT
ATOM      1  CA  LYS A 131      29.867  25.555  16.977  1.00 20.52     0.186 C 
ENDROOT
BRANCH   1   2
ATOM      2  CB  LYS A 131      28.345  25.722  17.026  1.00 20.94     0.034 C 
BRANCH   2   3
ATOM      3  CG  LYS A 131      27.601  24.402  16.891  1.00 22.96     0.005 C 
BRANCH   3   4
ATOM      4  CD  LYS A 131      26.144  24.535  17.239  1.00 24.33     0.041 C 
BRANCH   4   5
ATOM      5  CE  LYS A 131      25.569  23.158  17.553  1.00 26.91     0.338 C 
ATOM      6  NZ  LYS A 131      24.155  23.074  17.115  1.00 27.40     0.618 N 
ENDBRANCH   4   5
ENDBRANCH   3   4
ENDBRANCH   2   3
ENDBRANCH   1   2
END_RES LYS A 131
BEGIN_RES LYS A 135
REMARK  4 active torsions:
REMARK  status: ('A' for Active; 'I' for Inactive)
REMARK    5  A    between atoms: CA   and  CB  
REMARK    6  A    between atoms: CB   and  CG  
REMARK    7  A    between atoms: CG   and  CD  
REMARK    8  A    between atoms: CD   and  CE  
ROOT
ATOM      7  CA  LYS A 135      33.193  34.663   9.290  1.00 25.02     0.186 C 
ENDROOT
BRANCH   7   8
ATOM      8  CB  LYS A 135      32.060  35.360  10.034  1.00 26.63     0.034 C 
BRANCH   8   9
ATOM      9  CG  LYS A 135      30.690  34.868   9.643  1.00 29.45     0.005 C 
BRANCH   9  10
ATOM     10  CD  LYS A 135      30.663  34.466   8.177  1.00 32.00     0.041 C 
BRANCH  10  11
ATOM     11  CE  LYS A 135      29.527  35.164   7.454  1.00 34.25     0.338 C 
ATOM     12  NZ  LYS A 135      29.442  36.598   7.846  1.00 35.99     0.618 N 
ENDBRANCH  10  11
ENDBRANCH   9  10
ENDBRANCH   8   9
ENDBRANCH   7   8
END_RES LYS A 135
