REMARK VINA RESULT:    -4.533      2.609      6.165
REMARK INTER + INTRA:         -21.482
REMARK INTER:                 -10.579
REMARK INTRA:                 -10.903
REMARK UNBOUND:                -9.660
REMARK SMILES CC(=O)N[C@@H]1[C@@H](O)C[C@](OC[C@H]2O[C@@H](O[C@H]3[C@H](O)[C@@H](O)[C@H](OCCN=[N+]=[N-])O[C@@H]3CO)[C@H](O)[C@@H](O)[C@H]2O)(C(=O)O)O[C@H]1C(O)[C@H](O)CNC(=O)OCc1cn(CCC(=O)O)nn1
REMARK SMILES IDX 43 1 42 2 9 3 8 4 41 5 6 6 5 7 10 8 11 9 12 10 14 11 13 12
REMARK SMILES IDX 32 13 34 14 36 15 15 16 16 17 29 18 28 19 21 20 17 21 19 22
REMARK SMILES IDX 30 23 31 24 22 26 23 27 24 28 25 29 26 30 27 31 18 32 20 34
REMARK SMILES IDX 33 36 35 38 37 40 38 42 39 43 40 44 7 46 4 48 2 49 1 51 3 52
REMARK SMILES IDX 44 53 45 55 46 56 47 58 48 59 49 60 50 62 51 63 52 64 53 65
REMARK SMILES IDX 54 66 62 67 55 68 61 69 56 70 57 71 58 72 59 73 60 74
REMARK H PARENT 31 25 18 33 20 35 33 37 35 39 37 41 40 45 7 47 4 50 44 54
REMARK H PARENT 46 57 48 61 60 75
REMARK Flexibility Score: inf
ROOT
ATOM      1  C   UNL     1      28.268  38.007   5.549  1.00  0.00     0.176 C 
ENDROOT
BRANCH   1   2
ATOM      2  C   UNL     1      28.920  37.660   6.866  1.00  0.00     0.178 C 
ATOM      3  C   UNL     1      28.529  36.453   8.840  1.00  0.00     0.272 C 
ATOM      4  C   UNL     1      29.982  36.881   8.943  1.00  0.00     0.113 C 
ATOM      5  O   UNL     1      28.014  37.378   7.856  1.00  0.00    -0.332 OA
ATOM      6  C   UNL     1      30.120  38.413   8.820  1.00  0.00     0.145 C 
ATOM      7  C   UNL     1      29.780  38.803   7.388  1.00  0.00     0.142 C 
BRANCH   3   8
ATOM      8  O   UNL     1      27.887  36.655  10.005  1.00  0.00    -0.338 OA
BRANCH   8   9
ATOM      9  C   UNL     1      26.997  35.911  10.601  1.00  0.00     0.199 C 
BRANCH   9  10
ATOM     10  C   UNL     1      25.555  36.162  10.713  1.00  0.00     0.179 C 
ATOM     11  C   UNL     1      23.770  37.605  10.634  1.00  0.00     0.282 C 
ATOM     12  O   UNL     1      25.127  37.460  10.651  1.00  0.00    -0.341 OA
ATOM     13  C   UNL     1      22.971  36.335  10.722  1.00  0.00     0.202 C 
ATOM     14  C   UNL     1      23.494  35.268   9.780  1.00  0.00     0.179 C 
ATOM     15  C   UNL     1      24.940  35.520   9.416  1.00  0.00     0.177 C 
BRANCH  11  16
ATOM     16  O   UNL     1      23.296  38.292   9.517  1.00  0.00    -0.341 OA
BRANCH  16  17
ATOM     17  C   UNL     1      22.919  39.605   9.793  1.00  0.00     0.184 C 
ATOM     18  C   UNL     1      22.359  39.661  11.171  1.00  0.00     0.178 C 
ATOM     19  O   UNL     1      20.988  39.964  11.217  1.00  0.00    -0.341 OA
ATOM     20  C   UNL     1      20.386  39.034  10.345  1.00  0.00     0.281 C 
ATOM     21  C   UNL     1      21.965  40.033   8.717  1.00  0.00     0.180 C 
ATOM     22  C   UNL     1      20.550  39.612   8.958  1.00  0.00     0.202 C 
BRANCH  18  23
ATOM     23  C   UNL     1      23.091  40.685  12.026  1.00  0.00     0.191 C 
BRANCH  23  24
ATOM     24  O   UNL     1      22.889  41.967  11.521  1.00  0.00    -0.394 OA
ATOM     25  H   UNL     1      23.519  42.111  10.777  1.00  0.00     0.210 HD
ENDBRANCH  23  24
ENDBRANCH  18  23
BRANCH  20  26
ATOM     26  O   UNL     1      19.068  38.808  10.666  1.00  0.00    -0.350 OA
BRANCH  26  27
ATOM     27  C   UNL     1      18.940  37.534  11.213  1.00  0.00     0.169 C 
BRANCH  27  28
ATOM     28  C   UNL     1      17.562  36.980  10.875  1.00  0.00     0.119 C 
BRANCH  28  29
ATOM     29  N   UNL     1      17.772  35.929   9.901  1.00  0.00    -0.092 NA
ATOM     30  N   UNL     1      18.819  35.927   9.257  1.00  0.00     0.001 N 
ATOM     31  N   UNL     1      19.808  35.634   8.552  1.00  0.00    -0.003 NA
ENDBRANCH  28  29
ENDBRANCH  27  28
ENDBRANCH  26  27
ENDBRANCH  20  26
BRANCH  21  32
ATOM     32  O   UNL     1      22.009  41.421   8.652  1.00  0.00    -0.387 OA
ATOM     33  H   UNL     1      21.569  41.706   7.827  1.00  0.00     0.211 HD
ENDBRANCH  21  32
BRANCH  22  34
ATOM     34  O   UNL     1      20.122  38.708   7.984  1.00  0.00    -0.385 OA
ATOM     35  H   UNL     1      20.056  37.791   8.370  1.00  0.00     0.211 HD
ENDBRANCH  22  34
ENDBRANCH  16  17
ENDBRANCH  11  16
BRANCH  13  36
ATOM     36  O   UNL     1      22.838  35.854  12.033  1.00  0.00    -0.385 OA
ATOM     37  H   UNL     1      23.294  36.450  12.648  1.00  0.00     0.211 HD
ENDBRANCH  13  36
BRANCH  14  38
ATOM     38  O   UNL     1      22.672  35.148   8.682  1.00  0.00    -0.387 OA
ATOM     39  H   UNL     1      21.942  34.519   8.854  1.00  0.00     0.211 HD
ENDBRANCH  14  38
BRANCH  15  40
ATOM     40  O   UNL     1      25.083  36.472   8.436  1.00  0.00    -0.387 OA
ATOM     41  H   UNL     1      25.763  36.269   7.752  1.00  0.00     0.211 HD
ENDBRANCH  15  40
ENDBRANCH   9  10
ENDBRANCH   8   9
ENDBRANCH   3   8
BRANCH   3  42
ATOM     42  C   UNL     1      28.340  35.119   8.264  1.00  0.00     0.364 C 
ATOM     43  O   UNL     1      29.071  34.165   8.628  1.00  0.00    -0.246 OA
BRANCH  42  44
ATOM     44  O   UNL     1      27.372  34.875   7.323  1.00  0.00    -0.477 OA
ATOM     45  H   UNL     1      27.252  34.023   6.813  1.00  0.00     0.296 HD
ENDBRANCH  42  44
ENDBRANCH   3  42
BRANCH   6  46
ATOM     46  O   UNL     1      29.181  38.972   9.659  1.00  0.00    -0.391 OA
ATOM     47  H   UNL     1      29.310  39.965   9.649  1.00  0.00     0.211 HD
ENDBRANCH   6  46
BRANCH   7  48
ATOM     48  N   UNL     1      30.966  38.985   6.617  1.00  0.00    -0.348 N 
ATOM     49  C   UNL     1      31.221  40.245   6.014  1.00  0.00     0.217 C 
ATOM     50  H   UNL     1      31.667  38.227   6.471  1.00  0.00     0.163 HD
ATOM     51  C   UNL     1      32.427  40.519   5.195  1.00  0.00     0.114 C 
ATOM     52  O   UNL     1      30.410  41.207   6.152  1.00  0.00    -0.275 OA
ENDBRANCH   7  48
ENDBRANCH   1   2
BRANCH   1  53
ATOM     53  O   UNL     1      27.360  36.995   5.235  1.00  0.00    -0.388 OA
ATOM     54  H   UNL     1      27.480  36.677   4.318  1.00  0.00     0.211 HD
ENDBRANCH   1  53
BRANCH   1  55
ATOM     55  C   UNL     1      27.547  39.317   5.534  1.00  0.00     0.165 C 
BRANCH  55  56
ATOM     56  O   UNL     1      26.268  39.129   6.066  1.00  0.00    -0.388 OA
ATOM     57  H   UNL     1      26.098  38.159   6.139  1.00  0.00     0.211 HD
ENDBRANCH  55  56
BRANCH  55  58
ATOM     58  C   UNL     1      27.371  39.705   4.061  1.00  0.00     0.154 C 
BRANCH  58  59
ATOM     59  N   UNL     1      26.177  40.482   3.876  1.00  0.00    -0.319 N 
ATOM     60  C   UNL     1      26.150  41.810   3.368  1.00  0.00     0.407 C 
ATOM     61  H   UNL     1      25.225  40.073   4.119  1.00  0.00     0.167 HD
ATOM     62  O   UNL     1      27.248  42.340   3.062  1.00  0.00    -0.225 OA
BRANCH  60  63
ATOM     63  O   UNL     1      24.974  42.519   3.208  1.00  0.00    -0.443 OA
BRANCH  63  64
ATOM     64  C   UNL     1      24.472  43.272   4.284  1.00  0.00     0.294 C 
BRANCH  64  65
ATOM     65  C   UNL     1      24.778  42.618   5.570  1.00  0.00     0.120 A 
ATOM     66  C   UNL     1      25.809  43.033   6.404  1.00  0.00     0.138 A 
ATOM     67  N   UNL     1      24.150  41.572   6.160  1.00  0.00    -0.132 NA
ATOM     68  N   UNL     1      25.762  42.210   7.479  1.00  0.00    -0.252 N 
ATOM     69  N   UNL     1      24.766  41.353   7.303  1.00  0.00    -0.067 NA
BRANCH  68  70
ATOM     70  C   UNL     1      26.637  42.255   8.631  1.00  0.00     0.158 C 
BRANCH  70  71
ATOM     71  C   UNL     1      25.995  41.714   9.889  1.00  0.00     0.146 C 
BRANCH  71  72
ATOM     72  C   UNL     1      26.490  40.348  10.106  1.00  0.00     0.305 C 
ATOM     73  O   UNL     1      27.048  40.056  11.186  1.00  0.00    -0.252 OA
BRANCH  72  74
ATOM     74  O   UNL     1      26.359  39.356   9.136  1.00  0.00    -0.481 OA
ATOM     75  H   UNL     1      26.434  39.535   8.140  1.00  0.00     0.296 HD
ENDBRANCH  72  74
ENDBRANCH  71  72
ENDBRANCH  70  71
ENDBRANCH  68  70
ENDBRANCH  64  65
ENDBRANCH  63  64
ENDBRANCH  60  63
ENDBRANCH  58  59
ENDBRANCH  55  58
ENDBRANCH   1  55
TORSDOF 33
BEGIN_RES LYS A 131
REMARK  4 active torsions:
REMARK  status: ('A' for Active; 'I' for Inactive)
REMARK    1  A    between atoms: CA   and  CB  
REMARK    2  A    between atoms: CB   and  CG  
REMARK    3  A    between atoms: CG   and  CD  
REMARK    4  A    between atoms: CD   and  CE  
ROOT
ATOM      1  CA  LYS A 131      29.867  25.555  16.977  1.00 20.52     0.186 C 
ENDROOT
BRANCH   1   2
ATOM      2  CB  LYS A 131      28.345  25.722  17.026  1.00 20.94     0.034 C 
BRANCH   2   3
ATOM      3  CG  LYS A 131      27.602  24.399  16.927  1.00 22.96     0.005 C 
BRANCH   3   4
ATOM      4  CD  LYS A 131      26.153  24.533  17.304  1.00 24.33     0.041 C 
BRANCH   4   5
ATOM      5  CE  LYS A 131      25.637  23.198  17.830  1.00 26.91     0.338 C 
ATOM      6  NZ  LYS A 131      25.503  23.238  19.305  1.00 27.40     0.618 N 
ENDBRANCH   4   5
ENDBRANCH   3   4
ENDBRANCH   2   3
ENDBRANCH   1   2
END_RES LYS A 131
BEGIN_RES LYS A 135
REMARK  4 active torsions:
REMARK  status: ('A' for Active; 'I' for Inactive)
REMARK    5  A    between atoms: CA   and  CB  
REMARK    6  A    between atoms: CB   and  CG  
REMARK    7  A    between atoms: CG   and  CD  
REMARK    8  A    between atoms: CD   and  CE  
ROOT
ATOM      7  CA  LYS A 135      33.193  34.663   9.290  1.00 25.02     0.186 C 
ENDROOT
BRANCH   7   8
ATOM      8  CB  LYS A 135      32.060  35.360  10.034  1.00 26.63     0.034 C 
BRANCH   8   9
ATOM      9  CG  LYS A 135      32.383  35.666  11.474  1.00 29.45     0.005 C 
BRANCH   9  10
ATOM     10  CD  LYS A 135      31.125  36.054  12.235  1.00 32.00     0.041 C 
BRANCH  10  11
ATOM     11  CE  LYS A 135      30.155  34.889  12.291  1.00 34.25     0.338 C 
ATOM     12  NZ  LYS A 135      30.295  34.136  13.569  1.00 35.99     0.618 N 
ENDBRANCH  10  11
ENDBRANCH   9  10
ENDBRANCH   8   9
ENDBRANCH   7   8
END_RES LYS A 135
