REMARK VINA RESULT:    -2.994      3.240      7.783
REMARK INTER + INTRA:         -21.133
REMARK INTER:                  -9.259
REMARK INTRA:                 -11.874
REMARK UNBOUND:               -13.239
REMARK SMILES CCOC(=O)Cn1cc(COC(=O)NC[C@@H](O)C(O)[C@@H]2O[C@@](OC[C@H]3O[C@@H](O[C@H]4[C@H](O)[C@@H](O)[C@H](OCCN=[N+]=[N-])O[C@@H]4CO)[C@H](O)[C@@H](O)[C@H]3O)(C(=O)O)C[C@H](O)[C@H]2NC(C)=O)nn1
REMARK SMILES IDX 18 1 20 2 22 3 54 4 21 5 55 6 57 7 23 8 24 9 25 10 27 11
REMARK SMILES IDX 26 12 45 13 47 14 49 15 28 16 29 17 42 18 41 19 34 20 30 21
REMARK SMILES IDX 32 22 43 23 44 24 35 26 36 27 37 28 38 29 39 30 40 31 31 32
REMARK SMILES IDX 33 34 46 36 48 38 50 40 51 42 52 43 53 44 56 46 58 48 59 49
REMARK SMILES IDX 60 51 61 52 19 53 16 55 17 56 15 58 14 59 12 60 13 62 11 63
REMARK SMILES IDX 10 64 9 65 8 66 62 67 7 68 63 69 6 70 4 71 5 72 3 73 2 74
REMARK SMILES IDX 1 75
REMARK H PARENT 44 25 31 33 33 35 46 37 48 39 50 41 53 45 56 47 58 50 19 54
REMARK H PARENT 17 57 14 61
REMARK Flexibility Score: inf
ROOT
ATOM      1  C   UNL     1      25.113  32.932  14.544  1.00  0.00     0.176 C 
ENDROOT
BRANCH   1   2
ATOM      2  C   UNL     1      26.494  33.067  15.125  1.00  0.00     0.178 C 
ATOM      3  C   UNL     1      27.939  32.042  16.651  1.00  0.00     0.272 C 
ATOM      4  C   UNL     1      28.694  33.315  16.485  1.00  0.00     0.113 C 
ATOM      5  O   UNL     1      26.935  31.890  15.670  1.00  0.00    -0.332 OA
ATOM      6  C   UNL     1      27.840  34.542  16.515  1.00  0.00     0.145 C 
ATOM      7  C   UNL     1      26.410  34.130  16.206  1.00  0.00     0.142 C 
BRANCH   3   8
ATOM      8  O   UNL     1      27.375  31.842  17.893  1.00  0.00    -0.338 OA
BRANCH   8   9
ATOM      9  C   UNL     1      28.160  31.975  18.986  1.00  0.00     0.199 C 
BRANCH   9  10
ATOM     10  C   UNL     1      28.090  30.662  19.791  1.00  0.00     0.179 C 
ATOM     11  C   UNL     1      27.280  28.490  19.721  1.00  0.00     0.282 C 
ATOM     12  O   UNL     1      27.226  29.776  19.231  1.00  0.00    -0.341 OA
ATOM     13  C   UNL     1      28.660  27.907  19.747  1.00  0.00     0.202 C 
ATOM     14  C   UNL     1      29.486  28.775  20.661  1.00  0.00     0.179 C 
ATOM     15  C   UNL     1      29.468  30.154  20.093  1.00  0.00     0.177 C 
BRANCH  11  16
ATOM     16  O   UNL     1      26.451  27.615  19.039  1.00  0.00    -0.341 OA
BRANCH  16  17
ATOM     17  C   UNL     1      25.182  28.075  18.795  1.00  0.00     0.184 C 
ATOM     18  C   UNL     1      24.106  27.268  19.490  1.00  0.00     0.178 C 
ATOM     19  O   UNL     1      23.352  26.534  18.585  1.00  0.00    -0.341 OA
ATOM     20  C   UNL     1      22.601  27.367  17.724  1.00  0.00     0.281 C 
ATOM     21  C   UNL     1      24.912  28.043  17.291  1.00  0.00     0.180 C 
ATOM     22  C   UNL     1      23.452  28.435  17.114  1.00  0.00     0.202 C 
BRANCH  18  23
ATOM     23  C   UNL     1      23.283  28.162  20.381  1.00  0.00     0.191 C 
BRANCH  23  24
ATOM     24  O   UNL     1      23.885  29.427  20.515  1.00  0.00    -0.394 OA
ATOM     25  H   UNL     1      24.822  29.407  20.237  1.00  0.00     0.210 HD
ENDBRANCH  23  24
ENDBRANCH  18  23
BRANCH  20  26
ATOM     26  O   UNL     1      21.505  27.871  18.374  1.00  0.00    -0.350 OA
BRANCH  26  27
ATOM     27  C   UNL     1      20.276  27.356  18.135  1.00  0.00     0.169 C 
BRANCH  27  28
ATOM     28  C   UNL     1      19.686  27.466  16.779  1.00  0.00     0.119 C 
BRANCH  28  29
ATOM     29  N   UNL     1      19.937  28.660  16.047  1.00  0.00    -0.092 NA
ATOM     30  N   UNL     1      20.067  28.643  14.805  1.00  0.00     0.001 N 
ATOM     31  N   UNL     1      19.962  28.435  13.583  1.00  0.00    -0.003 NA
ENDBRANCH  28  29
ENDBRANCH  27  28
ENDBRANCH  26  27
ENDBRANCH  20  26
BRANCH  21  32
ATOM     32  O   UNL     1      25.733  28.979  16.657  1.00  0.00    -0.387 OA
ATOM     33  H   UNL     1      25.371  29.091  15.724  1.00  0.00     0.211 HD
ENDBRANCH  21  32
BRANCH  22  34
ATOM     34  O   UNL     1      23.191  28.634  15.755  1.00  0.00    -0.385 OA
ATOM     35  H   UNL     1      23.336  29.566  15.458  1.00  0.00     0.211 HD
ENDBRANCH  22  34
ENDBRANCH  16  17
ENDBRANCH  11  16
BRANCH  13  36
ATOM     36  O   UNL     1      28.587  26.613  20.246  1.00  0.00    -0.385 OA
ATOM     37  H   UNL     1      29.017  25.932  19.706  1.00  0.00     0.211 HD
ENDBRANCH  13  36
BRANCH  14  38
ATOM     38  O   UNL     1      30.810  28.282  20.639  1.00  0.00    -0.387 OA
ATOM     39  H   UNL     1      31.061  27.933  21.530  1.00  0.00     0.211 HD
ENDBRANCH  14  38
BRANCH  15  40
ATOM     40  O   UNL     1      30.278  30.143  18.934  1.00  0.00    -0.387 OA
ATOM     41  H   UNL     1      29.735  30.625  18.251  1.00  0.00     0.211 HD
ENDBRANCH  15  40
ENDBRANCH   9  10
ENDBRANCH   8   9
ENDBRANCH   3   8
BRANCH   3  42
ATOM     42  C   UNL     1      28.874  30.928  16.360  1.00  0.00     0.364 C 
ATOM     43  O   UNL     1      30.057  31.182  16.044  1.00  0.00    -0.246 OA
BRANCH  42  44
ATOM     44  O   UNL     1      28.459  29.628  16.432  1.00  0.00    -0.477 OA
ATOM     45  H   UNL     1      28.047  29.143  15.638  1.00  0.00     0.296 HD
ENDBRANCH  42  44
ENDBRANCH   3  42
BRANCH   6  46
ATOM     46  O   UNL     1      27.930  35.286  17.667  1.00  0.00    -0.391 OA
ATOM     47  H   UNL     1      27.663  36.226  17.460  1.00  0.00     0.211 HD
ENDBRANCH   6  46
BRANCH   7  48
ATOM     48  N   UNL     1      25.630  35.277  15.761  1.00  0.00    -0.348 N 
ATOM     49  C   UNL     1      24.857  36.055  16.655  1.00  0.00     0.217 C 
ATOM     50  H   UNL     1      25.646  35.531  14.758  1.00  0.00     0.163 HD
ATOM     51  C   UNL     1      24.052  37.232  16.212  1.00  0.00     0.114 C 
ATOM     52  O   UNL     1      24.856  35.731  17.874  1.00  0.00    -0.275 OA
ENDBRANCH   7  48
ENDBRANCH   1   2
BRANCH   1  53
ATOM     53  O   UNL     1      25.167  32.863  13.167  1.00  0.00    -0.388 OA
ATOM     54  H   UNL     1      24.571  33.526  12.713  1.00  0.00     0.211 HD
ENDBRANCH   1  53
BRANCH   1  55
ATOM     55  C   UNL     1      24.366  31.717  15.065  1.00  0.00     0.165 C 
BRANCH  55  56
ATOM     56  O   UNL     1      24.509  30.612  14.259  1.00  0.00    -0.388 OA
ATOM     57  H   UNL     1      25.302  30.065  14.463  1.00  0.00     0.211 HD
ENDBRANCH  55  56
BRANCH  55  58
ATOM     58  C   UNL     1      22.931  32.085  15.244  1.00  0.00     0.154 C 
BRANCH  58  59
ATOM     59  N   UNL     1      22.394  32.909  14.220  1.00  0.00    -0.319 N 
ATOM     60  C   UNL     1      21.864  32.449  12.985  1.00  0.00     0.407 C 
ATOM     61  H   UNL     1      22.367  33.981  14.349  1.00  0.00     0.167 HD
ATOM     62  O   UNL     1      21.821  31.242  12.695  1.00  0.00    -0.225 OA
BRANCH  60  63
ATOM     63  O   UNL     1      21.367  33.386  12.062  1.00  0.00    -0.443 OA
BRANCH  63  64
ATOM     64  C   UNL     1      21.554  34.749  12.258  1.00  0.00     0.294 C 
BRANCH  64  65
ATOM     65  C   UNL     1      22.955  35.192  12.119  1.00  0.00     0.120 A 
ATOM     66  C   UNL     1      23.713  35.165  10.964  1.00  0.00     0.139 A 
ATOM     67  N   UNL     1      23.763  35.690  13.064  1.00  0.00    -0.132 NA
ATOM     68  N   UNL     1      24.953  35.641  11.232  1.00  0.00    -0.241 N 
ATOM     69  N   UNL     1      24.945  35.949  12.511  1.00  0.00    -0.066 NA
BRANCH  68  70
ATOM     70  C   UNL     1      26.026  35.753  10.253  1.00  0.00     0.268 C 
BRANCH  70  71
ATOM     71  C   UNL     1      27.303  35.990  11.017  1.00  0.00     0.327 C 
ATOM     72  O   UNL     1      27.907  37.079  10.977  1.00  0.00    -0.250 OA
BRANCH  71  73
ATOM     73  O   UNL     1      27.861  34.995  11.800  1.00  0.00    -0.465 OA
BRANCH  73  74
ATOM     74  C   UNL     1      28.480  35.207  13.036  1.00  0.00     0.229 C 
ATOM     75  C   UNL     1      29.811  34.506  13.157  1.00  0.00     0.049 C 
ENDBRANCH  73  74
ENDBRANCH  71  73
ENDBRANCH  70  71
ENDBRANCH  68  70
ENDBRANCH  64  65
ENDBRANCH  63  64
ENDBRANCH  60  63
ENDBRANCH  58  59
ENDBRANCH  55  58
ENDBRANCH   1  55
TORSDOF 33
BEGIN_RES LYS A 131
REMARK  4 active torsions:
REMARK  status: ('A' for Active; 'I' for Inactive)
REMARK    1  A    between atoms: CA   and  CB  
REMARK    2  A    between atoms: CB   and  CG  
REMARK    3  A    between atoms: CG   and  CD  
REMARK    4  A    between atoms: CD   and  CE  
ROOT
ATOM      1  CA  LYS A 131      29.867  25.555  16.977  1.00 20.52     0.186 C 
ENDROOT
BRANCH   1   2
ATOM      2  CB  LYS A 131      28.345  25.722  17.026  1.00 20.94     0.034 C 
BRANCH   2   3
ATOM      3  CG  LYS A 131      27.603  24.395  16.977  1.00 22.96     0.005 C 
BRANCH   3   4
ATOM      4  CD  LYS A 131      26.532  24.306  18.029  1.00 24.33     0.041 C 
BRANCH   4   5
ATOM      5  CE  LYS A 131      25.215  23.894  17.380  1.00 26.91     0.338 C 
ATOM      6  NZ  LYS A 131      25.005  22.433  17.512  1.00 27.40     0.618 N 
ENDBRANCH   4   5
ENDBRANCH   3   4
ENDBRANCH   2   3
ENDBRANCH   1   2
END_RES LYS A 131
BEGIN_RES LYS A 135
REMARK  4 active torsions:
REMARK  status: ('A' for Active; 'I' for Inactive)
REMARK    5  A    between atoms: CA   and  CB  
REMARK    6  A    between atoms: CB   and  CG  
REMARK    7  A    between atoms: CG   and  CD  
REMARK    8  A    between atoms: CD   and  CE  
ROOT
ATOM      7  CA  LYS A 135      33.193  34.663   9.290  1.00 25.02     0.186 C 
ENDROOT
BRANCH   7   8
ATOM      8  CB  LYS A 135      32.060  35.360  10.034  1.00 26.63     0.034 C 
BRANCH   8   9
ATOM      9  CG  LYS A 135      30.704  34.761   9.764  1.00 29.45     0.005 C 
BRANCH   9  10
ATOM     10  CD  LYS A 135      30.475  34.603   8.269  1.00 32.00     0.041 C 
BRANCH  10  11
ATOM     11  CE  LYS A 135      29.018  34.850   7.925  1.00 34.25     0.338 C 
ATOM     12  NZ  LYS A 135      28.890  35.583   6.635  1.00 35.99     0.618 N 
ENDBRANCH  10  11
ENDBRANCH   9  10
ENDBRANCH   8   9
ENDBRANCH   7   8
END_RES LYS A 135
