REMARK VINA RESULT:    -4.597      0.000      0.000
REMARK INTER + INTRA:         -25.121
REMARK INTER:                 -13.232
REMARK INTRA:                 -11.889
REMARK UNBOUND:               -13.000
REMARK SMILES CC(=O)N[C@@H]1[C@@H](O)C[C@](OC[C@H]2O[C@@H](O[C@H]3[C@H](O)[C@@H](O)[C@H](OCCN=[N+]=[N-])O[C@@H]3CO)[C@H](O)[C@@H](O)[C@H]2O)(C(=O)O)O[C@H]1C(O)[C@H](O)CNC(=O)OCc1cn(C(C)CC(=O)c2ccccc2)nn1
REMARK SMILES IDX 43 1 42 2 9 3 8 4 41 5 6 6 5 7 10 8 11 9 12 10 14 11 13 12
REMARK SMILES IDX 32 13 34 14 36 15 15 16 16 17 29 18 28 19 21 20 17 21 19 22
REMARK SMILES IDX 30 23 31 24 22 26 23 27 24 28 25 29 26 30 27 31 18 32 20 34
REMARK SMILES IDX 33 36 35 38 37 40 38 42 39 43 40 44 7 46 4 48 2 49 1 51 3 52
REMARK SMILES IDX 44 53 45 55 46 56 47 58 48 59 49 60 50 62 51 63 52 64 53 65
REMARK SMILES IDX 54 66 68 67 55 68 67 69 56 70 57 71 58 72 59 73 60 74 61 75
REMARK SMILES IDX 62 76 66 77 63 78 65 79 64 80
REMARK H PARENT 31 25 18 33 20 35 33 37 35 39 37 41 40 45 7 47 4 50 44 54
REMARK H PARENT 46 57 48 61
REMARK Flexibility Score: inf
ROOT
ATOM      1  C   UNL     1      23.765  38.349   7.927  1.00  0.00     0.176 C 
ENDROOT
BRANCH   1   2
ATOM      2  C   UNL     1      23.400  37.860   9.259  1.00  0.00     0.178 C 
ATOM      3  C   UNL     1      24.923  36.455  10.387  1.00  0.00     0.272 C 
ATOM      4  C   UNL     1      23.850  35.691  11.086  1.00  0.00     0.113 C 
ATOM      5  O   UNL     1      24.355  37.768  10.192  1.00  0.00    -0.332 OA
ATOM      6  C   UNL     1      22.474  36.056  10.561  1.00  0.00     0.145 C 
ATOM      7  C   UNL     1      22.542  36.577   9.175  1.00  0.00     0.142 C 
BRANCH   3   8
ATOM      8  O   UNL     1      25.420  36.081   9.245  1.00  0.00    -0.338 OA
BRANCH   8   9
ATOM      9  C   UNL     1      25.642  35.004   8.578  1.00  0.00     0.199 C 
BRANCH   9  10
ATOM     10  C   UNL     1      26.954  34.340   8.308  1.00  0.00     0.179 C 
ATOM     11  C   UNL     1      29.010  34.997   7.335  1.00  0.00     0.282 C 
ATOM     12  O   UNL     1      27.683  35.127   7.509  1.00  0.00    -0.341 OA
ATOM     13  C   UNL     1      29.732  34.955   8.640  1.00  0.00     0.202 C 
ATOM     14  C   UNL     1      29.069  34.132   9.649  1.00  0.00     0.179 C 
ATOM     15  C   UNL     1      27.653  33.711   9.446  1.00  0.00     0.177 C 
BRANCH  11  16
ATOM     16  O   UNL     1      29.396  36.141   6.586  1.00  0.00    -0.341 OA
BRANCH  16  17
ATOM     17  C   UNL     1      28.450  37.125   6.740  1.00  0.00     0.184 C 
ATOM     18  C   UNL     1      28.378  38.013   5.533  1.00  0.00     0.178 C 
ATOM     19  O   UNL     1      29.549  38.731   5.350  1.00  0.00    -0.341 OA
ATOM     20  C   UNL     1      29.992  39.477   6.397  1.00  0.00     0.281 C 
ATOM     21  C   UNL     1      28.830  37.978   7.969  1.00  0.00     0.180 C 
ATOM     22  C   UNL     1      30.053  38.780   7.712  1.00  0.00     0.202 C 
BRANCH  18  23
ATOM     23  C   UNL     1      27.164  38.919   5.577  1.00  0.00     0.191 C 
BRANCH  23  24
ATOM     24  O   UNL     1      27.030  39.689   4.428  1.00  0.00    -0.394 OA
ATOM     25  H   UNL     1      26.449  39.207   3.781  1.00  0.00     0.210 HD
ENDBRANCH  23  24
ENDBRANCH  18  23
BRANCH  20  26
ATOM     26  O   UNL     1      29.403  40.710   6.522  1.00  0.00    -0.350 OA
BRANCH  26  27
ATOM     27  C   UNL     1      29.871  41.673   5.670  1.00  0.00     0.169 C 
BRANCH  27  28
ATOM     28  C   UNL     1      28.979  42.884   5.610  1.00  0.00     0.119 C 
BRANCH  28  29
ATOM     29  N   UNL     1      27.621  42.442   5.346  1.00  0.00    -0.092 NA
ATOM     30  N   UNL     1      26.757  42.599   6.205  1.00  0.00     0.001 N 
ATOM     31  N   UNL     1      25.868  42.943   6.986  1.00  0.00    -0.003 NA
ENDBRANCH  28  29
ENDBRANCH  27  28
ENDBRANCH  26  27
ENDBRANCH  20  26
BRANCH  21  32
ATOM     32  O   UNL     1      27.747  38.737   8.395  1.00  0.00    -0.387 OA
ATOM     33  H   UNL     1      27.255  39.151   7.645  1.00  0.00     0.211 HD
ENDBRANCH  21  32
BRANCH  22  34
ATOM     34  O   UNL     1      31.221  38.035   7.886  1.00  0.00    -0.385 OA
ATOM     35  H   UNL     1      31.762  38.195   7.071  1.00  0.00     0.211 HD
ENDBRANCH  22  34
ENDBRANCH  16  17
ENDBRANCH  11  16
BRANCH  13  36
ATOM     36  O   UNL     1      31.050  34.448   8.443  1.00  0.00    -0.385 OA
ATOM     37  H   UNL     1      31.229  34.585   7.475  1.00  0.00     0.211 HD
ENDBRANCH  13  36
BRANCH  14  38
ATOM     38  O   UNL     1      29.192  34.800  10.901  1.00  0.00    -0.387 OA
ATOM     39  H   UNL     1      29.605  34.219  11.581  1.00  0.00     0.211 HD
ENDBRANCH  14  38
BRANCH  15  40
ATOM     40  O   UNL     1      27.008  33.779  10.665  1.00  0.00    -0.387 OA
ATOM     41  H   UNL     1      27.400  33.328  11.416  1.00  0.00     0.211 HD
ENDBRANCH  15  40
ENDBRANCH   9  10
ENDBRANCH   8   9
ENDBRANCH   3   8
BRANCH   3  42
ATOM     42  C   UNL     1      26.010  36.743  11.420  1.00  0.00     0.364 C 
ATOM     43  O   UNL     1      25.695  36.954  12.597  1.00  0.00    -0.246 OA
BRANCH  42  44
ATOM     44  O   UNL     1      27.338  36.769  11.057  1.00  0.00    -0.477 OA
ATOM     45  H   UNL     1      27.860  37.613  11.261  1.00  0.00     0.296 HD
ENDBRANCH  42  44
ENDBRANCH   3  42
BRANCH   6  46
ATOM     46  O   UNL     1      21.579  35.003  10.711  1.00  0.00    -0.391 OA
ATOM     47  H   UNL     1      21.945  34.212  10.190  1.00  0.00     0.211 HD
ENDBRANCH   6  46
BRANCH   7  48
ATOM     48  N   UNL     1      21.219  37.001   8.726  1.00  0.00    -0.348 N 
ATOM     49  C   UNL     1      20.330  36.148   8.018  1.00  0.00     0.217 C 
ATOM     50  H   UNL     1      20.910  37.968   8.931  1.00  0.00     0.163 HD
ATOM     51  C   UNL     1      19.005  36.578   7.567  1.00  0.00     0.114 C 
ATOM     52  O   UNL     1      20.704  34.952   7.761  1.00  0.00    -0.275 OA
ENDBRANCH   7  48
ENDBRANCH   1   2
BRANCH   1  53
ATOM     53  O   UNL     1      25.129  38.173   7.595  1.00  0.00    -0.388 OA
ATOM     54  H   UNL     1      25.651  38.642   8.316  1.00  0.00     0.211 HD
ENDBRANCH   1  53
BRANCH   1  55
ATOM     55  C   UNL     1      23.442  39.790   7.596  1.00  0.00     0.165 C 
BRANCH  55  56
ATOM     56  O   UNL     1      24.130  40.304   6.545  1.00  0.00    -0.388 OA
ATOM     57  H   UNL     1      24.126  39.663   5.796  1.00  0.00     0.211 HD
ENDBRANCH  55  56
BRANCH  55  58
ATOM     58  C   UNL     1      23.744  40.600   8.866  1.00  0.00     0.154 C 
BRANCH  58  59
ATOM     59  N   UNL     1      25.171  40.695   9.077  1.00  0.00    -0.319 N 
ATOM     60  C   UNL     1      25.818  40.809  10.327  1.00  0.00     0.407 C 
ATOM     61  H   UNL     1      25.834  40.672   8.241  1.00  0.00     0.167 HD
ATOM     62  O   UNL     1      25.168  40.788  11.390  1.00  0.00    -0.225 OA
BRANCH  60  63
ATOM     63  O   UNL     1      27.218  40.952  10.417  1.00  0.00    -0.443 OA
BRANCH  63  64
ATOM     64  C   UNL     1      27.802  41.145  11.723  1.00  0.00     0.294 C 
BRANCH  64  65
ATOM     65  C   UNL     1      28.521  39.843  11.982  1.00  0.00     0.120 A 
ATOM     66  C   UNL     1      28.620  39.269  13.263  1.00  0.00     0.138 A 
ATOM     67  N   UNL     1      29.199  39.042  11.184  1.00  0.00    -0.132 NA
ATOM     68  N   UNL     1      29.356  38.151  13.180  1.00  0.00    -0.249 N 
ATOM     69  N   UNL     1      29.697  38.027  11.921  1.00  0.00    -0.067 NA
BRANCH  68  70
ATOM     70  C   UNL     1      29.687  37.308  14.331  1.00  0.00     0.114 C 
ATOM     71  C   UNL     1      30.382  38.145  15.358  1.00  0.00     0.034 C 
BRANCH  70  72
ATOM     72  C   UNL     1      28.480  36.568  14.807  1.00  0.00     0.108 C 
BRANCH  72  73
ATOM     73  C   UNL     1      28.621  35.149  14.386  1.00  0.00     0.164 C 
ATOM     74  O   UNL     1      28.070  34.721  13.369  1.00  0.00    -0.294 OA
BRANCH  73  75
ATOM     75  C   UNL     1      29.446  34.273  15.231  1.00  0.00     0.018 A 
ATOM     76  C   UNL     1      29.467  34.363  16.575  1.00  0.00     0.012 A 
ATOM     77  C   UNL     1      30.227  33.311  14.570  1.00  0.00     0.012 A 
ATOM     78  C   UNL     1      30.270  33.492  17.331  1.00  0.00     0.001 A 
ATOM     79  C   UNL     1      31.000  32.474  15.323  1.00  0.00     0.001 A 
ATOM     80  C   UNL     1      31.036  32.547  16.690  1.00  0.00     0.000 A 
ENDBRANCH  73  75
ENDBRANCH  72  73
ENDBRANCH  70  72
ENDBRANCH  68  70
ENDBRANCH  64  65
ENDBRANCH  63  64
ENDBRANCH  60  63
ENDBRANCH  58  59
ENDBRANCH  55  58
ENDBRANCH   1  55
TORSDOF 33
BEGIN_RES LYS A 131
REMARK  4 active torsions:
REMARK  status: ('A' for Active; 'I' for Inactive)
REMARK    1  A    between atoms: CA   and  CB  
REMARK    2  A    between atoms: CB   and  CG  
REMARK    3  A    between atoms: CG   and  CD  
REMARK    4  A    between atoms: CD   and  CE  
ROOT
ATOM      1  CA  LYS A 131      29.867  25.555  16.977  1.00 20.52     0.186 C 
ENDROOT
BRANCH   1   2
ATOM      2  CB  LYS A 131      28.345  25.722  17.026  1.00 20.94     0.034 C 
BRANCH   2   3
ATOM      3  CG  LYS A 131      27.601  24.401  16.903  1.00 22.96     0.005 C 
BRANCH   3   4
ATOM      4  CD  LYS A 131      26.536  24.250  17.953  1.00 24.33     0.041 C 
BRANCH   4   5
ATOM      5  CE  LYS A 131      25.190  23.999  17.281  1.00 26.91     0.338 C 
ATOM      6  NZ  LYS A 131      24.187  23.556  18.278  1.00 27.40     0.618 N 
ENDBRANCH   4   5
ENDBRANCH   3   4
ENDBRANCH   2   3
ENDBRANCH   1   2
END_RES LYS A 131
BEGIN_RES LYS A 135
REMARK  4 active torsions:
REMARK  status: ('A' for Active; 'I' for Inactive)
REMARK    5  A    between atoms: CA   and  CB  
REMARK    6  A    between atoms: CB   and  CG  
REMARK    7  A    between atoms: CG   and  CD  
REMARK    8  A    between atoms: CD   and  CE  
ROOT
ATOM      7  CA  LYS A 135      33.193  34.663   9.290  1.00 25.02     0.186 C 
ENDROOT
BRANCH   7   8
ATOM      8  CB  LYS A 135      32.060  35.360  10.034  1.00 26.63     0.034 C 
BRANCH   8   9
ATOM      9  CG  LYS A 135      32.519  36.133  11.243  1.00 29.45     0.005 C 
BRANCH   9  10
ATOM     10  CD  LYS A 135      32.089  35.432  12.523  1.00 32.00     0.041 C 
BRANCH  10  11
ATOM     11  CE  LYS A 135      33.278  35.222  13.441  1.00 34.25     0.338 C 
ATOM     12  NZ  LYS A 135      32.953  35.617  14.839  1.00 35.99     0.618 N 
ENDBRANCH  10  11
ENDBRANCH   9  10
ENDBRANCH   8   9
ENDBRANCH   7   8
END_RES LYS A 135
