REMARK VINA RESULT:    -4.799      7.252     14.440
REMARK INTER + INTRA:         -23.672
REMARK INTER:                 -10.410
REMARK INTRA:                 -13.262
REMARK UNBOUND:               -10.737
REMARK SMILES CC(=O)N[C@@H]1[C@@H](O)C[C@](OC[C@H]2O[C@@H](O[C@H]3[C@H](O)[C@@H](O)[C@H](OCCN=[N+]=[N-])O[C@@H]3CO)[C@H](O)[C@@H](O)[C@H]2O)(C(=O)O)O[C@H]1C(O)[C@H](O)CNC(=O)OCc1cn(CCNC(=O)NCc2ccco2)nn1
REMARK SMILES IDX 43 1 42 2 9 3 8 4 41 5 6 6 5 7 10 8 11 9 12 10 14 11 13 12
REMARK SMILES IDX 32 13 34 14 36 15 15 16 16 17 29 18 28 19 21 20 17 21 19 22
REMARK SMILES IDX 30 23 31 24 22 26 23 27 24 28 25 29 26 30 27 31 18 32 20 34
REMARK SMILES IDX 33 36 35 38 37 40 38 42 39 43 40 44 7 46 4 48 2 49 1 51 3 52
REMARK SMILES IDX 44 53 45 55 46 56 47 58 48 59 49 60 50 62 51 63 52 64 53 65
REMARK SMILES IDX 54 66 69 67 55 68 68 69 56 70 57 71 58 72 59 73 60 75 61 76
REMARK SMILES IDX 62 78 63 79 64 80 67 81 65 82 66 83
REMARK H PARENT 31 25 18 33 20 35 33 37 35 39 37 41 40 45 7 47 4 50 44 54
REMARK H PARENT 46 57 48 61 58 74 61 77
REMARK Flexibility Score: inf
ROOT
ATOM      1  C   UNL     1      30.562  40.253   6.689  1.00  0.00     0.176 C 
ENDROOT
BRANCH   1   2
ATOM      2  C   UNL     1      31.673  39.635   7.477  1.00  0.00     0.178 C 
ATOM      3  C   UNL     1      30.939  39.467   9.732  1.00  0.00     0.272 C 
ATOM      4  C   UNL     1      31.332  40.980   9.738  1.00  0.00     0.113 C 
ATOM      5  O   UNL     1      31.256  38.906   8.548  1.00  0.00    -0.332 OA
ATOM      6  C   UNL     1      32.622  41.237   9.068  1.00  0.00     0.145 C 
ATOM      7  C   UNL     1      32.837  40.513   7.761  1.00  0.00     0.142 C 
BRANCH   3   8
ATOM      8  O   UNL     1      29.565  39.496   9.847  1.00  0.00    -0.338 OA
BRANCH   8   9
ATOM      9  C   UNL     1      28.864  38.379  10.018  1.00  0.00     0.199 C 
BRANCH   9  10
ATOM     10  C   UNL     1      28.134  37.634   9.011  1.00  0.00     0.179 C 
ATOM     11  C   UNL     1      26.466  36.165   8.445  1.00  0.00     0.282 C 
ATOM     12  O   UNL     1      26.941  37.056   9.408  1.00  0.00    -0.341 OA
ATOM     13  C   UNL     1      26.985  36.383   7.072  1.00  0.00     0.202 C 
ATOM     14  C   UNL     1      27.315  37.802   6.711  1.00  0.00     0.179 C 
ATOM     15  C   UNL     1      27.732  38.621   7.897  1.00  0.00     0.177 C 
BRANCH  11  16
ATOM     16  O   UNL     1      25.081  36.119   8.412  1.00  0.00    -0.341 OA
BRANCH  16  17
ATOM     17  C   UNL     1      24.490  36.779   9.508  1.00  0.00     0.184 C 
ATOM     18  C   UNL     1      23.566  35.801  10.173  1.00  0.00     0.178 C 
ATOM     19  O   UNL     1      22.440  36.418  10.712  1.00  0.00    -0.341 OA
ATOM     20  C   UNL     1      21.699  36.894   9.637  1.00  0.00     0.281 C 
ATOM     21  C   UNL     1      23.846  38.023   8.993  1.00  0.00     0.180 C 
ATOM     22  C   UNL     1      22.367  38.099   9.067  1.00  0.00     0.202 C 
BRANCH  18  23
ATOM     23  C   UNL     1      24.311  35.175  11.352  1.00  0.00     0.191 C 
BRANCH  23  24
ATOM     24  O   UNL     1      25.402  36.022  11.645  1.00  0.00    -0.394 OA
ATOM     25  H   UNL     1      25.244  36.833  11.079  1.00  0.00     0.210 HD
ENDBRANCH  23  24
ENDBRANCH  18  23
BRANCH  20  26
ATOM     26  O   UNL     1      20.470  37.302  10.162  1.00  0.00    -0.350 OA
BRANCH  26  27
ATOM     27  C   UNL     1      19.402  36.744   9.460  1.00  0.00     0.169 C 
BRANCH  27  28
ATOM     28  C   UNL     1      19.860  35.354   9.009  1.00  0.00     0.119 C 
BRANCH  28  29
ATOM     29  N   UNL     1      18.793  34.434   9.363  1.00  0.00    -0.092 NA
ATOM     30  N   UNL     1      18.090  33.909   8.488  1.00  0.00     0.001 N 
ATOM     31  N   UNL     1      17.619  33.173   7.603  1.00  0.00    -0.003 NA
ENDBRANCH  28  29
ENDBRANCH  27  28
ENDBRANCH  26  27
ENDBRANCH  20  26
BRANCH  21  32
ATOM     32  O   UNL     1      24.420  39.106   9.688  1.00  0.00    -0.387 OA
ATOM     33  H   UNL     1      24.028  39.228  10.571  1.00  0.00     0.211 HD
ENDBRANCH  21  32
BRANCH  22  34
ATOM     34  O   UNL     1      21.867  38.236   7.748  1.00  0.00    -0.385 OA
ATOM     35  H   UNL     1      22.422  38.965   7.334  1.00  0.00     0.211 HD
ENDBRANCH  22  34
ENDBRANCH  16  17
ENDBRANCH  11  16
BRANCH  13  36
ATOM     36  O   UNL     1      28.020  35.500   6.734  1.00  0.00    -0.385 OA
ATOM     37  H   UNL     1      27.709  34.777   6.145  1.00  0.00     0.211 HD
ENDBRANCH  13  36
BRANCH  14  38
ATOM     38  O   UNL     1      26.264  38.425   6.026  1.00  0.00    -0.387 OA
ATOM     39  H   UNL     1      26.683  38.825   5.215  1.00  0.00     0.211 HD
ENDBRANCH  14  38
BRANCH  15  40
ATOM     40  O   UNL     1      26.772  39.501   8.336  1.00  0.00    -0.387 OA
ATOM     41  H   UNL     1      26.589  39.312   9.274  1.00  0.00     0.211 HD
ENDBRANCH  15  40
ENDBRANCH   9  10
ENDBRANCH   8   9
ENDBRANCH   3   8
BRANCH   3  42
ATOM     42  C   UNL     1      31.574  38.949  10.941  1.00  0.00     0.364 C 
ATOM     43  O   UNL     1      32.240  37.903  10.927  1.00  0.00    -0.246 OA
BRANCH  42  44
ATOM     44  O   UNL     1      31.485  39.578  12.187  1.00  0.00    -0.477 OA
ATOM     45  H   UNL     1      31.793  39.073  13.020  1.00  0.00     0.296 HD
ENDBRANCH  42  44
ENDBRANCH   3  42
BRANCH   6  46
ATOM     46  O   UNL     1      32.707  42.622   8.831  1.00  0.00    -0.391 OA
ATOM     47  H   UNL     1      33.436  42.795   8.184  1.00  0.00     0.211 HD
ENDBRANCH   6  46
BRANCH   7  48
ATOM     48  N   UNL     1      34.080  39.746   7.855  1.00  0.00    -0.348 N 
ATOM     49  C   UNL     1      35.222  40.118   7.133  1.00  0.00     0.217 C 
ATOM     50  H   UNL     1      34.092  38.911   8.478  1.00  0.00     0.163 HD
ATOM     51  C   UNL     1      36.512  39.367   7.193  1.00  0.00     0.114 C 
ATOM     52  O   UNL     1      35.135  41.149   6.392  1.00  0.00    -0.275 OA
ENDBRANCH   7  48
ENDBRANCH   1   2
BRANCH   1  53
ATOM     53  O   UNL     1      30.209  39.333   5.638  1.00  0.00    -0.388 OA
ATOM     54  H   UNL     1      30.547  38.472   5.928  1.00  0.00     0.211 HD
ENDBRANCH   1  53
BRANCH   1  55
ATOM     55  C   UNL     1      30.898  41.502   5.928  1.00  0.00     0.165 C 
BRANCH  55  56
ATOM     56  O   UNL     1      30.581  42.698   6.527  1.00  0.00    -0.388 OA
ATOM     57  H   UNL     1      31.372  43.226   6.802  1.00  0.00     0.211 HD
ENDBRANCH  55  56
BRANCH  55  58
ATOM     58  C   UNL     1      30.341  41.449   4.502  1.00  0.00     0.154 C 
BRANCH  58  59
ATOM     59  N   UNL     1      29.084  42.152   4.413  1.00  0.00    -0.319 N 
ATOM     60  C   UNL     1      27.840  41.499   4.254  1.00  0.00     0.407 C 
ATOM     61  H   UNL     1      29.094  43.188   4.471  1.00  0.00     0.167 HD
ATOM     62  O   UNL     1      27.807  40.242   4.187  1.00  0.00    -0.225 OA
BRANCH  60  63
ATOM     63  O   UNL     1      26.643  42.203   4.169  1.00  0.00    -0.443 OA
BRANCH  63  64
ATOM     64  C   UNL     1      26.226  42.983   5.284  1.00  0.00     0.294 C 
BRANCH  64  65
ATOM     65  C   UNL     1      25.131  42.194   5.927  1.00  0.00     0.120 A 
ATOM     66  C   UNL     1      23.826  42.594   6.034  1.00  0.00     0.138 A 
ATOM     67  N   UNL     1      25.238  40.970   6.500  1.00  0.00    -0.132 NA
ATOM     68  N   UNL     1      23.187  41.617   6.661  1.00  0.00    -0.250 N 
ATOM     69  N   UNL     1      24.047  40.637   6.940  1.00  0.00    -0.067 NA
BRANCH  68  70
ATOM     70  C   UNL     1      21.764  41.632   6.997  1.00  0.00     0.167 C 
BRANCH  70  71
ATOM     71  C   UNL     1      21.633  42.331   8.351  1.00  0.00     0.141 C 
BRANCH  71  72
ATOM     72  N   UNL     1      22.633  41.769   9.212  1.00  0.00    -0.336 N 
ATOM     73  C   UNL     1      23.624  42.528   9.867  1.00  0.00     0.315 C 
ATOM     74  H   UNL     1      22.603  40.723   9.344  1.00  0.00     0.165 HD
ATOM     75  O   UNL     1      23.699  43.766   9.715  1.00  0.00    -0.249 OA
ATOM     76  N   UNL     1      24.554  41.850  10.726  1.00  0.00    -0.331 N 
ATOM     77  H   UNL     1      24.453  40.808  10.825  1.00  0.00     0.165 HD
BRANCH  76  78
ATOM     78  C   UNL     1      25.576  42.589  11.414  1.00  0.00     0.193 C 
BRANCH  78  79
ATOM     79  C   UNL     1      26.753  42.793  10.527  1.00  0.00     0.122 A 
ATOM     80  C   UNL     1      27.783  43.689  10.786  1.00  0.00     0.047 A 
ATOM     81  O   UNL     1      27.001  42.194   9.412  1.00  0.00    -0.467 OA
ATOM     82  C   UNL     1      28.654  43.572   9.743  1.00  0.00     0.042 A 
ATOM     83  C   UNL     1      28.132  42.627   8.901  1.00  0.00     0.195 A 
ENDBRANCH  78  79
ENDBRANCH  76  78
ENDBRANCH  71  72
ENDBRANCH  70  71
ENDBRANCH  68  70
ENDBRANCH  64  65
ENDBRANCH  63  64
ENDBRANCH  60  63
ENDBRANCH  58  59
ENDBRANCH  55  58
ENDBRANCH   1  55
TORSDOF 34
BEGIN_RES LYS A 131
REMARK  4 active torsions:
REMARK  status: ('A' for Active; 'I' for Inactive)
REMARK    1  A    between atoms: CA   and  CB  
REMARK    2  A    between atoms: CB   and  CG  
REMARK    3  A    between atoms: CG   and  CD  
REMARK    4  A    between atoms: CD   and  CE  
ROOT
ATOM      1  CA  LYS A 131      29.867  25.555  16.977  1.00 20.52     0.186 C 
ENDROOT
BRANCH   1   2
ATOM      2  CB  LYS A 131      28.345  25.722  17.026  1.00 20.94     0.034 C 
BRANCH   2   3
ATOM      3  CG  LYS A 131      27.601  24.402  16.890  1.00 22.96     0.005 C 
BRANCH   3   4
ATOM      4  CD  LYS A 131      26.690  24.142  18.057  1.00 24.33     0.041 C 
BRANCH   4   5
ATOM      5  CE  LYS A 131      26.304  25.467  18.707  1.00 26.91     0.338 C 
ATOM      6  NZ  LYS A 131      25.572  25.230  19.973  1.00 27.40     0.618 N 
ENDBRANCH   4   5
ENDBRANCH   3   4
ENDBRANCH   2   3
ENDBRANCH   1   2
END_RES LYS A 131
BEGIN_RES LYS A 135
REMARK  4 active torsions:
REMARK  status: ('A' for Active; 'I' for Inactive)
REMARK    5  A    between atoms: CA   and  CB  
REMARK    6  A    between atoms: CB   and  CG  
REMARK    7  A    between atoms: CG   and  CD  
REMARK    8  A    between atoms: CD   and  CE  
ROOT
ATOM      7  CA  LYS A 135      33.193  34.663   9.290  1.00 25.02     0.186 C 
ENDROOT
BRANCH   7   8
ATOM      8  CB  LYS A 135      32.060  35.360  10.034  1.00 26.63     0.034 C 
BRANCH   8   9
ATOM      9  CG  LYS A 135      30.763  35.389   9.267  1.00 29.45     0.005 C 
BRANCH   9  10
ATOM     10  CD  LYS A 135      30.208  33.983   9.097  1.00 32.00     0.041 C 
BRANCH  10  11
ATOM     11  CE  LYS A 135      28.798  33.898   9.648  1.00 34.25     0.338 C 
ATOM     12  NZ  LYS A 135      28.704  34.545  10.986  1.00 35.99     0.618 N 
ENDBRANCH  10  11
ENDBRANCH   9  10
ENDBRANCH   8   9
ENDBRANCH   7   8
END_RES LYS A 135
