REMARK VINA RESULT:    -4.110      1.675      5.937
REMARK INTER + INTRA:         -22.050
REMARK INTER:                 -12.074
REMARK INTRA:                  -9.976
REMARK UNBOUND:               -10.971
REMARK SMILES C=CCCCCn1cc(COC(=O)NC[C@@H](O)C(O)[C@@H]2O[C@@](OC[C@H]3O[C@@H](O[C@H]4[C@H](O)[C@@H](O)[C@H](OCCN=[N+]=[N-])O[C@@H]4CO)[C@H](O)[C@@H](O)[C@H]3O)(C(=O)O)C[C@H](O)[C@H]2NC(C)=O)nn1
REMARK SMILES IDX 18 1 20 2 22 3 54 4 21 5 55 6 57 7 23 8 24 9 25 10 27 11
REMARK SMILES IDX 26 12 45 13 47 14 49 15 28 16 29 17 42 18 41 19 34 20 30 21
REMARK SMILES IDX 32 22 43 23 44 24 35 26 36 27 37 28 38 29 39 30 40 31 31 32
REMARK SMILES IDX 33 34 46 36 48 38 50 40 51 42 52 43 53 44 56 46 58 48 59 49
REMARK SMILES IDX 60 51 61 52 19 53 16 55 17 56 15 58 14 59 12 60 13 62 11 63
REMARK SMILES IDX 10 64 9 65 8 66 62 67 7 68 63 69 6 70 5 71 4 72 3 73 2 74
REMARK SMILES IDX 1 75
REMARK H PARENT 44 25 31 33 33 35 46 37 48 39 50 41 53 45 56 47 58 50 19 54
REMARK H PARENT 17 57 14 61
REMARK Flexibility Score: inf
ROOT
ATOM      1  C   UNL     1      31.482  33.560  19.290  1.00  0.00     0.176 C 
ENDROOT
BRANCH   1   2
ATOM      2  C   UNL     1      30.682  33.045  18.090  1.00  0.00     0.178 C 
ATOM      3  C   UNL     1      29.314  31.310  17.451  1.00  0.00     0.272 C 
ATOM      4  C   UNL     1      29.943  31.286  16.121  1.00  0.00     0.113 C 
ATOM      5  O   UNL     1      30.328  31.774  18.373  1.00  0.00    -0.332 OA
ATOM      6  C   UNL     1      30.522  32.553  15.663  1.00  0.00     0.145 C 
ATOM      7  C   UNL     1      31.131  33.413  16.758  1.00  0.00     0.142 C 
BRANCH   3   8
ATOM      8  O   UNL     1      29.082  30.053  17.989  1.00  0.00    -0.338 OA
BRANCH   8   9
ATOM      9  C   UNL     1      27.904  29.461  17.968  1.00  0.00     0.199 C 
BRANCH   9  10
ATOM     10  C   UNL     1      27.439  28.602  19.080  1.00  0.00     0.179 C 
ATOM     11  C   UNL     1      28.280  27.543  20.993  1.00  0.00     0.282 C 
ATOM     12  O   UNL     1      28.540  27.993  19.728  1.00  0.00    -0.341 OA
ATOM     13  C   UNL     1      26.843  27.395  21.308  1.00  0.00     0.202 C 
ATOM     14  C   UNL     1      26.011  28.619  21.034  1.00  0.00     0.179 C 
ATOM     15  C   UNL     1      26.778  29.512  20.108  1.00  0.00     0.177 C 
BRANCH  11  16
ATOM     16  O   UNL     1      29.064  28.253  21.862  1.00  0.00    -0.341 OA
BRANCH  16  17
ATOM     17  C   UNL     1      30.263  27.706  22.208  1.00  0.00     0.184 C 
ATOM     18  C   UNL     1      30.927  28.587  23.241  1.00  0.00     0.178 C 
ATOM     19  O   UNL     1      32.310  28.675  23.014  1.00  0.00    -0.341 OA
ATOM     20  C   UNL     1      32.495  29.554  21.952  1.00  0.00     0.281 C 
ATOM     21  C   UNL     1      31.235  27.677  21.006  1.00  0.00     0.180 C 
ATOM     22  C   UNL     1      31.759  29.069  20.739  1.00  0.00     0.202 C 
BRANCH  18  23
ATOM     23  C   UNL     1      30.648  28.144  24.667  1.00  0.00     0.191 C 
BRANCH  23  24
ATOM     24  O   UNL     1      29.287  28.097  24.913  1.00  0.00    -0.394 OA
ATOM     25  H   UNL     1      29.088  27.296  25.453  1.00  0.00     0.210 HD
ENDBRANCH  23  24
ENDBRANCH  18  23
BRANCH  20  26
ATOM     26  O   UNL     1      33.868  29.601  21.707  1.00  0.00    -0.350 OA
BRANCH  26  27
ATOM     27  C   UNL     1      34.640  29.359  22.829  1.00  0.00     0.169 C 
BRANCH  27  28
ATOM     28  C   UNL     1      35.521  30.577  23.043  1.00  0.00     0.119 C 
BRANCH  28  29
ATOM     29  N   UNL     1      34.847  31.602  23.795  1.00  0.00    -0.092 NA
ATOM     30  N   UNL     1      34.045  31.327  24.679  1.00  0.00     0.001 N 
ATOM     31  N   UNL     1      33.408  30.920  25.651  1.00  0.00    -0.003 NA
ENDBRANCH  28  29
ENDBRANCH  27  28
ENDBRANCH  26  27
ENDBRANCH  20  26
BRANCH  21  32
ATOM     32  O   UNL     1      32.315  26.896  21.413  1.00  0.00    -0.387 OA
ATOM     33  H   UNL     1      32.065  26.089  21.906  1.00  0.00     0.211 HD
ENDBRANCH  21  32
BRANCH  22  34
ATOM     34  O   UNL     1      30.726  29.913  20.341  1.00  0.00    -0.385 OA
ATOM     35  H   UNL     1      30.015  29.339  19.945  1.00  0.00     0.211 HD
ENDBRANCH  22  34
ENDBRANCH  16  17
ENDBRANCH  11  16
BRANCH  13  36
ATOM     36  O   UNL     1      26.340  26.352  20.517  1.00  0.00    -0.385 OA
ATOM     37  H   UNL     1      26.495  25.475  20.913  1.00  0.00     0.211 HD
ENDBRANCH  13  36
BRANCH  14  38
ATOM     38  O   UNL     1      25.649  29.285  22.206  1.00  0.00    -0.387 OA
ATOM     39  H   UNL     1      25.913  30.222  22.097  1.00  0.00     0.211 HD
ENDBRANCH  14  38
BRANCH  15  40
ATOM     40  O   UNL     1      27.740  30.274  20.783  1.00  0.00    -0.387 OA
ATOM     41  H   UNL     1      28.618  30.248  20.359  1.00  0.00     0.211 HD
ENDBRANCH  15  40
ENDBRANCH   9  10
ENDBRANCH   8   9
ENDBRANCH   3   8
BRANCH   3  42
ATOM     42  C   UNL     1      28.246  32.295  17.556  1.00  0.00     0.364 C 
ATOM     43  O   UNL     1      27.648  32.711  16.539  1.00  0.00    -0.246 OA
BRANCH  42  44
ATOM     44  O   UNL     1      27.848  32.819  18.749  1.00  0.00    -0.477 OA
ATOM     45  H   UNL     1      26.959  33.271  18.869  1.00  0.00     0.296 HD
ENDBRANCH  42  44
ENDBRANCH   3  42
BRANCH   6  46
ATOM     46  O   UNL     1      31.499  32.275  14.675  1.00  0.00    -0.391 OA
ATOM     47  H   UNL     1      31.723  31.311  14.642  1.00  0.00     0.211 HD
ENDBRANCH   6  46
BRANCH   7  48
ATOM     48  N   UNL     1      30.796  34.824  16.490  1.00  0.00    -0.348 N 
ATOM     49  C   UNL     1      31.590  35.668  15.679  1.00  0.00     0.217 C 
ATOM     50  H   UNL     1      29.934  35.277  16.902  1.00  0.00     0.163 HD
ATOM     51  C   UNL     1      31.198  37.109  15.450  1.00  0.00     0.114 C 
ATOM     52  O   UNL     1      32.629  35.198  15.151  1.00  0.00    -0.275 OA
ENDBRANCH   7  48
ENDBRANCH   1   2
BRANCH   1  53
ATOM     53  O   UNL     1      30.867  34.896  19.551  1.00  0.00    -0.388 OA
ATOM     54  H   UNL     1      30.074  34.603  20.104  1.00  0.00     0.211 HD
ENDBRANCH   1  53
BRANCH   1  55
ATOM     55  C   UNL     1      31.219  32.887  20.561  1.00  0.00     0.165 C 
BRANCH  55  56
ATOM     56  O   UNL     1      29.857  32.779  20.924  1.00  0.00    -0.388 OA
ATOM     57  H   UNL     1      29.789  33.235  21.798  1.00  0.00     0.211 HD
ENDBRANCH  55  56
BRANCH  55  58
ATOM     58  C   UNL     1      32.014  33.229  21.750  1.00  0.00     0.154 C 
BRANCH  58  59
ATOM     59  N   UNL     1      33.417  33.183  21.596  1.00  0.00    -0.319 N 
ATOM     60  C   UNL     1      34.332  34.125  21.110  1.00  0.00     0.407 C 
ATOM     61  H   UNL     1      33.880  32.249  21.911  1.00  0.00     0.167 HD
ATOM     62  O   UNL     1      33.957  35.238  20.707  1.00  0.00    -0.225 OA
BRANCH  60  63
ATOM     63  O   UNL     1      35.705  33.850  21.059  1.00  0.00    -0.443 OA
BRANCH  63  64
ATOM     64  C   UNL     1      36.613  34.926  21.298  1.00  0.00     0.294 C 
BRANCH  64  65
ATOM     65  C   UNL     1      37.663  34.969  20.247  1.00  0.00     0.120 A 
ATOM     66  C   UNL     1      37.423  35.227  18.899  1.00  0.00     0.138 A 
ATOM     67  N   UNL     1      38.986  34.779  20.354  1.00  0.00    -0.132 NA
ATOM     68  N   UNL     1      38.601  35.180  18.267  1.00  0.00    -0.252 N 
ATOM     69  N   UNL     1      39.534  34.911  19.142  1.00  0.00    -0.067 NA
BRANCH  68  70
ATOM     70  C   UNL     1      38.756  35.404  16.823  1.00  0.00     0.146 C 
BRANCH  70  71
ATOM     71  C   UNL     1      38.345  34.155  16.091  1.00  0.00     0.024 C 
BRANCH  71  72
ATOM     72  C   UNL     1      37.730  34.558  14.768  1.00  0.00     0.006 C 
BRANCH  72  73
ATOM     73  C   UNL     1      38.658  34.184  13.635  1.00  0.00     0.027 C 
BRANCH  73  74
ATOM     74  C   UNL     1      38.048  33.164  12.753  1.00  0.00    -0.035 C 
ATOM     75  C   UNL     1      36.959  33.441  12.064  1.00  0.00     0.004 C 
ENDBRANCH  73  74
ENDBRANCH  72  73
ENDBRANCH  71  72
ENDBRANCH  70  71
ENDBRANCH  68  70
ENDBRANCH  64  65
ENDBRANCH  63  64
ENDBRANCH  60  63
ENDBRANCH  58  59
ENDBRANCH  55  58
ENDBRANCH   1  55
TORSDOF 34
BEGIN_RES LYS A 131
REMARK  4 active torsions:
REMARK  status: ('A' for Active; 'I' for Inactive)
REMARK    1  A    between atoms: CA   and  CB  
REMARK    2  A    between atoms: CB   and  CG  
REMARK    3  A    between atoms: CG   and  CD  
REMARK    4  A    between atoms: CD   and  CE  
ROOT
ATOM      1  CA  LYS A 131      29.867  25.555  16.977  1.00 20.52     0.186 C 
ENDROOT
BRANCH   1   2
ATOM      2  CB  LYS A 131      28.345  25.722  17.026  1.00 20.94     0.034 C 
BRANCH   2   3
ATOM      3  CG  LYS A 131      27.601  24.401  16.906  1.00 22.96     0.005 C 
BRANCH   3   4
ATOM      4  CD  LYS A 131      26.157  24.525  17.305  1.00 24.33     0.041 C 
BRANCH   4   5
ATOM      5  CE  LYS A 131      25.651  23.178  17.810  1.00 26.91     0.338 C 
ATOM      6  NZ  LYS A 131      25.562  23.179  19.290  1.00 27.40     0.618 N 
ENDBRANCH   4   5
ENDBRANCH   3   4
ENDBRANCH   2   3
ENDBRANCH   1   2
END_RES LYS A 131
BEGIN_RES LYS A 135
REMARK  4 active torsions:
REMARK  status: ('A' for Active; 'I' for Inactive)
REMARK    5  A    between atoms: CA   and  CB  
REMARK    6  A    between atoms: CB   and  CG  
REMARK    7  A    between atoms: CG   and  CD  
REMARK    8  A    between atoms: CD   and  CE  
ROOT
ATOM      7  CA  LYS A 135      33.193  34.663   9.290  1.00 25.02     0.186 C 
ENDROOT
BRANCH   7   8
ATOM      8  CB  LYS A 135      32.060  35.360  10.034  1.00 26.63     0.034 C 
BRANCH   8   9
ATOM      9  CG  LYS A 135      30.781  35.443   9.242  1.00 29.45     0.005 C 
BRANCH   9  10
ATOM     10  CD  LYS A 135      30.193  34.057   9.025  1.00 32.00     0.041 C 
BRANCH  10  11
ATOM     11  CE  LYS A 135      28.714  34.047   9.363  1.00 34.25     0.338 C 
ATOM     12  NZ  LYS A 135      27.908  34.642   8.261  1.00 35.99     0.618 N 
ENDBRANCH  10  11
ENDBRANCH   9  10
ENDBRANCH   8   9
ENDBRANCH   7   8
END_RES LYS A 135
