REMARK VINA RESULT:    -3.815      6.852     13.725
REMARK INTER + INTRA:         -21.985
REMARK INTER:                 -10.730
REMARK INTRA:                 -11.255
REMARK UNBOUND:               -11.702
REMARK SMILES CC(=O)N[C@@H]1[C@@H](O)C[C@](OC[C@H]2O[C@@H](O[C@H]3[C@H](O)[C@@H](O)[C@H](OCCN=[N+]=[N-])O[C@@H]3CO)[C@H](O)[C@@H](O)[C@H]2O)(C(=O)O)O[C@H]1C(O)[C@H](O)CNC(=O)OCc1cn([C@@H](CC(=O)O)C(=O)O)nn1
REMARK SMILES IDX 43 1 42 2 9 3 8 4 41 5 6 6 5 7 10 8 11 9 12 10 14 11 13 12
REMARK SMILES IDX 32 13 34 14 36 15 15 16 16 17 29 18 28 19 21 20 17 21 19 22
REMARK SMILES IDX 30 23 31 24 22 26 23 27 24 28 25 29 26 30 27 31 18 32 20 34
REMARK SMILES IDX 33 36 35 38 37 40 38 42 39 43 40 44 7 46 4 48 2 49 1 51 3 52
REMARK SMILES IDX 44 53 45 55 46 56 47 58 48 59 49 60 50 62 51 63 52 64 53 65
REMARK SMILES IDX 54 66 65 67 55 68 64 69 56 70 57 71 58 72 59 73 60 74 61 76
REMARK SMILES IDX 62 77 63 78
REMARK H PARENT 31 25 18 33 20 35 33 37 35 39 37 41 40 45 7 47 4 50 44 54
REMARK H PARENT 46 57 48 61 60 75 63 79
REMARK Flexibility Score: inf
ROOT
ATOM      1  C   UNL     1      29.054  34.695  14.369  1.00  0.00     0.176 C 
ENDROOT
BRANCH   1   2
ATOM      2  C   UNL     1      29.741  33.656  15.238  1.00  0.00     0.178 C 
ATOM      3  C   UNL     1      29.296  32.206  17.035  1.00  0.00     0.272 C 
ATOM      4  C   UNL     1      30.829  32.288  17.012  1.00  0.00     0.113 C 
ATOM      5  O   UNL     1      28.852  33.241  16.181  1.00  0.00    -0.332 OA
ATOM      6  C   UNL     1      31.157  33.764  17.184  1.00  0.00     0.145 C 
ATOM      7  C   UNL     1      30.999  34.325  15.761  1.00  0.00     0.142 C 
BRANCH   3   8
ATOM      8  O   UNL     1      28.845  32.325  18.197  1.00  0.00    -0.338 OA
BRANCH   8   9
ATOM      9  C   UNL     1      28.402  32.434  19.355  1.00  0.00     0.199 C 
BRANCH   9  10
ATOM     10  C   UNL     1      27.066  31.763  19.670  1.00  0.00     0.179 C 
ATOM     11  C   UNL     1      27.689  29.600  20.149  1.00  0.00     0.282 C 
ATOM     12  O   UNL     1      26.979  30.451  19.352  1.00  0.00    -0.341 OA
ATOM     13  C   UNL     1      27.352  29.737  21.583  1.00  0.00     0.202 C 
ATOM     14  C   UNL     1      26.132  30.671  21.647  1.00  0.00     0.179 C 
ATOM     15  C   UNL     1      26.630  31.994  21.098  1.00  0.00     0.177 C 
BRANCH  11  16
ATOM     16  O   UNL     1      29.032  29.456  19.839  1.00  0.00    -0.341 OA
BRANCH  16  17
ATOM     17  C   UNL     1      29.792  28.974  20.879  1.00  0.00     0.184 C 
ATOM     18  C   UNL     1      31.165  29.544  20.883  1.00  0.00     0.178 C 
ATOM     19  O   UNL     1      31.899  29.091  21.972  1.00  0.00    -0.341 OA
ATOM     20  C   UNL     1      31.656  27.755  22.305  1.00  0.00     0.281 C 
ATOM     21  C   UNL     1      29.867  27.463  20.679  1.00  0.00     0.180 C 
ATOM     22  C   UNL     1      31.230  26.981  21.061  1.00  0.00     0.202 C 
BRANCH  18  23
ATOM     23  C   UNL     1      31.034  31.054  21.075  1.00  0.00     0.191 C 
BRANCH  23  24
ATOM     24  O   UNL     1      30.246  31.293  22.220  1.00  0.00    -0.394 OA
ATOM     25  H   UNL     1      29.596  32.000  21.934  1.00  0.00     0.210 HD
ENDBRANCH  23  24
ENDBRANCH  18  23
BRANCH  20  26
ATOM     26  O   UNL     1      30.595  27.734  23.191  1.00  0.00    -0.350 OA
BRANCH  26  27
ATOM     27  C   UNL     1      30.900  27.763  24.516  1.00  0.00     0.169 C 
BRANCH  27  28
ATOM     28  C   UNL     1      29.663  27.911  25.349  1.00  0.00     0.119 C 
BRANCH  28  29
ATOM     29  N   UNL     1      28.681  28.669  24.572  1.00  0.00    -0.092 NA
ATOM     30  N   UNL     1      28.498  29.864  24.881  1.00  0.00     0.001 N 
ATOM     31  N   UNL     1      27.827  30.871  25.174  1.00  0.00    -0.003 NA
ENDBRANCH  28  29
ENDBRANCH  27  28
ENDBRANCH  26  27
ENDBRANCH  20  26
BRANCH  21  32
ATOM     32  O   UNL     1      28.910  26.836  21.467  1.00  0.00    -0.387 OA
ATOM     33  H   UNL     1      28.479  27.499  22.081  1.00  0.00     0.211 HD
ENDBRANCH  21  32
BRANCH  22  34
ATOM     34  O   UNL     1      32.183  27.113  20.049  1.00  0.00    -0.385 OA
ATOM     35  H   UNL     1      32.917  27.667  20.465  1.00  0.00     0.211 HD
ENDBRANCH  22  34
ENDBRANCH  16  17
ENDBRANCH  11  16
BRANCH  13  36
ATOM     36  O   UNL     1      26.936  28.544  22.180  1.00  0.00    -0.385 OA
ATOM     37  H   UNL     1      27.297  27.793  21.626  1.00  0.00     0.211 HD
ENDBRANCH  13  36
BRANCH  14  38
ATOM     38  O   UNL     1      25.625  30.800  22.916  1.00  0.00    -0.387 OA
ATOM     39  H   UNL     1      24.952  31.534  22.979  1.00  0.00     0.211 HD
ENDBRANCH  14  38
BRANCH  15  40
ATOM     40  O   UNL     1      27.654  32.460  21.892  1.00  0.00    -0.387 OA
ATOM     41  H   UNL     1      27.912  33.382  21.720  1.00  0.00     0.211 HD
ENDBRANCH  15  40
ENDBRANCH   9  10
ENDBRANCH   8   9
ENDBRANCH   3   8
BRANCH   3  42
ATOM     42  C   UNL     1      28.998  30.886  16.329  1.00  0.00     0.364 C 
ATOM     43  O   UNL     1      29.242  30.764  15.120  1.00  0.00    -0.246 OA
BRANCH  42  44
ATOM     44  O   UNL     1      28.457  29.815  17.015  1.00  0.00    -0.477 OA
ATOM     45  H   UNL     1      28.618  29.666  18.020  1.00  0.00     0.296 HD
ENDBRANCH  42  44
ENDBRANCH   3  42
BRANCH   6  46
ATOM     46  O   UNL     1      30.118  34.405  17.895  1.00  0.00    -0.391 OA
ATOM     47  H   UNL     1      29.235  34.120  17.609  1.00  0.00     0.211 HD
ENDBRANCH   6  46
BRANCH   7  48
ATOM     48  N   UNL     1      32.194  33.940  15.046  1.00  0.00    -0.348 N 
ATOM     49  C   UNL     1      32.927  34.912  14.300  1.00  0.00     0.217 C 
ATOM     50  H   UNL     1      32.563  32.962  15.042  1.00  0.00     0.163 HD
ATOM     51  C   UNL     1      34.159  34.448  13.577  1.00  0.00     0.114 C 
ATOM     52  O   UNL     1      32.567  36.117  14.240  1.00  0.00    -0.275 OA
ENDBRANCH   7  48
ENDBRANCH   1   2
BRANCH   1  53
ATOM     53  O   UNL     1      29.775  34.950  13.208  1.00  0.00    -0.388 OA
ATOM     54  H   UNL     1      29.606  35.871  12.861  1.00  0.00     0.211 HD
ENDBRANCH   1  53
BRANCH   1  55
ATOM     55  C   UNL     1      28.681  35.959  15.046  1.00  0.00     0.165 C 
BRANCH  55  56
ATOM     56  O   UNL     1      27.620  35.891  15.921  1.00  0.00    -0.388 OA
ATOM     57  H   UNL     1      27.795  35.354  16.739  1.00  0.00     0.211 HD
ENDBRANCH  55  56
BRANCH  55  58
ATOM     58  C   UNL     1      28.610  37.095  14.085  1.00  0.00     0.154 C 
BRANCH  58  59
ATOM     59  N   UNL     1      27.373  37.262  13.388  1.00  0.00    -0.319 N 
ATOM     60  C   UNL     1      27.341  37.118  11.981  1.00  0.00     0.407 C 
ATOM     61  H   UNL     1      26.501  37.481  13.887  1.00  0.00     0.167 HD
ATOM     62  O   UNL     1      28.436  36.827  11.384  1.00  0.00    -0.225 OA
BRANCH  60  63
ATOM     63  O   UNL     1      26.229  37.269  11.171  1.00  0.00    -0.443 OA
BRANCH  63  64
ATOM     64  C   UNL     1      25.690  36.125  10.488  1.00  0.00     0.294 C 
BRANCH  64  65
ATOM     65  C   UNL     1      25.093  35.213  11.491  1.00  0.00     0.120 A 
ATOM     66  C   UNL     1      25.595  34.061  12.052  1.00  0.00     0.139 A 
ATOM     67  N   UNL     1      23.848  35.358  12.056  1.00  0.00    -0.132 NA
ATOM     68  N   UNL     1      24.670  33.550  12.916  1.00  0.00    -0.237 N 
ATOM     69  N   UNL     1      23.654  34.363  12.877  1.00  0.00    -0.066 NA
BRANCH  68  70
ATOM     70  C   UNL     1      24.801  32.341  13.697  1.00  0.00     0.229 C 
BRANCH  70  71
ATOM     71  C   UNL     1      24.365  32.648  15.119  1.00  0.00     0.161 C 
BRANCH  71  72
ATOM     72  C   UNL     1      25.433  32.346  16.091  1.00  0.00     0.306 C 
ATOM     73  O   UNL     1      25.742  31.160  16.370  1.00  0.00    -0.252 OA
BRANCH  72  74
ATOM     74  O   UNL     1      26.116  33.366  16.716  1.00  0.00    -0.481 OA
ATOM     75  H   UNL     1      26.628  33.158  17.582  1.00  0.00     0.296 HD
ENDBRANCH  72  74
ENDBRANCH  71  72
ENDBRANCH  70  71
BRANCH  70  76
ATOM     76  C   UNL     1      23.925  31.303  13.127  1.00  0.00     0.329 C 
ATOM     77  O   UNL     1      24.375  30.144  12.979  1.00  0.00    -0.250 OA
BRANCH  76  78
ATOM     78  O   UNL     1      22.613  31.547  12.743  1.00  0.00    -0.480 OA
ATOM     79  H   UNL     1      22.451  32.109  11.911  1.00  0.00     0.296 HD
ENDBRANCH  76  78
ENDBRANCH  70  76
ENDBRANCH  68  70
ENDBRANCH  64  65
ENDBRANCH  63  64
ENDBRANCH  60  63
ENDBRANCH  58  59
ENDBRANCH  55  58
ENDBRANCH   1  55
TORSDOF 35
BEGIN_RES LYS A 131
REMARK  4 active torsions:
REMARK  status: ('A' for Active; 'I' for Inactive)
REMARK    1  A    between atoms: CA   and  CB  
REMARK    2  A    between atoms: CB   and  CG  
REMARK    3  A    between atoms: CG   and  CD  
REMARK    4  A    between atoms: CD   and  CE  
ROOT
ATOM      1  CA  LYS A 131      29.867  25.555  16.977  1.00 20.52     0.186 C 
ENDROOT
BRANCH   1   2
ATOM      2  CB  LYS A 131      28.345  25.722  17.026  1.00 20.94     0.034 C 
BRANCH   2   3
ATOM      3  CG  LYS A 131      27.601  24.403  16.882  1.00 22.96     0.005 C 
BRANCH   3   4
ATOM      4  CD  LYS A 131      26.516  24.250  17.912  1.00 24.33     0.041 C 
BRANCH   4   5
ATOM      5  CE  LYS A 131      25.699  22.998  17.607  1.00 26.91     0.338 C 
ATOM      6  NZ  LYS A 131      24.320  23.364  17.206  1.00 27.40     0.618 N 
ENDBRANCH   4   5
ENDBRANCH   3   4
ENDBRANCH   2   3
ENDBRANCH   1   2
END_RES LYS A 131
BEGIN_RES LYS A 135
REMARK  4 active torsions:
REMARK  status: ('A' for Active; 'I' for Inactive)
REMARK    5  A    between atoms: CA   and  CB  
REMARK    6  A    between atoms: CB   and  CG  
REMARK    7  A    between atoms: CG   and  CD  
REMARK    8  A    between atoms: CD   and  CE  
ROOT
ATOM      7  CA  LYS A 135      33.193  34.663   9.290  1.00 25.02     0.186 C 
ENDROOT
BRANCH   7   8
ATOM      8  CB  LYS A 135      32.060  35.360  10.034  1.00 26.63     0.034 C 
BRANCH   8   9
ATOM      9  CG  LYS A 135      30.788  35.465   9.233  1.00 29.45     0.005 C 
BRANCH   9  10
ATOM     10  CD  LYS A 135      30.217  34.084   8.949  1.00 32.00     0.041 C 
BRANCH  10  11
ATOM     11  CE  LYS A 135      28.716  34.074   9.161  1.00 34.25     0.338 C 
ATOM     12  NZ  LYS A 135      28.014  34.796   8.063  1.00 35.99     0.618 N 
ENDBRANCH  10  11
ENDBRANCH   9  10
ENDBRANCH   8   9
ENDBRANCH   7   8
END_RES LYS A 135
