REMARK VINA RESULT:    -3.154      2.666      6.265
REMARK INTER + INTRA:         -21.789
REMARK INTER:                  -8.316
REMARK INTRA:                 -13.473
REMARK UNBOUND:               -13.473
REMARK SMILES CC(=O)N[C@@H]1[C@@H](O)C[C@](OC[C@H]2O[C@@H](O[C@H]3[C@H](O)[C@@H](O)[C@H](OCCN=[N+]=[N-])O[C@@H]3CO)[C@H](O)[C@@H](O)[C@H]2O)(C(=O)O)O[C@H]1C(O)[C@H](O)CNC(=O)OCc1cn(CCOC(C)=O)nn1
REMARK SMILES IDX 43 1 42 2 9 3 8 4 41 5 6 6 5 7 10 8 11 9 12 10 14 11 13 12
REMARK SMILES IDX 32 13 34 14 36 15 15 16 16 17 29 18 28 19 21 20 17 21 19 22
REMARK SMILES IDX 30 23 31 24 22 26 23 27 24 28 25 29 26 30 27 31 18 32 20 34
REMARK SMILES IDX 33 36 35 38 37 40 38 42 39 43 40 44 7 46 4 48 2 49 1 51 3 52
REMARK SMILES IDX 44 53 45 55 46 56 47 58 48 59 49 60 50 62 51 63 52 64 53 65
REMARK SMILES IDX 54 66 63 67 55 68 62 69 56 70 57 71 58 72 59 73 61 74 60 75
REMARK H PARENT 31 25 18 33 20 35 33 37 35 39 37 41 40 45 7 47 4 50 44 54
REMARK H PARENT 46 57 48 61
REMARK Flexibility Score: inf
ROOT
ATOM      1  C   UNL     1      27.760  33.961  17.307  1.00  0.00     0.176 C 
ENDROOT
BRANCH   1   2
ATOM      2  C   UNL     1      26.857  35.120  17.645  1.00  0.00     0.178 C 
ATOM      3  C   UNL     1      25.592  36.751  16.507  1.00  0.00     0.272 C 
ATOM      4  C   UNL     1      25.200  37.046  17.935  1.00  0.00     0.113 C 
ATOM      5  O   UNL     1      26.335  35.544  16.405  1.00  0.00    -0.332 OA
ATOM      6  C   UNL     1      26.365  37.137  18.855  1.00  0.00     0.145 C 
ATOM      7  C   UNL     1      27.530  36.326  18.221  1.00  0.00     0.142 C 
BRANCH   3   8
ATOM      8  O   UNL     1      26.283  37.662  15.865  1.00  0.00    -0.338 OA
BRANCH   8   9
ATOM      9  C   UNL     1      26.126  38.236  14.706  1.00  0.00     0.199 C 
BRANCH   9  10
ATOM     10  C   UNL     1      26.826  37.906  13.457  1.00  0.00     0.179 C 
ATOM     11  C   UNL     1      28.973  37.801  12.624  1.00  0.00     0.282 C 
ATOM     12  O   UNL     1      28.212  37.646  13.792  1.00  0.00    -0.341 OA
ATOM     13  C   UNL     1      28.363  37.221  11.417  1.00  0.00     0.202 C 
ATOM     14  C   UNL     1      27.131  36.403  11.588  1.00  0.00     0.179 C 
ATOM     15  C   UNL     1      26.429  36.527  12.895  1.00  0.00     0.177 C 
BRANCH  11  16
ATOM     16  O   UNL     1      30.257  37.382  12.930  1.00  0.00    -0.341 OA
BRANCH  16  17
ATOM     17  C   UNL     1      30.302  36.442  13.927  1.00  0.00     0.184 C 
ATOM     18  C   UNL     1      31.431  36.761  14.880  1.00  0.00     0.178 C 
ATOM     19  O   UNL     1      31.372  35.773  15.873  1.00  0.00    -0.341 OA
ATOM     20  C   UNL     1      31.895  34.609  15.394  1.00  0.00     0.281 C 
ATOM     21  C   UNL     1      30.476  35.036  13.376  1.00  0.00     0.180 C 
ATOM     22  C   UNL     1      31.696  34.365  13.916  1.00  0.00     0.202 C 
BRANCH  18  23
ATOM     23  C   UNL     1      31.196  38.111  15.532  1.00  0.00     0.191 C 
BRANCH  23  24
ATOM     24  O   UNL     1      31.575  39.121  14.667  1.00  0.00    -0.394 OA
ATOM     25  H   UNL     1      31.526  39.971  15.198  1.00  0.00     0.210 HD
ENDBRANCH  23  24
ENDBRANCH  18  23
BRANCH  20  26
ATOM     26  O   UNL     1      31.356  33.562  16.152  1.00  0.00    -0.350 OA
BRANCH  26  27
ATOM     27  C   UNL     1      31.468  32.346  15.488  1.00  0.00     0.169 C 
BRANCH  27  28
ATOM     28  C   UNL     1      30.392  31.442  16.102  1.00  0.00     0.119 C 
BRANCH  28  29
ATOM     29  N   UNL     1      30.446  31.597  17.545  1.00  0.00    -0.092 NA
ATOM     30  N   UNL     1      29.692  30.978  18.307  1.00  0.00     0.001 N 
ATOM     31  N   UNL     1      28.718  30.681  19.024  1.00  0.00    -0.003 NA
ENDBRANCH  28  29
ENDBRANCH  27  28
ENDBRANCH  26  27
ENDBRANCH  20  26
BRANCH  21  32
ATOM     32  O   UNL     1      29.348  34.243  13.545  1.00  0.00    -0.387 OA
ATOM     33  H   UNL     1      29.178  33.985  14.484  1.00  0.00     0.211 HD
ENDBRANCH  21  32
BRANCH  22  34
ATOM     34  O   UNL     1      32.807  34.672  13.156  1.00  0.00    -0.385 OA
ATOM     35  H   UNL     1      32.689  34.264  12.250  1.00  0.00     0.211 HD
ENDBRANCH  22  34
ENDBRANCH  16  17
ENDBRANCH  11  16
BRANCH  13  36
ATOM     36  O   UNL     1      28.193  38.192  10.394  1.00  0.00    -0.385 OA
ATOM     37  H   UNL     1      28.987  38.261   9.823  1.00  0.00     0.211 HD
ENDBRANCH  13  36
BRANCH  14  38
ATOM     38  O   UNL     1      27.380  35.041  11.364  1.00  0.00    -0.387 OA
ATOM     39  H   UNL     1      26.510  34.605  11.120  1.00  0.00     0.211 HD
ENDBRANCH  14  38
BRANCH  15  40
ATOM     40  O   UNL     1      26.993  35.547  13.757  1.00  0.00    -0.387 OA
ATOM     41  H   UNL     1      27.548  34.920  13.250  1.00  0.00     0.211 HD
ENDBRANCH  15  40
ENDBRANCH   9  10
ENDBRANCH   8   9
ENDBRANCH   3   8
BRANCH   3  42
ATOM     42  C   UNL     1      24.324  36.353  15.835  1.00  0.00     0.364 C 
ATOM     43  O   UNL     1      23.277  37.024  15.781  1.00  0.00    -0.246 OA
BRANCH  42  44
ATOM     44  O   UNL     1      24.245  35.104  15.180  1.00  0.00    -0.477 OA
ATOM     45  H   UNL     1      23.955  34.297  15.713  1.00  0.00     0.296 HD
ENDBRANCH  42  44
ENDBRANCH   3  42
BRANCH   6  46
ATOM     46  O   UNL     1      26.773  38.411  19.174  1.00  0.00    -0.391 OA
ATOM     47  H   UNL     1      26.183  38.865  19.828  1.00  0.00     0.211 HD
ENDBRANCH   6  46
BRANCH   7  48
ATOM     48  N   UNL     1      28.541  36.118  19.202  1.00  0.00    -0.348 N 
ATOM     49  C   UNL     1      29.635  37.008  19.361  1.00  0.00     0.217 C 
ATOM     50  H   UNL     1      28.470  35.308  19.839  1.00  0.00     0.163 HD
ATOM     51  C   UNL     1      30.693  36.781  20.394  1.00  0.00     0.114 C 
ATOM     52  O   UNL     1      29.767  38.039  18.634  1.00  0.00    -0.275 OA
ENDBRANCH   7  48
ENDBRANCH   1   2
BRANCH   1  53
ATOM     53  O   UNL     1      28.625  34.472  16.288  1.00  0.00    -0.388 OA
ATOM     54  H   UNL     1      28.201  35.231  15.837  1.00  0.00     0.211 HD
ENDBRANCH   1  53
BRANCH   1  55
ATOM     55  C   UNL     1      26.978  32.878  16.604  1.00  0.00     0.165 C 
BRANCH  55  56
ATOM     56  O   UNL     1      26.860  33.205  15.244  1.00  0.00    -0.388 OA
ATOM     57  H   UNL     1      27.430  33.981  15.066  1.00  0.00     0.211 HD
ENDBRANCH  55  56
BRANCH  55  58
ATOM     58  C   UNL     1      25.643  32.613  17.226  1.00  0.00     0.154 C 
BRANCH  58  59
ATOM     59  N   UNL     1      24.585  32.308  16.315  1.00  0.00    -0.319 N 
ATOM     60  C   UNL     1      24.301  31.007  15.858  1.00  0.00     0.407 C 
ATOM     61  H   UNL     1      23.943  33.068  15.930  1.00  0.00     0.167 HD
ATOM     62  O   UNL     1      24.950  30.005  16.224  1.00  0.00    -0.225 OA
BRANCH  60  63
ATOM     63  O   UNL     1      23.261  30.752  14.951  1.00  0.00    -0.443 OA
BRANCH  63  64
ATOM     64  C   UNL     1      23.441  30.802  13.564  1.00  0.00     0.294 C 
BRANCH  64  65
ATOM     65  C   UNL     1      23.662  32.194  13.082  1.00  0.00     0.120 A 
ATOM     66  C   UNL     1      22.641  33.041  12.685  1.00  0.00     0.138 A 
ATOM     67  N   UNL     1      24.785  32.891  12.941  1.00  0.00    -0.132 NA
ATOM     68  N   UNL     1      23.197  34.201  12.324  1.00  0.00    -0.249 N 
ATOM     69  N   UNL     1      24.503  34.088  12.488  1.00  0.00    -0.067 NA
BRANCH  68  70
ATOM     70  C   UNL     1      22.509  35.398  11.818  1.00  0.00     0.187 C 
BRANCH  70  71
ATOM     71  C   UNL     1      21.976  35.132  10.428  1.00  0.00     0.256 C 
BRANCH  71  72
ATOM     72  O   UNL     1      22.483  36.136   9.555  1.00  0.00    -0.464 OA
BRANCH  72  73
ATOM     73  C   UNL     1      23.852  36.368   9.467  1.00  0.00     0.302 C 
ATOM     74  O   UNL     1      24.597  35.398   9.189  1.00  0.00    -0.253 OA
ATOM     75  C   UNL     1      24.452  37.725   9.690  1.00  0.00     0.139 C 
ENDBRANCH  72  73
ENDBRANCH  71  72
ENDBRANCH  70  71
ENDBRANCH  68  70
ENDBRANCH  64  65
ENDBRANCH  63  64
ENDBRANCH  60  63
ENDBRANCH  58  59
ENDBRANCH  55  58
ENDBRANCH   1  55
TORSDOF 33
BEGIN_RES LYS A 131
REMARK  4 active torsions:
REMARK  status: ('A' for Active; 'I' for Inactive)
REMARK    1  A    between atoms: CA   and  CB  
REMARK    2  A    between atoms: CB   and  CG  
REMARK    3  A    between atoms: CG   and  CD  
REMARK    4  A    between atoms: CD   and  CE  
ROOT
ATOM      1  CA  LYS A 131      29.867  25.555  16.977  1.00 20.52     0.186 C 
ENDROOT
BRANCH   1   2
ATOM      2  CB  LYS A 131      28.345  25.722  17.026  1.00 20.94     0.034 C 
BRANCH   2   3
ATOM      3  CG  LYS A 131      27.602  24.400  16.916  1.00 22.96     0.005 C 
BRANCH   3   4
ATOM      4  CD  LYS A 131      26.183  24.505  17.402  1.00 24.33     0.041 C 
BRANCH   4   5
ATOM      5  CE  LYS A 131      26.003  25.812  18.167  1.00 26.91     0.338 C 
ATOM      6  NZ  LYS A 131      24.807  26.539  17.679  1.00 27.40     0.618 N 
ENDBRANCH   4   5
ENDBRANCH   3   4
ENDBRANCH   2   3
ENDBRANCH   1   2
END_RES LYS A 131
BEGIN_RES LYS A 135
REMARK  4 active torsions:
REMARK  status: ('A' for Active; 'I' for Inactive)
REMARK    5  A    between atoms: CA   and  CB  
REMARK    6  A    between atoms: CB   and  CG  
REMARK    7  A    between atoms: CG   and  CD  
REMARK    8  A    between atoms: CD   and  CE  
ROOT
ATOM      7  CA  LYS A 135      33.193  34.663   9.290  1.00 25.02     0.186 C 
ENDROOT
BRANCH   7   8
ATOM      8  CB  LYS A 135      32.060  35.360  10.034  1.00 26.63     0.034 C 
BRANCH   8   9
ATOM      9  CG  LYS A 135      30.695  34.820   9.695  1.00 29.45     0.005 C 
BRANCH   9  10
ATOM     10  CD  LYS A 135      30.080  35.599   8.543  1.00 32.00     0.041 C 
BRANCH  10  11
ATOM     11  CE  LYS A 135      28.890  34.853   7.970  1.00 34.25     0.338 C 
ATOM     12  NZ  LYS A 135      28.409  35.493   6.714  1.00 35.99     0.618 N 
ENDBRANCH  10  11
ENDBRANCH   9  10
ENDBRANCH   8   9
ENDBRANCH   7   8
END_RES LYS A 135
