REMARK VINA RESULT:    -4.305      4.453      9.127
REMARK INTER + INTRA:         -22.607
REMARK INTER:                 -10.915
REMARK INTRA:                 -11.692
REMARK UNBOUND:               -11.507
REMARK SMILES COc1ccc(Cn2cc(COC(=O)NC[C@@H](O)C(O)[C@@H]3O[C@@](OC[C@H]4O[C@@H](O[C@H]5[C@H](O)[C@@H](O)[C@H](OCCN=[N+]=[N-])O[C@@H]5CO)[C@H](O)[C@@H](O)[C@H]4O)(C(=O)O)C[C@H](O)[C@H]3NC(C)=O)nn2)cc1
REMARK SMILES IDX 23 1 55 2 56 3 58 4 21 5 22 6 24 7 25 8 26 9 28 10 27 11
REMARK SMILES IDX 46 12 48 13 50 14 29 15 30 16 43 17 42 18 35 19 31 20 33 21
REMARK SMILES IDX 44 22 45 23 36 25 37 26 38 27 39 28 40 29 41 30 32 31 34 33
REMARK SMILES IDX 47 35 49 37 51 39 52 41 53 42 54 43 57 45 19 47 20 48 17 50
REMARK SMILES IDX 18 51 16 53 15 54 13 55 14 57 12 58 11 59 10 60 9 61 63 62
REMARK SMILES IDX 8 63 64 64 7 65 6 66 5 67 65 68 4 69 66 70 3 71 2 72 1 73
REMARK SMILES IDX 59 74 60 75 61 77 62 78
REMARK H PARENT 45 24 32 32 34 34 47 36 49 38 51 40 54 44 57 46 20 49 18 52
REMARK H PARENT 15 56 59 76
REMARK Flexibility Score: inf
ROOT
ATOM      1  C   UNL     1      25.701  36.405  10.891  1.00  0.00     0.272 C 
ATOM      2  C   UNL     1      25.398  37.889  10.848  1.00  0.00     0.113 C 
ATOM      3  C   UNL     1      23.900  38.106  10.799  1.00  0.00     0.145 C 
ATOM      4  C   UNL     1      23.137  37.274  11.788  1.00  0.00     0.142 C 
ATOM      5  C   UNL     1      24.015  36.311  12.569  1.00  0.00     0.178 C 
ATOM      6  O   UNL     1      24.967  35.712  11.767  1.00  0.00    -0.332 OA
ENDROOT
BRANCH   1   7
ATOM      7  O   UNL     1      27.028  36.153  10.822  1.00  0.00    -0.338 OA
BRANCH   7   8
ATOM      8  C   UNL     1      27.963  36.925  11.387  1.00  0.00     0.199 C 
BRANCH   8   9
ATOM      9  C   UNL     1      29.013  36.137  12.139  1.00  0.00     0.179 C 
ATOM     10  C   UNL     1      30.742  36.536  13.567  1.00  0.00     0.282 C 
ATOM     11  O   UNL     1      29.389  36.851  13.313  1.00  0.00    -0.341 OA
ATOM     12  C   UNL     1      31.025  35.095  13.353  1.00  0.00     0.202 C 
ATOM     13  C   UNL     1      29.850  34.182  13.257  1.00  0.00     0.179 C 
ATOM     14  C   UNL     1      28.626  34.780  12.592  1.00  0.00     0.177 C 
BRANCH  10  15
ATOM     15  O   UNL     1      31.192  37.106  14.724  1.00  0.00    -0.341 OA
BRANCH  15  16
ATOM     16  C   UNL     1      30.954  36.416  15.893  1.00  0.00     0.184 C 
ATOM     17  C   UNL     1      30.115  37.153  16.909  1.00  0.00     0.178 C 
ATOM     18  O   UNL     1      30.438  36.751  18.205  1.00  0.00    -0.341 OA
ATOM     19  C   UNL     1      30.839  35.405  18.275  1.00  0.00     0.281 C 
ATOM     20  C   UNL     1      32.327  36.316  16.585  1.00  0.00     0.180 C 
ATOM     21  C   UNL     1      32.209  35.209  17.597  1.00  0.00     0.202 C 
BRANCH  17  22
ATOM     22  C   UNL     1      28.637  36.981  16.753  1.00  0.00     0.191 C 
BRANCH  22  23
ATOM     23  O   UNL     1      28.385  35.995  15.802  1.00  0.00    -0.394 OA
ATOM     24  H   UNL     1      27.768  36.393  15.123  1.00  0.00     0.210 HD
ENDBRANCH  22  23
ENDBRANCH  17  22
BRANCH  19  25
ATOM     25  O   UNL     1      29.929  34.519  17.797  1.00  0.00    -0.350 OA
BRANCH  25  26
ATOM     26  C   UNL     1      29.336  33.642  18.652  1.00  0.00     0.169 C 
BRANCH  26  27
ATOM     27  C   UNL     1      29.506  32.192  18.390  1.00  0.00     0.119 C 
BRANCH  27  28
ATOM     28  N   UNL     1      29.972  31.873  17.086  1.00  0.00    -0.092 NA
ATOM     29  N   UNL     1      29.510  30.968  16.376  1.00  0.00     0.001 N 
ATOM     30  N   UNL     1      28.885  30.417  15.442  1.00  0.00    -0.003 NA
ENDBRANCH  27  28
ENDBRANCH  26  27
ENDBRANCH  25  26
ENDBRANCH  19  25
BRANCH  20  31
ATOM     31  O   UNL     1      33.351  36.171  15.692  1.00  0.00    -0.387 OA
ATOM     32  H   UNL     1      34.073  35.554  16.038  1.00  0.00     0.211 HD
ENDBRANCH  20  31
BRANCH  21  33
ATOM     33  O   UNL     1      33.248  35.252  18.526  1.00  0.00    -0.385 OA
ATOM     34  H   UNL     1      33.468  36.200  18.720  1.00  0.00     0.211 HD
ENDBRANCH  21  33
ENDBRANCH  15  16
ENDBRANCH  10  15
BRANCH  12  35
ATOM     35  O   UNL     1      31.895  34.883  12.253  1.00  0.00    -0.385 OA
ATOM     36  H   UNL     1      32.416  35.725  12.081  1.00  0.00     0.211 HD
ENDBRANCH  12  35
BRANCH  13  37
ATOM     37  O   UNL     1      29.517  33.623  14.515  1.00  0.00    -0.387 OA
ATOM     38  H   UNL     1      29.558  32.636  14.427  1.00  0.00     0.211 HD
ENDBRANCH  13  37
BRANCH  14  39
ATOM     39  O   UNL     1      27.525  34.775  13.441  1.00  0.00    -0.387 OA
ATOM     40  H   UNL     1      27.684  34.243  14.259  1.00  0.00     0.211 HD
ENDBRANCH  14  39
ENDBRANCH   8   9
ENDBRANCH   7   8
ENDBRANCH   1   7
BRANCH   1  41
ATOM     41  C   UNL     1      25.292  35.964   9.447  1.00  0.00     0.364 C 
ATOM     42  O   UNL     1      25.962  36.359   8.468  1.00  0.00    -0.246 OA
BRANCH  41  43
ATOM     43  O   UNL     1      24.233  35.161   9.195  1.00  0.00    -0.477 OA
ATOM     44  H   UNL     1      23.866  34.860   8.327  1.00  0.00     0.296 HD
ENDBRANCH  41  43
ENDBRANCH   1  41
BRANCH   3  45
ATOM     45  O   UNL     1      23.751  39.488  11.120  1.00  0.00    -0.391 OA
ATOM     46  H   UNL     1      24.265  40.043  10.479  1.00  0.00     0.211 HD
ENDBRANCH   3  45
BRANCH   5  47
ATOM     47  C   UNL     1      24.470  37.009  13.791  1.00  0.00     0.176 C 
BRANCH  47  48
ATOM     48  O   UNL     1      25.844  36.789  14.099  1.00  0.00    -0.388 OA
ATOM     49  H   UNL     1      26.375  37.263  13.424  1.00  0.00     0.211 HD
ENDBRANCH  47  48
BRANCH  47  50
ATOM     50  C   UNL     1      23.872  36.424  15.104  1.00  0.00     0.165 C 
BRANCH  50  51
ATOM     51  O   UNL     1      23.006  37.182  15.785  1.00  0.00    -0.388 OA
ATOM     52  H   UNL     1      22.076  36.869  15.658  1.00  0.00     0.211 HD
ENDBRANCH  50  51
BRANCH  50  53
ATOM     53  C   UNL     1      25.077  36.020  15.982  1.00  0.00     0.154 C 
BRANCH  53  54
ATOM     54  N   UNL     1      25.530  34.693  15.725  1.00  0.00    -0.319 N 
ATOM     55  C   UNL     1      26.035  33.897  16.805  1.00  0.00     0.407 C 
ATOM     56  H   UNL     1      25.506  34.290  14.783  1.00  0.00     0.167 HD
ATOM     57  O   UNL     1      26.066  34.388  17.967  1.00  0.00    -0.225 OA
BRANCH  55  58
ATOM     58  O   UNL     1      26.469  32.614  16.526  1.00  0.00    -0.443 OA
BRANCH  58  59
ATOM     59  C   UNL     1      25.860  31.498  17.205  1.00  0.00     0.294 C 
BRANCH  59  60
ATOM     60  C   UNL     1      25.115  30.705  16.204  1.00  0.00     0.120 A 
ATOM     61  C   UNL     1      25.132  30.874  14.816  1.00  0.00     0.138 A 
ATOM     62  N   UNL     1      24.277  29.687  16.430  1.00  0.00    -0.132 NA
ATOM     63  N   UNL     1      24.308  29.957  14.296  1.00  0.00    -0.248 N 
ATOM     64  N   UNL     1      23.796  29.242  15.287  1.00  0.00    -0.067 NA
BRANCH  63  65
ATOM     65  C   UNL     1      24.021  29.774  12.895  1.00  0.00     0.181 C 
BRANCH  65  66
ATOM     66  C   UNL     1      22.595  30.083  12.649  1.00  0.00    -0.026 A 
ATOM     67  C   UNL     1      22.147  31.396  12.762  1.00  0.00     0.009 A 
ATOM     68  C   UNL     1      21.678  29.131  12.293  1.00  0.00     0.009 A 
ATOM     69  C   UNL     1      20.833  31.744  12.528  1.00  0.00     0.047 A 
ATOM     70  C   UNL     1      20.345  29.484  12.056  1.00  0.00     0.047 A 
ATOM     71  C   UNL     1      19.907  30.776  12.168  1.00  0.00     0.118 A 
BRANCH  71  72
ATOM     72  O   UNL     1      18.603  31.174  11.943  1.00  0.00    -0.497 OA
ATOM     73  C   UNL     1      17.657  30.446  11.216  1.00  0.00     0.278 C 
ENDBRANCH  71  72
ENDBRANCH  65  66
ENDBRANCH  63  65
ENDBRANCH  59  60
ENDBRANCH  58  59
ENDBRANCH  55  58
ENDBRANCH  53  54
ENDBRANCH  50  53
ENDBRANCH  47  50
ENDBRANCH   5  47
BRANCH   4  74
ATOM     74  N   UNL     1      21.954  36.626  11.263  1.00  0.00    -0.348 N 
ATOM     75  C   UNL     1      20.749  36.432  11.992  1.00  0.00     0.217 C 
ATOM     76  H   UNL     1      21.973  36.262  10.299  1.00  0.00     0.163 HD
ATOM     77  C   UNL     1      19.574  35.735  11.342  1.00  0.00     0.114 C 
ATOM     78  O   UNL     1      20.662  36.839  13.175  1.00  0.00    -0.275 OA
ENDBRANCH   4  74
TORSDOF 32
BEGIN_RES LYS A 131
REMARK  4 active torsions:
REMARK  status: ('A' for Active; 'I' for Inactive)
REMARK    1  A    between atoms: CA   and  CB  
REMARK    2  A    between atoms: CB   and  CG  
REMARK    3  A    between atoms: CG   and  CD  
REMARK    4  A    between atoms: CD   and  CE  
ROOT
ATOM      1  CA  LYS A 131      29.867  25.555  16.977  1.00 20.52     0.186 C 
ENDROOT
BRANCH   1   2
ATOM      2  CB  LYS A 131      28.345  25.722  17.026  1.00 20.94     0.034 C 
BRANCH   2   3
ATOM      3  CG  LYS A 131      27.602  24.399  16.925  1.00 22.96     0.005 C 
BRANCH   3   4
ATOM      4  CD  LYS A 131      26.157  24.529  17.319  1.00 24.33     0.041 C 
BRANCH   4   5
ATOM      5  CE  LYS A 131      25.870  23.622  18.511  1.00 26.91     0.338 C 
ATOM      6  NZ  LYS A 131      25.500  24.428  19.699  1.00 27.40     0.618 N 
ENDBRANCH   4   5
ENDBRANCH   3   4
ENDBRANCH   2   3
ENDBRANCH   1   2
END_RES LYS A 131
BEGIN_RES LYS A 135
REMARK  4 active torsions:
REMARK  status: ('A' for Active; 'I' for Inactive)
REMARK    5  A    between atoms: CA   and  CB  
REMARK    6  A    between atoms: CB   and  CG  
REMARK    7  A    between atoms: CG   and  CD  
REMARK    8  A    between atoms: CD   and  CE  
ROOT
ATOM      7  CA  LYS A 135      33.193  34.663   9.290  1.00 25.02     0.186 C 
ENDROOT
BRANCH   7   8
ATOM      8  CB  LYS A 135      32.060  35.360  10.034  1.00 26.63     0.034 C 
BRANCH   8   9
ATOM      9  CG  LYS A 135      30.827  35.571   9.193  1.00 29.45     0.005 C 
BRANCH   9  10
ATOM     10  CD  LYS A 135      30.084  34.260   8.991  1.00 32.00     0.041 C 
BRANCH  10  11
ATOM     11  CE  LYS A 135      28.766  34.499   8.280  1.00 34.25     0.338 C 
ATOM     12  NZ  LYS A 135      28.958  35.333   7.061  1.00 35.99     0.618 N 
ENDBRANCH  10  11
ENDBRANCH   9  10
ENDBRANCH   8   9
ENDBRANCH   7   8
END_RES LYS A 135
