REMARK VINA RESULT:    -4.827      4.731      9.846
REMARK INTER + INTRA:         -23.954
REMARK INTER:                 -11.409
REMARK INTRA:                 -12.545
REMARK UNBOUND:               -10.521
REMARK SMILES CC(=O)N[C@@H]1[C@@H](O)C[C@](OC[C@H]2O[C@@H](O[C@H]3[C@H](O)[C@@H](O)[C@H](OCCN=[N+]=[N-])O[C@@H]3CO)[C@H](O)[C@@H](O)[C@H]2O)(C(=O)O)O[C@H]1C(O)[C@H](O)CNC(=O)OCc1cn(CCCCCC(=O)O)nn1
REMARK SMILES IDX 47 1 45 2 43 3 42 4 9 5 8 6 41 7 6 8 5 9 10 10 11 11 12 12
REMARK SMILES IDX 14 13 13 14 32 15 34 16 36 17 15 18 16 19 29 20 28 21 21 22
REMARK SMILES IDX 17 23 19 24 30 25 31 26 22 28 23 29 24 30 25 31 26 32 27 33
REMARK SMILES IDX 18 34 20 36 33 38 35 40 37 42 38 44 39 45 40 46 7 48 4 50
REMARK SMILES IDX 2 51 1 53 3 54 44 55 46 57 48 59 49 60 50 62 51 63 52 64
REMARK SMILES IDX 53 65 54 66 65 67 55 68 64 69 56 70 57 71 58 72 59 73 60 74
REMARK SMILES IDX 61 75 62 76 63 77
REMARK H PARENT 31 27 18 35 20 37 33 39 35 41 37 43 40 47 7 49 4 52 44 56
REMARK H PARENT 46 58 48 61 63 78
REMARK Flexibility Score: inf
ROOT
ATOM      1  C   UNL     1      27.910  36.196  19.001  1.00  0.00     0.154 C 
ENDROOT
BRANCH   1   2
ATOM      2  C   UNL     1      27.604  34.883  19.681  1.00  0.00     0.165 C 
BRANCH   2   3
ATOM      3  C   UNL     1      27.189  33.928  18.610  1.00  0.00     0.176 C 
BRANCH   3   4
ATOM      4  C   UNL     1      28.204  32.916  18.204  1.00  0.00     0.178 C 
ATOM      5  C   UNL     1      30.385  32.534  17.791  1.00  0.00     0.272 C 
ATOM      6  C   UNL     1      29.982  31.110  17.993  1.00  0.00     0.113 C 
ATOM      7  O   UNL     1      29.343  33.433  17.609  1.00  0.00    -0.332 OA
ATOM      8  C   UNL     1      28.668  30.683  17.459  1.00  0.00     0.145 C 
ATOM      9  C   UNL     1      27.700  31.855  17.250  1.00  0.00     0.142 C 
BRANCH   5  10
ATOM     10  O   UNL     1      31.369  32.682  16.816  1.00  0.00    -0.338 OA
BRANCH  10  11
ATOM     11  C   UNL     1      30.994  32.521  15.521  1.00  0.00     0.199 C 
BRANCH  11  12
ATOM     12  C   UNL     1      31.599  33.676  14.745  1.00  0.00     0.179 C 
ATOM     13  C   UNL     1      31.358  35.242  13.166  1.00  0.00     0.282 C 
ATOM     14  O   UNL     1      30.663  34.536  14.193  1.00  0.00    -0.341 OA
ATOM     15  C   UNL     1      32.754  35.552  13.471  1.00  0.00     0.202 C 
ATOM     16  C   UNL     1      33.175  35.499  14.913  1.00  0.00     0.179 C 
ATOM     17  C   UNL     1      32.380  34.521  15.736  1.00  0.00     0.177 C 
BRANCH  13  18
ATOM     18  O   UNL     1      30.543  36.253  12.665  1.00  0.00    -0.341 OA
BRANCH  18  19
ATOM     19  C   UNL     1      29.588  36.704  13.497  1.00  0.00     0.184 C 
ATOM     20  C   UNL     1      28.305  37.041  12.800  1.00  0.00     0.178 C 
ATOM     21  O   UNL     1      27.332  37.097  13.820  1.00  0.00    -0.341 OA
ATOM     22  C   UNL     1      27.528  38.169  14.623  1.00  0.00     0.281 C 
ATOM     23  C   UNL     1      30.010  38.085  14.107  1.00  0.00     0.180 C 
ATOM     24  C   UNL     1      28.775  38.919  14.340  1.00  0.00     0.202 C 
BRANCH  20  25
ATOM     25  C   UNL     1      27.850  35.994  11.818  1.00  0.00     0.191 C 
BRANCH  25  26
ATOM     26  O   UNL     1      28.113  34.726  12.291  1.00  0.00    -0.394 OA
ATOM     27  H   UNL     1      27.761  34.078  11.624  1.00  0.00     0.210 HD
ENDBRANCH  25  26
ENDBRANCH  20  25
BRANCH  22  28
ATOM     28  O   UNL     1      27.430  37.871  15.988  1.00  0.00    -0.350 OA
BRANCH  28  29
ATOM     29  C   UNL     1      26.466  38.610  16.625  1.00  0.00     0.169 C 
BRANCH  29  30
ATOM     30  C   UNL     1      27.120  39.542  17.634  1.00  0.00     0.119 C 
BRANCH  30  31
ATOM     31  N   UNL     1      26.747  40.924  17.378  1.00  0.00    -0.092 NA
ATOM     32  N   UNL     1      26.875  41.392  16.231  1.00  0.00     0.001 N 
ATOM     33  N   UNL     1      27.376  42.034  15.306  1.00  0.00    -0.003 NA
ENDBRANCH  30  31
ENDBRANCH  29  30
ENDBRANCH  28  29
ENDBRANCH  22  28
BRANCH  23  34
ATOM     34  O   UNL     1      30.602  37.854  15.348  1.00  0.00    -0.387 OA
ATOM     35  H   UNL     1      30.216  38.496  16.012  1.00  0.00     0.211 HD
ENDBRANCH  23  34
BRANCH  24  36
ATOM     36  O   UNL     1      28.626  39.942  13.395  1.00  0.00    -0.385 OA
ATOM     37  H   UNL     1      28.237  40.763  13.788  1.00  0.00     0.211 HD
ENDBRANCH  24  36
ENDBRANCH  18  19
ENDBRANCH  13  18
BRANCH  15  38
ATOM     38  O   UNL     1      33.649  34.675  12.793  1.00  0.00    -0.385 OA
ATOM     39  H   UNL     1      34.185  35.170  12.147  1.00  0.00     0.211 HD
ENDBRANCH  15  38
BRANCH  16  40
ATOM     40  O   UNL     1      33.070  36.748  15.551  1.00  0.00    -0.387 OA
ATOM     41  H   UNL     1      32.385  36.765  16.244  1.00  0.00     0.211 HD
ENDBRANCH  16  40
BRANCH  17  42
ATOM     42  O   UNL     1      31.409  35.231  16.487  1.00  0.00    -0.387 OA
ATOM     43  H   UNL     1      31.945  35.779  17.144  1.00  0.00     0.211 HD
ENDBRANCH  17  42
ENDBRANCH  11  12
ENDBRANCH  10  11
ENDBRANCH   5  10
BRANCH   5  44
ATOM     44  C   UNL     1      31.043  32.967  19.056  1.00  0.00     0.364 C 
ATOM     45  O   UNL     1      31.534  34.113  19.162  1.00  0.00    -0.246 OA
BRANCH  44  46
ATOM     46  O   UNL     1      31.117  32.109  20.125  1.00  0.00    -0.477 OA
ATOM     47  H   UNL     1      30.522  31.269  20.218  1.00  0.00     0.296 HD
ENDBRANCH  44  46
ENDBRANCH   5  44
BRANCH   8  48
ATOM     48  O   UNL     1      28.718  29.843  16.350  1.00  0.00    -0.391 OA
ATOM     49  H   UNL     1      29.588  29.976  15.911  1.00  0.00     0.211 HD
ENDBRANCH   8  48
BRANCH   9  50
ATOM     50  N   UNL     1      26.348  31.464  17.445  1.00  0.00    -0.348 N 
ATOM     51  C   UNL     1      25.578  31.029  16.339  1.00  0.00     0.217 C 
ATOM     52  H   UNL     1      25.916  31.487  18.378  1.00  0.00     0.163 HD
ATOM     53  C   UNL     1      24.163  30.610  16.516  1.00  0.00     0.114 C 
ATOM     54  O   UNL     1      26.052  30.976  15.167  1.00  0.00    -0.275 OA
ENDBRANCH   9  50
ENDBRANCH   3   4
BRANCH   3  55
ATOM     55  O   UNL     1      26.748  34.616  17.456  1.00  0.00    -0.388 OA
ATOM     56  H   UNL     1      26.024  34.110  17.023  1.00  0.00     0.211 HD
ENDBRANCH   3  55
ENDBRANCH   2   3
BRANCH   2  57
ATOM     57  O   UNL     1      26.566  35.097  20.580  1.00  0.00    -0.388 OA
ATOM     58  H   UNL     1      26.117  35.936  20.308  1.00  0.00     0.211 HD
ENDBRANCH   2  57
ENDBRANCH   1   2
BRANCH   1  59
ATOM     59  N   UNL     1      29.215  36.270  18.426  1.00  0.00    -0.319 N 
ATOM     60  C   UNL     1      30.080  37.333  18.841  1.00  0.00     0.407 C 
ATOM     61  H   UNL     1      29.563  35.595  17.727  1.00  0.00     0.167 HD
ATOM     62  O   UNL     1      29.693  38.173  19.691  1.00  0.00    -0.225 OA
BRANCH  60  63
ATOM     63  O   UNL     1      31.350  37.479  18.335  1.00  0.00    -0.443 OA
BRANCH  63  64
ATOM     64  C   UNL     1      32.487  37.685  19.097  1.00  0.00     0.294 C 
BRANCH  64  65
ATOM     65  C   UNL     1      33.779  37.458  18.437  1.00  0.00     0.120 A 
ATOM     66  C   UNL     1      34.584  36.353  18.532  1.00  0.00     0.138 A 
ATOM     67  N   UNL     1      34.405  38.333  17.618  1.00  0.00    -0.132 NA
ATOM     68  N   UNL     1      35.665  36.576  17.783  1.00  0.00    -0.252 N 
ATOM     69  N   UNL     1      35.525  37.772  17.249  1.00  0.00    -0.067 NA
BRANCH  68  70
ATOM     70  C   UNL     1      36.777  35.654  17.593  1.00  0.00     0.146 C 
BRANCH  70  71
ATOM     71  C   UNL     1      37.157  35.669  16.113  1.00  0.00     0.024 C 
BRANCH  71  72
ATOM     72  C   UNL     1      38.094  34.546  15.778  1.00  0.00     0.002 C 
BRANCH  72  73
ATOM     73  C   UNL     1      38.320  34.495  14.295  1.00  0.00     0.012 C 
BRANCH  73  74
ATOM     74  C   UNL     1      37.204  33.842  13.547  1.00  0.00     0.122 C 
BRANCH  74  75
ATOM     75  C   UNL     1      37.740  33.199  12.316  1.00  0.00     0.303 C 
ATOM     76  O   UNL     1      38.661  32.356  12.401  1.00  0.00    -0.252 OA
BRANCH  75  77
ATOM     77  O   UNL     1      37.232  33.517  11.060  1.00  0.00    -0.481 OA
ATOM     78  H   UNL     1      36.481  34.205  10.981  1.00  0.00     0.296 HD
ENDBRANCH  75  77
ENDBRANCH  74  75
ENDBRANCH  73  74
ENDBRANCH  72  73
ENDBRANCH  71  72
ENDBRANCH  70  71
ENDBRANCH  68  70
ENDBRANCH  64  65
ENDBRANCH  63  64
ENDBRANCH  60  63
ENDBRANCH   1  59
TORSDOF 36
BEGIN_RES LYS A 131
REMARK  4 active torsions:
REMARK  status: ('A' for Active; 'I' for Inactive)
REMARK    1  A    between atoms: CA   and  CB  
REMARK    2  A    between atoms: CB   and  CG  
REMARK    3  A    between atoms: CG   and  CD  
REMARK    4  A    between atoms: CD   and  CE  
ROOT
ATOM      1  CA  LYS A 131      29.867  25.555  16.977  1.00 20.52     0.186 C 
ENDROOT
BRANCH   1   2
ATOM      2  CB  LYS A 131      28.345  25.722  17.026  1.00 20.94     0.034 C 
BRANCH   2   3
ATOM      3  CG  LYS A 131      27.602  24.400  16.916  1.00 22.96     0.005 C 
BRANCH   3   4
ATOM      4  CD  LYS A 131      26.153  24.531  17.297  1.00 24.33     0.041 C 
BRANCH   4   5
ATOM      5  CE  LYS A 131      25.791  23.444  18.304  1.00 26.91     0.338 C 
ATOM      6  NZ  LYS A 131      25.076  22.332  17.633  1.00 27.40     0.618 N 
ENDBRANCH   4   5
ENDBRANCH   3   4
ENDBRANCH   2   3
ENDBRANCH   1   2
END_RES LYS A 131
BEGIN_RES LYS A 135
REMARK  4 active torsions:
REMARK  status: ('A' for Active; 'I' for Inactive)
REMARK    5  A    between atoms: CA   and  CB  
REMARK    6  A    between atoms: CB   and  CG  
REMARK    7  A    between atoms: CG   and  CD  
REMARK    8  A    between atoms: CD   and  CE  
ROOT
ATOM      7  CA  LYS A 135      33.193  34.663   9.290  1.00 25.02     0.186 C 
ENDROOT
BRANCH   7   8
ATOM      8  CB  LYS A 135      32.060  35.360  10.034  1.00 26.63     0.034 C 
BRANCH   8   9
ATOM      9  CG  LYS A 135      30.690  34.871   9.640  1.00 29.45     0.005 C 
BRANCH   9  10
ATOM     10  CD  LYS A 135      30.111  35.734   8.530  1.00 32.00     0.041 C 
BRANCH  10  11
ATOM     11  CE  LYS A 135      29.250  34.900   7.601  1.00 34.25     0.338 C 
ATOM     12  NZ  LYS A 135      27.938  35.558   7.350  1.00 35.99     0.618 N 
ENDBRANCH  10  11
ENDBRANCH   9  10
ENDBRANCH   8   9
ENDBRANCH   7   8
END_RES LYS A 135
