REMARK VINA RESULT:    -5.021      3.253      7.140
REMARK INTER + INTRA:         -26.019
REMARK INTER:                 -14.226
REMARK INTRA:                 -11.794
REMARK UNBOUND:               -12.046
REMARK SMILES CC(=O)N[C@@H]1[C@@H](O)C[C@](OC[C@H]2O[C@@H](O[C@H]3[C@H](O)[C@@H](O)[C@H](OCCN=[N+]=[N-])O[C@@H]3CO)[C@H](O)[C@@H](O)[C@H]2O)(C(=O)O)O[C@H]1C(O)[C@H](O)CNC(=O)OCc1cn(C[C@@H](C(=O)O)C(c2ccccc2)c2ccccc2)nn1
REMARK SMILES IDX 43 1 42 2 9 3 8 4 41 5 6 6 5 7 10 8 11 9 12 10 14 11 13 12
REMARK SMILES IDX 32 13 34 14 36 15 15 16 16 17 29 18 28 19 21 20 17 21 19 22
REMARK SMILES IDX 30 23 31 24 22 26 23 27 24 28 25 29 26 30 27 31 18 32 20 34
REMARK SMILES IDX 33 36 35 38 37 40 38 42 39 43 40 44 7 46 4 48 2 49 1 51 3 52
REMARK SMILES IDX 44 53 45 55 46 56 47 58 48 59 49 60 50 62 51 63 52 64 53 65
REMARK SMILES IDX 54 66 75 67 55 68 74 69 56 70 57 71 58 72 59 73 60 74 61 76
REMARK SMILES IDX 62 77 63 78 67 79 64 80 66 81 65 82 68 83 69 84 73 85 70 86
REMARK SMILES IDX 72 87 71 88
REMARK H PARENT 31 25 18 33 20 35 33 37 35 39 37 41 40 45 7 47 4 50 44 54
REMARK H PARENT 46 57 48 61 60 75
REMARK Flexibility Score: inf
ROOT
ATOM      1  C   UNL     1      30.527  31.881  17.875  1.00  0.00     0.176 C 
ENDROOT
BRANCH   1   2
ATOM      2  C   UNL     1      29.494  31.073  18.689  1.00  0.00     0.178 C 
ATOM      3  C   UNL     1      27.349  30.230  18.863  1.00  0.00     0.272 C 
ATOM      4  C   UNL     1      28.105  29.611  20.085  1.00  0.00     0.113 C 
ATOM      5  O   UNL     1      28.257  31.042  18.159  1.00  0.00    -0.332 OA
ATOM      6  C   UNL     1      28.739  30.656  20.937  1.00  0.00     0.145 C 
ATOM      7  C   UNL     1      29.587  31.570  20.112  1.00  0.00     0.142 C 
BRANCH   3   8
ATOM      8  O   UNL     1      26.277  30.799  19.304  1.00  0.00    -0.338 OA
BRANCH   8   9
ATOM      9  C   UNL     1      25.610  31.880  19.199  1.00  0.00     0.199 C 
BRANCH   9  10
ATOM     10  C   UNL     1      24.107  31.975  19.168  1.00  0.00     0.179 C 
ATOM     11  C   UNL     1      22.540  32.392  17.437  1.00  0.00     0.282 C 
ATOM     12  O   UNL     1      23.694  32.662  18.068  1.00  0.00    -0.341 OA
ATOM     13  C   UNL     1      21.591  31.412  18.008  1.00  0.00     0.202 C 
ATOM     14  C   UNL     1      22.104  30.621  19.176  1.00  0.00     0.179 C 
ATOM     15  C   UNL     1      23.587  30.529  19.007  1.00  0.00     0.177 C 
BRANCH  11  16
ATOM     16  O   UNL     1      22.930  31.876  16.166  1.00  0.00    -0.341 OA
BRANCH  16  17
ATOM     17  C   UNL     1      23.719  32.730  15.449  1.00  0.00     0.184 C 
ATOM     18  C   UNL     1      22.963  33.177  14.230  1.00  0.00     0.178 C 
ATOM     19  O   UNL     1      23.096  32.295  13.164  1.00  0.00    -0.341 OA
ATOM     20  C   UNL     1      23.349  30.973  13.560  1.00  0.00     0.281 C 
ATOM     21  C   UNL     1      25.008  32.072  14.974  1.00  0.00     0.180 C 
ATOM     22  C   UNL     1      24.693  30.817  14.186  1.00  0.00     0.202 C 
BRANCH  18  23
ATOM     23  C   UNL     1      23.305  34.563  13.763  1.00  0.00     0.191 C 
BRANCH  23  24
ATOM     24  O   UNL     1      24.038  35.282  14.685  1.00  0.00    -0.394 OA
ATOM     25  H   UNL     1      23.677  35.044  15.591  1.00  0.00     0.210 HD
ENDBRANCH  23  24
ENDBRANCH  18  23
BRANCH  20  26
ATOM     26  O   UNL     1      23.298  30.173  12.441  1.00  0.00    -0.350 OA
BRANCH  26  27
ATOM     27  C   UNL     1      22.384  29.167  12.440  1.00  0.00     0.169 C 
BRANCH  27  28
ATOM     28  C   UNL     1      21.194  29.401  13.314  1.00  0.00     0.119 C 
BRANCH  28  29
ATOM     29  N   UNL     1      21.070  28.202  14.166  1.00  0.00    -0.092 NA
ATOM     30  N   UNL     1      21.604  28.253  15.277  1.00  0.00     0.001 N 
ATOM     31  N   UNL     1      22.250  28.233  16.322  1.00  0.00    -0.003 NA
ENDBRANCH  28  29
ENDBRANCH  27  28
ENDBRANCH  26  27
ENDBRANCH  20  26
BRANCH  21  32
ATOM     32  O   UNL     1      25.627  32.967  14.106  1.00  0.00    -0.387 OA
ATOM     33  H   UNL     1      25.200  33.002  13.219  1.00  0.00     0.211 HD
ENDBRANCH  21  32
BRANCH  22  34
ATOM     34  O   UNL     1      24.683  29.713  15.029  1.00  0.00    -0.385 OA
ATOM     35  H   UNL     1      25.642  29.545  15.295  1.00  0.00     0.211 HD
ENDBRANCH  22  34
ENDBRANCH  16  17
ENDBRANCH  11  16
BRANCH  13  36
ATOM     36  O   UNL     1      20.428  32.072  18.473  1.00  0.00    -0.385 OA
ATOM     37  H   UNL     1      19.940  31.493  19.125  1.00  0.00     0.211 HD
ENDBRANCH  13  36
BRANCH  14  38
ATOM     38  O   UNL     1      21.529  29.365  19.189  1.00  0.00    -0.387 OA
ATOM     39  H   UNL     1      21.853  28.853  18.402  1.00  0.00     0.211 HD
ENDBRANCH  14  38
BRANCH  15  40
ATOM     40  O   UNL     1      23.866  30.044  17.737  1.00  0.00    -0.387 OA
ATOM     41  H   UNL     1      23.442  29.165  17.648  1.00  0.00     0.211 HD
ENDBRANCH  15  40
ENDBRANCH   9  10
ENDBRANCH   8   9
ENDBRANCH   3   8
BRANCH   3  42
ATOM     42  C   UNL     1      27.149  29.052  17.995  1.00  0.00     0.364 C 
ATOM     43  O   UNL     1      26.492  29.041  16.934  1.00  0.00    -0.246 OA
BRANCH  42  44
ATOM     44  O   UNL     1      27.732  27.820  18.362  1.00  0.00    -0.477 OA
ATOM     45  H   UNL     1      28.602  27.582  17.936  1.00  0.00     0.296 HD
ENDBRANCH  42  44
ENDBRANCH   3  42
BRANCH   6  46
ATOM     46  O   UNL     1      27.797  31.379  21.684  1.00  0.00    -0.391 OA
ATOM     47  H   UNL     1      28.064  32.320  21.804  1.00  0.00     0.211 HD
ENDBRANCH   6  46
BRANCH   7  48
ATOM     48  N   UNL     1      30.963  31.457  20.537  1.00  0.00    -0.348 N 
ATOM     49  C   UNL     1      31.462  32.211  21.628  1.00  0.00     0.217 C 
ATOM     50  H   UNL     1      31.601  30.792  20.015  1.00  0.00     0.163 HD
ATOM     51  C   UNL     1      32.893  32.097  22.076  1.00  0.00     0.114 C 
ATOM     52  O   UNL     1      30.659  32.984  22.211  1.00  0.00    -0.275 OA
ENDBRANCH   7  48
ENDBRANCH   1   2
BRANCH   1  53
ATOM     53  O   UNL     1      30.488  33.207  18.210  1.00  0.00    -0.388 OA
ATOM     54  H   UNL     1      30.140  33.387  19.113  1.00  0.00     0.211 HD
ENDBRANCH   1  53
BRANCH   1  55
ATOM     55  C   UNL     1      30.298  31.709  16.424  1.00  0.00     0.165 C 
BRANCH  55  56
ATOM     56  O   UNL     1      29.934  30.394  16.068  1.00  0.00    -0.388 OA
ATOM     57  H   UNL     1      30.173  29.845  16.878  1.00  0.00     0.211 HD
ENDBRANCH  55  56
BRANCH  55  58
ATOM     58  C   UNL     1      31.274  32.227  15.435  1.00  0.00     0.154 C 
BRANCH  58  59
ATOM     59  N   UNL     1      30.786  33.138  14.467  1.00  0.00    -0.319 N 
ATOM     60  C   UNL     1      30.527  34.512  14.658  1.00  0.00     0.407 C 
ATOM     61  H   UNL     1      30.590  32.745  13.465  1.00  0.00     0.167 HD
ATOM     62  O   UNL     1      30.668  35.081  15.754  1.00  0.00    -0.225 OA
BRANCH  60  63
ATOM     63  O   UNL     1      30.105  35.249  13.571  1.00  0.00    -0.443 OA
BRANCH  63  64
ATOM     64  C   UNL     1      29.190  34.760  12.655  1.00  0.00     0.294 C 
BRANCH  64  65
ATOM     65  C   UNL     1      28.016  35.617  12.439  1.00  0.00     0.120 A 
ATOM     66  C   UNL     1      27.800  36.581  11.483  1.00  0.00     0.138 A 
ATOM     67  N   UNL     1      26.883  35.636  13.208  1.00  0.00    -0.132 NA
ATOM     68  N   UNL     1      26.601  37.140  11.679  1.00  0.00    -0.251 N 
ATOM     69  N   UNL     1      26.068  36.549  12.731  1.00  0.00    -0.067 NA
BRANCH  68  70
ATOM     70  C   UNL     1      25.953  38.212  10.898  1.00  0.00     0.162 C 
BRANCH  70  71
ATOM     71  C   UNL     1      24.567  37.799  10.524  1.00  0.00     0.132 C 
BRANCH  71  72
ATOM     72  C   UNL     1      23.582  38.868  10.866  1.00  0.00     0.309 C 
ATOM     73  O   UNL     1      22.844  38.813  11.864  1.00  0.00    -0.252 OA
BRANCH  72  74
ATOM     74  O   UNL     1      23.473  39.978  10.046  1.00  0.00    -0.481 OA
ATOM     75  H   UNL     1      22.863  40.751  10.323  1.00  0.00     0.296 HD
ENDBRANCH  72  74
ENDBRANCH  71  72
BRANCH  71  76
ATOM     76  C   UNL     1      24.348  37.228   9.173  1.00  0.00     0.065 C 
BRANCH  76  77
ATOM     77  C   UNL     1      25.445  36.474   8.563  1.00  0.00    -0.040 A 
ATOM     78  C   UNL     1      26.229  37.035   7.544  1.00  0.00     0.004 A 
ATOM     79  C   UNL     1      25.788  35.170   8.929  1.00  0.00     0.004 A 
ATOM     80  C   UNL     1      27.253  36.371   6.946  1.00  0.00     0.000 A 
ATOM     81  C   UNL     1      26.825  34.508   8.317  1.00  0.00     0.000 A 
ATOM     82  C   UNL     1      27.569  35.102   7.318  1.00  0.00     0.000 A 
ENDBRANCH  76  77
BRANCH  76  83
ATOM     83  C   UNL     1      22.999  36.628   8.989  1.00  0.00    -0.040 A 
ATOM     84  C   UNL     1      22.346  36.919   7.810  1.00  0.00     0.004 A 
ATOM     85  C   UNL     1      22.416  35.815   9.922  1.00  0.00     0.004 A 
ATOM     86  C   UNL     1      21.108  36.403   7.550  1.00  0.00     0.000 A 
ATOM     87  C   UNL     1      21.154  35.296   9.644  1.00  0.00     0.000 A 
ATOM     88  C   UNL     1      20.497  35.583   8.469  1.00  0.00     0.000 A 
ENDBRANCH  76  83
ENDBRANCH  71  76
ENDBRANCH  70  71
ENDBRANCH  68  70
ENDBRANCH  64  65
ENDBRANCH  63  64
ENDBRANCH  60  63
ENDBRANCH  58  59
ENDBRANCH  55  58
ENDBRANCH   1  55
TORSDOF 36
BEGIN_RES LYS A 131
REMARK  4 active torsions:
REMARK  status: ('A' for Active; 'I' for Inactive)
REMARK    1  A    between atoms: CA   and  CB  
REMARK    2  A    between atoms: CB   and  CG  
REMARK    3  A    between atoms: CG   and  CD  
REMARK    4  A    between atoms: CD   and  CE  
ROOT
ATOM      1  CA  LYS A 131      29.867  25.555  16.977  1.00 20.52     0.186 C 
ENDROOT
BRANCH   1   2
ATOM      2  CB  LYS A 131      28.345  25.722  17.026  1.00 20.94     0.034 C 
BRANCH   2   3
ATOM      3  CG  LYS A 131      27.601  24.401  16.904  1.00 22.96     0.005 C 
BRANCH   3   4
ATOM      4  CD  LYS A 131      26.517  24.264  17.936  1.00 24.33     0.041 C 
BRANCH   4   5
ATOM      5  CE  LYS A 131      25.188  23.979  17.244  1.00 26.91     0.338 C 
ATOM      6  NZ  LYS A 131      24.351  25.202  17.204  1.00 27.40     0.618 N 
ENDBRANCH   4   5
ENDBRANCH   3   4
ENDBRANCH   2   3
ENDBRANCH   1   2
END_RES LYS A 131
BEGIN_RES LYS A 135
REMARK  4 active torsions:
REMARK  status: ('A' for Active; 'I' for Inactive)
REMARK    5  A    between atoms: CA   and  CB  
REMARK    6  A    between atoms: CB   and  CG  
REMARK    7  A    between atoms: CG   and  CD  
REMARK    8  A    between atoms: CD   and  CE  
ROOT
ATOM      7  CA  LYS A 135      33.193  34.663   9.290  1.00 25.02     0.186 C 
ENDROOT
BRANCH   7   8
ATOM      8  CB  LYS A 135      32.060  35.360  10.034  1.00 26.63     0.034 C 
BRANCH   8   9
ATOM      9  CG  LYS A 135      30.761  35.381   9.270  1.00 29.45     0.005 C 
BRANCH   9  10
ATOM     10  CD  LYS A 135      30.394  36.803   8.876  1.00 32.00     0.041 C 
BRANCH  10  11
ATOM     11  CE  LYS A 135      30.994  37.798   9.851  1.00 34.25     0.338 C 
ATOM     12  NZ  LYS A 135      30.448  39.166   9.626  1.00 35.99     0.618 N 
ENDBRANCH  10  11
ENDBRANCH   9  10
ENDBRANCH   8   9
ENDBRANCH   7   8
END_RES LYS A 135
