REMARK VINA RESULT:    -5.466      2.692      4.219
REMARK INTER + INTRA:         -23.219
REMARK INTER:                 -12.920
REMARK INTRA:                 -10.299
REMARK UNBOUND:                -9.445
REMARK SMILES CC(=O)N[C@@H]1[C@@H](O)C[C@](OC[C@H]2O[C@@H](O[C@H]3[C@H](O)[C@@H](O)[C@H](OCCN=[N+]=[N-])O[C@@H]3CO)[C@H](O)[C@@H](O)[C@H]2O)(C(=O)O)O[C@H]1C(O)[C@H](O)CNC(=O)OCc1cn(Cc2cccc(Br)c2)nn1
REMARK SMILES IDX 9 1 8 2 6 3 5 4 42 5 41 6 10 7 11 8 12 9 14 10 13 11 32 12
REMARK SMILES IDX 34 13 36 14 15 15 16 16 29 17 28 18 21 19 17 20 19 21 30 22
REMARK SMILES IDX 31 23 22 25 23 26 24 27 25 28 26 29 27 30 18 31 20 33 33 35
REMARK SMILES IDX 35 37 37 39 38 41 39 42 40 43 7 45 43 47 44 48 45 50 46 51
REMARK SMILES IDX 47 53 48 54 49 55 50 57 51 58 52 59 53 60 54 61 65 62 55 63
REMARK SMILES IDX 64 64 56 65 57 66 58 67 63 68 59 69 61 70 60 71 62 72 4 73
REMARK SMILES IDX 2 74 1 76 3 77
REMARK H PARENT 31 24 18 32 20 34 33 36 35 38 37 40 40 44 7 46 44 49 46 52
REMARK H PARENT 48 56 4 75
REMARK Flexibility Score: inf
ROOT
ATOM      1  C   UNL     1      28.455  36.950  12.601  1.00  0.00     0.272 C 
ATOM      2  C   UNL     1      29.295  38.163  12.738  1.00  0.00     0.113 C 
ATOM      3  C   UNL     1      30.745  37.905  12.994  1.00  0.00     0.145 C 
ATOM      4  C   UNL     1      30.986  36.653  13.807  1.00  0.00     0.142 C 
ATOM      5  C   UNL     1      29.975  35.608  13.638  1.00  0.00     0.178 C 
ATOM      6  O   UNL     1      29.105  35.747  12.603  1.00  0.00    -0.332 OA
ENDROOT
BRANCH   1   7
ATOM      7  O   UNL     1      27.674  37.064  11.409  1.00  0.00    -0.338 OA
BRANCH   7   8
ATOM      8  C   UNL     1      28.372  37.617  10.375  1.00  0.00     0.199 C 
BRANCH   8   9
ATOM      9  C   UNL     1      27.540  37.573   9.075  1.00  0.00     0.179 C 
ATOM     10  C   UNL     1      25.398  36.866   8.445  1.00  0.00     0.282 C 
ATOM     11  O   UNL     1      26.491  36.753   9.336  1.00  0.00    -0.341 OA
ATOM     12  C   UNL     1      25.746  37.619   7.223  1.00  0.00     0.202 C 
ATOM     13  C   UNL     1      26.331  38.989   7.514  1.00  0.00     0.179 C 
ATOM     14  C   UNL     1      27.042  38.985   8.855  1.00  0.00     0.177 C 
BRANCH  10  15
ATOM     15  O   UNL     1      24.380  37.351   9.230  1.00  0.00    -0.341 OA
BRANCH  15  16
ATOM     16  C   UNL     1      23.438  36.476   9.634  1.00  0.00     0.184 C 
ATOM     17  C   UNL     1      22.075  37.087   9.431  1.00  0.00     0.178 C 
ATOM     18  O   UNL     1      21.108  36.118   9.684  1.00  0.00    -0.341 OA
ATOM     19  C   UNL     1      21.080  35.700  11.017  1.00  0.00     0.281 C 
ATOM     20  C   UNL     1      23.484  36.159  11.125  1.00  0.00     0.180 C 
ATOM     21  C   UNL     1      22.419  35.069  11.315  1.00  0.00     0.202 C 
BRANCH  17  22
ATOM     22  C   UNL     1      21.932  37.516   8.009  1.00  0.00     0.191 C 
BRANCH  22  23
ATOM     23  O   UNL     1      21.379  36.508   7.240  1.00  0.00    -0.394 OA
ATOM     24  H   UNL     1      21.299  35.701   7.813  1.00  0.00     0.210 HD
ENDBRANCH  22  23
ENDBRANCH  17  22
BRANCH  19  25
ATOM     25  O   UNL     1      20.028  34.814  11.118  1.00  0.00    -0.350 OA
BRANCH  25  26
ATOM     26  C   UNL     1      19.372  34.545   9.949  1.00  0.00     0.169 C 
BRANCH  26  27
ATOM     27  C   UNL     1      17.872  34.418  10.089  1.00  0.00     0.119 C 
BRANCH  27  28
ATOM     28  N   UNL     1      17.610  33.895  11.411  1.00  0.00    -0.092 NA
ATOM     29  N   UNL     1      16.558  34.044  12.015  1.00  0.00     0.001 N 
ATOM     30  N   UNL     1      15.423  34.131  12.479  1.00  0.00    -0.003 NA
ENDBRANCH  27  28
ENDBRANCH  26  27
ENDBRANCH  25  26
ENDBRANCH  19  25
BRANCH  20  31
ATOM     31  O   UNL     1      24.677  35.648  11.549  1.00  0.00    -0.387 OA
ATOM     32  H   UNL     1      24.708  34.669  11.636  1.00  0.00     0.211 HD
ENDBRANCH  20  31
BRANCH  21  33
ATOM     33  O   UNL     1      22.551  34.597  12.594  1.00  0.00    -0.385 OA
ATOM     34  H   UNL     1      23.386  34.041  12.718  1.00  0.00     0.211 HD
ENDBRANCH  21  33
ENDBRANCH  15  16
ENDBRANCH  10  15
BRANCH  12  35
ATOM     35  O   UNL     1      26.728  36.866   6.529  1.00  0.00    -0.385 OA
ATOM     36  H   UNL     1      27.495  37.457   6.311  1.00  0.00     0.211 HD
ENDBRANCH  12  35
BRANCH  13  37
ATOM     37  O   UNL     1      25.386  40.005   7.409  1.00  0.00    -0.387 OA
ATOM     38  H   UNL     1      24.466  39.584   7.409  1.00  0.00     0.211 HD
ENDBRANCH  13  37
BRANCH  14  39
ATOM     39  O   UNL     1      26.234  39.330   9.913  1.00  0.00    -0.387 OA
ATOM     40  H   UNL     1      25.601  40.065   9.647  1.00  0.00     0.211 HD
ENDBRANCH  14  39
ENDBRANCH   8   9
ENDBRANCH   7   8
ENDBRANCH   1   7
BRANCH   1  41
ATOM     41  C   UNL     1      27.431  36.943  13.688  1.00  0.00     0.364 C 
ATOM     42  O   UNL     1      27.449  37.878  14.564  1.00  0.00    -0.246 OA
BRANCH  41  43
ATOM     43  O   UNL     1      26.444  36.012  13.854  1.00  0.00    -0.477 OA
ATOM     44  H   UNL     1      26.724  35.064  14.141  1.00  0.00     0.296 HD
ENDBRANCH  41  43
ENDBRANCH   1  41
BRANCH   3  45
ATOM     45  O   UNL     1      31.488  37.944  11.823  1.00  0.00    -0.391 OA
ATOM     46  H   UNL     1      31.336  37.178  11.228  1.00  0.00     0.211 HD
ENDBRANCH   3  45
BRANCH   5  47
ATOM     47  C   UNL     1      30.583  34.196  13.597  1.00  0.00     0.176 C 
BRANCH  47  48
ATOM     48  O   UNL     1      31.995  34.408  13.326  1.00  0.00    -0.388 OA
ATOM     49  H   UNL     1      32.208  33.838  12.544  1.00  0.00     0.211 HD
ENDBRANCH  47  48
BRANCH  47  50
ATOM     50  C   UNL     1      30.514  33.444  14.875  1.00  0.00     0.165 C 
BRANCH  50  51
ATOM     51  O   UNL     1      31.521  32.416  14.741  1.00  0.00    -0.388 OA
ATOM     52  H   UNL     1      31.467  31.839  15.563  1.00  0.00     0.211 HD
ENDBRANCH  50  51
BRANCH  50  53
ATOM     53  C   UNL     1      29.271  32.674  15.168  1.00  0.00     0.154 C 
BRANCH  53  54
ATOM     54  N   UNL     1      28.055  33.470  15.102  1.00  0.00    -0.319 N 
ATOM     55  C   UNL     1      27.278  33.637  16.275  1.00  0.00     0.407 C 
ATOM     56  H   UNL     1      27.744  33.920  14.223  1.00  0.00     0.167 HD
ATOM     57  O   UNL     1      27.638  33.094  17.357  1.00  0.00    -0.225 OA
BRANCH  55  58
ATOM     58  O   UNL     1      26.109  34.397  16.266  1.00  0.00    -0.443 OA
BRANCH  58  59
ATOM     59  C   UNL     1      24.852  33.708  16.318  1.00  0.00     0.294 C 
BRANCH  59  60
ATOM     60  C   UNL     1      24.661  32.993  15.035  1.00  0.00     0.120 A 
ATOM     61  C   UNL     1      24.177  31.726  14.827  1.00  0.00     0.138 A 
ATOM     62  N   UNL     1      24.948  33.507  13.832  1.00  0.00    -0.132 NA
ATOM     63  N   UNL     1      24.186  31.512  13.497  1.00  0.00    -0.248 N 
ATOM     64  N   UNL     1      24.659  32.605  12.915  1.00  0.00    -0.067 NA
BRANCH  63  65
ATOM     65  C   UNL     1      23.748  30.283  12.844  1.00  0.00     0.181 C 
BRANCH  65  66
ATOM     66  C   UNL     1      22.287  30.307  12.575  1.00  0.00    -0.025 A 
ATOM     67  C   UNL     1      21.587  31.496  12.598  1.00  0.00     0.006 A 
ATOM     68  C   UNL     1      21.562  29.173  12.298  1.00  0.00     0.021 A 
ATOM     69  C   UNL     1      20.234  31.585  12.360  1.00  0.00     0.002 A 
ATOM     70  C   UNL     1      20.209  29.226  12.056  1.00  0.00     0.018 A 
ATOM     71  C   UNL     1      19.520  30.411  12.080  1.00  0.00     0.016 A 
ATOM     72  Br  UNL     1      19.195  27.649  11.669  1.00  0.00    -0.051 Br
ENDBRANCH  65  66
ENDBRANCH  63  65
ENDBRANCH  59  60
ENDBRANCH  58  59
ENDBRANCH  55  58
ENDBRANCH  53  54
ENDBRANCH  50  53
ENDBRANCH  47  50
ENDBRANCH   5  47
BRANCH   4  73
ATOM     73  N   UNL     1      31.116  37.023  15.240  1.00  0.00    -0.348 N 
ATOM     74  C   UNL     1      32.271  36.661  15.974  1.00  0.00     0.217 C 
ATOM     75  H   UNL     1      30.355  37.557  15.732  1.00  0.00     0.163 HD
ATOM     76  C   UNL     1      32.424  37.024  17.427  1.00  0.00     0.114 C 
ATOM     77  O   UNL     1      33.184  36.021  15.387  1.00  0.00    -0.275 OA
ENDBRANCH   4  73
TORSDOF 31
BEGIN_RES LYS A 131
REMARK  4 active torsions:
REMARK  status: ('A' for Active; 'I' for Inactive)
REMARK    1  A    between atoms: CA   and  CB  
REMARK    2  A    between atoms: CB   and  CG  
REMARK    3  A    between atoms: CG   and  CD  
REMARK    4  A    between atoms: CD   and  CE  
ROOT
ATOM      1  CA  LYS A 131      29.867  25.555  16.977  1.00 20.52     0.186 C 
ENDROOT
BRANCH   1   2
ATOM      2  CB  LYS A 131      28.345  25.722  17.026  1.00 20.94     0.034 C 
BRANCH   2   3
ATOM      3  CG  LYS A 131      27.601  24.401  16.905  1.00 22.96     0.005 C 
BRANCH   3   4
ATOM      4  CD  LYS A 131      26.578  24.225  17.992  1.00 24.33     0.041 C 
BRANCH   4   5
ATOM      5  CE  LYS A 131      25.652  25.437  18.019  1.00 26.91     0.338 C 
ATOM      6  NZ  LYS A 131      24.422  25.169  17.236  1.00 27.40     0.618 N 
ENDBRANCH   4   5
ENDBRANCH   3   4
ENDBRANCH   2   3
ENDBRANCH   1   2
END_RES LYS A 131
BEGIN_RES LYS A 135
REMARK  4 active torsions:
REMARK  status: ('A' for Active; 'I' for Inactive)
REMARK    5  A    between atoms: CA   and  CB  
REMARK    6  A    between atoms: CB   and  CG  
REMARK    7  A    between atoms: CG   and  CD  
REMARK    8  A    between atoms: CD   and  CE  
ROOT
ATOM      7  CA  LYS A 135      33.193  34.663   9.290  1.00 25.02     0.186 C 
ENDROOT
BRANCH   7   8
ATOM      8  CB  LYS A 135      32.060  35.360  10.034  1.00 26.63     0.034 C 
BRANCH   8   9
ATOM      9  CG  LYS A 135      30.737  34.647   9.922  1.00 29.45     0.005 C 
BRANCH   9  10
ATOM     10  CD  LYS A 135      30.359  34.444   8.462  1.00 32.00     0.041 C 
BRANCH  10  11
ATOM     11  CE  LYS A 135      28.851  34.434   8.299  1.00 34.25     0.338 C 
ATOM     12  NZ  LYS A 135      28.190  33.787   9.466  1.00 35.99     0.618 N 
ENDBRANCH  10  11
ENDBRANCH   9  10
ENDBRANCH   8   9
ENDBRANCH   7   8
END_RES LYS A 135
