REMARK VINA RESULT:    -5.295      3.524      7.371
REMARK INTER + INTRA:         -21.259
REMARK INTER:                 -10.015
REMARK INTRA:                 -11.244
REMARK UNBOUND:                -8.226
REMARK SMILES CC(=O)N[C@@H]1[C@@H](O)C[C@](OC[C@H]2O[C@@H](O[C@H]3[C@H](O)[C@@H](O)[C@H](OCCN=[N+]=[N-])O[C@@H]3CO)[C@H](O)[C@@H](O)[C@H]2O)(C(=O)O)O[C@H]1C(O)[C@H](O)CNC(=O)OCc1cn(-c2ccccc2Br)nn1
REMARK SMILES IDX 9 1 8 2 6 3 5 4 42 5 41 6 10 7 11 8 12 9 14 10 13 11 32 12
REMARK SMILES IDX 34 13 36 14 15 15 16 16 29 17 28 18 21 19 17 20 19 21 30 22
REMARK SMILES IDX 31 23 22 25 23 26 24 27 25 28 26 29 27 30 18 31 20 33 33 35
REMARK SMILES IDX 35 37 37 39 38 41 39 42 40 43 7 45 43 47 44 48 45 50 46 51
REMARK SMILES IDX 47 53 48 54 49 55 50 57 51 58 52 59 53 60 54 61 64 62 55 63
REMARK SMILES IDX 63 64 56 65 57 66 61 67 58 68 60 69 62 70 59 71 4 72 2 73
REMARK SMILES IDX 1 75 3 76
REMARK H PARENT 31 24 18 32 20 34 33 36 35 38 37 40 40 44 7 46 44 49 46 52
REMARK H PARENT 48 56 4 74
REMARK Flexibility Score: inf
ROOT
ATOM      1  C   UNL     1      26.642  36.324  11.814  1.00  0.00     0.272 C 
ATOM      2  C   UNL     1      27.028  37.034  10.571  1.00  0.00     0.113 C 
ATOM      3  C   UNL     1      25.887  37.146   9.613  1.00  0.00     0.145 C 
ATOM      4  C   UNL     1      24.582  37.543  10.204  1.00  0.00     0.142 C 
ATOM      5  C   UNL     1      24.584  37.453  11.690  1.00  0.00     0.178 C 
ATOM      6  O   UNL     1      25.348  36.492  12.260  1.00  0.00    -0.332 OA
ENDROOT
BRANCH   1   7
ATOM      7  O   UNL     1      27.421  36.599  12.923  1.00  0.00    -0.338 OA
BRANCH   7   8
ATOM      8  C   UNL     1      28.554  37.313  12.733  1.00  0.00     0.199 C 
BRANCH   8   9
ATOM      9  C   UNL     1      29.620  36.733  13.696  1.00  0.00     0.179 C 
ATOM     10  C   UNL     1      29.729  35.126  15.352  1.00  0.00     0.282 C 
ATOM     11  O   UNL     1      29.069  36.187  14.792  1.00  0.00    -0.341 OA
ATOM     12  C   UNL     1      31.232  35.286  15.326  1.00  0.00     0.202 C 
ATOM     13  C   UNL     1      31.725  35.522  13.914  1.00  0.00     0.179 C 
ATOM     14  C   UNL     1      30.576  35.862  12.985  1.00  0.00     0.177 C 
BRANCH  10  15
ATOM     15  O   UNL     1      29.317  33.902  14.845  1.00  0.00    -0.341 OA
BRANCH  15  16
ATOM     16  C   UNL     1      28.405  33.235  15.629  1.00  0.00     0.184 C 
ATOM     17  C   UNL     1      28.705  31.769  15.821  1.00  0.00     0.178 C 
ATOM     18  O   UNL     1      27.974  31.360  16.926  1.00  0.00    -0.341 OA
ATOM     19  C   UNL     1      26.631  31.540  16.833  1.00  0.00     0.281 C 
ATOM     20  C   UNL     1      27.017  33.258  14.998  1.00  0.00     0.180 C 
ATOM     21  C   UNL     1      26.106  32.370  15.738  1.00  0.00     0.202 C 
BRANCH  17  22
ATOM     22  C   UNL     1      30.147  31.450  16.033  1.00  0.00     0.191 C 
BRANCH  22  23
ATOM     23  O   UNL     1      30.283  30.725  17.215  1.00  0.00    -0.394 OA
ATOM     24  H   UNL     1      30.477  31.329  17.953  1.00  0.00     0.210 HD
ENDBRANCH  22  23
ENDBRANCH  17  22
BRANCH  19  25
ATOM     25  O   UNL     1      26.223  32.112  18.061  1.00  0.00    -0.350 OA
BRANCH  25  26
ATOM     26  C   UNL     1      27.173  32.039  19.040  1.00  0.00     0.169 C 
BRANCH  26  27
ATOM     27  C   UNL     1      27.395  33.297  19.820  1.00  0.00     0.119 C 
BRANCH  27  28
ATOM     28  N   UNL     1      28.327  34.115  19.059  1.00  0.00    -0.092 NA
ATOM     29  N   UNL     1      29.500  33.783  18.967  1.00  0.00     0.001 N 
ATOM     30  N   UNL     1      30.662  33.433  18.802  1.00  0.00    -0.003 NA
ENDBRANCH  27  28
ENDBRANCH  26  27
ENDBRANCH  25  26
ENDBRANCH  19  25
BRANCH  20  31
ATOM     31  O   UNL     1      26.500  34.543  14.953  1.00  0.00    -0.387 OA
ATOM     32  H   UNL     1      25.749  34.640  14.323  1.00  0.00     0.211 HD
ENDBRANCH  20  31
BRANCH  21  33
ATOM     33  O   UNL     1      25.462  31.564  14.752  1.00  0.00    -0.385 OA
ATOM     34  H   UNL     1      26.083  31.344  14.019  1.00  0.00     0.211 HD
ENDBRANCH  21  33
ENDBRANCH  15  16
ENDBRANCH  10  15
BRANCH  12  35
ATOM     35  O   UNL     1      31.657  36.281  16.207  1.00  0.00    -0.385 OA
ATOM     36  H   UNL     1      30.942  36.536  16.839  1.00  0.00     0.211 HD
ENDBRANCH  12  35
BRANCH  13  37
ATOM     37  O   UNL     1      32.490  34.460  13.471  1.00  0.00    -0.387 OA
ATOM     38  H   UNL     1      32.308  34.268  12.529  1.00  0.00     0.211 HD
ENDBRANCH  13  37
BRANCH  14  39
ATOM     39  O   UNL     1      30.034  34.673  12.528  1.00  0.00    -0.387 OA
ATOM     40  H   UNL     1      30.551  34.273  11.787  1.00  0.00     0.211 HD
ENDBRANCH  14  39
ENDBRANCH   8   9
ENDBRANCH   7   8
ENDBRANCH   1   7
BRANCH   1  41
ATOM     41  C   UNL     1      26.717  34.844  11.483  1.00  0.00     0.364 C 
ATOM     42  O   UNL     1      27.693  34.475  10.795  1.00  0.00    -0.246 OA
BRANCH  41  43
ATOM     43  O   UNL     1      25.794  33.929  11.892  1.00  0.00    -0.477 OA
ATOM     44  H   UNL     1      24.786  34.131  11.800  1.00  0.00     0.296 HD
ENDBRANCH  41  43
ENDBRANCH   1  41
BRANCH   3  45
ATOM     45  O   UNL     1      26.267  38.037   8.583  1.00  0.00    -0.391 OA
ATOM     46  H   UNL     1      25.869  37.694   7.736  1.00  0.00     0.211 HD
ENDBRANCH   3  45
BRANCH   5  47
ATOM     47  C   UNL     1      24.701  38.834  12.335  1.00  0.00     0.176 C 
BRANCH  47  48
ATOM     48  O   UNL     1      25.550  38.863  13.413  1.00  0.00    -0.388 OA
ATOM     49  H   UNL     1      25.523  39.749  13.880  1.00  0.00     0.211 HD
ENDBRANCH  47  48
BRANCH  47  50
ATOM     50  C   UNL     1      23.329  39.344  12.805  1.00  0.00     0.165 C 
BRANCH  50  51
ATOM     51  O   UNL     1      23.121  40.571  12.229  1.00  0.00    -0.388 OA
ATOM     52  H   UNL     1      23.414  40.683  11.308  1.00  0.00     0.211 HD
ENDBRANCH  50  51
BRANCH  50  53
ATOM     53  C   UNL     1      23.287  39.423  14.296  1.00  0.00     0.154 C 
BRANCH  53  54
ATOM     54  N   UNL     1      22.679  38.278  14.883  1.00  0.00    -0.319 N 
ATOM     55  C   UNL     1      23.318  37.145  15.430  1.00  0.00     0.407 C 
ATOM     56  H   UNL     1      21.611  38.253  14.926  1.00  0.00     0.167 HD
ATOM     57  O   UNL     1      24.550  37.063  15.453  1.00  0.00    -0.225 OA
BRANCH  55  58
ATOM     58  O   UNL     1      22.569  36.094  15.957  1.00  0.00    -0.443 OA
BRANCH  58  59
ATOM     59  C   UNL     1      23.065  34.798  16.193  1.00  0.00     0.294 C 
BRANCH  59  60
ATOM     60  C   UNL     1      22.995  33.961  14.952  1.00  0.00     0.121 A 
ATOM     61  C   UNL     1      22.227  32.804  14.821  1.00  0.00     0.144 A 
ATOM     62  N   UNL     1      23.616  34.120  13.794  1.00  0.00    -0.131 NA
ATOM     63  N   UNL     1      22.430  32.330  13.584  1.00  0.00    -0.219 N 
ATOM     64  N   UNL     1      23.268  33.127  12.968  1.00  0.00    -0.062 NA
BRANCH  63  65
ATOM     65  C   UNL     1      21.850  31.166  13.021  1.00  0.00     0.081 A 
ATOM     66  C   UNL     1      22.554  29.988  12.911  1.00  0.00     0.029 A 
ATOM     67  C   UNL     1      20.557  31.191  12.571  1.00  0.00     0.043 A 
ATOM     68  C   UNL     1      21.950  28.864  12.354  1.00  0.00     0.002 A 
ATOM     69  C   UNL     1      19.955  30.086  12.019  1.00  0.00     0.018 A 
ATOM     70  Br  UNL     1      19.550  32.803  12.701  1.00  0.00    -0.048 Br
ATOM     71  C   UNL     1      20.647  28.904  11.905  1.00  0.00     0.001 A 
ENDBRANCH  63  65
ENDBRANCH  59  60
ENDBRANCH  58  59
ENDBRANCH  55  58
ENDBRANCH  53  54
ENDBRANCH  50  53
ENDBRANCH  47  50
ENDBRANCH   5  47
BRANCH   4  72
ATOM     72  N   UNL     1      23.462  36.809   9.659  1.00  0.00    -0.348 N 
ATOM     73  C   UNL     1      22.873  37.175   8.425  1.00  0.00     0.217 C 
ATOM     74  H   UNL     1      23.073  35.994  10.171  1.00  0.00     0.163 HD
ATOM     75  C   UNL     1      21.719  36.361   7.936  1.00  0.00     0.114 C 
ATOM     76  O   UNL     1      23.284  38.140   7.753  1.00  0.00    -0.275 OA
ENDBRANCH   4  72
TORSDOF 30
BEGIN_RES LYS A 131
REMARK  4 active torsions:
REMARK  status: ('A' for Active; 'I' for Inactive)
REMARK    1  A    between atoms: CA   and  CB  
REMARK    2  A    between atoms: CB   and  CG  
REMARK    3  A    between atoms: CG   and  CD  
REMARK    4  A    between atoms: CD   and  CE  
ROOT
ATOM      1  CA  LYS A 131      29.867  25.555  16.977  1.00 20.52     0.186 C 
ENDROOT
BRANCH   1   2
ATOM      2  CB  LYS A 131      28.345  25.722  17.026  1.00 20.94     0.034 C 
BRANCH   2   3
ATOM      3  CG  LYS A 131      27.601  24.403  16.888  1.00 22.96     0.005 C 
BRANCH   3   4
ATOM      4  CD  LYS A 131      26.522  24.250  17.923  1.00 24.33     0.041 C 
BRANCH   4   5
ATOM      5  CE  LYS A 131      25.655  23.042  17.581  1.00 26.91     0.338 C 
ATOM      6  NZ  LYS A 131      24.257  23.265  18.020  1.00 27.40     0.618 N 
ENDBRANCH   4   5
ENDBRANCH   3   4
ENDBRANCH   2   3
ENDBRANCH   1   2
END_RES LYS A 131
BEGIN_RES LYS A 135
REMARK  4 active torsions:
REMARK  status: ('A' for Active; 'I' for Inactive)
REMARK    5  A    between atoms: CA   and  CB  
REMARK    6  A    between atoms: CB   and  CG  
REMARK    7  A    between atoms: CG   and  CD  
REMARK    8  A    between atoms: CD   and  CE  
ROOT
ATOM      7  CA  LYS A 135      33.193  34.663   9.290  1.00 25.02     0.186 C 
ENDROOT
BRANCH   7   8
ATOM      8  CB  LYS A 135      32.060  35.360  10.034  1.00 26.63     0.034 C 
BRANCH   8   9
ATOM      9  CG  LYS A 135      30.760  35.376   9.273  1.00 29.45     0.005 C 
BRANCH   9  10
ATOM     10  CD  LYS A 135      30.337  36.804   8.963  1.00 32.00     0.041 C 
BRANCH  10  11
ATOM     11  CE  LYS A 135      29.428  36.839   7.749  1.00 34.25     0.338 C 
ATOM     12  NZ  LYS A 135      29.383  38.203   7.152  1.00 35.99     0.618 N 
ENDBRANCH  10  11
ENDBRANCH   9  10
ENDBRANCH   8   9
ENDBRANCH   7   8
END_RES LYS A 135
