REMARK VINA RESULT:    -4.533      3.716      8.218
REMARK INTER + INTRA:         -23.137
REMARK INTER:                 -12.049
REMARK INTRA:                 -11.088
REMARK UNBOUND:               -10.521
REMARK SMILES CC(=O)N[C@@H]1[C@@H](O)C[C@](OC[C@H]2O[C@@H](O[C@H]3[C@H](O)[C@@H](O)[C@H](OCCN=[N+]=[N-])O[C@@H]3CO)[C@H](O)[C@@H](O)[C@H]2O)(C(=O)O)O[C@H]1C(O)[C@H](O)CNC(=O)OCc1cn(CCCCCC(=O)O)nn1
REMARK SMILES IDX 47 1 45 2 43 3 42 4 9 5 8 6 41 7 6 8 5 9 10 10 11 11 12 12
REMARK SMILES IDX 14 13 13 14 32 15 34 16 36 17 15 18 16 19 29 20 28 21 21 22
REMARK SMILES IDX 17 23 19 24 30 25 31 26 22 28 23 29 24 30 25 31 26 32 27 33
REMARK SMILES IDX 18 34 20 36 33 38 35 40 37 42 38 44 39 45 40 46 7 48 4 50
REMARK SMILES IDX 2 51 1 53 3 54 44 55 46 57 48 59 49 60 50 62 51 63 52 64
REMARK SMILES IDX 53 65 54 66 65 67 55 68 64 69 56 70 57 71 58 72 59 73 60 74
REMARK SMILES IDX 61 75 62 76 63 77
REMARK H PARENT 31 27 18 35 20 37 33 39 35 41 37 43 40 47 7 49 4 52 44 56
REMARK H PARENT 46 58 48 61 63 78
REMARK Flexibility Score: inf
ROOT
ATOM      1  C   UNL     1      29.958  27.006  21.246  1.00  0.00     0.154 C 
ENDROOT
BRANCH   1   2
ATOM      2  C   UNL     1      31.462  26.991  21.119  1.00  0.00     0.165 C 
BRANCH   2   3
ATOM      3  C   UNL     1      32.002  27.770  22.274  1.00  0.00     0.176 C 
BRANCH   3   4
ATOM      4  C   UNL     1      31.507  29.169  22.410  1.00  0.00     0.178 C 
ATOM      5  C   UNL     1      31.090  31.105  21.337  1.00  0.00     0.272 C 
ATOM      6  C   UNL     1      30.226  31.363  22.529  1.00  0.00     0.113 C 
ATOM      7  O   UNL     1      31.992  30.058  21.465  1.00  0.00    -0.332 OA
ATOM      8  C   UNL     1      30.726  30.921  23.851  1.00  0.00     0.145 C 
ATOM      9  C   UNL     1      31.786  29.816  23.749  1.00  0.00     0.142 C 
BRANCH   5  10
ATOM     10  O   UNL     1      31.706  32.260  20.859  1.00  0.00    -0.338 OA
BRANCH  10  11
ATOM     11  C   UNL     1      31.115  33.448  21.147  1.00  0.00     0.199 C 
BRANCH  11  12
ATOM     12  C   UNL     1      32.166  34.304  21.829  1.00  0.00     0.179 C 
ATOM     13  C   UNL     1      33.983  34.411  23.128  1.00  0.00     0.282 C 
ATOM     14  O   UNL     1      33.339  33.627  22.125  1.00  0.00    -0.341 OA
ATOM     15  C   UNL     1      33.826  35.856  22.974  1.00  0.00     0.202 C 
ATOM     16  C   UNL     1      33.407  36.366  21.624  1.00  0.00     0.179 C 
ATOM     17  C   UNL     1      32.568  35.388  20.845  1.00  0.00     0.177 C 
BRANCH  13  18
ATOM     18  O   UNL     1      35.256  33.899  23.369  1.00  0.00    -0.341 OA
BRANCH  18  19
ATOM     19  C   UNL     1      35.984  33.600  22.279  1.00  0.00     0.184 C 
ATOM     20  C   UNL     1      36.574  32.223  22.319  1.00  0.00     0.178 C 
ATOM     21  O   UNL     1      36.939  31.936  20.987  1.00  0.00    -0.341 OA
ATOM     22  C   UNL     1      37.984  32.699  20.593  1.00  0.00     0.281 C 
ATOM     23  C   UNL     1      37.260  34.508  22.215  1.00  0.00     0.180 C 
ATOM     24  C   UNL     1      38.384  33.734  21.574  1.00  0.00     0.202 C 
BRANCH  20  25
ATOM     25  C   UNL     1      35.603  31.155  22.748  1.00  0.00     0.191 C 
BRANCH  25  26
ATOM     26  O   UNL     1      34.487  31.149  21.939  1.00  0.00    -0.394 OA
ATOM     27  H   UNL     1      34.519  31.969  21.378  1.00  0.00     0.210 HD
ENDBRANCH  25  26
ENDBRANCH  20  25
BRANCH  22  28
ATOM     28  O   UNL     1      37.817  33.262  19.320  1.00  0.00    -0.350 OA
BRANCH  28  29
ATOM     29  C   UNL     1      38.978  33.791  18.816  1.00  0.00     0.169 C 
BRANCH  29  30
ATOM     30  C   UNL     1      39.146  33.365  17.365  1.00  0.00     0.119 C 
BRANCH  30  31
ATOM     31  N   UNL     1      39.072  34.513  16.477  1.00  0.00    -0.092 NA
ATOM     32  N   UNL     1      38.024  35.185  16.428  1.00  0.00     0.001 N 
ATOM     33  N   UNL     1      36.946  35.594  15.993  1.00  0.00    -0.003 NA
ENDBRANCH  30  31
ENDBRANCH  29  30
ENDBRANCH  28  29
ENDBRANCH  22  28
BRANCH  23  34
ATOM     34  O   UNL     1      36.980  35.601  21.395  1.00  0.00    -0.387 OA
ATOM     35  H   UNL     1      36.335  36.201  21.870  1.00  0.00     0.211 HD
ENDBRANCH  23  34
BRANCH  24  36
ATOM     36  O   UNL     1      39.344  33.305  22.500  1.00  0.00    -0.385 OA
ATOM     37  H   UNL     1      39.761  34.059  22.987  1.00  0.00     0.211 HD
ENDBRANCH  24  36
ENDBRANCH  18  19
ENDBRANCH  13  18
BRANCH  15  38
ATOM     38  O   UNL     1      32.861  36.381  23.883  1.00  0.00    -0.385 OA
ATOM     39  H   UNL     1      32.970  37.344  23.973  1.00  0.00     0.211 HD
ENDBRANCH  15  38
BRANCH  16  40
ATOM     40  O   UNL     1      34.503  36.700  20.810  1.00  0.00    -0.387 OA
ATOM     41  H   UNL     1      35.221  36.043  20.849  1.00  0.00     0.211 HD
ENDBRANCH  16  40
BRANCH  17  42
ATOM     42  O   UNL     1      33.384  34.747  19.878  1.00  0.00    -0.387 OA
ATOM     43  H   UNL     1      33.855  35.501  19.401  1.00  0.00     0.211 HD
ENDBRANCH  17  42
ENDBRANCH  11  12
ENDBRANCH  10  11
ENDBRANCH   5  10
BRANCH   5  44
ATOM     44  C   UNL     1      30.175  30.686  20.239  1.00  0.00     0.364 C 
ATOM     45  O   UNL     1      28.939  30.848  20.339  1.00  0.00    -0.246 OA
BRANCH  44  46
ATOM     46  O   UNL     1      30.683  30.112  19.099  1.00  0.00    -0.477 OA
ATOM     47  H   UNL     1      31.196  29.215  19.097  1.00  0.00     0.296 HD
ENDBRANCH  44  46
ENDBRANCH   5  44
BRANCH   8  48
ATOM     48  O   UNL     1      31.118  31.941  24.714  1.00  0.00    -0.391 OA
ATOM     49  H   UNL     1      31.615  31.532  25.457  1.00  0.00     0.211 HD
ENDBRANCH   8  48
BRANCH   9  50
ATOM     50  N   UNL     1      31.739  28.936  24.864  1.00  0.00    -0.348 N 
ATOM     51  C   UNL     1      32.938  28.577  25.524  1.00  0.00     0.217 C 
ATOM     52  H   UNL     1      30.846  28.555  25.205  1.00  0.00     0.163 HD
ATOM     53  C   UNL     1      32.917  27.662  26.695  1.00  0.00     0.114 C 
ATOM     54  O   UNL     1      34.068  29.013  25.155  1.00  0.00    -0.275 OA
ENDBRANCH   9  50
ENDBRANCH   3   4
BRANCH   3  55
ATOM     55  O   UNL     1      33.415  27.789  22.259  1.00  0.00    -0.388 OA
ATOM     56  H   UNL     1      33.734  28.262  21.458  1.00  0.00     0.211 HD
ENDBRANCH   3  55
ENDBRANCH   2   3
BRANCH   2  57
ATOM     57  O   UNL     1      31.797  27.600  19.915  1.00  0.00    -0.388 OA
ATOM     58  H   UNL     1      32.771  27.474  19.789  1.00  0.00     0.211 HD
ENDBRANCH   2  57
ENDBRANCH   1   2
BRANCH   1  59
ATOM     59  N   UNL     1      29.279  27.592  20.135  1.00  0.00    -0.319 N 
ATOM     60  C   UNL     1      27.850  27.681  20.184  1.00  0.00     0.407 C 
ATOM     61  H   UNL     1      29.768  27.953  19.302  1.00  0.00     0.167 HD
ATOM     62  O   UNL     1      27.219  27.253  21.182  1.00  0.00    -0.225 OA
BRANCH  60  63
ATOM     63  O   UNL     1      27.119  28.228  19.155  1.00  0.00    -0.443 OA
BRANCH  63  64
ATOM     64  C   UNL     1      27.389  28.049  17.809  1.00  0.00     0.294 C 
BRANCH  64  65
ATOM     65  C   UNL     1      27.397  29.252  16.968  1.00  0.00     0.120 A 
ATOM     66  C   UNL     1      28.397  30.182  16.848  1.00  0.00     0.138 A 
ATOM     67  N   UNL     1      26.385  29.655  16.167  1.00  0.00    -0.132 NA
ATOM     68  N   UNL     1      27.979  31.116  15.991  1.00  0.00    -0.252 N 
ATOM     69  N   UNL     1      26.769  30.768  15.602  1.00  0.00    -0.067 NA
BRANCH  68  70
ATOM     70  C   UNL     1      28.736  32.286  15.569  1.00  0.00     0.146 C 
BRANCH  70  71
ATOM     71  C   UNL     1      30.029  32.331  16.382  1.00  0.00     0.024 C 
BRANCH  71  72
ATOM     72  C   UNL     1      31.233  32.162  15.502  1.00  0.00     0.002 C 
BRANCH  72  73
ATOM     73  C   UNL     1      31.945  33.476  15.355  1.00  0.00     0.012 C 
BRANCH  73  74
ATOM     74  C   UNL     1      31.902  34.316  16.588  1.00  0.00     0.122 C 
BRANCH  74  75
ATOM     75  C   UNL     1      32.804  35.490  16.422  1.00  0.00     0.303 C 
ATOM     76  O   UNL     1      33.690  35.722  17.274  1.00  0.00    -0.252 OA
BRANCH  75  77
ATOM     77  O   UNL     1      32.681  36.340  15.328  1.00  0.00    -0.481 OA
ATOM     78  H   UNL     1      32.691  35.951  14.383  1.00  0.00     0.296 HD
ENDBRANCH  75  77
ENDBRANCH  74  75
ENDBRANCH  73  74
ENDBRANCH  72  73
ENDBRANCH  71  72
ENDBRANCH  70  71
ENDBRANCH  68  70
ENDBRANCH  64  65
ENDBRANCH  63  64
ENDBRANCH  60  63
ENDBRANCH   1  59
TORSDOF 36
BEGIN_RES LYS A 131
REMARK  4 active torsions:
REMARK  status: ('A' for Active; 'I' for Inactive)
REMARK    1  A    between atoms: CA   and  CB  
REMARK    2  A    between atoms: CB   and  CG  
REMARK    3  A    between atoms: CG   and  CD  
REMARK    4  A    between atoms: CD   and  CE  
ROOT
ATOM      1  CA  LYS A 131      29.867  25.555  16.977  1.00 20.52     0.186 C 
ENDROOT
BRANCH   1   2
ATOM      2  CB  LYS A 131      28.345  25.722  17.026  1.00 20.94     0.034 C 
BRANCH   2   3
ATOM      3  CG  LYS A 131      27.602  24.399  16.921  1.00 22.96     0.005 C 
BRANCH   3   4
ATOM      4  CD  LYS A 131      26.147  24.537  17.275  1.00 24.33     0.041 C 
BRANCH   4   5
ATOM      5  CE  LYS A 131      26.002  24.664  18.788  1.00 26.91     0.338 C 
ATOM      6  NZ  LYS A 131      24.872  25.561  19.127  1.00 27.40     0.618 N 
ENDBRANCH   4   5
ENDBRANCH   3   4
ENDBRANCH   2   3
ENDBRANCH   1   2
END_RES LYS A 131
BEGIN_RES LYS A 135
REMARK  4 active torsions:
REMARK  status: ('A' for Active; 'I' for Inactive)
REMARK    5  A    between atoms: CA   and  CB  
REMARK    6  A    between atoms: CB   and  CG  
REMARK    7  A    between atoms: CG   and  CD  
REMARK    8  A    between atoms: CD   and  CE  
ROOT
ATOM      7  CA  LYS A 135      33.193  34.663   9.290  1.00 25.02     0.186 C 
ENDROOT
BRANCH   7   8
ATOM      8  CB  LYS A 135      32.060  35.360  10.034  1.00 26.63     0.034 C 
BRANCH   8   9
ATOM      9  CG  LYS A 135      30.822  35.557   9.198  1.00 29.45     0.005 C 
BRANCH   9  10
ATOM     10  CD  LYS A 135      30.274  34.218   8.728  1.00 32.00     0.041 C 
BRANCH  10  11
ATOM     11  CE  LYS A 135      28.817  34.070   9.122  1.00 34.25     0.338 C 
ATOM     12  NZ  LYS A 135      27.921  34.704   8.115  1.00 35.99     0.618 N 
ENDBRANCH  10  11
ENDBRANCH   9  10
ENDBRANCH   8   9
ENDBRANCH   7   8
END_RES LYS A 135
