REMARK VINA RESULT:    -4.832      5.226     12.375
REMARK INTER + INTRA:         -23.703
REMARK INTER:                  -9.561
REMARK INTRA:                 -14.143
REMARK UNBOUND:               -10.398
REMARK SMILES CC(=O)N[C@@H]1[C@@H](O)C[C@](OC[C@H]2O[C@@H](O[C@H]3[C@H](O)[C@@H](O)[C@H](OCCN=[N+]=[N-])O[C@@H]3CO)[C@H](O)[C@@H](O)[C@H]2O)(C(=O)O)O[C@H]1C(O)[C@H](O)CNC(=O)OCc1cn([C@@H](CCC(=O)O)C(=O)O)nn1
REMARK SMILES IDX 43 1 42 2 9 3 8 4 41 5 6 6 5 7 10 8 11 9 12 10 14 11 13 12
REMARK SMILES IDX 32 13 34 14 36 15 15 16 16 17 29 18 28 19 21 20 17 21 19 22
REMARK SMILES IDX 30 23 31 24 22 26 23 27 24 28 25 29 26 30 27 31 18 32 20 34
REMARK SMILES IDX 33 36 35 38 37 40 38 42 39 43 40 44 7 46 4 48 2 49 1 51 3 52
REMARK SMILES IDX 44 53 45 55 46 56 47 58 48 59 49 60 50 62 51 63 52 64 53 65
REMARK SMILES IDX 54 66 66 67 55 68 65 69 56 70 57 71 58 72 59 73 60 74 61 75
REMARK SMILES IDX 62 77 63 78 64 79
REMARK H PARENT 31 25 18 33 20 35 33 37 35 39 37 41 40 45 7 47 4 50 44 54
REMARK H PARENT 46 57 48 61 61 76 64 80
REMARK Flexibility Score: inf
ROOT
ATOM      1  C   UNL     1      26.673  32.326  16.846  1.00  0.00     0.176 C 
ENDROOT
BRANCH   1   2
ATOM      2  C   UNL     1      28.150  32.532  17.184  1.00  0.00     0.178 C 
ATOM      3  C   UNL     1      29.960  33.575  16.098  1.00  0.00     0.272 C 
ATOM      4  C   UNL     1      30.783  32.352  16.025  1.00  0.00     0.113 C 
ATOM      5  O   UNL     1      28.627  33.121  16.013  1.00  0.00    -0.332 OA
ATOM      6  C   UNL     1      29.992  31.110  16.336  1.00  0.00     0.145 C 
ATOM      7  C   UNL     1      28.899  31.239  17.336  1.00  0.00     0.142 C 
BRANCH   3   8
ATOM      8  O   UNL     1      30.152  34.387  14.999  1.00  0.00    -0.338 OA
BRANCH   8   9
ATOM      9  C   UNL     1      30.051  34.014  13.750  1.00  0.00     0.199 C 
BRANCH   9  10
ATOM     10  C   UNL     1      29.238  34.743  12.717  1.00  0.00     0.179 C 
ATOM     11  C   UNL     1      27.071  35.607  12.762  1.00  0.00     0.282 C 
ATOM     12  O   UNL     1      27.898  34.516  12.842  1.00  0.00    -0.341 OA
ATOM     13  C   UNL     1      27.451  36.579  13.858  1.00  0.00     0.202 C 
ATOM     14  C   UNL     1      28.832  37.084  13.591  1.00  0.00     0.179 C 
ATOM     15  C   UNL     1      29.619  36.218  12.674  1.00  0.00     0.177 C 
BRANCH  11  16
ATOM     16  O   UNL     1      25.758  35.184  12.982  1.00  0.00    -0.341 OA
BRANCH  16  17
ATOM     17  C   UNL     1      24.984  35.072  11.855  1.00  0.00     0.184 C 
ATOM     18  C   UNL     1      24.787  36.422  11.171  1.00  0.00     0.178 C 
ATOM     19  O   UNL     1      23.429  36.728  11.152  1.00  0.00    -0.341 OA
ATOM     20  C   UNL     1      22.981  37.009  12.474  1.00  0.00     0.281 C 
ATOM     21  C   UNL     1      23.615  34.595  12.296  1.00  0.00     0.180 C 
ATOM     22  C   UNL     1      23.036  35.702  13.204  1.00  0.00     0.202 C 
BRANCH  18  23
ATOM     23  C   UNL     1      25.248  36.327   9.727  1.00  0.00     0.191 C 
BRANCH  23  24
ATOM     24  O   UNL     1      24.601  35.316   9.042  1.00  0.00    -0.394 OA
ATOM     25  H   UNL     1      23.730  35.616   8.671  1.00  0.00     0.210 HD
ENDBRANCH  23  24
ENDBRANCH  18  23
BRANCH  20  26
ATOM     26  O   UNL     1      21.751  37.589  12.364  1.00  0.00    -0.350 OA
BRANCH  26  27
ATOM     27  C   UNL     1      21.271  37.731  11.091  1.00  0.00     0.169 C 
BRANCH  27  28
ATOM     28  C   UNL     1      19.959  37.017  10.840  1.00  0.00     0.119 C 
BRANCH  28  29
ATOM     29  N   UNL     1      20.143  35.758  10.146  1.00  0.00    -0.092 NA
ATOM     30  N   UNL     1      20.877  35.613   9.174  1.00  0.00     0.001 N 
ATOM     31  N   UNL     1      21.756  35.531   8.344  1.00  0.00    -0.003 NA
ENDBRANCH  28  29
ENDBRANCH  27  28
ENDBRANCH  26  27
ENDBRANCH  20  26
BRANCH  21  32
ATOM     32  O   UNL     1      22.761  34.348  11.228  1.00  0.00    -0.387 OA
ATOM     33  H   UNL     1      23.225  34.431  10.337  1.00  0.00     0.211 HD
ENDBRANCH  21  32
BRANCH  22  34
ATOM     34  O   UNL     1      24.010  35.843  14.223  1.00  0.00    -0.385 OA
ATOM     35  H   UNL     1      24.323  36.784  14.201  1.00  0.00     0.211 HD
ENDBRANCH  22  34
ENDBRANCH  16  17
ENDBRANCH  11  16
BRANCH  13  36
ATOM     36  O   UNL     1      26.541  37.635  13.914  1.00  0.00    -0.385 OA
ATOM     37  H   UNL     1      26.701  38.178  13.078  1.00  0.00     0.211 HD
ENDBRANCH  13  36
BRANCH  14  38
ATOM     38  O   UNL     1      29.547  37.321  14.769  1.00  0.00    -0.387 OA
ATOM     39  H   UNL     1      30.042  36.487  15.021  1.00  0.00     0.211 HD
ENDBRANCH  14  38
BRANCH  15  40
ATOM     40  O   UNL     1      30.957  36.336  13.058  1.00  0.00    -0.387 OA
ATOM     41  H   UNL     1      31.468  36.859  12.400  1.00  0.00     0.211 HD
ENDBRANCH  15  40
ENDBRANCH   9  10
ENDBRANCH   8   9
ENDBRANCH   3   8
BRANCH   3  42
ATOM     42  C   UNL     1      30.074  34.416  17.283  1.00  0.00     0.364 C 
ATOM     43  O   UNL     1      29.647  35.626  17.202  1.00  0.00    -0.246 OA
BRANCH  42  44
ATOM     44  O   UNL     1      30.594  34.096  18.522  1.00  0.00    -0.477 OA
ATOM     45  H   UNL     1      30.751  34.780  19.225  1.00  0.00     0.296 HD
ENDBRANCH  42  44
ENDBRANCH   3  42
BRANCH   6  46
ATOM     46  O   UNL     1      29.363  30.719  15.121  1.00  0.00    -0.391 OA
ATOM     47  H   UNL     1      29.687  31.268  14.362  1.00  0.00     0.211 HD
ENDBRANCH   6  46
BRANCH   7  48
ATOM     48  N   UNL     1      29.445  30.931  18.611  1.00  0.00    -0.348 N 
ATOM     49  C   UNL     1      28.867  30.015  19.525  1.00  0.00     0.217 C 
ATOM     50  H   UNL     1      30.334  31.359  18.937  1.00  0.00     0.163 HD
ATOM     51  C   UNL     1      29.498  29.740  20.864  1.00  0.00     0.114 C 
ATOM     52  O   UNL     1      27.830  29.421  19.241  1.00  0.00    -0.275 OA
ENDBRANCH   7  48
ENDBRANCH   1   2
BRANCH   1  53
ATOM     53  O   UNL     1      26.172  31.273  17.602  1.00  0.00    -0.388 OA
ATOM     54  H   UNL     1      26.185  31.511  18.567  1.00  0.00     0.211 HD
ENDBRANCH   1  53
BRANCH   1  55
ATOM     55  C   UNL     1      26.326  32.182  15.439  1.00  0.00     0.165 C 
BRANCH  55  56
ATOM     56  O   UNL     1      25.703  33.392  15.009  1.00  0.00    -0.388 OA
ATOM     57  H   UNL     1      24.806  33.425  15.418  1.00  0.00     0.211 HD
ENDBRANCH  55  56
BRANCH  55  58
ATOM     58  C   UNL     1      25.365  31.099  15.051  1.00  0.00     0.154 C 
BRANCH  58  59
ATOM     59  N   UNL     1      24.277  31.568  14.226  1.00  0.00    -0.319 N 
ATOM     60  C   UNL     1      23.699  30.804  13.169  1.00  0.00     0.407 C 
ATOM     61  H   UNL     1      23.892  32.511  14.391  1.00  0.00     0.167 HD
ATOM     62  O   UNL     1      24.115  29.677  12.905  1.00  0.00    -0.225 OA
BRANCH  60  63
ATOM     63  O   UNL     1      22.670  31.365  12.455  1.00  0.00    -0.443 OA
BRANCH  63  64
ATOM     64  C   UNL     1      21.318  31.174  12.757  1.00  0.00     0.294 C 
BRANCH  64  65
ATOM     65  C   UNL     1      20.772  32.399  13.393  1.00  0.00     0.120 A 
ATOM     66  C   UNL     1      20.749  32.754  14.725  1.00  0.00     0.139 A 
ATOM     67  N   UNL     1      20.153  33.417  12.738  1.00  0.00    -0.132 NA
ATOM     68  N   UNL     1      20.127  33.963  14.847  1.00  0.00    -0.238 N 
ATOM     69  N   UNL     1      19.780  34.329  13.612  1.00  0.00    -0.066 NA
BRANCH  68  70
ATOM     70  C   UNL     1      19.918  34.688  16.046  1.00  0.00     0.219 C 
BRANCH  70  71
ATOM     71  C   UNL     1      21.035  35.470  16.632  1.00  0.00     0.051 C 
BRANCH  71  72
ATOM     72  C   UNL     1      21.917  34.854  17.636  1.00  0.00     0.125 C 
BRANCH  72  73
ATOM     73  C   UNL     1      23.210  34.337  17.239  1.00  0.00     0.303 C 
ATOM     74  O   UNL     1      24.259  34.961  17.003  1.00  0.00    -0.252 OA
BRANCH  73  75
ATOM     75  O   UNL     1      23.360  32.922  17.080  1.00  0.00    -0.481 OA
ATOM     76  H   UNL     1      23.918  32.575  16.316  1.00  0.00     0.296 HD
ENDBRANCH  73  75
ENDBRANCH  72  73
ENDBRANCH  71  72
ENDBRANCH  70  71
BRANCH  70  77
ATOM     77  C   UNL     1      18.757  35.611  15.846  1.00  0.00     0.328 C 
ATOM     78  O   UNL     1      18.855  36.820  16.131  1.00  0.00    -0.250 OA
BRANCH  77  79
ATOM     79  O   UNL     1      17.547  35.166  15.346  1.00  0.00    -0.480 OA
ATOM     80  H   UNL     1      17.490  34.368  14.711  1.00  0.00     0.296 HD
ENDBRANCH  77  79
ENDBRANCH  70  77
ENDBRANCH  68  70
ENDBRANCH  64  65
ENDBRANCH  63  64
ENDBRANCH  60  63
ENDBRANCH  58  59
ENDBRANCH  55  58
ENDBRANCH   1  55
TORSDOF 36
BEGIN_RES LYS A 131
REMARK  4 active torsions:
REMARK  status: ('A' for Active; 'I' for Inactive)
REMARK    1  A    between atoms: CA   and  CB  
REMARK    2  A    between atoms: CB   and  CG  
REMARK    3  A    between atoms: CG   and  CD  
REMARK    4  A    between atoms: CD   and  CE  
ROOT
ATOM      1  CA  LYS A 131      29.867  25.555  16.977  1.00 20.52     0.186 C 
ENDROOT
BRANCH   1   2
ATOM      2  CB  LYS A 131      28.345  25.722  17.026  1.00 20.94     0.034 C 
BRANCH   2   3
ATOM      3  CG  LYS A 131      27.601  24.402  16.890  1.00 22.96     0.005 C 
BRANCH   3   4
ATOM      4  CD  LYS A 131      26.147  24.532  17.248  1.00 24.33     0.041 C 
BRANCH   4   5
ATOM      5  CE  LYS A 131      26.011  24.775  18.748  1.00 26.91     0.338 C 
ATOM      6  NZ  LYS A 131      25.478  23.569  19.423  1.00 27.40     0.618 N 
ENDBRANCH   4   5
ENDBRANCH   3   4
ENDBRANCH   2   3
ENDBRANCH   1   2
END_RES LYS A 131
BEGIN_RES LYS A 135
REMARK  4 active torsions:
REMARK  status: ('A' for Active; 'I' for Inactive)
REMARK    5  A    between atoms: CA   and  CB  
REMARK    6  A    between atoms: CB   and  CG  
REMARK    7  A    between atoms: CG   and  CD  
REMARK    8  A    between atoms: CD   and  CE  
ROOT
ATOM      7  CA  LYS A 135      33.193  34.663   9.290  1.00 25.02     0.186 C 
ENDROOT
BRANCH   7   8
ATOM      8  CB  LYS A 135      32.060  35.360  10.034  1.00 26.63     0.034 C 
BRANCH   8   9
ATOM      9  CG  LYS A 135      30.804  35.511   9.215  1.00 29.45     0.005 C 
BRANCH   9  10
ATOM     10  CD  LYS A 135      30.083  34.178   9.089  1.00 32.00     0.041 C 
BRANCH  10  11
ATOM     11  CE  LYS A 135      28.632  34.392   8.703  1.00 34.25     0.338 C 
ATOM     12  NZ  LYS A 135      27.721  33.614   9.588  1.00 35.99     0.618 N 
ENDBRANCH  10  11
ENDBRANCH   9  10
ENDBRANCH   8   9
ENDBRANCH   7   8
END_RES LYS A 135
