REMARK VINA RESULT:    -3.980      3.854     10.364
REMARK INTER + INTRA:         -22.729
REMARK INTER:                 -11.349
REMARK INTRA:                 -11.380
REMARK UNBOUND:               -12.699
REMARK SMILES CC(=O)N[C@@H]1[C@@H](O)C[C@](OC[C@H]2O[C@@H](O[C@H]3[C@H](O)[C@@H](O)[C@H](OCCN=[N+]=[N-])O[C@@H]3CO)[C@H](O)[C@@H](O)[C@H]2O)(C(=O)O)O[C@H]1C(O)[C@H](O)CNC(=O)OCc1cn(Cc2ccc(Br)cc2)nn1
REMARK SMILES IDX 9 1 8 2 6 3 5 4 42 5 41 6 10 7 11 8 12 9 14 10 13 11 32 12
REMARK SMILES IDX 34 13 36 14 15 15 16 16 29 17 28 18 21 19 17 20 19 21 30 22
REMARK SMILES IDX 31 23 22 25 23 26 24 27 25 28 26 29 27 30 18 31 20 33 33 35
REMARK SMILES IDX 35 37 37 39 38 41 39 42 40 43 7 45 43 47 44 48 45 50 46 51
REMARK SMILES IDX 47 53 48 54 49 55 50 57 51 58 52 59 53 60 54 61 65 62 55 63
REMARK SMILES IDX 64 64 56 65 57 66 58 67 63 68 59 69 62 70 60 71 61 72 4 73
REMARK SMILES IDX 2 74 1 76 3 77
REMARK H PARENT 31 24 18 32 20 34 33 36 35 38 37 40 40 44 7 46 44 49 46 52
REMARK H PARENT 48 56 4 75
REMARK Flexibility Score: inf
ROOT
ATOM      1  C   UNL     1      21.639  37.774   9.948  1.00  0.00     0.272 C 
ATOM      2  C   UNL     1      21.426  36.330   9.670  1.00  0.00     0.113 C 
ATOM      3  C   UNL     1      22.557  35.397   9.854  1.00  0.00     0.145 C 
ATOM      4  C   UNL     1      23.948  36.086   9.845  1.00  0.00     0.142 C 
ATOM      5  C   UNL     1      23.711  37.272   8.951  1.00  0.00     0.178 C 
ATOM      6  O   UNL     1      22.983  38.157   9.796  1.00  0.00    -0.332 OA
ENDROOT
BRANCH   1   7
ATOM      7  O   UNL     1      21.037  38.366  10.974  1.00  0.00    -0.338 OA
BRANCH   7   8
ATOM      8  C   UNL     1      20.377  38.012  12.010  1.00  0.00     0.199 C 
BRANCH   8   9
ATOM      9  C   UNL     1      21.184  37.608  13.221  1.00  0.00     0.179 C 
ATOM     10  C   UNL     1      22.739  36.172  14.038  1.00  0.00     0.282 C 
ATOM     11  O   UNL     1      21.856  36.427  13.048  1.00  0.00    -0.341 OA
ATOM     12  C   UNL     1      22.631  37.031  15.284  1.00  0.00     0.202 C 
ATOM     13  C   UNL     1      22.575  38.504  14.944  1.00  0.00     0.179 C 
ATOM     14  C   UNL     1      22.255  38.683  13.467  1.00  0.00     0.177 C 
BRANCH  10  15
ATOM     15  O   UNL     1      24.053  36.102  13.715  1.00  0.00    -0.341 OA
BRANCH  15  16
ATOM     16  C   UNL     1      24.808  35.004  13.857  1.00  0.00     0.184 C 
ATOM     17  C   UNL     1      24.136  33.786  14.402  1.00  0.00     0.178 C 
ATOM     18  O   UNL     1      24.615  33.381  15.617  1.00  0.00    -0.341 OA
ATOM     19  C   UNL     1      25.957  33.029  15.618  1.00  0.00     0.281 C 
ATOM     20  C   UNL     1      26.008  35.328  14.722  1.00  0.00     0.180 C 
ATOM     21  C   UNL     1      26.805  34.060  14.901  1.00  0.00     0.202 C 
BRANCH  17  22
ATOM     22  C   UNL     1      24.192  32.682  13.373  1.00  0.00     0.191 C 
BRANCH  22  23
ATOM     23  O   UNL     1      23.002  31.926  13.365  1.00  0.00    -0.394 OA
ATOM     24  H   UNL     1      23.186  30.978  13.239  1.00  0.00     0.210 HD
ENDBRANCH  22  23
ENDBRANCH  17  22
BRANCH  19  25
ATOM     25  O   UNL     1      26.209  31.754  15.139  1.00  0.00    -0.350 OA
BRANCH  25  26
ATOM     26  C   UNL     1      26.607  30.837  16.076  1.00  0.00     0.169 C 
BRANCH  26  27
ATOM     27  C   UNL     1      25.655  29.691  16.254  1.00  0.00     0.119 C 
BRANCH  27  28
ATOM     28  N   UNL     1      24.345  30.043  15.721  1.00  0.00    -0.092 NA
ATOM     29  N   UNL     1      23.808  29.320  14.884  1.00  0.00     0.001 N 
ATOM     30  N   UNL     1      23.254  28.806  13.885  1.00  0.00    -0.003 NA
ENDBRANCH  27  28
ENDBRANCH  26  27
ENDBRANCH  25  26
ENDBRANCH  19  25
BRANCH  20  31
ATOM     31  O   UNL     1      26.810  36.216  13.977  1.00  0.00    -0.387 OA
ATOM     32  H   UNL     1      27.409  35.700  13.369  1.00  0.00     0.211 HD
ENDBRANCH  20  31
BRANCH  21  33
ATOM     33  O   UNL     1      28.011  34.285  15.555  1.00  0.00    -0.385 OA
ATOM     34  H   UNL     1      27.837  34.202  16.527  1.00  0.00     0.211 HD
ENDBRANCH  21  33
ENDBRANCH  15  16
ENDBRANCH  10  15
BRANCH  12  35
ATOM     35  O   UNL     1      21.553  36.708  16.090  1.00  0.00    -0.385 OA
ATOM     36  H   UNL     1      21.430  37.298  16.869  1.00  0.00     0.211 HD
ENDBRANCH  12  35
BRANCH  13  37
ATOM     37  O   UNL     1      23.736  39.188  15.285  1.00  0.00    -0.387 OA
ATOM     38  H   UNL     1      24.361  38.523  15.665  1.00  0.00     0.211 HD
ENDBRANCH  13  37
BRANCH  14  39
ATOM     39  O   UNL     1      23.345  38.334  12.661  1.00  0.00    -0.387 OA
ATOM     40  H   UNL     1      23.157  38.570  11.732  1.00  0.00     0.211 HD
ENDBRANCH  14  39
ENDBRANCH   8   9
ENDBRANCH   7   8
ENDBRANCH   1   7
BRANCH   1  41
ATOM     41  C   UNL     1      20.992  38.499   8.756  1.00  0.00     0.364 C 
ATOM     42  O   UNL     1      19.870  38.141   8.404  1.00  0.00    -0.246 OA
BRANCH  41  43
ATOM     43  O   UNL     1      21.615  39.516   8.084  1.00  0.00    -0.477 OA
ATOM     44  H   UNL     1      21.822  39.409   7.078  1.00  0.00     0.296 HD
ENDBRANCH  41  43
ENDBRANCH   1  41
BRANCH   3  45
ATOM     45  O   UNL     1      22.456  34.503  10.908  1.00  0.00    -0.391 OA
ATOM     46  H   UNL     1      23.213  34.650  11.514  1.00  0.00     0.211 HD
ENDBRANCH   3  45
BRANCH   5  47
ATOM     47  C   UNL     1      24.897  37.975   8.406  1.00  0.00     0.176 C 
BRANCH  47  48
ATOM     48  O   UNL     1      24.771  38.306   7.098  1.00  0.00    -0.388 OA
ATOM     49  H   UNL     1      24.872  39.250   6.932  1.00  0.00     0.211 HD
ENDBRANCH  47  48
BRANCH  47  50
ATOM     50  C   UNL     1      25.588  38.981   9.227  1.00  0.00     0.165 C 
BRANCH  50  51
ATOM     51  O   UNL     1      25.025  40.261   9.102  1.00  0.00    -0.388 OA
ATOM     52  H   UNL     1      24.252  40.423   9.663  1.00  0.00     0.211 HD
ENDBRANCH  50  51
BRANCH  50  53
ATOM     53  C   UNL     1      27.062  39.041   9.238  1.00  0.00     0.154 C 
BRANCH  53  54
ATOM     54  N   UNL     1      27.706  38.319  10.322  1.00  0.00    -0.319 N 
ATOM     55  C   UNL     1      27.913  38.911  11.594  1.00  0.00     0.407 C 
ATOM     56  H   UNL     1      28.044  37.329  10.222  1.00  0.00     0.167 HD
ATOM     57  O   UNL     1      27.520  40.102  11.811  1.00  0.00    -0.225 OA
BRANCH  55  58
ATOM     58  O   UNL     1      28.540  38.259  12.652  1.00  0.00    -0.443 OA
BRANCH  58  59
ATOM     59  C   UNL     1      29.940  37.931  12.569  1.00  0.00     0.294 C 
BRANCH  59  60
ATOM     60  C   UNL     1      30.230  36.581  13.077  1.00  0.00     0.120 A 
ATOM     61  C   UNL     1      31.343  36.229  13.815  1.00  0.00     0.138 A 
ATOM     62  N   UNL     1      29.503  35.473  12.922  1.00  0.00    -0.132 NA
ATOM     63  N   UNL     1      31.259  34.921  14.087  1.00  0.00    -0.248 N 
ATOM     64  N   UNL     1      30.141  34.493  13.536  1.00  0.00    -0.067 NA
BRANCH  63  65
ATOM     65  C   UNL     1      32.175  34.096  14.850  1.00  0.00     0.181 C 
BRANCH  65  66
ATOM     66  C   UNL     1      31.510  33.240  15.857  1.00  0.00    -0.026 A 
ATOM     67  C   UNL     1      31.360  33.746  17.151  1.00  0.00     0.007 A 
ATOM     68  C   UNL     1      31.018  31.991  15.603  1.00  0.00     0.007 A 
ATOM     69  C   UNL     1      30.732  32.991  18.127  1.00  0.00     0.016 A 
ATOM     70  C   UNL     1      30.382  31.219  16.577  1.00  0.00     0.016 A 
ATOM     71  C   UNL     1      30.243  31.729  17.839  1.00  0.00     0.017 A 
ATOM     72  Br  UNL     1      29.372  30.710  19.220  1.00  0.00    -0.051 Br
ENDBRANCH  65  66
ENDBRANCH  63  65
ENDBRANCH  59  60
ENDBRANCH  58  59
ENDBRANCH  55  58
ENDBRANCH  53  54
ENDBRANCH  50  53
ENDBRANCH  47  50
ENDBRANCH   5  47
BRANCH   4  73
ATOM     73  N   UNL     1      24.936  35.155   9.439  1.00  0.00    -0.348 N 
ATOM     74  C   UNL     1      26.155  35.041  10.152  1.00  0.00     0.217 C 
ATOM     75  H   UNL     1      24.772  34.536   8.627  1.00  0.00     0.163 HD
ATOM     76  C   UNL     1      27.241  34.113   9.828  1.00  0.00     0.114 C 
ATOM     77  O   UNL     1      26.330  35.807  11.167  1.00  0.00    -0.275 OA
ENDBRANCH   4  73
TORSDOF 31
BEGIN_RES LYS A 131
REMARK  4 active torsions:
REMARK  status: ('A' for Active; 'I' for Inactive)
REMARK    1  A    between atoms: CA   and  CB  
REMARK    2  A    between atoms: CB   and  CG  
REMARK    3  A    between atoms: CG   and  CD  
REMARK    4  A    between atoms: CD   and  CE  
ROOT
ATOM      1  CA  LYS A 131      29.867  25.555  16.977  1.00 20.52     0.186 C 
ENDROOT
BRANCH   1   2
ATOM      2  CB  LYS A 131      28.345  25.722  17.026  1.00 20.94     0.034 C 
BRANCH   2   3
ATOM      3  CG  LYS A 131      27.602  24.400  16.915  1.00 22.96     0.005 C 
BRANCH   3   4
ATOM      4  CD  LYS A 131      26.552  24.249  17.981  1.00 24.33     0.041 C 
BRANCH   4   5
ATOM      5  CE  LYS A 131      25.176  24.524  17.383  1.00 26.91     0.338 C 
ATOM      6  NZ  LYS A 131      24.755  25.916  17.669  1.00 27.40     0.618 N 
ENDBRANCH   4   5
ENDBRANCH   3   4
ENDBRANCH   2   3
ENDBRANCH   1   2
END_RES LYS A 131
BEGIN_RES LYS A 135
REMARK  4 active torsions:
REMARK  status: ('A' for Active; 'I' for Inactive)
REMARK    5  A    between atoms: CA   and  CB  
REMARK    6  A    between atoms: CB   and  CG  
REMARK    7  A    between atoms: CG   and  CD  
REMARK    8  A    between atoms: CD   and  CE  
ROOT
ATOM      7  CA  LYS A 135      33.193  34.663   9.290  1.00 25.02     0.186 C 
ENDROOT
BRANCH   7   8
ATOM      8  CB  LYS A 135      32.060  35.360  10.034  1.00 26.63     0.034 C 
BRANCH   8   9
ATOM      9  CG  LYS A 135      30.688  34.926   9.586  1.00 29.45     0.005 C 
BRANCH   9  10
ATOM     10  CD  LYS A 135      30.718  34.467   8.136  1.00 32.00     0.041 C 
BRANCH  10  11
ATOM     11  CE  LYS A 135      29.591  35.109   7.351  1.00 34.25     0.338 C 
ATOM     12  NZ  LYS A 135      29.297  36.479   7.856  1.00 35.99     0.618 N 
ENDBRANCH  10  11
ENDBRANCH   9  10
ENDBRANCH   8   9
ENDBRANCH   7   8
END_RES LYS A 135
