REMARK VINA RESULT:    -3.918      3.088      9.166
REMARK INTER + INTRA:         -22.257
REMARK INTER:                 -11.898
REMARK INTRA:                 -10.358
REMARK UNBOUND:               -12.270
REMARK SMILES CC(=O)N[C@@H]1[C@@H](O)C[C@](OC[C@H]2O[C@@H](O[C@H]3[C@H](O)[C@@H](O)[C@H](OCCN=[N+]=[N-])O[C@@H]3CO)[C@H](O)[C@@H](O)[C@H]2O)(C(=O)O)O[C@H]1C(O)[C@H](O)CNC(=O)OCc1cn(-c2ccc(S(N)(=O)=O)cc2)nn1
REMARK SMILES IDX 9 1 8 2 6 3 5 4 42 5 41 6 10 7 11 8 12 9 14 10 13 11 32 12
REMARK SMILES IDX 34 13 36 14 15 15 16 16 29 17 28 18 21 19 17 20 19 21 30 22
REMARK SMILES IDX 31 23 22 25 23 26 24 27 25 28 26 29 27 30 18 31 20 33 33 35
REMARK SMILES IDX 35 37 37 39 38 41 39 42 40 43 7 45 43 47 44 48 45 50 46 51
REMARK SMILES IDX 47 53 48 54 49 55 50 57 51 58 52 59 53 60 54 61 67 62 55 63
REMARK SMILES IDX 66 64 56 65 57 66 65 67 58 68 64 69 59 70 60 71 62 72 63 73
REMARK SMILES IDX 61 74 4 77 2 78 1 80 3 81
REMARK H PARENT 31 24 18 32 20 34 33 36 35 38 37 40 40 44 7 46 44 49 46 52
REMARK H PARENT 48 56 61 75 61 76 4 79
REMARK Flexibility Score: inf
ROOT
ATOM      1  C   UNL     1      29.290  32.889  15.581  1.00  0.00     0.272 C 
ATOM      2  C   UNL     1      29.957  31.506  15.526  1.00  0.00     0.113 C 
ATOM      3  C   UNL     1      29.596  30.662  16.697  1.00  0.00     0.145 C 
ATOM      4  C   UNL     1      29.565  31.521  17.935  1.00  0.00     0.142 C 
ATOM      5  C   UNL     1      30.426  32.744  17.596  1.00  0.00     0.178 C 
ATOM      6  O   UNL     1      29.645  33.525  16.747  1.00  0.00    -0.332 OA
ENDROOT
BRANCH   1   7
ATOM      7  O   UNL     1      27.928  32.650  15.447  1.00  0.00    -0.338 OA
BRANCH   7   8
ATOM      8  C   UNL     1      27.135  33.406  16.264  1.00  0.00     0.199 C 
BRANCH   8   9
ATOM      9  C   UNL     1      25.672  33.100  15.898  1.00  0.00     0.179 C 
ATOM     10  C   UNL     1      24.492  32.551  13.955  1.00  0.00     0.282 C 
ATOM     11  O   UNL     1      25.557  33.290  14.558  1.00  0.00    -0.341 OA
ATOM     12  C   UNL     1      24.929  31.123  14.108  1.00  0.00     0.202 C 
ATOM     13  C   UNL     1      24.858  30.719  15.576  1.00  0.00     0.179 C 
ATOM     14  C   UNL     1      25.174  31.845  16.490  1.00  0.00     0.177 C 
BRANCH  10  15
ATOM     15  O   UNL     1      24.436  32.924  12.657  1.00  0.00    -0.341 OA
BRANCH  15  16
ATOM     16  C   UNL     1      24.533  34.322  12.429  1.00  0.00     0.184 C 
ATOM     17  C   UNL     1      23.232  34.799  11.970  1.00  0.00     0.178 C 
ATOM     18  O   UNL     1      23.227  35.738  10.959  1.00  0.00    -0.341 OA
ATOM     19  C   UNL     1      24.348  36.509  10.828  1.00  0.00     0.281 C 
ATOM     20  C   UNL     1      25.700  34.594  11.507  1.00  0.00     0.180 C 
ATOM     21  C   UNL     1      25.483  35.598  10.444  1.00  0.00     0.202 C 
BRANCH  17  22
ATOM     22  C   UNL     1      22.351  35.356  13.069  1.00  0.00     0.191 C 
BRANCH  22  23
ATOM     23  O   UNL     1      23.120  35.965  14.051  1.00  0.00    -0.394 OA
ATOM     24  H   UNL     1      22.870  36.913  14.184  1.00  0.00     0.210 HD
ENDBRANCH  22  23
ENDBRANCH  17  22
BRANCH  19  25
ATOM     25  O   UNL     1      24.652  37.320  11.895  1.00  0.00    -0.350 OA
BRANCH  25  26
ATOM     26  C   UNL     1      24.491  38.655  11.544  1.00  0.00     0.169 C 
BRANCH  26  27
ATOM     27  C   UNL     1      23.102  39.093  11.999  1.00  0.00     0.119 C 
BRANCH  27  28
ATOM     28  N   UNL     1      23.020  38.920  13.422  1.00  0.00    -0.092 NA
ATOM     29  N   UNL     1      23.685  39.623  14.216  1.00  0.00     0.001 N 
ATOM     30  N   UNL     1      24.656  39.823  14.966  1.00  0.00    -0.003 NA
ENDBRANCH  27  28
ENDBRANCH  26  27
ENDBRANCH  25  26
ENDBRANCH  19  25
BRANCH  20  31
ATOM     31  O   UNL     1      26.833  34.976  12.231  1.00  0.00    -0.387 OA
ATOM     32  H   UNL     1      27.010  35.932  12.073  1.00  0.00     0.211 HD
ENDBRANCH  20  31
BRANCH  21  33
ATOM     33  O   UNL     1      25.245  35.057   9.186  1.00  0.00    -0.385 OA
ATOM     34  H   UNL     1      24.906  35.836   8.637  1.00  0.00     0.211 HD
ENDBRANCH  21  33
ENDBRANCH  15  16
ENDBRANCH  10  15
BRANCH  12  35
ATOM     35  O   UNL     1      24.322  30.229  13.276  1.00  0.00    -0.385 OA
ATOM     36  H   UNL     1      24.349  30.450  12.326  1.00  0.00     0.211 HD
ENDBRANCH  12  35
BRANCH  13  37
ATOM     37  O   UNL     1      25.561  29.550  15.814  1.00  0.00    -0.387 OA
ATOM     38  H   UNL     1      25.013  28.747  15.933  1.00  0.00     0.211 HD
ENDBRANCH  13  37
BRANCH  14  39
ATOM     39  O   UNL     1      26.164  31.382  17.393  1.00  0.00    -0.387 OA
ATOM     40  H   UNL     1      26.171  32.056  18.133  1.00  0.00     0.211 HD
ENDBRANCH  14  39
ENDBRANCH   8   9
ENDBRANCH   7   8
ENDBRANCH   1   7
BRANCH   1  41
ATOM     41  C   UNL     1      29.824  33.595  14.357  1.00  0.00     0.364 C 
ATOM     42  O   UNL     1      29.062  34.242  13.598  1.00  0.00    -0.246 OA
BRANCH  41  43
ATOM     43  O   UNL     1      31.167  33.555  14.035  1.00  0.00    -0.477 OA
ATOM     44  H   UNL     1      31.639  32.664  14.075  1.00  0.00     0.296 HD
ENDBRANCH  41  43
ENDBRANCH   1  41
BRANCH   3  45
ATOM     45  O   UNL     1      28.383  30.029  16.434  1.00  0.00    -0.391 OA
ATOM     46  H   UNL     1      27.784  30.659  15.970  1.00  0.00     0.211 HD
ENDBRANCH   3  45
BRANCH   5  47
ATOM     47  C   UNL     1      30.746  33.536  18.836  1.00  0.00     0.176 C 
BRANCH  47  48
ATOM     48  O   UNL     1      31.698  32.955  19.648  1.00  0.00    -0.388 OA
ATOM     49  H   UNL     1      31.307  32.365  20.341  1.00  0.00     0.211 HD
ENDBRANCH  47  48
BRANCH  47  50
ATOM     50  C   UNL     1      31.176  34.937  18.467  1.00  0.00     0.165 C 
BRANCH  50  51
ATOM     51  O   UNL     1      30.046  35.748  18.230  1.00  0.00    -0.388 OA
ATOM     52  H   UNL     1      29.222  35.183  18.189  1.00  0.00     0.211 HD
ENDBRANCH  50  51
BRANCH  50  53
ATOM     53  C   UNL     1      32.077  34.952  17.258  1.00  0.00     0.154 C 
BRANCH  53  54
ATOM     54  N   UNL     1      31.658  35.932  16.284  1.00  0.00    -0.319 N 
ATOM     55  C   UNL     1      32.410  36.108  15.094  1.00  0.00     0.407 C 
ATOM     56  H   UNL     1      30.816  36.525  16.418  1.00  0.00     0.167 HD
ATOM     57  O   UNL     1      33.441  35.396  14.918  1.00  0.00    -0.225 OA
BRANCH  55  58
ATOM     58  O   UNL     1      32.091  37.016  14.099  1.00  0.00    -0.443 OA
BRANCH  58  59
ATOM     59  C   UNL     1      31.138  38.036  14.281  1.00  0.00     0.294 C 
BRANCH  59  60
ATOM     60  C   UNL     1      30.086  37.907  13.238  1.00  0.00     0.121 A 
ATOM     61  C   UNL     1      30.185  38.346  11.912  1.00  0.00     0.144 A 
ATOM     62  N   UNL     1      28.856  37.370  13.316  1.00  0.00    -0.131 NA
ATOM     63  N   UNL     1      29.030  38.060  11.263  1.00  0.00    -0.220 N 
ATOM     64  N   UNL     1      28.252  37.476  12.124  1.00  0.00    -0.062 NA
BRANCH  63  65
ATOM     65  C   UNL     1      28.726  38.348   9.893  1.00  0.00     0.066 A 
ATOM     66  C   UNL     1      29.650  38.947   9.068  1.00  0.00     0.030 A 
ATOM     67  C   UNL     1      27.497  38.031   9.357  1.00  0.00     0.030 A 
ATOM     68  C   UNL     1      29.351  39.224   7.735  1.00  0.00     0.024 A 
ATOM     69  C   UNL     1      27.189  38.303   8.026  1.00  0.00     0.024 A 
ATOM     70  C   UNL     1      28.119  38.905   7.202  1.00  0.00     0.082 A 
BRANCH  70  71
ATOM     71  S   UNL     1      27.772  39.267   5.511  1.00  0.00     0.238 S 
ATOM     72  O   UNL     1      26.491  40.053   5.379  1.00  0.00    -0.207 OA
ATOM     73  O   UNL     1      28.867  40.102   4.921  1.00  0.00    -0.207 OA
BRANCH  71  74
ATOM     74  N   UNL     1      27.636  37.808   4.581  1.00  0.00    -0.225 NA
ATOM     75  H   UNL     1      26.664  37.793   4.160  1.00  0.00     0.137 HD
ATOM     76  H   UNL     1      27.795  36.951   5.162  1.00  0.00     0.137 HD
ENDBRANCH  71  74
ENDBRANCH  70  71
ENDBRANCH  63  65
ENDBRANCH  59  60
ENDBRANCH  58  59
ENDBRANCH  55  58
ENDBRANCH  53  54
ENDBRANCH  50  53
ENDBRANCH  47  50
ENDBRANCH   5  47
BRANCH   4  77
ATOM     77  N   UNL     1      30.046  30.869  19.124  1.00  0.00    -0.348 N 
ATOM     78  C   UNL     1      29.186  30.047  19.881  1.00  0.00     0.217 C 
ATOM     79  H   UNL     1      31.026  30.991  19.440  1.00  0.00     0.163 HD
ATOM     80  C   UNL     1      29.718  29.393  21.102  1.00  0.00     0.114 C 
ATOM     81  O   UNL     1      27.989  29.844  19.569  1.00  0.00    -0.275 OA
ENDBRANCH   4  77
TORSDOF 32
BEGIN_RES LYS A 131
REMARK  4 active torsions:
REMARK  status: ('A' for Active; 'I' for Inactive)
REMARK    1  A    between atoms: CA   and  CB  
REMARK    2  A    between atoms: CB   and  CG  
REMARK    3  A    between atoms: CG   and  CD  
REMARK    4  A    between atoms: CD   and  CE  
ROOT
ATOM      1  CA  LYS A 131      29.867  25.555  16.977  1.00 20.52     0.186 C 
ENDROOT
BRANCH   1   2
ATOM      2  CB  LYS A 131      28.345  25.722  17.026  1.00 20.94     0.034 C 
BRANCH   2   3
ATOM      3  CG  LYS A 131      27.602  24.398  16.931  1.00 22.96     0.005 C 
BRANCH   3   4
ATOM      4  CD  LYS A 131      26.149  24.537  17.289  1.00 24.33     0.041 C 
BRANCH   4   5
ATOM      5  CE  LYS A 131      25.993  25.586  18.386  1.00 26.91     0.338 C 
ATOM      6  NZ  LYS A 131      25.004  26.614  17.985  1.00 27.40     0.618 N 
ENDBRANCH   4   5
ENDBRANCH   3   4
ENDBRANCH   2   3
ENDBRANCH   1   2
END_RES LYS A 131
BEGIN_RES LYS A 135
REMARK  4 active torsions:
REMARK  status: ('A' for Active; 'I' for Inactive)
REMARK    5  A    between atoms: CA   and  CB  
REMARK    6  A    between atoms: CB   and  CG  
REMARK    7  A    between atoms: CG   and  CD  
REMARK    8  A    between atoms: CD   and  CE  
ROOT
ATOM      7  CA  LYS A 135      33.193  34.663   9.290  1.00 25.02     0.186 C 
ENDROOT
BRANCH   7   8
ATOM      8  CB  LYS A 135      32.060  35.360  10.034  1.00 26.63     0.034 C 
BRANCH   8   9
ATOM      9  CG  LYS A 135      30.761  35.382   9.270  1.00 29.45     0.005 C 
BRANCH   9  10
ATOM     10  CD  LYS A 135      29.694  34.583  10.002  1.00 32.00     0.041 C 
BRANCH  10  11
ATOM     11  CE  LYS A 135      28.597  34.158   9.045  1.00 34.25     0.338 C 
ATOM     12  NZ  LYS A 135      28.657  34.939   7.779  1.00 35.99     0.618 N 
ENDBRANCH  10  11
ENDBRANCH   9  10
ENDBRANCH   8   9
ENDBRANCH   7   8
END_RES LYS A 135
