REMARK VINA RESULT:    -4.585      3.413      7.347
REMARK INTER + INTRA:         -21.572
REMARK INTER:                 -12.428
REMARK INTRA:                  -9.144
REMARK UNBOUND:               -10.018
REMARK SMILES COc1ccc(-n2cc(COC(=O)NC[C@@H](O)C(O)[C@@H]3O[C@@](OC[C@H]4O[C@@H](O[C@H]5[C@H](O)[C@@H](O)[C@H](OCCN=[N+]=[N-])O[C@@H]5CO)[C@H](O)[C@@H](O)[C@H]4O)(C(=O)O)C[C@H](O)[C@H]3NC(C)=O)nn2)cc1
REMARK SMILES IDX 22 1 54 2 55 3 57 4 20 5 21 6 23 7 24 8 25 9 27 10 26 11
REMARK SMILES IDX 45 12 47 13 49 14 28 15 29 16 42 17 41 18 34 19 30 20 32 21
REMARK SMILES IDX 43 22 44 23 35 25 36 26 37 27 38 28 39 29 40 30 31 31 33 33
REMARK SMILES IDX 46 35 48 37 50 39 51 41 52 42 53 43 56 45 18 47 19 48 16 50
REMARK SMILES IDX 17 51 15 53 14 54 12 55 13 57 11 58 10 59 9 60 8 61 62 62
REMARK SMILES IDX 7 63 63 64 6 65 5 66 64 67 4 68 65 69 3 70 2 71 1 72 58 73
REMARK SMILES IDX 59 74 60 76 61 77
REMARK H PARENT 44 24 31 32 33 34 46 36 48 38 50 40 53 44 56 46 19 49 17 52
REMARK H PARENT 14 56 58 75
REMARK Flexibility Score: inf
ROOT
ATOM      1  C   UNL     1      27.957  41.803   7.825  1.00  0.00     0.272 C 
ATOM      2  C   UNL     1      27.139  41.466   6.634  1.00  0.00     0.113 C 
ATOM      3  C   UNL     1      27.093  40.046   6.228  1.00  0.00     0.145 C 
ATOM      4  C   UNL     1      28.346  39.348   6.795  1.00  0.00     0.142 C 
ATOM      5  C   UNL     1      29.462  40.329   6.718  1.00  0.00     0.178 C 
ATOM      6  O   UNL     1      29.254  41.268   7.727  1.00  0.00    -0.332 OA
ENDROOT
BRANCH   1   7
ATOM      7  O   UNL     1      27.558  41.706   9.054  1.00  0.00    -0.338 OA
BRANCH   7   8
ATOM      8  C   UNL     1      26.508  41.531   9.764  1.00  0.00     0.199 C 
BRANCH   8   9
ATOM      9  C   UNL     1      26.044  40.200  10.283  1.00  0.00     0.179 C 
ATOM     10  C   UNL     1      25.102  38.171   9.813  1.00  0.00     0.282 C 
ATOM     11  O   UNL     1      25.678  39.346   9.299  1.00  0.00    -0.341 OA
ATOM     12  C   UNL     1      26.010  37.396  10.714  1.00  0.00     0.202 C 
ATOM     13  C   UNL     1      27.157  38.148  11.277  1.00  0.00     0.179 C 
ATOM     14  C   UNL     1      27.008  39.615  11.286  1.00  0.00     0.177 C 
BRANCH  10  15
ATOM     15  O   UNL     1      24.754  37.380   8.723  1.00  0.00    -0.341 OA
BRANCH  15  16
ATOM     16  C   UNL     1      23.413  37.114   8.658  1.00  0.00     0.184 C 
ATOM     17  C   UNL     1      22.574  38.290   9.000  1.00  0.00     0.178 C 
ATOM     18  O   UNL     1      21.198  37.938   9.017  1.00  0.00    -0.341 OA
ATOM     19  C   UNL     1      21.038  37.122  10.167  1.00  0.00     0.281 C 
ATOM     20  C   UNL     1      23.109  35.967   9.637  1.00  0.00     0.180 C 
ATOM     21  C   UNL     1      21.619  35.774   9.735  1.00  0.00     0.202 C 
BRANCH  17  22
ATOM     22  C   UNL     1      22.775  39.429   8.035  1.00  0.00     0.191 C 
BRANCH  22  23
ATOM     23  O   UNL     1      23.298  38.934   6.853  1.00  0.00    -0.394 OA
ATOM     24  H   UNL     1      22.952  38.043   6.624  1.00  0.00     0.210 HD
ENDBRANCH  22  23
ENDBRANCH  17  22
BRANCH  19  25
ATOM     25  O   UNL     1      19.741  37.028  10.532  1.00  0.00    -0.350 OA
BRANCH  25  26
ATOM     26  C   UNL     1      18.760  37.368   9.654  1.00  0.00     0.169 C 
BRANCH  26  27
ATOM     27  C   UNL     1      17.650  36.395   9.447  1.00  0.00     0.119 C 
BRANCH  27  28
ATOM     28  N   UNL     1      18.019  35.138   8.869  1.00  0.00    -0.092 NA
ATOM     29  N   UNL     1      18.261  34.160   9.568  1.00  0.00     0.001 N 
ATOM     30  N   UNL     1      18.592  33.298  10.388  1.00  0.00    -0.003 NA
ENDBRANCH  27  28
ENDBRANCH  26  27
ENDBRANCH  25  26
ENDBRANCH  19  25
BRANCH  20  31
ATOM     31  O   UNL     1      23.755  34.826   9.198  1.00  0.00    -0.387 OA
ATOM     32  H   UNL     1      24.398  35.114   8.478  1.00  0.00     0.211 HD
ENDBRANCH  20  31
BRANCH  21  33
ATOM     33  O   UNL     1      21.315  34.850  10.709  1.00  0.00    -0.385 OA
ATOM     34  H   UNL     1      20.345  34.832  10.903  1.00  0.00     0.211 HD
ENDBRANCH  21  33
ENDBRANCH  15  16
ENDBRANCH  10  15
BRANCH  12  35
ATOM     35  O   UNL     1      25.311  36.850  11.803  1.00  0.00    -0.385 OA
ATOM     36  H   UNL     1      24.507  37.375  12.014  1.00  0.00     0.211 HD
ENDBRANCH  12  35
BRANCH  13  37
ATOM     37  O   UNL     1      28.353  37.711  10.694  1.00  0.00    -0.387 OA
ATOM     38  H   UNL     1      29.010  37.396  11.347  1.00  0.00     0.211 HD
ENDBRANCH  13  37
BRANCH  14  39
ATOM     39  O   UNL     1      28.274  40.197  11.184  1.00  0.00    -0.387 OA
ATOM     40  H   UNL     1      28.157  41.168  11.341  1.00  0.00     0.211 HD
ENDBRANCH  14  39
ENDBRANCH   8   9
ENDBRANCH   7   8
ENDBRANCH   1   7
BRANCH   1  41
ATOM     41  C   UNL     1      28.269  43.316   7.597  1.00  0.00     0.364 C 
ATOM     42  O   UNL     1      27.360  44.108   7.335  1.00  0.00    -0.246 OA
BRANCH  41  43
ATOM     43  O   UNL     1      29.586  43.685   7.707  1.00  0.00    -0.477 OA
ATOM     44  H   UNL     1      29.886  44.443   8.337  1.00  0.00     0.296 HD
ENDBRANCH  41  43
ENDBRANCH   1  41
BRANCH   3  45
ATOM     45  O   UNL     1      25.947  39.358   6.501  1.00  0.00    -0.391 OA
ATOM     46  H   UNL     1      26.057  38.502   6.971  1.00  0.00     0.211 HD
ENDBRANCH   3  45
BRANCH   5  47
ATOM     47  C   UNL     1      30.844  39.711   7.037  1.00  0.00     0.176 C 
BRANCH  47  48
ATOM     48  O   UNL     1      31.479  39.326   5.896  1.00  0.00    -0.388 OA
ATOM     49  H   UNL     1      31.684  38.363   5.942  1.00  0.00     0.211 HD
ENDBRANCH  47  48
BRANCH  47  50
ATOM     50  C   UNL     1      31.523  40.392   8.111  1.00  0.00     0.165 C 
BRANCH  50  51
ATOM     51  O   UNL     1      32.076  41.664   7.795  1.00  0.00    -0.388 OA
ATOM     52  H   UNL     1      31.648  42.293   8.409  1.00  0.00     0.211 HD
ENDBRANCH  50  51
BRANCH  50  53
ATOM     53  C   UNL     1      32.520  39.770   8.998  1.00  0.00     0.154 C 
BRANCH  53  54
ATOM     54  N   UNL     1      32.143  38.703   9.810  1.00  0.00    -0.319 N 
ATOM     55  C   UNL     1      31.566  38.779  11.086  1.00  0.00     0.407 C 
ATOM     56  H   UNL     1      32.305  37.706   9.434  1.00  0.00     0.167 HD
ATOM     57  O   UNL     1      31.307  39.865  11.629  1.00  0.00    -0.225 OA
BRANCH  55  58
ATOM     58  O   UNL     1      31.268  37.583  11.779  1.00  0.00    -0.443 OA
BRANCH  58  59
ATOM     59  C   UNL     1      32.350  36.762  12.141  1.00  0.00     0.294 C 
BRANCH  59  60
ATOM     60  C   UNL     1      32.086  36.138  13.460  1.00  0.00     0.121 A 
ATOM     61  C   UNL     1      31.652  34.862  13.766  1.00  0.00     0.144 A 
ATOM     62  N   UNL     1      32.261  36.766  14.639  1.00  0.00    -0.131 NA
ATOM     63  N   UNL     1      31.582  34.770  15.099  1.00  0.00    -0.220 N 
ATOM     64  N   UNL     1      31.958  35.946  15.610  1.00  0.00    -0.062 NA
BRANCH  63  65
ATOM     65  C   UNL     1      31.209  33.700  15.953  1.00  0.00     0.067 A 
ATOM     66  C   UNL     1      30.869  32.448  15.515  1.00  0.00     0.032 A 
ATOM     67  C   UNL     1      31.170  33.924  17.328  1.00  0.00     0.032 A 
ATOM     68  C   UNL     1      30.502  31.449  16.405  1.00  0.00     0.048 A 
ATOM     69  C   UNL     1      30.804  32.929  18.215  1.00  0.00     0.048 A 
ATOM     70  C   UNL     1      30.463  31.670  17.770  1.00  0.00     0.119 A 
BRANCH  70  71
ATOM     71  O   UNL     1      30.088  30.647  18.662  1.00  0.00    -0.497 OA
ATOM     72  C   UNL     1      30.777  30.598  19.920  1.00  0.00     0.278 C 
ENDBRANCH  70  71
ENDBRANCH  63  65
ENDBRANCH  59  60
ENDBRANCH  58  59
ENDBRANCH  55  58
ENDBRANCH  53  54
ENDBRANCH  50  53
ENDBRANCH  47  50
ENDBRANCH   5  47
BRANCH   4  73
ATOM     73  N   UNL     1      28.510  38.088   6.126  1.00  0.00    -0.348 N 
ATOM     74  C   UNL     1      28.269  36.861   6.797  1.00  0.00     0.217 C 
ATOM     75  H   UNL     1      28.779  38.073   5.127  1.00  0.00     0.163 HD
ATOM     76  C   UNL     1      28.447  35.570   6.082  1.00  0.00     0.114 C 
ATOM     77  O   UNL     1      27.902  36.804   8.000  1.00  0.00    -0.275 OA
ENDBRANCH   4  73
TORSDOF 31
BEGIN_RES LYS A 131
REMARK  4 active torsions:
REMARK  status: ('A' for Active; 'I' for Inactive)
REMARK    1  A    between atoms: CA   and  CB  
REMARK    2  A    between atoms: CB   and  CG  
REMARK    3  A    between atoms: CG   and  CD  
REMARK    4  A    between atoms: CD   and  CE  
ROOT
ATOM      1  CA  LYS A 131      29.867  25.555  16.977  1.00 20.52     0.186 C 
ENDROOT
BRANCH   1   2
ATOM      2  CB  LYS A 131      28.345  25.722  17.026  1.00 20.94     0.034 C 
BRANCH   2   3
ATOM      3  CG  LYS A 131      27.601  24.401  16.903  1.00 22.96     0.005 C 
BRANCH   3   4
ATOM      4  CD  LYS A 131      26.529  24.255  17.946  1.00 24.33     0.041 C 
BRANCH   4   5
ATOM      5  CE  LYS A 131      26.289  25.602  18.622  1.00 26.91     0.338 C 
ATOM      6  NZ  LYS A 131      25.001  26.183  18.177  1.00 27.40     0.618 N 
ENDBRANCH   4   5
ENDBRANCH   3   4
ENDBRANCH   2   3
ENDBRANCH   1   2
END_RES LYS A 131
BEGIN_RES LYS A 135
REMARK  4 active torsions:
REMARK  status: ('A' for Active; 'I' for Inactive)
REMARK    5  A    between atoms: CA   and  CB  
REMARK    6  A    between atoms: CB   and  CG  
REMARK    7  A    between atoms: CG   and  CD  
REMARK    8  A    between atoms: CD   and  CE  
ROOT
ATOM      7  CA  LYS A 135      33.193  34.663   9.290  1.00 25.02     0.186 C 
ENDROOT
BRANCH   7   8
ATOM      8  CB  LYS A 135      32.060  35.360  10.034  1.00 26.63     0.034 C 
BRANCH   8   9
ATOM      9  CG  LYS A 135      30.789  35.469   9.231  1.00 29.45     0.005 C 
BRANCH   9  10
ATOM     10  CD  LYS A 135      30.027  34.153   9.251  1.00 32.00     0.041 C 
BRANCH  10  11
ATOM     11  CE  LYS A 135      28.805  34.259  10.143  1.00 34.25     0.338 C 
ATOM     12  NZ  LYS A 135      27.585  33.774   9.441  1.00 35.99     0.618 N 
ENDBRANCH  10  11
ENDBRANCH   9  10
ENDBRANCH   8   9
ENDBRANCH   7   8
END_RES LYS A 135
