REMARK VINA RESULT:    -4.317      2.648      8.352
REMARK INTER + INTRA:         -21.290
REMARK INTER:                 -12.738
REMARK INTRA:                  -8.553
REMARK UNBOUND:               -10.664
REMARK SMILES CC(=O)N[C@@H]1[C@@H](O)C[C@](OC[C@H]2O[C@@H](O[C@H]3[C@H](O)[C@@H](O)[C@H](OCCN=[N+]=[N-])O[C@@H]3CO)[C@H](O)[C@@H](O)[C@H]2O)(C(=O)O)O[C@H]1C(O)[C@H](O)CNC(=O)OCc1cn(-c2ccc(Br)cc2)nn1
REMARK SMILES IDX 9 1 8 2 6 3 5 4 42 5 41 6 10 7 11 8 12 9 14 10 13 11 32 12
REMARK SMILES IDX 34 13 36 14 15 15 16 16 29 17 28 18 21 19 17 20 19 21 30 22
REMARK SMILES IDX 31 23 22 25 23 26 24 27 25 28 26 29 27 30 18 31 20 33 33 35
REMARK SMILES IDX 35 37 37 39 38 41 39 42 40 43 7 45 43 47 44 48 45 50 46 51
REMARK SMILES IDX 47 53 48 54 49 55 50 57 51 58 52 59 53 60 54 61 64 62 55 63
REMARK SMILES IDX 63 64 56 65 57 66 62 67 58 68 61 69 59 70 60 71 4 72 2 73
REMARK SMILES IDX 1 75 3 76
REMARK H PARENT 31 24 18 32 20 34 33 36 35 38 37 40 40 44 7 46 44 49 46 52
REMARK H PARENT 48 56 4 74
REMARK Flexibility Score: inf
ROOT
ATOM      1  C   UNL     1      30.351  30.596  20.199  1.00  0.00     0.272 C 
ATOM      2  C   UNL     1      31.184  31.723  20.869  1.00  0.00     0.113 C 
ATOM      3  C   UNL     1      31.545  31.272  22.235  1.00  0.00     0.145 C 
ATOM      4  C   UNL     1      32.323  29.949  22.079  1.00  0.00     0.142 C 
ATOM      5  C   UNL     1      31.297  28.962  21.575  1.00  0.00     0.178 C 
ATOM      6  O   UNL     1      30.965  29.381  20.306  1.00  0.00    -0.332 OA
ENDROOT
BRANCH   1   7
ATOM      7  O   UNL     1      30.359  30.980  18.854  1.00  0.00    -0.338 OA
BRANCH   7   8
ATOM      8  C   UNL     1      30.379  32.321  18.619  1.00  0.00     0.199 C 
BRANCH   8   9
ATOM      9  C   UNL     1      29.127  32.640  17.777  1.00  0.00     0.179 C 
ATOM     10  C   UNL     1      28.658  33.612  15.717  1.00  0.00     0.282 C 
ATOM     11  O   UNL     1      29.369  33.651  16.892  1.00  0.00    -0.341 OA
ATOM     12  C   UNL     1      27.394  32.857  15.789  1.00  0.00     0.202 C 
ATOM     13  C   UNL     1      27.472  31.495  16.402  1.00  0.00     0.179 C 
ATOM     14  C   UNL     1      28.789  31.328  17.087  1.00  0.00     0.177 C 
BRANCH  10  15
ATOM     15  O   UNL     1      29.559  33.230  14.723  1.00  0.00    -0.341 OA
BRANCH  15  16
ATOM     16  C   UNL     1      30.466  34.232  14.431  1.00  0.00     0.184 C 
ATOM     17  C   UNL     1      30.425  34.621  12.988  1.00  0.00     0.178 C 
ATOM     18  O   UNL     1      31.217  35.714  12.776  1.00  0.00    -0.341 OA
ATOM     19  C   UNL     1      32.159  36.033  13.706  1.00  0.00     0.281 C 
ATOM     20  C   UNL     1      31.903  33.738  14.665  1.00  0.00     0.180 C 
ATOM     21  C   UNL     1      32.866  34.863  14.352  1.00  0.00     0.202 C 
BRANCH  17  22
ATOM     22  C   UNL     1      29.004  34.989  12.605  1.00  0.00     0.191 C 
BRANCH  22  23
ATOM     23  O   UNL     1      28.961  36.238  12.031  1.00  0.00    -0.394 OA
ATOM     24  H   UNL     1      28.380  36.250  11.250  1.00  0.00     0.210 HD
ENDBRANCH  22  23
ENDBRANCH  17  22
BRANCH  19  25
ATOM     25  O   UNL     1      31.712  36.954  14.647  1.00  0.00    -0.350 OA
BRANCH  25  26
ATOM     26  C   UNL     1      31.067  38.049  14.106  1.00  0.00     0.169 C 
BRANCH  26  27
ATOM     27  C   UNL     1      29.919  38.555  14.915  1.00  0.00     0.119 C 
BRANCH  27  28
ATOM     28  N   UNL     1      28.680  37.974  14.430  1.00  0.00    -0.092 NA
ATOM     29  N   UNL     1      28.011  37.320  15.235  1.00  0.00     0.001 N 
ATOM     30  N   UNL     1      27.212  36.750  16.008  1.00  0.00    -0.003 NA
ENDBRANCH  27  28
ENDBRANCH  26  27
ENDBRANCH  25  26
ENDBRANCH  19  25
BRANCH  20  31
ATOM     31  O   UNL     1      32.035  33.232  15.946  1.00  0.00    -0.387 OA
ATOM     32  H   UNL     1      32.572  33.837  16.525  1.00  0.00     0.211 HD
ENDBRANCH  20  31
BRANCH  21  33
ATOM     33  O   UNL     1      33.948  34.476  13.594  1.00  0.00    -0.385 OA
ATOM     34  H   UNL     1      33.715  33.641  13.122  1.00  0.00     0.211 HD
ENDBRANCH  21  33
ENDBRANCH  15  16
ENDBRANCH  10  15
BRANCH  12  35
ATOM     35  O   UNL     1      26.470  33.675  16.498  1.00  0.00    -0.385 OA
ATOM     36  H   UNL     1      25.539  33.433  16.222  1.00  0.00     0.211 HD
ENDBRANCH  12  35
BRANCH  13  37
ATOM     37  O   UNL     1      27.351  30.495  15.407  1.00  0.00    -0.387 OA
ATOM     38  H   UNL     1      28.122  29.890  15.551  1.00  0.00     0.211 HD
ENDBRANCH  13  37
BRANCH  14  39
ATOM     39  O   UNL     1      29.797  30.930  16.213  1.00  0.00    -0.387 OA
ATOM     40  H   UNL     1      30.067  31.676  15.622  1.00  0.00     0.211 HD
ENDBRANCH  14  39
ENDBRANCH   8   9
ENDBRANCH   7   8
ENDBRANCH   1   7
BRANCH   1  41
ATOM     41  C   UNL     1      28.993  30.718  20.723  1.00  0.00     0.364 C 
ATOM     42  O   UNL     1      28.544  31.762  21.254  1.00  0.00    -0.246 OA
BRANCH  41  43
ATOM     43  O   UNL     1      28.117  29.652  20.650  1.00  0.00    -0.477 OA
ATOM     44  H   UNL     1      27.247  29.592  21.177  1.00  0.00     0.296 HD
ENDBRANCH  41  43
ENDBRANCH   1  41
BRANCH   3  45
ATOM     45  O   UNL     1      32.430  32.142  22.856  1.00  0.00    -0.391 OA
ATOM     46  H   UNL     1      33.194  32.307  22.264  1.00  0.00     0.211 HD
ENDBRANCH   3  45
BRANCH   5  47
ATOM     47  C   UNL     1      31.773  27.553  21.470  1.00  0.00     0.176 C 
BRANCH  47  48
ATOM     48  O   UNL     1      32.087  27.368  20.093  1.00  0.00    -0.388 OA
ATOM     49  H   UNL     1      31.277  27.576  19.562  1.00  0.00     0.211 HD
ENDBRANCH  47  48
BRANCH  47  50
ATOM     50  C   UNL     1      30.705  26.502  21.732  1.00  0.00     0.165 C 
BRANCH  50  51
ATOM     51  O   UNL     1      29.854  26.615  20.598  1.00  0.00    -0.388 OA
ATOM     52  H   UNL     1      29.712  27.593  20.394  1.00  0.00     0.211 HD
ENDBRANCH  50  51
BRANCH  50  53
ATOM     53  C   UNL     1      29.872  26.838  22.919  1.00  0.00     0.154 C 
BRANCH  53  54
ATOM     54  N   UNL     1      28.519  27.121  22.562  1.00  0.00    -0.319 N 
ATOM     55  C   UNL     1      27.367  26.555  23.194  1.00  0.00     0.407 C 
ATOM     56  H   UNL     1      28.302  27.803  21.766  1.00  0.00     0.167 HD
ATOM     57  O   UNL     1      27.536  25.740  24.131  1.00  0.00    -0.225 OA
BRANCH  55  58
ATOM     58  O   UNL     1      26.088  26.879  22.806  1.00  0.00    -0.443 OA
BRANCH  58  59
ATOM     59  C   UNL     1      25.429  26.113  21.830  1.00  0.00     0.294 C 
BRANCH  59  60
ATOM     60  C   UNL     1      25.649  26.738  20.507  1.00  0.00     0.121 A 
ATOM     61  C   UNL     1      24.625  27.058  19.606  1.00  0.00     0.144 A 
ATOM     62  N   UNL     1      26.780  27.113  19.890  1.00  0.00    -0.131 NA
ATOM     63  N   UNL     1      25.175  27.601  18.507  1.00  0.00    -0.220 N 
ATOM     64  N   UNL     1      26.478  27.620  18.710  1.00  0.00    -0.062 NA
BRANCH  63  65
ATOM     65  C   UNL     1      24.420  28.039  17.385  1.00  0.00     0.066 A 
ATOM     66  C   UNL     1      24.535  29.256  16.794  1.00  0.00     0.029 A 
ATOM     67  C   UNL     1      23.506  27.126  16.869  1.00  0.00     0.029 A 
ATOM     68  C   UNL     1      23.748  29.553  15.701  1.00  0.00     0.018 A 
ATOM     69  C   UNL     1      22.726  27.437  15.778  1.00  0.00     0.018 A 
ATOM     70  C   UNL     1      22.838  28.671  15.172  1.00  0.00     0.018 A 
ATOM     71  Br  UNL     1      21.769  29.121  13.657  1.00  0.00    -0.051 Br
ENDBRANCH  63  65
ENDBRANCH  59  60
ENDBRANCH  58  59
ENDBRANCH  55  58
ENDBRANCH  53  54
ENDBRANCH  50  53
ENDBRANCH  47  50
ENDBRANCH   5  47
BRANCH   4  72
ATOM     72  N   UNL     1      32.876  29.652  23.365  1.00  0.00    -0.348 N 
ATOM     73  C   UNL     1      34.260  29.394  23.555  1.00  0.00     0.217 C 
ATOM     74  H   UNL     1      32.253  29.620  24.191  1.00  0.00     0.163 HD
ATOM     75  C   UNL     1      34.860  29.080  24.874  1.00  0.00     0.114 C 
ATOM     76  O   UNL     1      35.048  29.426  22.555  1.00  0.00    -0.275 OA
ENDBRANCH   4  72
TORSDOF 30
BEGIN_RES LYS A 131
REMARK  4 active torsions:
REMARK  status: ('A' for Active; 'I' for Inactive)
REMARK    1  A    between atoms: CA   and  CB  
REMARK    2  A    between atoms: CB   and  CG  
REMARK    3  A    between atoms: CG   and  CD  
REMARK    4  A    between atoms: CD   and  CE  
ROOT
ATOM      1  CA  LYS A 131      29.867  25.555  16.977  1.00 20.52     0.186 C 
ENDROOT
BRANCH   1   2
ATOM      2  CB  LYS A 131      28.345  25.722  17.026  1.00 20.94     0.034 C 
BRANCH   2   3
ATOM      3  CG  LYS A 131      27.624  24.450  17.444  1.00 22.96     0.005 C 
BRANCH   3   4
ATOM      4  CD  LYS A 131      26.235  24.372  16.874  1.00 24.33     0.041 C 
BRANCH   4   5
ATOM      5  CE  LYS A 131      25.250  24.011  17.980  1.00 26.91     0.338 C 
ATOM      6  NZ  LYS A 131      25.953  23.357  19.109  1.00 27.40     0.618 N 
ENDBRANCH   4   5
ENDBRANCH   3   4
ENDBRANCH   2   3
ENDBRANCH   1   2
END_RES LYS A 131
BEGIN_RES LYS A 135
REMARK  4 active torsions:
REMARK  status: ('A' for Active; 'I' for Inactive)
REMARK    5  A    between atoms: CA   and  CB  
REMARK    6  A    between atoms: CB   and  CG  
REMARK    7  A    between atoms: CG   and  CD  
REMARK    8  A    between atoms: CD   and  CE  
ROOT
ATOM      7  CA  LYS A 135      33.193  34.663   9.290  1.00 25.02     0.186 C 
ENDROOT
BRANCH   7   8
ATOM      8  CB  LYS A 135      32.060  35.360  10.034  1.00 26.63     0.034 C 
BRANCH   8   9
ATOM      9  CG  LYS A 135      30.799  35.495   9.221  1.00 29.45     0.005 C 
BRANCH   9  10
ATOM     10  CD  LYS A 135      30.102  34.150   9.083  1.00 32.00     0.041 C 
BRANCH  10  11
ATOM     11  CE  LYS A 135      28.666  34.338   8.634  1.00 34.25     0.338 C 
ATOM     12  NZ  LYS A 135      28.273  35.774   8.676  1.00 35.99     0.618 N 
ENDBRANCH  10  11
ENDBRANCH   9  10
ENDBRANCH   8   9
ENDBRANCH   7   8
END_RES LYS A 135
