REMARK VINA RESULT:    -6.789      4.592      8.317
REMARK INTER + INTRA:         -20.114
REMARK INTER:                 -11.240
REMARK INTRA:                  -8.874
REMARK UNBOUND:                -1.022
REMARK SMILES CC(=O)N[C@@H]1[C@@H](O)C[C@](OC[C@H]2O[C@@H](O[C@H]3[C@H](O)[C@@H](O)[C@H](OCCN=[N+]=[N-])O[C@@H]3CO)[C@H](O)[C@@H](O)[C@H]2O)(C(=O)O)O[C@H]1C(O)[C@H](O)CNC(=O)OCc1cn(C2CC(O)C=C[C@@H](O)C2)nn1
REMARK SMILES IDX 43 1 42 2 9 3 8 4 41 5 6 6 5 7 10 8 11 9 12 10 14 11 13 12
REMARK SMILES IDX 32 13 34 14 36 15 15 16 16 17 29 18 28 19 21 20 17 21 19 22
REMARK SMILES IDX 30 23 31 24 22 26 23 27 24 28 25 29 26 30 27 31 18 32 20 34
REMARK SMILES IDX 33 36 35 38 37 40 38 42 39 43 40 44 7 46 4 48 2 49 1 51 3 52
REMARK SMILES IDX 44 53 45 55 46 56 47 58 48 59 49 60 50 62 51 63 52 64 53 65
REMARK SMILES IDX 54 66 66 67 55 68 65 69 56 70 57 71 58 72 59 74 64 76 62 77
REMARK SMILES IDX 61 78 60 79 63 81
REMARK H PARENT 31 25 18 33 20 35 33 37 35 39 37 41 40 45 7 47 4 50 44 54
REMARK H PARENT 46 57 48 61 59 75 63 82
REMARK Flexibility Score: 90.00
ROOT
ATOM      1  C   UNL     1      27.312  34.645  14.876  1.00  0.00     0.176 C 
ENDROOT
BRANCH   1   2
ATOM      2  C   UNL     1      28.384  33.580  15.023  1.00  0.00     0.178 C 
ATOM      3  C   UNL     1      28.815  31.789  16.488  1.00  0.00     0.272 C 
ATOM      4  C   UNL     1      30.238  31.732  16.067  1.00  0.00     0.113 C 
ATOM      5  O   UNL     1      28.096  32.896  16.239  1.00  0.00    -0.332 OA
ATOM      6  C   UNL     1      30.615  32.701  15.006  1.00  0.00     0.145 C 
ATOM      7  C   UNL     1      29.780  34.011  15.148  1.00  0.00     0.142 C 
BRANCH   3   8
ATOM      8  O   UNL     1      28.750  31.422  17.848  1.00  0.00    -0.338 OA
BRANCH   8   9
ATOM      9  C   UNL     1      27.688  31.937  18.532  1.00  0.00     0.199 C 
BRANCH   9  10
ATOM     10  C   UNL     1      28.149  32.636  19.811  1.00  0.00     0.179 C 
ATOM     11  C   UNL     1      30.204  32.760  20.858  1.00  0.00     0.282 C 
ATOM     12  O   UNL     1      29.213  31.949  20.304  1.00  0.00    -0.341 OA
ATOM     13  C   UNL     1      30.750  33.547  19.681  1.00  0.00     0.202 C 
ATOM     14  C   UNL     1      29.694  34.573  19.339  1.00  0.00     0.179 C 
ATOM     15  C   UNL     1      28.303  34.106  19.626  1.00  0.00     0.177 C 
BRANCH  11  16
ATOM     16  O   UNL     1      31.138  31.966  21.479  1.00  0.00    -0.341 OA
BRANCH  16  17
ATOM     17  C   UNL     1      30.648  30.662  21.588  1.00  0.00     0.184 C 
ATOM     18  C   UNL     1      30.180  30.397  22.996  1.00  0.00     0.178 C 
ATOM     19  O   UNL     1      31.186  30.191  23.906  1.00  0.00    -0.341 OA
ATOM     20  C   UNL     1      32.457  30.117  23.342  1.00  0.00     0.281 C 
ATOM     21  C   UNL     1      31.628  29.630  21.101  1.00  0.00     0.180 C 
ATOM     22  C   UNL     1      32.465  29.080  22.224  1.00  0.00     0.202 C 
BRANCH  18  23
ATOM     23  C   UNL     1      29.203  29.229  23.029  1.00  0.00     0.191 C 
BRANCH  23  24
ATOM     24  O   UNL     1      28.361  29.222  21.933  1.00  0.00    -0.394 OA
ATOM     25  H   UNL     1      28.344  30.068  21.458  1.00  0.00     0.210 HD
ENDBRANCH  23  24
ENDBRANCH  18  23
BRANCH  20  26
ATOM     26  O   UNL     1      33.311  29.723  24.367  1.00  0.00    -0.350 OA
BRANCH  26  27
ATOM     27  C   UNL     1      33.898  30.858  24.916  1.00  0.00     0.169 C 
BRANCH  27  28
ATOM     28  C   UNL     1      35.396  30.678  25.084  1.00  0.00     0.119 C 
BRANCH  28  29
ATOM     29  N   UNL     1      35.994  30.167  23.868  1.00  0.00    -0.092 NA
ATOM     30  N   UNL     1      35.903  30.838  22.827  1.00  0.00     0.001 N 
ATOM     31  N   UNL     1      35.655  31.549  21.843  1.00  0.00    -0.003 NA
ENDBRANCH  28  29
ENDBRANCH  27  28
ENDBRANCH  26  27
ENDBRANCH  20  26
BRANCH  21  32
ATOM     32  O   UNL     1      30.956  28.589  20.459  1.00  0.00    -0.387 OA
ATOM     33  H   UNL     1      31.311  27.705  20.718  1.00  0.00     0.211 HD
ENDBRANCH  21  32
BRANCH  22  34
ATOM     34  O   UNL     1      33.773  28.854  21.810  1.00  0.00    -0.385 OA
ATOM     35  H   UNL     1      34.014  27.897  21.911  1.00  0.00     0.211 HD
ENDBRANCH  22  34
ENDBRANCH  16  17
ENDBRANCH  11  16
BRANCH  13  36
ATOM     36  O   UNL     1      31.952  34.159  19.918  1.00  0.00    -0.385 OA
ATOM     37  H   UNL     1      32.546  34.221  19.154  1.00  0.00     0.211 HD
ENDBRANCH  13  36
BRANCH  14  38
ATOM     38  O   UNL     1      29.886  34.915  18.001  1.00  0.00    -0.387 OA
ATOM     39  H   UNL     1      29.619  34.166  17.400  1.00  0.00     0.211 HD
ENDBRANCH  14  38
BRANCH  15  40
ATOM     40  O   UNL     1      27.444  34.479  18.573  1.00  0.00    -0.387 OA
ATOM     41  H   UNL     1      27.911  34.753  17.770  1.00  0.00     0.211 HD
ENDBRANCH  15  40
ENDBRANCH   9  10
ENDBRANCH   8   9
ENDBRANCH   3   8
BRANCH   3  42
ATOM     42  C   UNL     1      28.124  30.662  15.752  1.00  0.00     0.364 C 
ATOM     43  O   UNL     1      26.908  30.713  15.427  1.00  0.00    -0.246 OA
BRANCH  42  44
ATOM     44  O   UNL     1      28.880  29.545  15.435  1.00  0.00    -0.477 OA
ATOM     45  H   UNL     1      29.548  29.155  16.100  1.00  0.00     0.296 HD
ENDBRANCH  42  44
ENDBRANCH   3  42
BRANCH   6  46
ATOM     46  O   UNL     1      31.957  32.992  15.034  1.00  0.00    -0.391 OA
ATOM     47  H   UNL     1      32.320  32.832  15.931  1.00  0.00     0.211 HD
ENDBRANCH   6  46
BRANCH   7  48
ATOM     48  N   UNL     1      30.331  34.992  14.296  1.00  0.00    -0.348 N 
ATOM     49  C   UNL     1      31.184  35.996  14.821  1.00  0.00     0.217 C 
ATOM     50  H   UNL     1      30.151  34.981  13.276  1.00  0.00     0.163 HD
ATOM     51  C   UNL     1      31.776  37.039  13.943  1.00  0.00     0.114 C 
ATOM     52  O   UNL     1      31.445  36.008  16.047  1.00  0.00    -0.275 OA
ENDBRANCH   7  48
ENDBRANCH   1   2
BRANCH   1  53
ATOM     53  O   UNL     1      26.427  34.281  15.985  1.00  0.00    -0.388 OA
ATOM     54  H   UNL     1      25.870  33.501  15.675  1.00  0.00     0.211 HD
ENDBRANCH   1  53
BRANCH   1  55
ATOM     55  C   UNL     1      26.401  34.444  13.699  1.00  0.00     0.165 C 
BRANCH  55  56
ATOM     56  O   UNL     1      26.092  35.627  13.071  1.00  0.00    -0.388 OA
ATOM     57  H   UNL     1      25.169  35.931  13.219  1.00  0.00     0.211 HD
ENDBRANCH  55  56
BRANCH  55  58
ATOM     58  C   UNL     1      25.077  33.829  14.139  1.00  0.00     0.154 C 
BRANCH  58  59
ATOM     59  N   UNL     1      25.042  32.404  14.066  1.00  0.00    -0.319 N 
ATOM     60  C   UNL     1      24.023  31.688  13.379  1.00  0.00     0.407 C 
ATOM     61  H   UNL     1      25.803  31.834  14.543  1.00  0.00     0.167 HD
ATOM     62  O   UNL     1      23.121  32.376  12.819  1.00  0.00    -0.225 OA
BRANCH  60  63
ATOM     63  O   UNL     1      24.043  30.313  13.340  1.00  0.00    -0.443 OA
BRANCH  63  64
ATOM     64  C   UNL     1      22.904  29.559  13.747  1.00  0.00     0.294 C 
BRANCH  64  65
ATOM     65  C   UNL     1      23.246  28.865  15.007  1.00  0.00     0.120 A 
ATOM     66  C   UNL     1      24.148  29.241  15.969  1.00  0.00     0.138 A 
ATOM     67  N   UNL     1      22.712  27.704  15.426  1.00  0.00    -0.132 NA
ATOM     68  N   UNL     1      24.131  28.292  16.938  1.00  0.00    -0.249 N 
ATOM     69  N   UNL     1      23.254  27.379  16.580  1.00  0.00    -0.067 NA
BRANCH  68  70
ATOM     70  C   UNL     1      24.944  28.279  18.163  1.00  0.00     0.115 C 
BRANCH  70  71
ATOM     71  C   UNL     1      26.361  28.566  17.796  1.00  0.00     0.063 C 
BRANCH  71  72
ATOM     72  C   UNL     1      27.285  27.744  18.701  1.00  0.00     0.139 CG0
ATOM     73  G   UNL     1      26.484  27.128  19.771  1.00  0.00     0.000 G0
BRANCH  72  74
ATOM     74  O   UNL     1      28.287  28.560  19.222  1.00  0.00    -0.389 OA
ATOM     75  H   UNL     1      28.670  29.092  18.467  1.00  0.00     0.211 HD
ENDBRANCH  72  74
ENDBRANCH  71  72
ENDBRANCH  70  71
BRANCH  70  76
ATOM     76  C   UNL     1      24.403  29.311  19.102  1.00  0.00     0.063 C 
BRANCH  76  77
ATOM     77  C   UNL     1      24.986  28.994  20.484  1.00  0.00     0.139 C 
BRANCH  77  78
ATOM     78  C   UNL     1      25.491  27.595  20.502  1.00  0.00     0.002 C 
ATOM     79  C   UNL     1      26.468  27.107  19.751  1.00  0.00     0.002 CG0
ATOM     80  G   UNL     1      27.295  27.775  18.733  1.00  0.00     0.000 G0
ENDBRANCH  77  78
BRANCH  77  81
ATOM     81  O   UNL     1      25.976  29.896  20.842  1.00  0.00    -0.389 OA
ATOM     82  H   UNL     1      25.711  30.298  21.716  1.00  0.00     0.211 HD
ENDBRANCH  77  81
ENDBRANCH  76  77
ENDBRANCH  70  76
ENDBRANCH  68  70
ENDBRANCH  64  65
ENDBRANCH  63  64
ENDBRANCH  60  63
ENDBRANCH  58  59
ENDBRANCH  55  58
ENDBRANCH   1  55
TORSDOF 32
BEGIN_RES LYS A 131
REMARK  4 active torsions:
REMARK  status: ('A' for Active; 'I' for Inactive)
REMARK    1  A    between atoms: CA   and  CB  
REMARK    2  A    between atoms: CB   and  CG  
REMARK    3  A    between atoms: CG   and  CD  
REMARK    4  A    between atoms: CD   and  CE  
ROOT
ATOM      1  CA  LYS A 131      29.867  25.555  16.977  1.00 20.52     0.186 C 
ENDROOT
BRANCH   1   2
ATOM      2  CB  LYS A 131      28.345  25.722  17.026  1.00 20.94     0.034 C 
BRANCH   2   3
ATOM      3  CG  LYS A 131      27.602  24.398  16.933  1.00 22.96     0.005 C 
BRANCH   3   4
ATOM      4  CD  LYS A 131      26.137  24.548  17.237  1.00 24.33     0.041 C 
BRANCH   4   5
ATOM      5  CE  LYS A 131      25.588  23.224  17.759  1.00 26.91     0.338 C 
ATOM      6  NZ  LYS A 131      25.504  23.244  19.238  1.00 27.40     0.618 N 
ENDBRANCH   4   5
ENDBRANCH   3   4
ENDBRANCH   2   3
ENDBRANCH   1   2
END_RES LYS A 131
BEGIN_RES LYS A 135
REMARK  4 active torsions:
REMARK  status: ('A' for Active; 'I' for Inactive)
REMARK    5  A    between atoms: CA   and  CB  
REMARK    6  A    between atoms: CB   and  CG  
REMARK    7  A    between atoms: CG   and  CD  
REMARK    8  A    between atoms: CD   and  CE  
ROOT
ATOM      7  CA  LYS A 135      33.193  34.663   9.290  1.00 25.02     0.186 C 
ENDROOT
BRANCH   7   8
ATOM      8  CB  LYS A 135      32.060  35.360  10.034  1.00 26.63     0.034 C 
BRANCH   8   9
ATOM      9  CG  LYS A 135      30.691  34.855   9.657  1.00 29.45     0.005 C 
BRANCH   9  10
ATOM     10  CD  LYS A 135      29.731  34.981  10.830  1.00 32.00     0.041 C 
BRANCH  10  11
ATOM     11  CE  LYS A 135      28.334  35.312  10.341  1.00 34.25     0.338 C 
ATOM     12  NZ  LYS A 135      28.155  34.912   8.918  1.00 35.99     0.618 N 
ENDBRANCH  10  11
ENDBRANCH   9  10
ENDBRANCH   8   9
ENDBRANCH   7   8
END_RES LYS A 135
