REMARK VINA RESULT:    -5.095      4.936     12.707
REMARK INTER + INTRA:         -25.430
REMARK INTER:                 -12.131
REMARK INTRA:                 -13.300
REMARK UNBOUND:                -9.760
REMARK SMILES CC(=O)N[C@@H]1[C@@H](O)C[C@](OC[C@H]2O[C@@H](O[C@H]3[C@H](O)[C@@H](O)[C@H](OCCN=[N+]=[N-])O[C@@H]3CO)[C@H](O)[C@@H](O)[C@H]2O)(C(=O)O)O[C@H]1C(O)[C@H](O)CNC(=O)OCc1cn(CCCCCCCCCCC(=O)O)nn1
REMARK SMILES IDX 51 1 49 2 48 3 50 5 47 6 45 7 43 8 42 9 9 10 8 11 41 12 6 13
REMARK SMILES IDX 5 14 10 15 11 16 12 17 14 18 13 19 32 20 34 21 36 22 15 23
REMARK SMILES IDX 16 24 29 25 28 26 21 27 17 28 19 29 30 30 31 31 22 33 23 34
REMARK SMILES IDX 24 35 25 36 26 37 27 38 18 39 20 41 33 43 35 45 37 47 38 49
REMARK SMILES IDX 39 50 40 51 7 53 4 55 2 56 1 58 3 59 44 60 46 62 52 64 53 65
REMARK SMILES IDX 54 66 70 67 55 68 69 69 56 70 57 71 58 72 59 73 60 74 61 75
REMARK SMILES IDX 62 76 63 77 64 78 65 79 66 80 67 81 68 82
REMARK H PARENT 48 4 31 32 18 40 20 42 33 44 35 46 37 48 40 52 7 54 4 57 44 61
REMARK H PARENT 46 63 68 83
REMARK Flexibility Score: inf
ROOT
ATOM      1  O   UNL     1      32.633  38.958  16.953  1.00  0.00    -0.443 OA
ENDROOT
BRANCH   1   2
ATOM      2  C   UNL     1      32.024  37.954  16.168  1.00  0.00     0.407 C 
ATOM      3  N   UNL     1      32.757  36.816  15.748  1.00  0.00    -0.319 N 
ATOM      4  H   UNL     1      33.770  36.741  16.028  1.00  0.00     0.167 HD
ATOM      5  O   UNL     1      30.823  38.043  15.828  1.00  0.00    -0.225 OA
BRANCH   3   6
ATOM      6  C   UNL     1      32.177  35.771  14.960  1.00  0.00     0.154 C 
BRANCH   6   7
ATOM      7  C   UNL     1      32.342  34.374  15.548  1.00  0.00     0.165 C 
BRANCH   7   8
ATOM      8  C   UNL     1      31.206  33.569  15.020  1.00  0.00     0.176 C 
BRANCH   8   9
ATOM      9  C   UNL     1      29.857  33.832  15.648  1.00  0.00     0.178 C 
ATOM     10  C   UNL     1      28.819  33.739  17.727  1.00  0.00     0.272 C 
ATOM     11  C   UNL     1      27.575  33.294  16.987  1.00  0.00     0.113 C 
ATOM     12  O   UNL     1      29.907  33.402  16.944  1.00  0.00    -0.332 OA
ATOM     13  C   UNL     1      27.859  32.481  15.765  1.00  0.00     0.145 C 
ATOM     14  C   UNL     1      28.722  33.301  14.829  1.00  0.00     0.142 C 
BRANCH  10  15
ATOM     15  O   UNL     1      28.904  33.107  18.978  1.00  0.00    -0.338 OA
BRANCH  15  16
ATOM     16  C   UNL     1      30.118  33.097  19.576  1.00  0.00     0.199 C 
BRANCH  16  17
ATOM     17  C   UNL     1      29.853  33.037  21.095  1.00  0.00     0.179 C 
ATOM     18  C   UNL     1      31.804  32.189  22.131  1.00  0.00     0.282 C 
ATOM     19  O   UNL     1      30.522  32.057  21.716  1.00  0.00    -0.341 OA
ATOM     20  C   UNL     1      32.289  33.588  22.170  1.00  0.00     0.202 C 
ATOM     21  C   UNL     1      31.158  34.489  22.649  1.00  0.00     0.179 C 
ATOM     22  C   UNL     1      29.983  34.420  21.695  1.00  0.00     0.177 C 
BRANCH  18  23
ATOM     23  O   UNL     1      32.584  31.337  21.308  1.00  0.00    -0.341 OA
BRANCH  23  24
ATOM     24  C   UNL     1      32.363  30.035  21.735  1.00  0.00     0.184 C 
ATOM     25  C   UNL     1      33.520  29.385  22.420  1.00  0.00     0.178 C 
ATOM     26  O   UNL     1      33.269  28.063  22.645  1.00  0.00    -0.341 OA
ATOM     27  C   UNL     1      32.048  27.541  22.432  1.00  0.00     0.281 C 
ATOM     28  C   UNL     1      32.030  29.146  20.525  1.00  0.00     0.180 C 
ATOM     29  C   UNL     1      31.434  27.878  21.094  1.00  0.00     0.202 C 
BRANCH  25  30
ATOM     30  C   UNL     1      33.915  30.061  23.720  1.00  0.00     0.191 C 
BRANCH  30  31
ATOM     31  O   UNL     1      32.927  30.057  24.669  1.00  0.00    -0.394 OA
ATOM     32  H   UNL     1      33.349  29.958  25.562  1.00  0.00     0.210 HD
ENDBRANCH  30  31
ENDBRANCH  25  30
BRANCH  27  33
ATOM     33  O   UNL     1      31.169  27.952  23.425  1.00  0.00    -0.350 OA
BRANCH  33  34
ATOM     34  C   UNL     1      30.124  27.048  23.610  1.00  0.00     0.169 C 
BRANCH  34  35
ATOM     35  C   UNL     1      28.792  27.737  23.717  1.00  0.00     0.119 C 
BRANCH  35  36
ATOM     36  N   UNL     1      28.954  29.131  23.300  1.00  0.00    -0.092 NA
ATOM     37  N   UNL     1      28.606  29.499  22.157  1.00  0.00     0.001 N 
ATOM     38  N   UNL     1      28.197  29.577  20.978  1.00  0.00    -0.003 NA
ENDBRANCH  35  36
ENDBRANCH  34  35
ENDBRANCH  33  34
ENDBRANCH  27  33
BRANCH  28  39
ATOM     39  O   UNL     1      31.132  29.739  19.663  1.00  0.00    -0.387 OA
ATOM     40  H   UNL     1      30.354  29.167  19.446  1.00  0.00     0.211 HD
ENDBRANCH  28  39
BRANCH  29  41
ATOM     41  O   UNL     1      31.744  26.844  20.217  1.00  0.00    -0.385 OA
ATOM     42  H   UNL     1      30.981  26.768  19.563  1.00  0.00     0.211 HD
ENDBRANCH  29  41
ENDBRANCH  23  24
ENDBRANCH  18  23
BRANCH  20  43
ATOM     43  O   UNL     1      33.316  33.778  23.105  1.00  0.00    -0.385 OA
ATOM     44  H   UNL     1      33.962  33.027  22.951  1.00  0.00     0.211 HD
ENDBRANCH  20  43
BRANCH  21  45
ATOM     45  O   UNL     1      31.592  35.809  22.756  1.00  0.00    -0.387 OA
ATOM     46  H   UNL     1      31.217  36.157  23.605  1.00  0.00     0.211 HD
ENDBRANCH  21  45
BRANCH  22  47
ATOM     47  O   UNL     1      30.185  35.353  20.708  1.00  0.00    -0.387 OA
ATOM     48  H   UNL     1      31.075  35.766  20.843  1.00  0.00     0.211 HD
ENDBRANCH  22  47
ENDBRANCH  16  17
ENDBRANCH  15  16
ENDBRANCH  10  15
BRANCH  10  49
ATOM     49  C   UNL     1      28.797  35.172  18.031  1.00  0.00     0.364 C 
ATOM     50  O   UNL     1      27.827  35.734  18.565  1.00  0.00    -0.246 OA
BRANCH  49  51
ATOM     51  O   UNL     1      29.886  35.971  17.726  1.00  0.00    -0.477 OA
ATOM     52  H   UNL     1      30.842  35.717  17.988  1.00  0.00     0.296 HD
ENDBRANCH  49  51
ENDBRANCH  10  49
BRANCH  13  53
ATOM     53  O   UNL     1      28.369  31.222  15.989  1.00  0.00    -0.391 OA
ATOM     54  H   UNL     1      28.433  30.659  15.165  1.00  0.00     0.211 HD
ENDBRANCH  13  53
BRANCH  14  55
ATOM     55  N   UNL     1      27.887  34.291  14.233  1.00  0.00    -0.348 N 
ATOM     56  C   UNL     1      28.152  34.922  12.985  1.00  0.00     0.217 C 
ATOM     57  H   UNL     1      27.009  34.604  14.714  1.00  0.00     0.163 HD
ATOM     58  C   UNL     1      27.239  35.939  12.434  1.00  0.00     0.114 C 
ATOM     59  O   UNL     1      29.182  34.585  12.374  1.00  0.00    -0.275 OA
ENDBRANCH  14  55
ENDBRANCH   8   9
BRANCH   8  60
ATOM     60  O   UNL     1      31.570  32.250  14.988  1.00  0.00    -0.388 OA
ATOM     61  H   UNL     1      30.875  31.632  14.712  1.00  0.00     0.211 HD
ENDBRANCH   8  60
ENDBRANCH   7   8
BRANCH   7  62
ATOM     62  O   UNL     1      32.362  34.517  16.931  1.00  0.00    -0.388 OA
ATOM     63  H   UNL     1      32.982  33.881  17.363  1.00  0.00     0.211 HD
ENDBRANCH   7  62
ENDBRANCH   6   7
ENDBRANCH   3   6
ENDBRANCH   1   2
BRANCH   1  64
ATOM     64  C   UNL     1      32.239  39.017  18.331  1.00  0.00     0.294 C 
BRANCH  64  65
ATOM     65  C   UNL     1      32.809  37.828  18.998  1.00  0.00     0.120 A 
ATOM     66  C   UNL     1      33.976  37.819  19.741  1.00  0.00     0.138 A 
ATOM     67  N   UNL     1      32.324  36.579  19.020  1.00  0.00    -0.132 NA
ATOM     68  N   UNL     1      34.138  36.556  20.178  1.00  0.00    -0.252 N 
ATOM     69  N   UNL     1      33.111  35.813  19.722  1.00  0.00    -0.067 NA
BRANCH  68  70
ATOM     70  C   UNL     1      35.183  36.015  20.991  1.00  0.00     0.146 C 
BRANCH  70  71
ATOM     71  C   UNL     1      35.568  34.606  20.704  1.00  0.00     0.024 C 
BRANCH  71  72
ATOM     72  C   UNL     1      36.989  34.374  20.331  1.00  0.00     0.002 C 
BRANCH  72  73
ATOM     73  C   UNL     1      37.447  32.957  20.364  1.00  0.00     0.000 C 
BRANCH  73  74
ATOM     74  C   UNL     1      38.753  32.684  19.702  1.00  0.00     0.000 C 
BRANCH  74  75
ATOM     75  C   UNL     1      38.610  32.782  18.209  1.00  0.00     0.000 C 
BRANCH  75  76
ATOM     76  C   UNL     1      39.517  33.825  17.592  1.00  0.00     0.000 C 
BRANCH  76  77
ATOM     77  C   UNL     1      39.060  34.290  16.248  1.00  0.00     0.001 C 
BRANCH  77  78
ATOM     78  C   UNL     1      38.538  35.693  16.214  1.00  0.00     0.012 C 
BRANCH  78  79
ATOM     79  C   UNL     1      37.056  35.643  15.887  1.00  0.00     0.122 C 
BRANCH  79  80
ATOM     80  C   UNL     1      36.293  36.134  17.048  1.00  0.00     0.303 C 
ATOM     81  O   UNL     1      36.831  36.876  17.895  1.00  0.00    -0.252 OA
BRANCH  80  82
ATOM     82  O   UNL     1      34.962  35.788  17.237  1.00  0.00    -0.481 OA
ATOM     83  H   UNL     1      34.219  36.458  17.164  1.00  0.00     0.296 HD
ENDBRANCH  80  82
ENDBRANCH  79  80
ENDBRANCH  78  79
ENDBRANCH  77  78
ENDBRANCH  76  77
ENDBRANCH  75  76
ENDBRANCH  74  75
ENDBRANCH  73  74
ENDBRANCH  72  73
ENDBRANCH  71  72
ENDBRANCH  70  71
ENDBRANCH  68  70
ENDBRANCH  64  65
ENDBRANCH   1  64
TORSDOF 41
BEGIN_RES LYS A 131
REMARK  4 active torsions:
REMARK  status: ('A' for Active; 'I' for Inactive)
REMARK    1  A    between atoms: CA   and  CB  
REMARK    2  A    between atoms: CB   and  CG  
REMARK    3  A    between atoms: CG   and  CD  
REMARK    4  A    between atoms: CD   and  CE  
ROOT
ATOM      1  CA  LYS A 131      29.867  25.555  16.977  1.00 20.52     0.186 C 
ENDROOT
BRANCH   1   2
ATOM      2  CB  LYS A 131      28.345  25.722  17.026  1.00 20.94     0.034 C 
BRANCH   2   3
ATOM      3  CG  LYS A 131      27.602  24.397  16.949  1.00 22.96     0.005 C 
BRANCH   3   4
ATOM      4  CD  LYS A 131      26.142  24.547  17.272  1.00 24.33     0.041 C 
BRANCH   4   5
ATOM      5  CE  LYS A 131      25.930  24.357  18.770  1.00 26.91     0.338 C 
ATOM      6  NZ  LYS A 131      24.490  24.459  19.108  1.00 27.40     0.618 N 
ENDBRANCH   4   5
ENDBRANCH   3   4
ENDBRANCH   2   3
ENDBRANCH   1   2
END_RES LYS A 131
BEGIN_RES LYS A 135
REMARK  4 active torsions:
REMARK  status: ('A' for Active; 'I' for Inactive)
REMARK    5  A    between atoms: CA   and  CB  
REMARK    6  A    between atoms: CB   and  CG  
REMARK    7  A    between atoms: CG   and  CD  
REMARK    8  A    between atoms: CD   and  CE  
ROOT
ATOM      7  CA  LYS A 135      33.193  34.663   9.290  1.00 25.02     0.186 C 
ENDROOT
BRANCH   7   8
ATOM      8  CB  LYS A 135      32.060  35.360  10.034  1.00 26.63     0.034 C 
BRANCH   8   9
ATOM      9  CG  LYS A 135      30.820  35.554   9.199  1.00 29.45     0.005 C 
BRANCH   9  10
ATOM     10  CD  LYS A 135      30.080  34.237   9.024  1.00 32.00     0.041 C 
BRANCH  10  11
ATOM     11  CE  LYS A 135      28.610  34.485   8.748  1.00 34.25     0.338 C 
ATOM     12  NZ  LYS A 135      27.752  33.560   9.541  1.00 35.99     0.618 N 
ENDBRANCH  10  11
ENDBRANCH   9  10
ENDBRANCH   8   9
ENDBRANCH   7   8
END_RES LYS A 135
