REMARK VINA RESULT:    -5.030      3.861      7.479
REMARK INTER + INTRA:         -22.536
REMARK INTER:                 -11.496
REMARK INTRA:                 -11.041
REMARK UNBOUND:                -9.861
REMARK SMILES CC(=O)N[C@@H]1[C@@H](O)C[C@](OC[C@H]2O[C@@H](O[C@H]3[C@H](O)[C@@H](O)[C@H](OCCN=[N+]=[N-])O[C@@H]3CO)[C@H](O)[C@@H](O)[C@H]2O)(C(=O)O)O[C@H]1C(O)[C@H](O)CNC(=O)OCc1cn(-c2ccc([N+](=O)[O-])cc2)nn1
REMARK SMILES IDX 9 1 8 2 6 3 5 4 42 5 41 6 10 7 11 8 12 9 14 10 13 11 32 12
REMARK SMILES IDX 34 13 36 14 15 15 16 16 29 17 28 18 21 19 17 20 19 21 30 22
REMARK SMILES IDX 31 23 22 25 23 26 24 27 25 28 26 29 27 30 18 31 20 33 33 35
REMARK SMILES IDX 35 37 37 39 38 41 39 42 40 43 7 45 43 47 44 48 45 50 46 51
REMARK SMILES IDX 47 53 48 54 49 55 50 57 51 58 52 59 53 60 54 61 66 62 55 63
REMARK SMILES IDX 65 64 56 65 57 66 64 67 58 68 63 69 59 70 60 71 61 72 62 73
REMARK SMILES IDX 4 74 2 75 1 77 3 78
REMARK H PARENT 31 24 18 32 20 34 33 36 35 38 37 40 40 44 7 46 44 49 46 52
REMARK H PARENT 48 56 4 76
REMARK Flexibility Score: inf
ROOT
ATOM      1  C   UNL     1      24.899  39.764   7.745  1.00  0.00     0.272 C 
ATOM      2  C   UNL     1      25.395  40.296   6.440  1.00  0.00     0.113 C 
ATOM      3  C   UNL     1      26.810  39.950   6.255  1.00  0.00     0.145 C 
ATOM      4  C   UNL     1      27.544  39.435   7.507  1.00  0.00     0.142 C 
ATOM      5  C   UNL     1      27.033  40.136   8.677  1.00  0.00     0.178 C 
ATOM      6  O   UNL     1      25.657  40.326   8.757  1.00  0.00    -0.332 OA
ENDROOT
BRANCH   1   7
ATOM      7  O   UNL     1      24.779  38.411   7.825  1.00  0.00    -0.338 OA
BRANCH   7   8
ATOM      8  C   UNL     1      24.278  37.904   8.980  1.00  0.00     0.199 C 
BRANCH   8   9
ATOM      9  C   UNL     1      23.805  36.465   8.808  1.00  0.00     0.179 C 
ATOM     10  C   UNL     1      23.144  35.643  10.896  1.00  0.00     0.282 C 
ATOM     11  O   UNL     1      24.066  35.676   9.897  1.00  0.00    -0.341 OA
ATOM     12  C   UNL     1      21.894  36.408  10.733  1.00  0.00     0.202 C 
ATOM     13  C   UNL     1      21.380  36.333   9.319  1.00  0.00     0.179 C 
ATOM     14  C   UNL     1      22.429  36.321   8.265  1.00  0.00     0.177 C 
BRANCH  10  15
ATOM     15  O   UNL     1      23.814  35.891  12.089  1.00  0.00    -0.341 OA
BRANCH  15  16
ATOM     16  C   UNL     1      24.605  34.905  12.575  1.00  0.00     0.184 C 
ATOM     17  C   UNL     1      24.178  34.373  13.925  1.00  0.00     0.178 C 
ATOM     18  O   UNL     1      25.116  33.403  14.333  1.00  0.00    -0.341 OA
ATOM     19  C   UNL     1      26.296  34.045  14.709  1.00  0.00     0.281 C 
ATOM     20  C   UNL     1      25.979  35.548  12.844  1.00  0.00     0.180 C 
ATOM     21  C   UNL     1      26.927  34.495  13.384  1.00  0.00     0.202 C 
BRANCH  17  22
ATOM     22  C   UNL     1      22.840  33.680  13.923  1.00  0.00     0.191 C 
BRANCH  22  23
ATOM     23  O   UNL     1      21.885  34.718  14.056  1.00  0.00    -0.394 OA
ATOM     24  H   UNL     1      21.106  34.406  14.589  1.00  0.00     0.210 HD
ENDBRANCH  22  23
ENDBRANCH  17  22
BRANCH  19  25
ATOM     25  O   UNL     1      27.151  33.162  15.316  1.00  0.00    -0.350 OA
BRANCH  25  26
ATOM     26  C   UNL     1      27.111  33.131  16.686  1.00  0.00     0.169 C 
BRANCH  26  27
ATOM     27  C   UNL     1      26.541  31.873  17.279  1.00  0.00     0.119 C 
BRANCH  27  28
ATOM     28  N   UNL     1      26.512  30.846  16.234  1.00  0.00    -0.092 NA
ATOM     29  N   UNL     1      27.023  29.757  16.447  1.00  0.00     0.001 N 
ATOM     30  N   UNL     1      27.326  28.619  16.768  1.00  0.00    -0.003 NA
ENDBRANCH  27  28
ENDBRANCH  26  27
ENDBRANCH  25  26
ENDBRANCH  19  25
BRANCH  20  31
ATOM     31  O   UNL     1      26.466  36.202  11.747  1.00  0.00    -0.387 OA
ATOM     32  H   UNL     1      26.629  35.647  10.960  1.00  0.00     0.211 HD
ENDBRANCH  20  31
BRANCH  21  33
ATOM     33  O   UNL     1      28.174  35.032  13.556  1.00  0.00    -0.385 OA
ATOM     34  H   UNL     1      28.529  35.309  12.678  1.00  0.00     0.211 HD
ENDBRANCH  21  33
ENDBRANCH  15  16
ENDBRANCH  10  15
BRANCH  12  35
ATOM     35  O   UNL     1      20.886  35.800  11.506  1.00  0.00    -0.385 OA
ATOM     36  H   UNL     1      20.356  36.456  11.995  1.00  0.00     0.211 HD
ENDBRANCH  12  35
BRANCH  13  37
ATOM     37  O   UNL     1      20.451  37.383   9.118  1.00  0.00    -0.387 OA
ATOM     38  H   UNL     1      20.276  37.784   9.985  1.00  0.00     0.211 HD
ENDBRANCH  13  37
BRANCH  14  39
ATOM     39  O   UNL     1      22.230  37.228   7.233  1.00  0.00    -0.387 OA
ATOM     40  H   UNL     1      23.111  37.359   6.787  1.00  0.00     0.211 HD
ENDBRANCH  14  39
ENDBRANCH   8   9
ENDBRANCH   7   8
ENDBRANCH   1   7
BRANCH   1  41
ATOM     41  C   UNL     1      23.534  40.372   7.995  1.00  0.00     0.364 C 
ATOM     42  O   UNL     1      23.368  41.173   8.935  1.00  0.00    -0.246 OA
BRANCH  41  43
ATOM     43  O   UNL     1      22.485  40.033   7.187  1.00  0.00    -0.477 OA
ATOM     44  H   UNL     1      21.528  39.896   7.500  1.00  0.00     0.296 HD
ENDBRANCH  41  43
ENDBRANCH   1  41
BRANCH   3  45
ATOM     45  O   UNL     1      26.965  38.960   5.287  1.00  0.00    -0.391 OA
ATOM     46  H   UNL     1      26.145  38.439   5.182  1.00  0.00     0.211 HD
ENDBRANCH   3  45
BRANCH   5  47
ATOM     47  C   UNL     1      27.425  39.787  10.045  1.00  0.00     0.176 C 
BRANCH  47  48
ATOM     48  O   UNL     1      27.818  38.462  10.260  1.00  0.00    -0.388 OA
ATOM     49  H   UNL     1      27.677  38.134  11.165  1.00  0.00     0.211 HD
ENDBRANCH  47  48
BRANCH  47  50
ATOM     50  C   UNL     1      28.405  40.626  10.799  1.00  0.00     0.165 C 
BRANCH  50  51
ATOM     51  O   UNL     1      29.447  41.139  10.090  1.00  0.00    -0.388 OA
ATOM     52  H   UNL     1      29.366  42.117   9.937  1.00  0.00     0.211 HD
ENDBRANCH  50  51
BRANCH  50  53
ATOM     53  C   UNL     1      28.702  40.099  12.177  1.00  0.00     0.154 C 
BRANCH  53  54
ATOM     54  N   UNL     1      29.966  39.424  12.311  1.00  0.00    -0.319 N 
ATOM     55  C   UNL     1      30.121  38.019  12.381  1.00  0.00     0.407 C 
ATOM     56  H   UNL     1      30.861  39.979  12.364  1.00  0.00     0.167 HD
ATOM     57  O   UNL     1      29.127  37.289  12.335  1.00  0.00    -0.225 OA
BRANCH  55  58
ATOM     58  O   UNL     1      31.378  37.424  12.503  1.00  0.00    -0.443 OA
BRANCH  58  59
ATOM     59  C   UNL     1      31.972  37.076  13.726  1.00  0.00     0.294 C 
BRANCH  59  60
ATOM     60  C   UNL     1      31.537  35.729  14.150  1.00  0.00     0.121 A 
ATOM     61  C   UNL     1      31.471  35.207  15.441  1.00  0.00     0.144 A 
ATOM     62  N   UNL     1      31.089  34.710  13.358  1.00  0.00    -0.131 NA
ATOM     63  N   UNL     1      31.005  33.946  15.393  1.00  0.00    -0.220 N 
ATOM     64  N   UNL     1      30.786  33.679  14.125  1.00  0.00    -0.062 NA
BRANCH  63  65
ATOM     65  C   UNL     1      30.776  33.064  16.498  1.00  0.00     0.067 A 
ATOM     66  C   UNL     1      30.865  33.450  17.814  1.00  0.00     0.035 A 
ATOM     67  C   UNL     1      30.452  31.738  16.250  1.00  0.00     0.035 A 
ATOM     68  C   UNL     1      30.641  32.548  18.853  1.00  0.00     0.088 A 
ATOM     69  C   UNL     1      30.231  30.842  17.275  1.00  0.00     0.088 A 
ATOM     70  C   UNL     1      30.320  31.227  18.596  1.00  0.00     0.269 A 
BRANCH  70  71
ATOM     71  N   UNL     1      30.097  30.314  19.665  1.00  0.00     0.062 N 
ATOM     72  O   UNL     1      30.933  30.052  20.543  1.00  0.00    -0.258 OA
ATOM     73  O   UNL     1      28.880  29.683  19.723  1.00  0.00    -0.258 OA
ENDBRANCH  70  71
ENDBRANCH  63  65
ENDBRANCH  59  60
ENDBRANCH  58  59
ENDBRANCH  55  58
ENDBRANCH  53  54
ENDBRANCH  50  53
ENDBRANCH  47  50
ENDBRANCH   5  47
BRANCH   4  74
ATOM     74  N   UNL     1      28.915  39.888   7.219  1.00  0.00    -0.348 N 
ATOM     75  C   UNL     1      30.051  39.171   7.630  1.00  0.00     0.217 C 
ATOM     76  H   UNL     1      29.022  40.766   6.683  1.00  0.00     0.163 HD
ATOM     77  C   UNL     1      31.398  39.720   7.290  1.00  0.00     0.114 C 
ATOM     78  O   UNL     1      29.977  38.105   8.261  1.00  0.00    -0.275 OA
ENDBRANCH   4  74
TORSDOF 31
BEGIN_RES LYS A 131
REMARK  4 active torsions:
REMARK  status: ('A' for Active; 'I' for Inactive)
REMARK    1  A    between atoms: CA   and  CB  
REMARK    2  A    between atoms: CB   and  CG  
REMARK    3  A    between atoms: CG   and  CD  
REMARK    4  A    between atoms: CD   and  CE  
ROOT
ATOM      1  CA  LYS A 131      29.867  25.555  16.977  1.00 20.52     0.186 C 
ENDROOT
BRANCH   1   2
ATOM      2  CB  LYS A 131      28.345  25.722  17.026  1.00 20.94     0.034 C 
BRANCH   2   3
ATOM      3  CG  LYS A 131      27.602  24.399  16.924  1.00 22.96     0.005 C 
BRANCH   3   4
ATOM      4  CD  LYS A 131      26.149  24.536  17.285  1.00 24.33     0.041 C 
BRANCH   4   5
ATOM      5  CE  LYS A 131      26.012  25.425  18.517  1.00 26.91     0.338 C 
ATOM      6  NZ  LYS A 131      25.517  24.639  19.672  1.00 27.40     0.618 N 
ENDBRANCH   4   5
ENDBRANCH   3   4
ENDBRANCH   2   3
ENDBRANCH   1   2
END_RES LYS A 131
BEGIN_RES LYS A 135
REMARK  4 active torsions:
REMARK  status: ('A' for Active; 'I' for Inactive)
REMARK    5  A    between atoms: CA   and  CB  
REMARK    6  A    between atoms: CB   and  CG  
REMARK    7  A    between atoms: CG   and  CD  
REMARK    8  A    between atoms: CD   and  CE  
ROOT
ATOM      7  CA  LYS A 135      33.193  34.663   9.290  1.00 25.02     0.186 C 
ENDROOT
BRANCH   7   8
ATOM      8  CB  LYS A 135      32.060  35.360  10.034  1.00 26.63     0.034 C 
BRANCH   8   9
ATOM      9  CG  LYS A 135      30.707  34.747   9.782  1.00 29.45     0.005 C 
BRANCH   9  10
ATOM     10  CD  LYS A 135      30.469  34.567   8.290  1.00 32.00     0.041 C 
BRANCH  10  11
ATOM     11  CE  LYS A 135      29.007  34.789   7.954  1.00 34.25     0.338 C 
ATOM     12  NZ  LYS A 135      28.856  35.465   6.635  1.00 35.99     0.618 N 
ENDBRANCH  10  11
ENDBRANCH   9  10
ENDBRANCH   8   9
ENDBRANCH   7   8
END_RES LYS A 135
