REMARK VINA RESULT:    -4.185      2.847      4.528
REMARK INTER + INTRA:         -21.794
REMARK INTER:                 -10.927
REMARK INTRA:                 -10.867
REMARK UNBOUND:               -11.125
REMARK SMILES CC(=O)N[C@@H]1[C@@H](O)C[C@](OC[C@H]2O[C@@H](O[C@H]3[C@H](O)[C@@H](O)[C@H](OCCN=[N+]=[N-])O[C@@H]3CO)[C@H](O)[C@@H](O)[C@H]2O)(C(=O)O)O[C@H]1C(O)[C@H](O)CNC(=O)OCc1cn([C@@H](C)C(=O)O)nn1
REMARK SMILES IDX 9 1 8 2 6 3 5 4 42 5 41 6 10 7 11 8 12 9 14 10 13 11 32 12
REMARK SMILES IDX 34 13 36 14 15 15 16 16 29 17 28 18 21 19 17 20 19 21 30 22
REMARK SMILES IDX 31 23 22 25 23 26 24 27 25 28 26 29 27 30 18 31 20 33 33 35
REMARK SMILES IDX 35 37 37 39 38 41 39 42 40 43 7 45 43 47 44 48 45 50 46 51
REMARK SMILES IDX 47 53 48 54 49 55 50 57 51 58 52 59 53 60 54 61 62 62 55 63
REMARK SMILES IDX 61 64 56 65 57 66 58 67 59 68 60 69 4 71 2 72 1 74 3 75
REMARK H PARENT 31 24 18 32 20 34 33 36 35 38 37 40 40 44 7 46 44 49 46 52
REMARK H PARENT 48 56 60 70 4 73
REMARK Flexibility Score: inf
ROOT
ATOM      1  C   UNL     1      30.827  36.009  14.007  1.00  0.00     0.272 C 
ATOM      2  C   UNL     1      31.876  37.041  14.161  1.00  0.00     0.113 C 
ATOM      3  C   UNL     1      31.206  38.275  14.722  1.00  0.00     0.145 C 
ATOM      4  C   UNL     1      30.394  38.813  13.490  1.00  0.00     0.142 C 
ATOM      5  C   UNL     1      29.732  37.723  12.796  1.00  0.00     0.178 C 
ATOM      6  O   UNL     1      29.657  36.510  13.426  1.00  0.00    -0.332 OA
ENDROOT
BRANCH   1   7
ATOM      7  O   UNL     1      30.555  35.353  15.167  1.00  0.00    -0.338 OA
BRANCH   7   8
ATOM      8  C   UNL     1      31.529  34.655  15.779  1.00  0.00     0.199 C 
BRANCH   8   9
ATOM      9  C   UNL     1      30.939  33.495  16.618  1.00  0.00     0.179 C 
ATOM     10  C   UNL     1      29.003  32.954  17.752  1.00  0.00     0.282 C 
ATOM     11  O   UNL     1      29.630  33.818  16.862  1.00  0.00    -0.341 OA
ATOM     12  C   UNL     1      29.829  31.740  18.062  1.00  0.00     0.202 C 
ATOM     13  C   UNL     1      30.405  31.143  16.793  1.00  0.00     0.179 C 
ATOM     14  C   UNL     1      31.054  32.192  15.906  1.00  0.00     0.177 C 
BRANCH  10  15
ATOM     15  O   UNL     1      27.762  32.499  17.285  1.00  0.00    -0.341 OA
BRANCH  15  16
ATOM     16  C   UNL     1      27.126  33.452  16.503  1.00  0.00     0.184 C 
ATOM     17  C   UNL     1      25.877  33.923  17.177  1.00  0.00     0.178 C 
ATOM     18  O   UNL     1      24.724  33.497  16.516  1.00  0.00    -0.341 OA
ATOM     19  C   UNL     1      24.748  32.117  16.296  1.00  0.00     0.281 C 
ATOM     20  C   UNL     1      26.803  32.815  15.172  1.00  0.00     0.180 C 
ATOM     21  C   UNL     1      25.763  31.733  15.257  1.00  0.00     0.202 C 
BRANCH  17  22
ATOM     22  C   UNL     1      25.820  35.430  17.278  1.00  0.00     0.191 C 
BRANCH  22  23
ATOM     23  O   UNL     1      26.184  36.048  16.084  1.00  0.00    -0.394 OA
ATOM     24  H   UNL     1      26.644  35.406  15.505  1.00  0.00     0.210 HD
ENDBRANCH  22  23
ENDBRANCH  17  22
BRANCH  19  25
ATOM     25  O   UNL     1      23.488  31.775  15.836  1.00  0.00    -0.350 OA
BRANCH  25  26
ATOM     26  C   UNL     1      23.352  32.188  14.528  1.00  0.00     0.169 C 
BRANCH  26  27
ATOM     27  C   UNL     1      22.080  32.991  14.351  1.00  0.00     0.119 C 
BRANCH  27  28
ATOM     28  N   UNL     1      22.344  34.066  13.397  1.00  0.00    -0.092 NA
ATOM     29  N   UNL     1      23.159  34.961  13.626  1.00  0.00     0.001 N 
ATOM     30  N   UNL     1      24.144  35.648  13.833  1.00  0.00    -0.003 NA
ENDBRANCH  27  28
ENDBRANCH  26  27
ENDBRANCH  25  26
ENDBRANCH  19  25
BRANCH  20  31
ATOM     31  O   UNL     1      26.414  33.758  14.221  1.00  0.00    -0.387 OA
ATOM     32  H   UNL     1      27.113  33.971  13.566  1.00  0.00     0.211 HD
ENDBRANCH  20  31
BRANCH  21  33
ATOM     33  O   UNL     1      26.351  30.530  15.642  1.00  0.00    -0.385 OA
ATOM     34  H   UNL     1      26.258  29.844  14.941  1.00  0.00     0.211 HD
ENDBRANCH  21  33
ENDBRANCH  15  16
ENDBRANCH  10  15
BRANCH  12  35
ATOM     35  O   UNL     1      30.767  31.927  19.049  1.00  0.00    -0.385 OA
ATOM     36  H   UNL     1      30.310  32.131  19.924  1.00  0.00     0.211 HD
ENDBRANCH  12  35
BRANCH  13  37
ATOM     37  O   UNL     1      29.324  30.564  16.093  1.00  0.00    -0.387 OA
ATOM     38  H   UNL     1      28.979  31.185  15.400  1.00  0.00     0.211 HD
ENDBRANCH  13  37
BRANCH  14  39
ATOM     39  O   UNL     1      30.436  32.237  14.656  1.00  0.00    -0.387 OA
ATOM     40  H   UNL     1      29.539  32.652  14.744  1.00  0.00     0.211 HD
ENDBRANCH  14  39
ENDBRANCH   8   9
ENDBRANCH   7   8
ENDBRANCH   1   7
BRANCH   1  41
ATOM     41  C   UNL     1      31.307  35.033  12.993  1.00  0.00     0.364 C 
ATOM     42  O   UNL     1      30.518  34.222  12.487  1.00  0.00    -0.246 OA
BRANCH  41  43
ATOM     43  O   UNL     1      32.636  35.004  12.593  1.00  0.00    -0.477 OA
ATOM     44  H   UNL     1      32.961  35.581  11.803  1.00  0.00     0.296 HD
ENDBRANCH  41  43
ENDBRANCH   1  41
BRANCH   3  45
ATOM     45  O   UNL     1      30.239  37.860  15.629  1.00  0.00    -0.391 OA
ATOM     46  H   UNL     1      29.638  37.183  15.275  1.00  0.00     0.211 HD
ENDBRANCH   3  45
BRANCH   5  47
ATOM     47  C   UNL     1      28.345  38.012  12.244  1.00  0.00     0.176 C 
BRANCH  47  48
ATOM     48  O   UNL     1      28.234  39.446  12.153  1.00  0.00    -0.388 OA
ATOM     49  H   UNL     1      29.093  39.817  11.890  1.00  0.00     0.211 HD
ENDBRANCH  47  48
BRANCH  47  50
ATOM     50  C   UNL     1      27.218  37.651  13.191  1.00  0.00     0.165 C 
BRANCH  50  51
ATOM     51  O   UNL     1      26.897  36.331  13.256  1.00  0.00    -0.388 OA
ATOM     52  H   UNL     1      26.450  36.015  14.072  1.00  0.00     0.211 HD
ENDBRANCH  50  51
BRANCH  50  53
ATOM     53  C   UNL     1      26.074  38.602  13.099  1.00  0.00     0.154 C 
BRANCH  53  54
ATOM     54  N   UNL     1      25.103  38.359  12.100  1.00  0.00    -0.319 N 
ATOM     55  C   UNL     1      25.036  38.937  10.805  1.00  0.00     0.407 C 
ATOM     56  H   UNL     1      24.334  37.662  12.349  1.00  0.00     0.167 HD
ATOM     57  O   UNL     1      25.906  39.744  10.458  1.00  0.00    -0.225 OA
BRANCH  55  58
ATOM     58  O   UNL     1      23.986  38.587   9.938  1.00  0.00    -0.443 OA
BRANCH  58  59
ATOM     59  C   UNL     1      24.104  37.485   9.078  1.00  0.00     0.294 C 
BRANCH  59  60
ATOM     60  C   UNL     1      22.814  36.883   8.720  1.00  0.00     0.120 A 
ATOM     61  C   UNL     1      21.977  36.096   9.480  1.00  0.00     0.139 A 
ATOM     62  N   UNL     1      22.233  37.036   7.502  1.00  0.00    -0.132 NA
ATOM     63  N   UNL     1      20.926  35.799   8.714  1.00  0.00    -0.238 N 
ATOM     64  N   UNL     1      21.075  36.362   7.522  1.00  0.00    -0.066 NA
BRANCH  63  65
ATOM     65  C   UNL     1      19.794  34.986   9.111  1.00  0.00     0.215 C 
ATOM     66  C   UNL     1      19.159  35.567  10.335  1.00  0.00     0.046 C 
BRANCH  65  67
ATOM     67  C   UNL     1      18.798  34.880   8.019  1.00  0.00     0.328 C 
ATOM     68  O   UNL     1      17.605  35.179   8.264  1.00  0.00    -0.250 OA
BRANCH  67  69
ATOM     69  O   UNL     1      19.139  34.464   6.740  1.00  0.00    -0.480 OA
ATOM     70  H   UNL     1      18.985  35.051   5.929  1.00  0.00     0.296 HD
ENDBRANCH  67  69
ENDBRANCH  65  67
ENDBRANCH  63  65
ENDBRANCH  59  60
ENDBRANCH  58  59
ENDBRANCH  55  58
ENDBRANCH  53  54
ENDBRANCH  50  53
ENDBRANCH  47  50
ENDBRANCH   5  47
BRANCH   4  71
ATOM     71  N   UNL     1      31.303  39.623  12.700  1.00  0.00    -0.348 N 
ATOM     72  C   UNL     1      31.163  40.972  12.379  1.00  0.00     0.217 C 
ATOM     73  H   UNL     1      32.162  39.120  12.334  1.00  0.00     0.163 HD
ATOM     74  C   UNL     1      32.165  41.691  11.556  1.00  0.00     0.114 C 
ATOM     75  O   UNL     1      30.167  41.593  12.794  1.00  0.00    -0.275 OA
ENDBRANCH   4  71
TORSDOF 32
BEGIN_RES LYS A 131
REMARK  4 active torsions:
REMARK  status: ('A' for Active; 'I' for Inactive)
REMARK    1  A    between atoms: CA   and  CB  
REMARK    2  A    between atoms: CB   and  CG  
REMARK    3  A    between atoms: CG   and  CD  
REMARK    4  A    between atoms: CD   and  CE  
ROOT
ATOM      1  CA  LYS A 131      29.867  25.555  16.977  1.00 20.52     0.186 C 
ENDROOT
BRANCH   1   2
ATOM      2  CB  LYS A 131      28.345  25.722  17.026  1.00 20.94     0.034 C 
BRANCH   2   3
ATOM      3  CG  LYS A 131      27.601  24.401  16.905  1.00 22.96     0.005 C 
BRANCH   3   4
ATOM      4  CD  LYS A 131      26.631  24.191  18.033  1.00 24.33     0.041 C 
BRANCH   4   5
ATOM      5  CE  LYS A 131      25.483  25.188  17.910  1.00 26.91     0.338 C 
ATOM      6  NZ  LYS A 131      24.596  25.108  19.094  1.00 27.40     0.618 N 
ENDBRANCH   4   5
ENDBRANCH   3   4
ENDBRANCH   2   3
ENDBRANCH   1   2
END_RES LYS A 131
BEGIN_RES LYS A 135
REMARK  4 active torsions:
REMARK  status: ('A' for Active; 'I' for Inactive)
REMARK    5  A    between atoms: CA   and  CB  
REMARK    6  A    between atoms: CB   and  CG  
REMARK    7  A    between atoms: CG   and  CD  
REMARK    8  A    between atoms: CD   and  CE  
ROOT
ATOM      7  CA  LYS A 135      33.193  34.663   9.290  1.00 25.02     0.186 C 
ENDROOT
BRANCH   7   8
ATOM      8  CB  LYS A 135      32.060  35.360  10.034  1.00 26.63     0.034 C 
BRANCH   8   9
ATOM      9  CG  LYS A 135      30.804  35.510   9.215  1.00 29.45     0.005 C 
BRANCH   9  10
ATOM     10  CD  LYS A 135      30.130  34.161   9.015  1.00 32.00     0.041 C 
BRANCH  10  11
ATOM     11  CE  LYS A 135      28.663  34.343   8.676  1.00 34.25     0.338 C 
ATOM     12  NZ  LYS A 135      27.792  33.732   9.717  1.00 35.99     0.618 N 
ENDBRANCH  10  11
ENDBRANCH   9  10
ENDBRANCH   8   9
ENDBRANCH   7   8
END_RES LYS A 135
