REMARK VINA RESULT:    -4.449      4.218      9.546
REMARK INTER + INTRA:         -21.566
REMARK INTER:                 -11.323
REMARK INTRA:                 -10.243
REMARK UNBOUND:               -10.616
REMARK SMILES CC(=O)N[C@@H]1[C@@H](O)C[C@](OC[C@H]2O[C@@H](O[C@H]3[C@H](O)[C@@H](O)[C@H](OCCN=[N+]=[N-])O[C@@H]3CO)[C@H](O)[C@@H](O)[C@H]2O)(C(=O)O)O[C@H]1C(O)[C@H](O)CNC(=O)OCc1cn(C2CCCC2)nn1
REMARK SMILES IDX 9 1 8 2 6 3 5 4 42 5 41 6 10 7 11 8 12 9 14 10 13 11 32 12
REMARK SMILES IDX 34 13 36 14 15 15 16 16 29 17 28 18 21 19 17 20 19 21 30 22
REMARK SMILES IDX 31 23 22 25 23 26 24 27 25 28 26 29 27 30 18 31 20 33 33 35
REMARK SMILES IDX 35 37 37 39 38 41 39 42 40 43 7 45 43 47 44 48 45 50 46 51
REMARK SMILES IDX 47 53 48 54 49 55 50 57 51 58 52 59 53 60 54 61 62 62 55 63
REMARK SMILES IDX 61 64 56 65 57 66 60 67 58 68 59 69 4 70 2 71 1 73 3 74
REMARK H PARENT 31 24 18 32 20 34 33 36 35 38 37 40 40 44 7 46 44 49 46 52
REMARK H PARENT 48 56 4 72
REMARK Flexibility Score: inf
ROOT
ATOM      1  C   UNL     1      29.129  36.132  15.500  1.00  0.00     0.272 C 
ATOM      2  C   UNL     1      30.180  36.843  14.733  1.00  0.00     0.113 C 
ATOM      3  C   UNL     1      30.662  36.121  13.523  1.00  0.00     0.145 C 
ATOM      4  C   UNL     1      31.011  34.655  13.880  1.00  0.00     0.142 C 
ATOM      5  C   UNL     1      30.759  34.478  15.336  1.00  0.00     0.178 C 
ATOM      6  O   UNL     1      29.351  34.735  15.472  1.00  0.00    -0.332 OA
ENDROOT
BRANCH   1   7
ATOM      7  O   UNL     1      27.876  36.355  15.054  1.00  0.00    -0.338 OA
BRANCH   7   8
ATOM      8  C   UNL     1      27.054  35.293  14.775  1.00  0.00     0.199 C 
BRANCH   8   9
ATOM      9  C   UNL     1      25.621  35.747  15.040  1.00  0.00     0.179 C 
ATOM     10  C   UNL     1      24.629  35.597  12.939  1.00  0.00     0.282 C 
ATOM     11  O   UNL     1      25.047  36.396  13.995  1.00  0.00    -0.341 OA
ATOM     12  C   UNL     1      24.172  34.242  13.353  1.00  0.00     0.202 C 
ATOM     13  C   UNL     1      23.722  34.150  14.778  1.00  0.00     0.179 C 
ATOM     14  C   UNL     1      24.849  34.640  15.652  1.00  0.00     0.177 C 
BRANCH  10  15
ATOM     15  O   UNL     1      25.561  35.582  11.903  1.00  0.00    -0.341 OA
BRANCH  15  16
ATOM     16  C   UNL     1      25.571  36.779  11.187  1.00  0.00     0.184 C 
ATOM     17  C   UNL     1      25.058  36.665   9.791  1.00  0.00     0.178 C 
ATOM     18  O   UNL     1      25.199  37.901   9.162  1.00  0.00    -0.341 OA
ATOM     19  C   UNL     1      26.523  38.103   8.815  1.00  0.00     0.281 C 
ATOM     20  C   UNL     1      27.034  37.190  11.088  1.00  0.00     0.180 C 
ATOM     21  C   UNL     1      27.277  38.300  10.117  1.00  0.00     0.202 C 
BRANCH  17  22
ATOM     22  C   UNL     1      23.568  36.350   9.711  1.00  0.00     0.191 C 
BRANCH  22  23
ATOM     23  O   UNL     1      23.481  34.949   9.755  1.00  0.00    -0.394 OA
ATOM     24  H   UNL     1      24.054  34.539   9.085  1.00  0.00     0.210 HD
ENDBRANCH  22  23
ENDBRANCH  17  22
BRANCH  19  25
ATOM     25  O   UNL     1      26.625  39.291   8.097  1.00  0.00    -0.350 OA
BRANCH  25  26
ATOM     26  C   UNL     1      26.637  39.014   6.720  1.00  0.00     0.169 C 
BRANCH  26  27
ATOM     27  C   UNL     1      27.349  37.700   6.449  1.00  0.00     0.119 C 
BRANCH  27  28
ATOM     28  N   UNL     1      28.672  37.924   5.944  1.00  0.00    -0.092 NA
ATOM     29  N   UNL     1      29.603  38.308   6.680  1.00  0.00     0.001 N 
ATOM     30  N   UNL     1      30.297  39.106   7.305  1.00  0.00    -0.003 NA
ENDBRANCH  27  28
ENDBRANCH  26  27
ENDBRANCH  25  26
ENDBRANCH  19  25
BRANCH  20  31
ATOM     31  O   UNL     1      27.401  37.626  12.359  1.00  0.00    -0.387 OA
ATOM     32  H   UNL     1      28.367  37.521  12.540  1.00  0.00     0.211 HD
ENDBRANCH  20  31
BRANCH  21  33
ATOM     33  O   UNL     1      28.643  38.304   9.796  1.00  0.00    -0.385 OA
ATOM     34  H   UNL     1      29.046  39.014  10.359  1.00  0.00     0.211 HD
ENDBRANCH  21  33
ENDBRANCH  15  16
ENDBRANCH  10  15
BRANCH  12  35
ATOM     35  O   UNL     1      23.072  33.813  12.573  1.00  0.00    -0.385 OA
ATOM     36  H   UNL     1      23.416  33.598  11.685  1.00  0.00     0.211 HD
ENDBRANCH  12  35
BRANCH  13  37
ATOM     37  O   UNL     1      23.465  32.829  15.095  1.00  0.00    -0.387 OA
ATOM     38  H   UNL     1      22.824  32.478  14.437  1.00  0.00     0.211 HD
ENDBRANCH  13  37
BRANCH  14  39
ATOM     39  O   UNL     1      25.619  33.547  16.025  1.00  0.00    -0.387 OA
ATOM     40  H   UNL     1      25.092  32.756  16.210  1.00  0.00     0.211 HD
ENDBRANCH  14  39
ENDBRANCH   8   9
ENDBRANCH   7   8
ENDBRANCH   1   7
BRANCH   1  41
ATOM     41  C   UNL     1      29.289  36.477  16.964  1.00  0.00     0.364 C 
ATOM     42  O   UNL     1      28.697  35.861  17.864  1.00  0.00    -0.246 OA
BRANCH  41  43
ATOM     43  O   UNL     1      30.149  37.542  17.245  1.00  0.00    -0.477 OA
ATOM     44  H   UNL     1      30.434  38.163  16.476  1.00  0.00     0.296 HD
ENDBRANCH  41  43
ENDBRANCH   1  41
BRANCH   3  45
ATOM     45  O   UNL     1      29.854  36.197  12.418  1.00  0.00    -0.391 OA
ATOM     46  H   UNL     1      28.910  36.262  12.689  1.00  0.00     0.211 HD
ENDBRANCH   3  45
BRANCH   5  47
ATOM     47  C   UNL     1      30.913  33.068  15.850  1.00  0.00     0.176 C 
BRANCH  47  48
ATOM     48  O   UNL     1      31.000  32.231  14.660  1.00  0.00    -0.388 OA
ATOM     49  H   UNL     1      31.960  32.269  14.444  1.00  0.00     0.211 HD
ENDBRANCH  47  48
BRANCH  47  50
ATOM     50  C   UNL     1      29.714  32.488  16.546  1.00  0.00     0.165 C 
BRANCH  50  51
ATOM     51  O   UNL     1      29.383  32.977  17.759  1.00  0.00    -0.388 OA
ATOM     52  H   UNL     1      30.065  33.532  18.196  1.00  0.00     0.211 HD
ENDBRANCH  50  51
BRANCH  50  53
ATOM     53  C   UNL     1      29.944  30.988  16.692  1.00  0.00     0.154 C 
BRANCH  53  54
ATOM     54  N   UNL     1      28.633  30.325  16.714  1.00  0.00    -0.319 N 
ATOM     55  C   UNL     1      28.010  29.979  17.940  1.00  0.00     0.407 C 
ATOM     56  H   UNL     1      28.123  30.090  15.824  1.00  0.00     0.167 HD
ATOM     57  O   UNL     1      28.597  30.248  19.020  1.00  0.00    -0.225 OA
BRANCH  55  58
ATOM     58  O   UNL     1      26.783  29.357  17.976  1.00  0.00    -0.443 OA
BRANCH  58  59
ATOM     59  C   UNL     1      25.572  30.058  17.768  1.00  0.00     0.294 C 
BRANCH  59  60
ATOM     60  C   UNL     1      25.076  29.963  16.376  1.00  0.00     0.120 A 
ATOM     61  C   UNL     1      24.079  29.187  15.830  1.00  0.00     0.138 A 
ATOM     62  N   UNL     1      25.564  30.678  15.340  1.00  0.00    -0.132 NA
ATOM     63  N   UNL     1      23.994  29.446  14.522  1.00  0.00    -0.249 N 
ATOM     64  N   UNL     1      24.913  30.360  14.259  1.00  0.00    -0.067 NA
BRANCH  63  65
ATOM     65  C   UNL     1      23.087  28.866  13.539  1.00  0.00     0.109 C 
ATOM     66  C   UNL     1      21.728  28.591  14.094  1.00  0.00     0.027 C 
ATOM     67  C   UNL     1      22.851  29.887  12.446  1.00  0.00     0.027 C 
ATOM     68  C   UNL     1      20.862  29.788  13.798  1.00  0.00     0.002 C 
ATOM     69  C   UNL     1      21.628  30.660  12.837  1.00  0.00     0.002 C 
ENDBRANCH  63  65
ENDBRANCH  59  60
ENDBRANCH  58  59
ENDBRANCH  55  58
ENDBRANCH  53  54
ENDBRANCH  50  53
ENDBRANCH  47  50
ENDBRANCH   5  47
BRANCH   4  70
ATOM     70  N   UNL     1      32.351  34.379  13.417  1.00  0.00    -0.348 N 
ATOM     71  C   UNL     1      33.490  34.816  14.198  1.00  0.00     0.217 C 
ATOM     72  H   UNL     1      32.564  33.855  12.544  1.00  0.00     0.163 HD
ATOM     73  C   UNL     1      34.875  34.543  13.742  1.00  0.00     0.114 C 
ATOM     74  O   UNL     1      33.326  35.439  15.282  1.00  0.00    -0.275 OA
ENDBRANCH   4  70
TORSDOF 30
BEGIN_RES LYS A 131
REMARK  4 active torsions:
REMARK  status: ('A' for Active; 'I' for Inactive)
REMARK    1  A    between atoms: CA   and  CB  
REMARK    2  A    between atoms: CB   and  CG  
REMARK    3  A    between atoms: CG   and  CD  
REMARK    4  A    between atoms: CD   and  CE  
ROOT
ATOM      1  CA  LYS A 131      29.867  25.555  16.977  1.00 20.52     0.186 C 
ENDROOT
BRANCH   1   2
ATOM      2  CB  LYS A 131      28.345  25.722  17.026  1.00 20.94     0.034 C 
BRANCH   2   3
ATOM      3  CG  LYS A 131      27.599  24.476  16.575  1.00 22.96     0.005 C 
BRANCH   3   4
ATOM      4  CD  LYS A 131      27.020  23.712  17.734  1.00 24.33     0.041 C 
BRANCH   4   5
ATOM      5  CE  LYS A 131      25.678  24.322  18.126  1.00 26.91     0.338 C 
ATOM      6  NZ  LYS A 131      24.736  24.281  16.982  1.00 27.40     0.618 N 
ENDBRANCH   4   5
ENDBRANCH   3   4
ENDBRANCH   2   3
ENDBRANCH   1   2
END_RES LYS A 131
BEGIN_RES LYS A 135
REMARK  4 active torsions:
REMARK  status: ('A' for Active; 'I' for Inactive)
REMARK    5  A    between atoms: CA   and  CB  
REMARK    6  A    between atoms: CB   and  CG  
REMARK    7  A    between atoms: CG   and  CD  
REMARK    8  A    between atoms: CD   and  CE  
ROOT
ATOM      7  CA  LYS A 135      33.193  34.663   9.290  1.00 25.02     0.186 C 
ENDROOT
BRANCH   7   8
ATOM      8  CB  LYS A 135      32.060  35.360  10.034  1.00 26.63     0.034 C 
BRANCH   8   9
ATOM      9  CG  LYS A 135      30.809  35.524   9.210  1.00 29.45     0.005 C 
BRANCH   9  10
ATOM     10  CD  LYS A 135      30.147  34.177   8.965  1.00 32.00     0.041 C 
BRANCH  10  11
ATOM     11  CE  LYS A 135      28.729  34.175   9.503  1.00 34.25     0.338 C 
ATOM     12  NZ  LYS A 135      27.755  34.577   8.451  1.00 35.99     0.618 N 
ENDBRANCH  10  11
ENDBRANCH   9  10
ENDBRANCH   8   9
ENDBRANCH   7   8
END_RES LYS A 135
