REMARK VINA RESULT:    -4.202      4.066      9.343
REMARK INTER + INTRA:         -24.398
REMARK INTER:                 -13.445
REMARK INTRA:                 -10.953
REMARK UNBOUND:               -13.073
REMARK SMILES CC(=O)N[C@@H]1[C@@H](O)C[C@](OC[C@H]2O[C@@H](O[C@H]3[C@H](O)[C@@H](O)[C@H](OCCN=[N+]=[N-])O[C@@H]3CO)[C@H](O)[C@@H](O)[C@H]2O)(C(=O)O)O[C@H]1C(O)[C@H](O)CNC(=O)OCc1cn(C[C@@H](C)CN2CCN(c3ccc(Cl)cc3)CC2)nn1
REMARK SMILES IDX 43 1 42 2 9 3 8 4 41 5 6 6 5 7 10 8 11 9 12 10 14 11 13 12
REMARK SMILES IDX 32 13 34 14 36 15 15 16 16 17 29 18 28 19 21 20 17 21 19 22
REMARK SMILES IDX 30 23 31 24 22 26 23 27 24 28 25 29 26 30 27 31 18 32 20 34
REMARK SMILES IDX 33 36 35 38 37 40 38 42 39 43 40 44 7 46 4 48 2 49 1 51 3 52
REMARK SMILES IDX 44 53 45 55 46 56 47 58 48 59 49 60 50 62 51 63 52 64 53 65
REMARK SMILES IDX 54 66 74 67 55 68 73 69 56 70 57 71 58 72 59 73 60 74 61 75
REMARK SMILES IDX 72 76 62 77 71 78 63 79 64 80 65 81 70 82 66 83 69 84 67 85
REMARK SMILES IDX 68 86
REMARK H PARENT 31 25 18 33 20 35 33 37 35 39 37 41 40 45 7 47 4 50 44 54
REMARK H PARENT 46 57 48 61
REMARK Flexibility Score: inf
ROOT
ATOM      1  C   UNL     1      30.596  30.995  19.145  1.00  0.00     0.176 C 
ENDROOT
BRANCH   1   2
ATOM      2  C   UNL     1      29.790  30.209  20.169  1.00  0.00     0.178 C 
ATOM      3  C   UNL     1      27.821  28.940  20.481  1.00  0.00     0.272 C 
ATOM      4  C   UNL     1      27.966  29.285  21.879  1.00  0.00     0.113 C 
ATOM      5  O   UNL     1      28.582  29.842  19.674  1.00  0.00    -0.332 OA
ATOM      6  C   UNL     1      28.393  30.724  22.101  1.00  0.00     0.145 C 
ATOM      7  C   UNL     1      29.803  30.860  21.510  1.00  0.00     0.142 C 
BRANCH   3   8
ATOM      8  O   UNL     1      26.632  28.910  19.886  1.00  0.00    -0.338 OA
BRANCH   8   9
ATOM      9  C   UNL     1      26.156  29.676  18.940  1.00  0.00     0.199 C 
BRANCH   9  10
ATOM     10  C   UNL     1      25.647  29.149  17.630  1.00  0.00     0.179 C 
ATOM     11  C   UNL     1      24.428  30.099  15.881  1.00  0.00     0.282 C 
ATOM     12  O   UNL     1      24.492  29.736  17.200  1.00  0.00    -0.341 OA
ATOM     13  C   UNL     1      25.458  31.181  15.616  1.00  0.00     0.202 C 
ATOM     14  C   UNL     1      26.807  30.639  15.958  1.00  0.00     0.179 C 
ATOM     15  C   UNL     1      26.769  29.289  16.590  1.00  0.00     0.177 C 
BRANCH  11  16
ATOM     16  O   UNL     1      23.150  30.682  15.699  1.00  0.00    -0.341 OA
BRANCH  16  17
ATOM     17  C   UNL     1      22.181  29.726  15.873  1.00  0.00     0.184 C 
ATOM     18  C   UNL     1      22.077  28.778  14.696  1.00  0.00     0.178 C 
ATOM     19  O   UNL     1      20.936  28.899  13.963  1.00  0.00    -0.341 OA
ATOM     20  C   UNL     1      19.744  28.784  14.655  1.00  0.00     0.281 C 
ATOM     21  C   UNL     1      20.824  30.345  16.190  1.00  0.00     0.180 C 
ATOM     22  C   UNL     1      19.806  29.232  16.090  1.00  0.00     0.202 C 
BRANCH  18  23
ATOM     23  C   UNL     1      22.394  27.344  15.090  1.00  0.00     0.191 C 
BRANCH  23  24
ATOM     24  O   UNL     1      22.749  27.233  16.411  1.00  0.00    -0.394 OA
ATOM     25  H   UNL     1      22.229  27.932  16.913  1.00  0.00     0.210 HD
ENDBRANCH  23  24
ENDBRANCH  18  23
BRANCH  20  26
ATOM     26  O   UNL     1      19.211  27.503  14.587  1.00  0.00    -0.350 OA
BRANCH  26  27
ATOM     27  C   UNL     1      18.215  27.322  13.671  1.00  0.00     0.169 C 
BRANCH  27  28
ATOM     28  C   UNL     1      18.739  26.799  12.364  1.00  0.00     0.119 C 
BRANCH  28  29
ATOM     29  N   UNL     1      18.224  27.620  11.280  1.00  0.00    -0.092 NA
ATOM     30  N   UNL     1      18.467  28.841  11.269  1.00  0.00     0.001 N 
ATOM     31  N   UNL     1      18.775  30.020  11.378  1.00  0.00    -0.003 NA
ENDBRANCH  28  29
ENDBRANCH  27  28
ENDBRANCH  26  27
ENDBRANCH  20  26
BRANCH  21  32
ATOM     32  O   UNL     1      20.794  30.824  17.498  1.00  0.00    -0.387 OA
ATOM     33  H   UNL     1      19.839  30.746  17.789  1.00  0.00     0.211 HD
ENDBRANCH  21  32
BRANCH  22  34
ATOM     34  O   UNL     1      18.540  29.767  16.430  1.00  0.00    -0.385 OA
ATOM     35  H   UNL     1      17.966  29.131  16.885  1.00  0.00     0.211 HD
ENDBRANCH  22  34
ENDBRANCH  16  17
ENDBRANCH  11  16
BRANCH  13  36
ATOM     36  O   UNL     1      25.338  31.573  14.294  1.00  0.00    -0.385 OA
ATOM     37  H   UNL     1      26.268  31.625  13.924  1.00  0.00     0.211 HD
ENDBRANCH  13  36
BRANCH  14  38
ATOM     38  O   UNL     1      27.576  31.525  16.723  1.00  0.00    -0.387 OA
ATOM     39  H   UNL     1      27.835  31.121  17.582  1.00  0.00     0.211 HD
ENDBRANCH  14  38
BRANCH  15  40
ATOM     40  O   UNL     1      27.966  28.987  17.190  1.00  0.00    -0.387 OA
ATOM     41  H   UNL     1      28.084  28.021  17.336  1.00  0.00     0.211 HD
ENDBRANCH  15  40
ENDBRANCH   9  10
ENDBRANCH   8   9
ENDBRANCH   3   8
BRANCH   3  42
ATOM     42  C   UNL     1      28.550  27.643  20.188  1.00  0.00     0.364 C 
ATOM     43  O   UNL     1      29.577  27.309  20.876  1.00  0.00    -0.246 OA
BRANCH  42  44
ATOM     44  O   UNL     1      28.192  26.762  19.199  1.00  0.00    -0.477 OA
ATOM     45  H   UNL     1      27.228  26.485  19.059  1.00  0.00     0.296 HD
ENDBRANCH  42  44
ENDBRANCH   3  42
BRANCH   6  46
ATOM     46  O   UNL     1      27.497  31.528  21.397  1.00  0.00    -0.391 OA
ATOM     47  H   UNL     1      27.855  31.785  20.513  1.00  0.00     0.211 HD
ENDBRANCH   6  46
BRANCH   7  48
ATOM     48  N   UNL     1      30.715  30.218  22.435  1.00  0.00    -0.348 N 
ATOM     49  C   UNL     1      32.022  30.737  22.620  1.00  0.00     0.217 C 
ATOM     50  H   UNL     1      30.451  29.359  22.991  1.00  0.00     0.163 HD
ATOM     51  C   UNL     1      32.939  30.041  23.590  1.00  0.00     0.114 C 
ATOM     52  O   UNL     1      32.455  31.756  22.011  1.00  0.00    -0.275 OA
ENDBRANCH   7  48
ENDBRANCH   1   2
BRANCH   1  53
ATOM     53  O   UNL     1      30.320  30.446  17.893  1.00  0.00    -0.388 OA
ATOM     54  H   UNL     1      31.049  29.857  17.591  1.00  0.00     0.211 HD
ENDBRANCH   1  53
BRANCH   1  55
ATOM     55  C   UNL     1      30.229  32.450  19.065  1.00  0.00     0.165 C 
BRANCH  55  56
ATOM     56  O   UNL     1      28.887  32.715  18.988  1.00  0.00    -0.388 OA
ATOM     57  H   UNL     1      28.408  32.503  19.807  1.00  0.00     0.211 HD
ENDBRANCH  55  56
BRANCH  55  58
ATOM     58  C   UNL     1      30.991  33.228  18.048  1.00  0.00     0.154 C 
BRANCH  58  59
ATOM     59  N   UNL     1      30.092  33.541  16.934  1.00  0.00    -0.319 N 
ATOM     60  C   UNL     1      30.267  32.955  15.659  1.00  0.00     0.407 C 
ATOM     61  H   UNL     1      29.311  34.209  17.092  1.00  0.00     0.167 HD
ATOM     62  O   UNL     1      31.223  32.158  15.502  1.00  0.00    -0.225 OA
BRANCH  60  63
ATOM     63  O   UNL     1      29.398  33.261  14.620  1.00  0.00    -0.443 OA
BRANCH  63  64
ATOM     64  C   UNL     1      28.861  34.583  14.566  1.00  0.00     0.294 C 
BRANCH  64  65
ATOM     65  C   UNL     1      27.571  34.694  15.284  1.00  0.00     0.120 A 
ATOM     66  C   UNL     1      26.395  35.226  14.804  1.00  0.00     0.138 A 
ATOM     67  N   UNL     1      27.294  34.300  16.549  1.00  0.00    -0.132 NA
ATOM     68  N   UNL     1      25.490  35.132  15.773  1.00  0.00    -0.252 N 
ATOM     69  N   UNL     1      26.038  34.571  16.828  1.00  0.00    -0.067 NA
BRANCH  68  70
ATOM     70  C   UNL     1      24.108  35.600  15.662  1.00  0.00     0.150 C 
BRANCH  70  71
ATOM     71  C   UNL     1      23.212  34.501  15.083  1.00  0.00     0.022 C 
ATOM     72  C   UNL     1      22.327  34.048  16.225  1.00  0.00     0.011 C 
BRANCH  71  73
ATOM     73  C   UNL     1      22.410  35.067  13.954  1.00  0.00     0.089 C 
BRANCH  73  74
ATOM     74  N   UNL     1      22.911  34.949  12.648  1.00  0.00    -0.299 NA
ATOM     75  C   UNL     1      23.874  33.984  12.321  1.00  0.00     0.106 C 
ATOM     76  C   UNL     1      22.926  36.159  11.891  1.00  0.00     0.106 C 
ATOM     77  C   UNL     1      25.085  34.582  11.605  1.00  0.00     0.132 C 
ATOM     78  C   UNL     1      23.275  35.847  10.447  1.00  0.00     0.132 C 
ATOM     79  N   UNL     1      24.623  35.345  10.447  1.00  0.00    -0.369 N 
BRANCH  79  80
ATOM     80  C   UNL     1      25.503  35.570   9.381  1.00  0.00     0.037 A 
ATOM     81  C   UNL     1      26.441  34.621   8.981  1.00  0.00     0.027 A 
ATOM     82  C   UNL     1      25.499  36.745   8.640  1.00  0.00     0.027 A 
ATOM     83  C   UNL     1      27.310  34.814   7.934  1.00  0.00     0.022 A 
ATOM     84  C   UNL     1      26.371  36.942   7.588  1.00  0.00     0.022 A 
ATOM     85  C   UNL     1      27.288  35.983   7.219  1.00  0.00     0.041 A 
ATOM     86  Cl  UNL     1      28.383  36.226   5.898  1.00  0.00    -0.084 Cl
ENDBRANCH  79  80
ENDBRANCH  73  74
ENDBRANCH  71  73
ENDBRANCH  70  71
ENDBRANCH  68  70
ENDBRANCH  64  65
ENDBRANCH  63  64
ENDBRANCH  60  63
ENDBRANCH  58  59
ENDBRANCH  55  58
ENDBRANCH   1  55
TORSDOF 34
BEGIN_RES LYS A 131
REMARK  4 active torsions:
REMARK  status: ('A' for Active; 'I' for Inactive)
REMARK    1  A    between atoms: CA   and  CB  
REMARK    2  A    between atoms: CB   and  CG  
REMARK    3  A    between atoms: CG   and  CD  
REMARK    4  A    between atoms: CD   and  CE  
ROOT
ATOM      1  CA  LYS A 131      29.867  25.555  16.977  1.00 20.52     0.186 C 
ENDROOT
BRANCH   1   2
ATOM      2  CB  LYS A 131      28.345  25.722  17.026  1.00 20.94     0.034 C 
BRANCH   2   3
ATOM      3  CG  LYS A 131      27.599  24.461  16.619  1.00 22.96     0.005 C 
BRANCH   3   4
ATOM      4  CD  LYS A 131      27.026  23.734  17.805  1.00 24.33     0.041 C 
BRANCH   4   5
ATOM      5  CE  LYS A 131      25.586  23.331  17.507  1.00 26.91     0.338 C 
ATOM      6  NZ  LYS A 131      24.813  24.494  17.012  1.00 27.40     0.618 N 
ENDBRANCH   4   5
ENDBRANCH   3   4
ENDBRANCH   2   3
ENDBRANCH   1   2
END_RES LYS A 131
BEGIN_RES LYS A 135
REMARK  4 active torsions:
REMARK  status: ('A' for Active; 'I' for Inactive)
REMARK    5  A    between atoms: CA   and  CB  
REMARK    6  A    between atoms: CB   and  CG  
REMARK    7  A    between atoms: CG   and  CD  
REMARK    8  A    between atoms: CD   and  CE  
ROOT
ATOM      7  CA  LYS A 135      33.193  34.663   9.290  1.00 25.02     0.186 C 
ENDROOT
BRANCH   7   8
ATOM      8  CB  LYS A 135      32.060  35.360  10.034  1.00 26.63     0.034 C 
BRANCH   8   9
ATOM      9  CG  LYS A 135      30.769  35.408   9.258  1.00 29.45     0.005 C 
BRANCH   9  10
ATOM     10  CD  LYS A 135      29.981  36.662   9.603  1.00 32.00     0.041 C 
BRANCH  10  11
ATOM     11  CE  LYS A 135      29.756  36.754  11.100  1.00 34.25     0.338 C 
ATOM     12  NZ  LYS A 135      28.335  36.471  11.447  1.00 35.99     0.618 N 
ENDBRANCH  10  11
ENDBRANCH   9  10
ENDBRANCH   8   9
ENDBRANCH   7   8
END_RES LYS A 135
