REMARK VINA RESULT:    -4.525      4.450     10.739
REMARK INTER + INTRA:         -23.113
REMARK INTER:                 -11.572
REMARK INTRA:                 -11.541
REMARK UNBOUND:               -10.521
REMARK SMILES CC(=O)N[C@@H]1[C@@H](O)C[C@](OC[C@H]2O[C@@H](O[C@H]3[C@H](O)[C@@H](O)[C@H](OCCN=[N+]=[N-])O[C@@H]3CO)[C@H](O)[C@@H](O)[C@H]2O)(C(=O)O)O[C@H]1C(O)[C@H](O)CNC(=O)OCc1cn(CCCCCC(=O)O)nn1
REMARK SMILES IDX 47 1 45 2 43 3 42 4 9 5 8 6 41 7 6 8 5 9 10 10 11 11 12 12
REMARK SMILES IDX 14 13 13 14 32 15 34 16 36 17 15 18 16 19 29 20 28 21 21 22
REMARK SMILES IDX 17 23 19 24 30 25 31 26 22 28 23 29 24 30 25 31 26 32 27 33
REMARK SMILES IDX 18 34 20 36 33 38 35 40 37 42 38 44 39 45 40 46 7 48 4 50
REMARK SMILES IDX 2 51 1 53 3 54 44 55 46 57 48 59 49 60 50 62 51 63 52 64
REMARK SMILES IDX 53 65 54 66 65 67 55 68 64 69 56 70 57 71 58 72 59 73 60 74
REMARK SMILES IDX 61 75 62 76 63 77
REMARK H PARENT 31 27 18 35 20 37 33 39 35 41 37 43 40 47 7 49 4 52 44 56
REMARK H PARENT 46 58 48 61 63 78
REMARK Flexibility Score: inf
ROOT
ATOM      1  C   UNL     1      31.482  38.435  12.418  1.00  0.00     0.154 C 
ENDROOT
BRANCH   1   2
ATOM      2  C   UNL     1      30.394  38.587  13.454  1.00  0.00     0.165 C 
BRANCH   2   3
ATOM      3  C   UNL     1      31.059  38.538  14.791  1.00  0.00     0.176 C 
BRANCH   3   4
ATOM      4  C   UNL     1      31.858  37.316  15.081  1.00  0.00     0.178 C 
ATOM      5  C   UNL     1      31.942  35.070  14.928  1.00  0.00     0.272 C 
ATOM      6  C   UNL     1      33.406  35.297  15.127  1.00  0.00     0.113 C 
ATOM      7  O   UNL     1      31.122  36.151  15.220  1.00  0.00    -0.332 OA
ATOM      8  C   UNL     1      33.816  36.353  16.081  1.00  0.00     0.145 C 
ATOM      9  C   UNL     1      32.717  37.396  16.324  1.00  0.00     0.142 C 
BRANCH   5  10
ATOM     10  O   UNL     1      31.491  33.901  15.539  1.00  0.00    -0.338 OA
BRANCH  10  11
ATOM     11  C   UNL     1      30.993  34.007  16.798  1.00  0.00     0.199 C 
BRANCH  11  12
ATOM     12  C   UNL     1      29.721  33.181  16.834  1.00  0.00     0.179 C 
ATOM     13  C   UNL     1      27.619  32.891  16.127  1.00  0.00     0.282 C 
ATOM     14  O   UNL     1      28.909  33.347  15.723  1.00  0.00    -0.341 OA
ATOM     15  C   UNL     1      27.629  31.747  17.037  1.00  0.00     0.202 C 
ATOM     16  C   UNL     1      28.888  30.930  17.107  1.00  0.00     0.179 C 
ATOM     17  C   UNL     1      30.135  31.721  16.811  1.00  0.00     0.177 C 
BRANCH  13  18
ATOM     18  O   UNL     1      26.771  32.860  15.023  1.00  0.00    -0.341 OA
BRANCH  18  19
ATOM     19  C   UNL     1      26.287  34.049  14.623  1.00  0.00     0.184 C 
ATOM     20  C   UNL     1      24.825  34.014  14.296  1.00  0.00     0.178 C 
ATOM     21  O   UNL     1      24.412  35.363  14.296  1.00  0.00    -0.341 OA
ATOM     22  C   UNL     1      24.938  36.034  13.245  1.00  0.00     0.281 C 
ATOM     23  C   UNL     1      26.926  34.459  13.251  1.00  0.00     0.180 C 
ATOM     24  C   UNL     1      25.919  35.252  12.456  1.00  0.00     0.202 C 
BRANCH  20  25
ATOM     25  C   UNL     1      23.987  33.300  15.323  1.00  0.00     0.191 C 
BRANCH  25  26
ATOM     26  O   UNL     1      24.115  31.933  15.200  1.00  0.00    -0.394 OA
ATOM     27  H   UNL     1      23.729  31.673  14.322  1.00  0.00     0.210 HD
ENDBRANCH  25  26
ENDBRANCH  20  25
BRANCH  22  28
ATOM     28  O   UNL     1      25.464  37.286  13.588  1.00  0.00    -0.350 OA
BRANCH  28  29
ATOM     29  C   UNL     1      25.399  37.539  14.934  1.00  0.00     0.169 C 
BRANCH  29  30
ATOM     30  C   UNL     1      26.684  38.217  15.390  1.00  0.00     0.119 C 
BRANCH  30  31
ATOM     31  N   UNL     1      27.711  37.232  15.686  1.00  0.00    -0.092 NA
ATOM     32  N   UNL     1      27.612  36.532  16.711  1.00  0.00     0.001 N 
ATOM     33  N   UNL     1      27.828  36.153  17.864  1.00  0.00    -0.003 NA
ENDBRANCH  30  31
ENDBRANCH  29  30
ENDBRANCH  28  29
ENDBRANCH  22  28
BRANCH  23  34
ATOM     34  O   UNL     1      28.013  35.294  13.505  1.00  0.00    -0.387 OA
ATOM     35  H   UNL     1      28.563  35.368  12.672  1.00  0.00     0.211 HD
ENDBRANCH  23  34
BRANCH  24  36
ATOM     36  O   UNL     1      25.354  34.515  11.408  1.00  0.00    -0.385 OA
ATOM     37  H   UNL     1      26.007  33.908  10.979  1.00  0.00     0.211 HD
ENDBRANCH  24  36
ENDBRANCH  18  19
ENDBRANCH  13  18
BRANCH  15  38
ATOM     38  O   UNL     1      27.368  32.140  18.382  1.00  0.00    -0.385 OA
ATOM     39  H   UNL     1      27.285  31.356  18.954  1.00  0.00     0.211 HD
ENDBRANCH  15  38
BRANCH  16  40
ATOM     40  O   UNL     1      28.875  29.842  16.217  1.00  0.00    -0.387 OA
ATOM     41  H   UNL     1      29.350  30.024  15.386  1.00  0.00     0.211 HD
ENDBRANCH  16  40
BRANCH  17  42
ATOM     42  O   UNL     1      30.544  31.456  15.479  1.00  0.00    -0.387 OA
ATOM     43  H   UNL     1      29.790  30.916  15.082  1.00  0.00     0.211 HD
ENDBRANCH  17  42
ENDBRANCH  11  12
ENDBRANCH  10  11
ENDBRANCH   5  10
BRANCH   5  44
ATOM     44  C   UNL     1      31.749  34.829  13.470  1.00  0.00     0.364 C 
ATOM     45  O   UNL     1      30.612  34.590  13.007  1.00  0.00    -0.246 OA
BRANCH  44  46
ATOM     46  O   UNL     1      32.823  34.867  12.616  1.00  0.00    -0.477 OA
ATOM     47  H   UNL     1      32.726  34.871  11.586  1.00  0.00     0.296 HD
ENDBRANCH  44  46
ENDBRANCH   5  44
BRANCH   8  48
ATOM     48  O   UNL     1      34.376  35.898  17.272  1.00  0.00    -0.391 OA
ATOM     49  H   UNL     1      33.700  35.998  17.979  1.00  0.00     0.211 HD
ENDBRANCH   8  48
BRANCH   9  50
ATOM     50  N   UNL     1      33.261  38.680  16.598  1.00  0.00    -0.348 N 
ATOM     51  C   UNL     1      32.793  39.417  17.712  1.00  0.00     0.217 C 
ATOM     52  H   UNL     1      33.995  39.087  16.001  1.00  0.00     0.163 HD
ATOM     53  C   UNL     1      33.347  40.761  18.023  1.00  0.00     0.114 C 
ATOM     54  O   UNL     1      31.894  38.973  18.484  1.00  0.00    -0.275 OA
ENDBRANCH   9  50
ENDBRANCH   3   4
BRANCH   3  55
ATOM     55  O   UNL     1      30.122  38.725  15.833  1.00  0.00    -0.388 OA
ATOM     56  H   UNL     1      29.373  39.277  15.513  1.00  0.00     0.211 HD
ENDBRANCH   3  55
ENDBRANCH   2   3
BRANCH   2  57
ATOM     57  O   UNL     1      29.508  37.526  13.305  1.00  0.00    -0.388 OA
ATOM     58  H   UNL     1      28.953  37.723  12.509  1.00  0.00     0.211 HD
ENDBRANCH   2  57
ENDBRANCH   1   2
BRANCH   1  59
ATOM     59  N   UNL     1      31.051  37.837  11.195  1.00  0.00    -0.319 N 
ATOM     60  C   UNL     1      31.384  38.492   9.966  1.00  0.00     0.407 C 
ATOM     61  H   UNL     1      30.511  36.958  11.156  1.00  0.00     0.167 HD
ATOM     62  O   UNL     1      32.039  39.564   9.973  1.00  0.00    -0.225 OA
BRANCH  60  63
ATOM     63  O   UNL     1      31.004  37.986   8.745  1.00  0.00    -0.443 OA
BRANCH  63  64
ATOM     64  C   UNL     1      30.378  38.713   7.747  1.00  0.00     0.294 C 
BRANCH  64  65
ATOM     65  C   UNL     1      28.981  38.370   7.453  1.00  0.00     0.120 A 
ATOM     66  C   UNL     1      27.874  38.651   8.210  1.00  0.00     0.138 A 
ATOM     67  N   UNL     1      28.553  37.690   6.365  1.00  0.00    -0.132 NA
ATOM     68  N   UNL     1      26.814  38.144   7.578  1.00  0.00    -0.252 N 
ATOM     69  N   UNL     1      27.257  37.576   6.476  1.00  0.00    -0.067 NA
BRANCH  68  70
ATOM     70  C   UNL     1      25.432  38.224   8.032  1.00  0.00     0.146 C 
BRANCH  70  71
ATOM     71  C   UNL     1      24.954  36.806   8.342  1.00  0.00     0.024 C 
BRANCH  71  72
ATOM     72  C   UNL     1      23.774  36.817   9.269  1.00  0.00     0.002 C 
BRANCH  72  73
ATOM     73  C   UNL     1      22.979  35.555   9.099  1.00  0.00     0.012 C 
BRANCH  73  74
ATOM     74  C   UNL     1      21.705  35.753   8.346  1.00  0.00     0.122 C 
BRANCH  74  75
ATOM     75  C   UNL     1      20.549  35.455   9.237  1.00  0.00     0.303 C 
ATOM     76  O   UNL     1      20.738  35.240  10.455  1.00  0.00    -0.252 OA
BRANCH  75  77
ATOM     77  O   UNL     1      19.251  35.412   8.739  1.00  0.00    -0.481 OA
ATOM     78  H   UNL     1      19.098  35.441   7.729  1.00  0.00     0.296 HD
ENDBRANCH  75  77
ENDBRANCH  74  75
ENDBRANCH  73  74
ENDBRANCH  72  73
ENDBRANCH  71  72
ENDBRANCH  70  71
ENDBRANCH  68  70
ENDBRANCH  64  65
ENDBRANCH  63  64
ENDBRANCH  60  63
ENDBRANCH   1  59
TORSDOF 36
BEGIN_RES LYS A 131
REMARK  4 active torsions:
REMARK  status: ('A' for Active; 'I' for Inactive)
REMARK    1  A    between atoms: CA   and  CB  
REMARK    2  A    between atoms: CB   and  CG  
REMARK    3  A    between atoms: CG   and  CD  
REMARK    4  A    between atoms: CD   and  CE  
ROOT
ATOM      1  CA  LYS A 131      29.867  25.555  16.977  1.00 20.52     0.186 C 
ENDROOT
BRANCH   1   2
ATOM      2  CB  LYS A 131      28.345  25.722  17.026  1.00 20.94     0.034 C 
BRANCH   2   3
ATOM      3  CG  LYS A 131      27.601  24.402  16.892  1.00 22.96     0.005 C 
BRANCH   3   4
ATOM      4  CD  LYS A 131      26.150  24.529  17.266  1.00 24.33     0.041 C 
BRANCH   4   5
ATOM      5  CE  LYS A 131      26.032  24.788  18.764  1.00 26.91     0.338 C 
ATOM      6  NZ  LYS A 131      25.504  23.589  19.458  1.00 27.40     0.618 N 
ENDBRANCH   4   5
ENDBRANCH   3   4
ENDBRANCH   2   3
ENDBRANCH   1   2
END_RES LYS A 131
BEGIN_RES LYS A 135
REMARK  4 active torsions:
REMARK  status: ('A' for Active; 'I' for Inactive)
REMARK    5  A    between atoms: CA   and  CB  
REMARK    6  A    between atoms: CB   and  CG  
REMARK    7  A    between atoms: CG   and  CD  
REMARK    8  A    between atoms: CD   and  CE  
ROOT
ATOM      7  CA  LYS A 135      33.193  34.663   9.290  1.00 25.02     0.186 C 
ENDROOT
BRANCH   7   8
ATOM      8  CB  LYS A 135      32.060  35.360  10.034  1.00 26.63     0.034 C 
BRANCH   8   9
ATOM      9  CG  LYS A 135      30.719  34.700   9.844  1.00 29.45     0.005 C 
BRANCH   9  10
ATOM     10  CD  LYS A 135      30.371  34.606   8.367  1.00 32.00     0.041 C 
BRANCH  10  11
ATOM     11  CE  LYS A 135      28.867  34.624   8.172  1.00 34.25     0.338 C 
ATOM     12  NZ  LYS A 135      28.167  34.023   9.341  1.00 35.99     0.618 N 
ENDBRANCH  10  11
ENDBRANCH   9  10
ENDBRANCH   8   9
ENDBRANCH   7   8
END_RES LYS A 135
