REMARK VINA RESULT:    -4.244      4.216     10.922
REMARK INTER + INTRA:         -21.634
REMARK INTER:                 -12.269
REMARK INTRA:                  -9.365
REMARK UNBOUND:               -10.939
REMARK SMILES CC(=O)N[C@@H]1[C@@H](O)C[C@](OC[C@H]2O[C@@H](O[C@H]3[C@H](O)[C@@H](O)[C@H](OCCN=[N+]=[N-])O[C@@H]3CO)[C@H](O)[C@@H](O)[C@H]2O)(C(=O)O)O[C@H]1C(O)[C@H](O)CNC(=O)OCc1cn(Cc2ccsc2)nn1
REMARK SMILES IDX 9 1 8 2 6 3 5 4 42 5 41 6 10 7 11 8 12 9 14 10 13 11 32 12
REMARK SMILES IDX 34 13 36 14 15 15 16 16 29 17 28 18 21 19 17 20 19 21 30 22
REMARK SMILES IDX 31 23 22 25 23 26 24 27 25 28 26 29 27 30 18 31 20 33 33 35
REMARK SMILES IDX 35 37 37 39 38 41 39 42 40 43 7 45 43 47 44 48 45 50 46 51
REMARK SMILES IDX 47 53 48 54 49 55 50 57 51 58 52 59 53 60 54 61 63 62 55 63
REMARK SMILES IDX 62 64 56 65 57 66 58 67 61 68 59 69 60 70 4 71 2 72 1 74
REMARK SMILES IDX 3 75
REMARK H PARENT 31 24 18 32 20 34 33 36 35 38 37 40 40 44 7 46 44 49 46 52
REMARK H PARENT 48 56 4 73
REMARK Flexibility Score: inf
ROOT
ATOM      1  C   UNL     1      26.159  37.855   7.458  1.00  0.00     0.272 C 
ATOM      2  C   UNL     1      27.345  37.368   6.680  1.00  0.00     0.113 C 
ATOM      3  C   UNL     1      28.536  38.287   6.699  1.00  0.00     0.145 C 
ATOM      4  C   UNL     1      28.811  38.859   8.035  1.00  0.00     0.142 C 
ATOM      5  C   UNL     1      27.595  38.991   8.931  1.00  0.00     0.178 C 
ATOM      6  O   UNL     1      26.657  38.028   8.809  1.00  0.00    -0.332 OA
ENDROOT
BRANCH   1   7
ATOM      7  O   UNL     1      25.276  36.848   7.625  1.00  0.00    -0.338 OA
BRANCH   7   8
ATOM      8  C   UNL     1      25.128  36.124   8.718  1.00  0.00     0.199 C 
BRANCH   8   9
ATOM      9  C   UNL     1      23.859  35.918   9.435  1.00  0.00     0.179 C 
ATOM     10  C   UNL     1      23.204  35.123  11.463  1.00  0.00     0.282 C 
ATOM     11  O   UNL     1      24.205  35.902  10.839  1.00  0.00    -0.341 OA
ATOM     12  C   UNL     1      21.825  35.541  11.083  1.00  0.00     0.202 C 
ATOM     13  C   UNL     1      21.706  36.767  10.253  1.00  0.00     0.179 C 
ATOM     14  C   UNL     1      22.887  37.084   9.379  1.00  0.00     0.177 C 
BRANCH  10  15
ATOM     15  O   UNL     1      23.437  35.148  12.815  1.00  0.00    -0.341 OA
BRANCH  15  16
ATOM     16  C   UNL     1      22.843  34.083  13.512  1.00  0.00     0.184 C 
ATOM     17  C   UNL     1      23.177  34.108  14.962  1.00  0.00     0.178 C 
ATOM     18  O   UNL     1      24.217  33.338  15.382  1.00  0.00    -0.341 OA
ATOM     19  C   UNL     1      24.915  32.675  14.358  1.00  0.00     0.281 C 
ATOM     20  C   UNL     1      23.054  32.773  12.820  1.00  0.00     0.180 C 
ATOM     21  C   UNL     1      23.895  31.810  13.668  1.00  0.00     0.202 C 
BRANCH  17  22
ATOM     22  C   UNL     1      21.974  33.810  15.843  1.00  0.00     0.191 C 
BRANCH  22  23
ATOM     23  O   UNL     1      22.361  32.799  16.722  1.00  0.00    -0.394 OA
ATOM     24  H   UNL     1      21.807  31.973  16.601  1.00  0.00     0.210 HD
ENDBRANCH  22  23
ENDBRANCH  17  22
BRANCH  19  25
ATOM     25  O   UNL     1      25.957  32.007  14.942  1.00  0.00    -0.350 OA
BRANCH  25  26
ATOM     26  C   UNL     1      25.654  31.448  16.168  1.00  0.00     0.169 C 
BRANCH  26  27
ATOM     27  C   UNL     1      25.634  29.955  16.215  1.00  0.00     0.119 C 
BRANCH  27  28
ATOM     28  N   UNL     1      26.930  29.428  16.545  1.00  0.00    -0.092 NA
ATOM     29  N   UNL     1      27.037  28.737  17.571  1.00  0.00     0.001 N 
ATOM     30  N   UNL     1      27.414  27.958  18.446  1.00  0.00    -0.003 NA
ENDBRANCH  27  28
ENDBRANCH  26  27
ENDBRANCH  25  26
ENDBRANCH  19  25
BRANCH  20  31
ATOM     31  O   UNL     1      21.895  32.164  12.388  1.00  0.00    -0.387 OA
ATOM     32  H   UNL     1      21.150  32.334  13.002  1.00  0.00     0.211 HD
ENDBRANCH  20  31
BRANCH  21  33
ATOM     33  O   UNL     1      24.464  30.810  12.922  1.00  0.00    -0.385 OA
ATOM     34  H   UNL     1      24.185  29.902  13.222  1.00  0.00     0.211 HD
ENDBRANCH  21  33
ENDBRANCH  15  16
ENDBRANCH  10  15
BRANCH  12  35
ATOM     35  O   UNL     1      21.092  34.460  10.527  1.00  0.00    -0.385 OA
ATOM     36  H   UNL     1      21.708  33.858  10.033  1.00  0.00     0.211 HD
ENDBRANCH  12  35
BRANCH  13  37
ATOM     37  O   UNL     1      21.522  37.875  11.105  1.00  0.00    -0.387 OA
ATOM     38  H   UNL     1      20.557  38.071  11.148  1.00  0.00     0.211 HD
ENDBRANCH  13  37
BRANCH  14  39
ATOM     39  O   UNL     1      23.611  38.181   9.907  1.00  0.00    -0.387 OA
ATOM     40  H   UNL     1      24.348  37.755  10.446  1.00  0.00     0.211 HD
ENDBRANCH  14  39
ENDBRANCH   8   9
ENDBRANCH   7   8
ENDBRANCH   1   7
BRANCH   1  41
ATOM     41  C   UNL     1      25.676  39.185   7.087  1.00  0.00     0.364 C 
ATOM     42  O   UNL     1      24.993  39.899   7.845  1.00  0.00    -0.246 OA
BRANCH  41  43
ATOM     43  O   UNL     1      25.953  39.756   5.830  1.00  0.00    -0.477 OA
ATOM     44  H   UNL     1      25.220  39.887   5.147  1.00  0.00     0.296 HD
ENDBRANCH  41  43
ENDBRANCH   1  41
BRANCH   3  45
ATOM     45  O   UNL     1      29.630  37.449   6.348  1.00  0.00    -0.391 OA
ATOM     46  H   UNL     1      29.397  36.496   6.529  1.00  0.00     0.211 HD
ENDBRANCH   3  45
BRANCH   5  47
ATOM     47  C   UNL     1      28.079  38.897  10.399  1.00  0.00     0.176 C 
BRANCH  47  48
ATOM     48  O   UNL     1      29.326  38.277  10.423  1.00  0.00    -0.388 OA
ATOM     49  H   UNL     1      29.966  38.828  10.927  1.00  0.00     0.211 HD
ENDBRANCH  47  48
BRANCH  47  50
ATOM     50  C   UNL     1      27.116  38.043  11.142  1.00  0.00     0.165 C 
BRANCH  50  51
ATOM     51  O   UNL     1      25.896  38.710  11.239  1.00  0.00    -0.388 OA
ATOM     52  H   UNL     1      25.304  38.273  11.898  1.00  0.00     0.211 HD
ENDBRANCH  50  51
BRANCH  50  53
ATOM     53  C   UNL     1      27.550  37.675  12.537  1.00  0.00     0.154 C 
BRANCH  53  54
ATOM     54  N   UNL     1      28.556  36.655  12.568  1.00  0.00    -0.319 N 
ATOM     55  C   UNL     1      28.313  35.277  12.617  1.00  0.00     0.407 C 
ATOM     56  H   UNL     1      29.571  36.973  12.554  1.00  0.00     0.167 HD
ATOM     57  O   UNL     1      27.133  34.866  12.635  1.00  0.00    -0.225 OA
BRANCH  55  58
ATOM     58  O   UNL     1      29.378  34.401  12.643  1.00  0.00    -0.443 OA
BRANCH  58  59
ATOM     59  C   UNL     1      30.616  34.686  13.227  1.00  0.00     0.294 C 
BRANCH  59  60
ATOM     60  C   UNL     1      30.824  33.795  14.386  1.00  0.00     0.120 A 
ATOM     61  C   UNL     1      30.070  32.718  14.734  1.00  0.00     0.138 A 
ATOM     62  N   UNL     1      31.810  33.918  15.286  1.00  0.00    -0.132 NA
ATOM     63  N   UNL     1      30.615  32.202  15.849  1.00  0.00    -0.248 N 
ATOM     64  N   UNL     1      31.663  32.931  16.174  1.00  0.00    -0.067 NA
BRANCH  63  65
ATOM     65  C   UNL     1      30.123  31.045  16.553  1.00  0.00     0.182 C 
BRANCH  65  66
ATOM     66  C   UNL     1      29.767  31.465  17.985  1.00  0.00    -0.016 A 
ATOM     67  C   UNL     1      30.417  31.050  19.053  1.00  0.00     0.017 A 
ATOM     68  C   UNL     1      28.689  32.335  18.144  1.00  0.00     0.070 A 
ATOM     69  C   UNL     1      30.053  31.460  20.322  1.00  0.00     0.065 A 
ATOM     70  S   UNL     1      28.632  32.549  19.934  1.00  0.00    -0.152 S 
ENDBRANCH  65  66
ENDBRANCH  63  65
ENDBRANCH  59  60
ENDBRANCH  58  59
ENDBRANCH  55  58
ENDBRANCH  53  54
ENDBRANCH  50  53
ENDBRANCH  47  50
ENDBRANCH   5  47
BRANCH   4  71
ATOM     71  N   UNL     1      29.475  40.127   8.022  1.00  0.00    -0.348 N 
ATOM     72  C   UNL     1      30.884  40.258   8.139  1.00  0.00     0.217 C 
ATOM     73  H   UNL     1      28.922  41.006   7.922  1.00  0.00     0.163 HD
ATOM     74  C   UNL     1      31.588  41.577   8.125  1.00  0.00     0.114 C 
ATOM     75  O   UNL     1      31.524  39.173   8.258  1.00  0.00    -0.275 OA
ENDBRANCH   4  71
TORSDOF 31
BEGIN_RES LYS A 131
REMARK  4 active torsions:
REMARK  status: ('A' for Active; 'I' for Inactive)
REMARK    1  A    between atoms: CA   and  CB  
REMARK    2  A    between atoms: CB   and  CG  
REMARK    3  A    between atoms: CG   and  CD  
REMARK    4  A    between atoms: CD   and  CE  
ROOT
ATOM      1  CA  LYS A 131      29.867  25.555  16.977  1.00 20.52     0.186 C 
ENDROOT
BRANCH   1   2
ATOM      2  CB  LYS A 131      28.345  25.722  17.026  1.00 20.94     0.034 C 
BRANCH   2   3
ATOM      3  CG  LYS A 131      27.601  24.402  16.896  1.00 22.96     0.005 C 
BRANCH   3   4
ATOM      4  CD  LYS A 131      26.147  24.533  17.255  1.00 24.33     0.041 C 
BRANCH   4   5
ATOM      5  CE  LYS A 131      25.577  23.156  17.581  1.00 26.91     0.338 C 
ATOM      6  NZ  LYS A 131      24.163  23.064  17.146  1.00 27.40     0.618 N 
ENDBRANCH   4   5
ENDBRANCH   3   4
ENDBRANCH   2   3
ENDBRANCH   1   2
END_RES LYS A 131
BEGIN_RES LYS A 135
REMARK  4 active torsions:
REMARK  status: ('A' for Active; 'I' for Inactive)
REMARK    5  A    between atoms: CA   and  CB  
REMARK    6  A    between atoms: CB   and  CG  
REMARK    7  A    between atoms: CG   and  CD  
REMARK    8  A    between atoms: CD   and  CE  
ROOT
ATOM      7  CA  LYS A 135      33.193  34.663   9.290  1.00 25.02     0.186 C 
ENDROOT
BRANCH   7   8
ATOM      8  CB  LYS A 135      32.060  35.360  10.034  1.00 26.63     0.034 C 
BRANCH   8   9
ATOM      9  CG  LYS A 135      30.808  35.521   9.211  1.00 29.45     0.005 C 
BRANCH   9  10
ATOM     10  CD  LYS A 135      30.077  34.194   9.081  1.00 32.00     0.041 C 
BRANCH  10  11
ATOM     11  CE  LYS A 135      28.642  34.417   8.644  1.00 34.25     0.338 C 
ATOM     12  NZ  LYS A 135      27.696  33.638   9.490  1.00 35.99     0.618 N 
ENDBRANCH  10  11
ENDBRANCH   9  10
ENDBRANCH   8   9
ENDBRANCH   7   8
END_RES LYS A 135
