REMARK VINA RESULT:    -3.610      4.497      9.334
REMARK INTER + INTRA:         -22.618
REMARK INTER:                  -9.493
REMARK INTRA:                 -13.125
REMARK UNBOUND:               -13.100
REMARK SMILES CC(=O)N[C@@H]1[C@@H](O)C[C@](OC[C@H]2O[C@@H](O[C@H]3[C@H](O)[C@@H](O)[C@H](OCCN=[N+]=[N-])O[C@@H]3CO)[C@H](O)[C@@H](O)[C@H]2O)(C(=O)O)O[C@H]1C(O)[C@H](O)CNC(=O)OCc1cn(CCNS(C)(=O)=O)nn1
REMARK SMILES IDX 43 1 42 2 9 3 8 4 41 5 6 6 5 7 10 8 11 9 12 10 14 11 13 12
REMARK SMILES IDX 32 13 34 14 36 15 15 16 16 17 29 18 28 19 21 20 17 21 19 22
REMARK SMILES IDX 30 23 31 24 22 26 23 27 24 28 25 29 26 30 27 31 18 32 20 34
REMARK SMILES IDX 33 36 35 38 37 40 38 42 39 43 40 44 7 46 4 48 2 49 1 51 3 52
REMARK SMILES IDX 44 53 45 55 46 56 47 58 48 59 49 60 50 62 51 63 52 64 53 65
REMARK SMILES IDX 54 66 64 67 55 68 63 69 56 70 57 71 58 72 59 74 61 75 62 76
REMARK SMILES IDX 60 77
REMARK H PARENT 31 25 18 33 20 35 33 37 35 39 37 41 40 45 7 47 4 50 44 54
REMARK H PARENT 46 57 48 61 58 73
REMARK Flexibility Score: inf
ROOT
ATOM      1  C   UNL     1      29.603  34.728  15.109  1.00  0.00     0.176 C 
ENDROOT
BRANCH   1   2
ATOM      2  C   UNL     1      29.420  36.170  14.601  1.00  0.00     0.178 C 
ATOM      3  C   UNL     1      28.848  37.219  12.588  1.00  0.00     0.272 C 
ATOM      4  C   UNL     1      30.140  37.917  12.434  1.00  0.00     0.113 C 
ATOM      5  O   UNL     1      28.967  36.052  13.332  1.00  0.00    -0.332 OA
ATOM      6  C   UNL     1      31.170  37.614  13.487  1.00  0.00     0.145 C 
ATOM      7  C   UNL     1      30.692  36.914  14.712  1.00  0.00     0.142 C 
BRANCH   3   8
ATOM      8  O   UNL     1      28.229  36.804  11.404  1.00  0.00    -0.338 OA
BRANCH   8   9
ATOM      9  C   UNL     1      28.297  37.757  10.403  1.00  0.00     0.199 C 
BRANCH   9  10
ATOM     10  C   UNL     1      27.208  37.544   9.411  1.00  0.00     0.179 C 
ATOM     11  C   UNL     1      25.168  36.551   8.997  1.00  0.00     0.282 C 
ATOM     12  O   UNL     1      26.092  36.952   9.976  1.00  0.00    -0.341 OA
ATOM     13  C   UNL     1      24.631  37.714   8.237  1.00  0.00     0.202 C 
ATOM     14  C   UNL     1      25.799  38.361   7.525  1.00  0.00     0.179 C 
ATOM     15  C   UNL     1      26.883  38.679   8.498  1.00  0.00     0.177 C 
BRANCH  11  16
ATOM     16  O   UNL     1      24.187  35.857   9.640  1.00  0.00    -0.341 OA
BRANCH  16  17
ATOM     17  C   UNL     1      24.259  35.815  10.990  1.00  0.00     0.184 C 
ATOM     18  C   UNL     1      24.410  34.527  11.696  1.00  0.00     0.178 C 
ATOM     19  O   UNL     1      23.893  34.668  12.985  1.00  0.00    -0.341 OA
ATOM     20  C   UNL     1      22.529  34.676  13.000  1.00  0.00     0.281 C 
ATOM     21  C   UNL     1      23.077  36.587  11.638  1.00  0.00     0.180 C 
ATOM     22  C   UNL     1      22.023  35.521  11.849  1.00  0.00     0.202 C 
BRANCH  18  23
ATOM     23  C   UNL     1      25.885  34.206  11.914  1.00  0.00     0.191 C 
BRANCH  23  24
ATOM     24  O   UNL     1      26.355  34.888  13.060  1.00  0.00    -0.394 OA
ATOM     25  H   UNL     1      26.560  34.267  13.793  1.00  0.00     0.210 HD
ENDBRANCH  23  24
ENDBRANCH  18  23
BRANCH  20  26
ATOM     26  O   UNL     1      22.028  35.140  14.226  1.00  0.00    -0.350 OA
BRANCH  26  27
ATOM     27  C   UNL     1      20.666  35.289  14.263  1.00  0.00     0.169 C 
BRANCH  27  28
ATOM     28  C   UNL     1      20.066  34.041  14.830  1.00  0.00     0.119 C 
BRANCH  28  29
ATOM     29  N   UNL     1      19.225  33.348  13.863  1.00  0.00    -0.092 NA
ATOM     30  N   UNL     1      19.824  32.537  13.135  1.00  0.00     0.001 N 
ATOM     31  N   UNL     1      20.134  31.742  12.255  1.00  0.00    -0.003 NA
ENDBRANCH  28  29
ENDBRANCH  27  28
ENDBRANCH  26  27
ENDBRANCH  20  26
BRANCH  21  32
ATOM     32  O   UNL     1      23.459  37.061  12.897  1.00  0.00    -0.387 OA
ATOM     33  H   UNL     1      23.507  36.294  13.527  1.00  0.00     0.211 HD
ENDBRANCH  21  32
BRANCH  22  34
ATOM     34  O   UNL     1      21.743  34.778  10.725  1.00  0.00    -0.385 OA
ATOM     35  H   UNL     1      22.546  34.467  10.233  1.00  0.00     0.211 HD
ENDBRANCH  22  34
ENDBRANCH  16  17
ENDBRANCH  11  16
BRANCH  13  36
ATOM     36  O   UNL     1      23.767  37.293   7.216  1.00  0.00    -0.385 OA
ATOM     37  H   UNL     1      22.962  36.839   7.573  1.00  0.00     0.211 HD
ENDBRANCH  13  36
BRANCH  14  38
ATOM     38  O   UNL     1      25.410  39.411   6.730  1.00  0.00    -0.387 OA
ATOM     39  H   UNL     1      24.409  39.537   6.727  1.00  0.00     0.211 HD
ENDBRANCH  14  38
BRANCH  15  40
ATOM     40  O   UNL     1      26.483  39.765   9.271  1.00  0.00    -0.387 OA
ATOM     41  H   UNL     1      26.642  39.632  10.240  1.00  0.00     0.211 HD
ENDBRANCH  15  40
ENDBRANCH   9  10
ENDBRANCH   8   9
ENDBRANCH   3   8
BRANCH   3  42
ATOM     42  C   UNL     1      27.842  38.092  13.237  1.00  0.00     0.364 C 
ATOM     43  O   UNL     1      26.607  37.776  13.286  1.00  0.00    -0.246 OA
BRANCH  42  44
ATOM     44  O   UNL     1      28.134  39.302  13.835  1.00  0.00    -0.477 OA
ATOM     45  H   UNL     1      29.046  39.747  13.782  1.00  0.00     0.296 HD
ENDBRANCH  42  44
ENDBRANCH   3  42
BRANCH   6  46
ATOM     46  O   UNL     1      32.250  36.930  12.949  1.00  0.00    -0.391 OA
ATOM     47  H   UNL     1      33.100  37.414  12.948  1.00  0.00     0.211 HD
ENDBRANCH   6  46
BRANCH   7  48
ATOM     48  N   UNL     1      30.588  37.914  15.788  1.00  0.00    -0.348 N 
ATOM     49  C   UNL     1      31.032  37.761  17.104  1.00  0.00     0.217 C 
ATOM     50  H   UNL     1      30.159  38.877  15.550  1.00  0.00     0.163 HD
ATOM     51  C   UNL     1      30.855  38.856  18.122  1.00  0.00     0.114 C 
ATOM     52  O   UNL     1      31.595  36.704  17.499  1.00  0.00    -0.275 OA
ENDBRANCH   7  48
ENDBRANCH   1   2
BRANCH   1  53
ATOM     53  O   UNL     1      28.515  33.957  14.661  1.00  0.00    -0.388 OA
ATOM     54  H   UNL     1      28.726  33.662  13.757  1.00  0.00     0.211 HD
ENDBRANCH   1  53
BRANCH   1  55
ATOM     55  C   UNL     1      30.850  34.144  14.554  1.00  0.00     0.165 C 
BRANCH  55  56
ATOM     56  O   UNL     1      30.944  34.109  13.184  1.00  0.00    -0.388 OA
ATOM     57  H   UNL     1      30.440  34.837  12.734  1.00  0.00     0.211 HD
ENDBRANCH  55  56
BRANCH  55  58
ATOM     58  C   UNL     1      31.288  32.849  15.165  1.00  0.00     0.154 C 
BRANCH  58  59
ATOM     59  N   UNL     1      30.300  31.814  15.013  1.00  0.00    -0.319 N 
ATOM     60  C   UNL     1      29.785  31.198  16.217  1.00  0.00     0.407 C 
ATOM     61  H   UNL     1      29.936  31.482  14.106  1.00  0.00     0.167 HD
ATOM     62  O   UNL     1      30.229  31.637  17.309  1.00  0.00    -0.225 OA
BRANCH  60  63
ATOM     63  O   UNL     1      28.862  30.187  16.152  1.00  0.00    -0.443 OA
BRANCH  63  64
ATOM     64  C   UNL     1      27.690  30.242  16.931  1.00  0.00     0.294 C 
BRANCH  64  65
ATOM     65  C   UNL     1      26.859  31.401  16.556  1.00  0.00     0.120 A 
ATOM     66  C   UNL     1      26.285  32.334  17.404  1.00  0.00     0.138 A 
ATOM     67  N   UNL     1      26.533  31.792  15.332  1.00  0.00    -0.132 NA
ATOM     68  N   UNL     1      25.638  33.252  16.686  1.00  0.00    -0.251 N 
ATOM     69  N   UNL     1      25.796  32.907  15.406  1.00  0.00    -0.067 NA
BRANCH  68  70
ATOM     70  C   UNL     1      24.899  34.393  17.199  1.00  0.00     0.162 C 
BRANCH  70  71
ATOM     71  C   UNL     1      24.946  35.535  16.185  1.00  0.00     0.122 C 
BRANCH  71  72
ATOM     72  N   UNL     1      26.295  35.978  15.980  1.00  0.00    -0.214 NA
ATOM     73  H   UNL     1      26.345  36.512  15.071  1.00  0.00     0.141 HD
BRANCH  72  74
ATOM     74  S   UNL     1      26.848  37.041  17.214  1.00  0.00     0.208 S 
ATOM     75  O   UNL     1      27.563  38.230  16.592  1.00  0.00    -0.213 OA
ATOM     76  O   UNL     1      25.607  37.547  17.925  1.00  0.00    -0.213 OA
ATOM     77  C   UNL     1      27.902  36.200  18.354  1.00  0.00     0.176 C 
ENDBRANCH  72  74
ENDBRANCH  71  72
ENDBRANCH  70  71
ENDBRANCH  68  70
ENDBRANCH  64  65
ENDBRANCH  63  64
ENDBRANCH  60  63
ENDBRANCH  58  59
ENDBRANCH  55  58
ENDBRANCH   1  55
TORSDOF 33
BEGIN_RES LYS A 131
REMARK  4 active torsions:
REMARK  status: ('A' for Active; 'I' for Inactive)
REMARK    1  A    between atoms: CA   and  CB  
REMARK    2  A    between atoms: CB   and  CG  
REMARK    3  A    between atoms: CG   and  CD  
REMARK    4  A    between atoms: CD   and  CE  
ROOT
ATOM      1  CA  LYS A 131      29.867  25.555  16.977  1.00 20.52     0.186 C 
ENDROOT
BRANCH   1   2
ATOM      2  CB  LYS A 131      28.345  25.722  17.026  1.00 20.94     0.034 C 
BRANCH   2   3
ATOM      3  CG  LYS A 131      27.603  24.395  16.978  1.00 22.96     0.005 C 
BRANCH   3   4
ATOM      4  CD  LYS A 131      26.419  24.375  17.904  1.00 24.33     0.041 C 
BRANCH   4   5
ATOM      5  CE  LYS A 131      25.426  23.315  17.438  1.00 26.91     0.338 C 
ATOM      6  NZ  LYS A 131      24.100  23.924  17.178  1.00 27.40     0.618 N 
ENDBRANCH   4   5
ENDBRANCH   3   4
ENDBRANCH   2   3
ENDBRANCH   1   2
END_RES LYS A 131
BEGIN_RES LYS A 135
REMARK  4 active torsions:
REMARK  status: ('A' for Active; 'I' for Inactive)
REMARK    5  A    between atoms: CA   and  CB  
REMARK    6  A    between atoms: CB   and  CG  
REMARK    7  A    between atoms: CG   and  CD  
REMARK    8  A    between atoms: CD   and  CE  
ROOT
ATOM      7  CA  LYS A 135      33.193  34.663   9.290  1.00 25.02     0.186 C 
ENDROOT
BRANCH   7   8
ATOM      8  CB  LYS A 135      32.060  35.360  10.034  1.00 26.63     0.034 C 
BRANCH   8   9
ATOM      9  CG  LYS A 135      30.790  35.472   9.230  1.00 29.45     0.005 C 
BRANCH   9  10
ATOM     10  CD  LYS A 135      30.067  34.135   9.180  1.00 32.00     0.041 C 
BRANCH  10  11
ATOM     11  CE  LYS A 135      28.660  34.310   8.641  1.00 34.25     0.338 C 
ATOM     12  NZ  LYS A 135      28.659  35.139   7.404  1.00 35.99     0.618 N 
ENDBRANCH  10  11
ENDBRANCH   9  10
ENDBRANCH   8   9
ENDBRANCH   7   8
END_RES LYS A 135
