REMARK VINA RESULT:    -4.946      5.999     11.587
REMARK INTER + INTRA:         -21.584
REMARK INTER:                 -12.175
REMARK INTRA:                  -9.408
REMARK UNBOUND:                -9.408
REMARK SMILES CC(=O)N[C@@H]1[C@@H](O)C[C@](OC[C@H]2O[C@@H](O[C@H]3[C@H](O)[C@@H](O)[C@H](OCCN=[N+]=[N-])O[C@@H]3CO)[C@H](O)[C@@H](O)[C@H]2O)(C(=O)O)O[C@H]1C(O)[C@H](O)CNC(=O)OCc1cn(-c2cccc(Cl)c2)nn1
REMARK SMILES IDX 9 1 8 2 6 3 5 4 42 5 41 6 10 7 11 8 12 9 14 10 13 11 32 12
REMARK SMILES IDX 34 13 36 14 15 15 16 16 29 17 28 18 21 19 17 20 19 21 30 22
REMARK SMILES IDX 31 23 22 25 23 26 24 27 25 28 26 29 27 30 18 31 20 33 33 35
REMARK SMILES IDX 35 37 37 39 38 41 39 42 40 43 7 45 43 47 44 48 45 50 46 51
REMARK SMILES IDX 47 53 48 54 49 55 50 57 51 58 52 59 53 60 54 61 64 62 55 63
REMARK SMILES IDX 63 64 56 65 57 66 62 67 58 68 60 69 59 70 61 71 4 72 2 73
REMARK SMILES IDX 1 75 3 76
REMARK H PARENT 31 24 18 32 20 34 33 36 35 38 37 40 40 44 7 46 44 49 46 52
REMARK H PARENT 48 56 4 74
REMARK Flexibility Score: inf
ROOT
ATOM      1  C   UNL     1      27.916  39.225   6.402  1.00  0.00     0.272 C 
ATOM      2  C   UNL     1      27.312  39.975   5.300  1.00  0.00     0.113 C 
ATOM      3  C   UNL     1      25.946  40.548   5.481  1.00  0.00     0.145 C 
ATOM      4  C   UNL     1      25.326  40.210   6.813  1.00  0.00     0.142 C 
ATOM      5  C   UNL     1      25.815  38.786   7.125  1.00  0.00     0.178 C 
ATOM      6  O   UNL     1      27.112  38.946   7.510  1.00  0.00    -0.332 OA
ENDROOT
BRANCH   1   7
ATOM      7  O   UNL     1      29.122  39.600   6.907  1.00  0.00    -0.338 OA
BRANCH   7   8
ATOM      8  C   UNL     1      30.154  40.009   6.171  1.00  0.00     0.199 C 
BRANCH   8   9
ATOM      9  C   UNL     1      31.325  40.674   6.814  1.00  0.00     0.179 C 
ATOM     10  C   UNL     1      32.056  41.545   8.824  1.00  0.00     0.282 C 
ATOM     11  O   UNL     1      31.056  40.783   8.195  1.00  0.00    -0.341 OA
ATOM     12  C   UNL     1      33.374  40.852   8.666  1.00  0.00     0.202 C 
ATOM     13  C   UNL     1      33.739  40.396   7.289  1.00  0.00     0.179 C 
ATOM     14  C   UNL     1      32.532  39.717   6.677  1.00  0.00     0.177 C 
BRANCH  10  15
ATOM     15  O   UNL     1      31.734  41.507  10.155  1.00  0.00    -0.341 OA
BRANCH  15  16
ATOM     16  C   UNL     1      30.744  40.613  10.559  1.00  0.00     0.184 C 
ATOM     17  C   UNL     1      29.550  41.227  11.125  1.00  0.00     0.178 C 
ATOM     18  O   UNL     1      29.111  40.649  12.292  1.00  0.00    -0.341 OA
ATOM     19  C   UNL     1      30.116  40.176  13.130  1.00  0.00     0.281 C 
ATOM     20  C   UNL     1      31.457  39.515  11.270  1.00  0.00     0.180 C 
ATOM     21  C   UNL     1      30.649  38.950  12.396  1.00  0.00     0.202 C 
BRANCH  17  22
ATOM     22  C   UNL     1      28.361  41.101  10.158  1.00  0.00     0.191 C 
BRANCH  22  23
ATOM     23  O   UNL     1      28.217  39.722   9.865  1.00  0.00    -0.394 OA
ATOM     24  H   UNL     1      28.636  39.536   9.005  1.00  0.00     0.210 HD
ENDBRANCH  22  23
ENDBRANCH  17  22
BRANCH  19  25
ATOM     25  O   UNL     1      29.553  39.805  14.317  1.00  0.00    -0.350 OA
BRANCH  25  26
ATOM     26  C   UNL     1      28.209  40.038  14.458  1.00  0.00     0.169 C 
BRANCH  26  27
ATOM     27  C   UNL     1      27.428  38.922  15.100  1.00  0.00     0.119 C 
BRANCH  27  28
ATOM     28  N   UNL     1      27.702  37.704  14.322  1.00  0.00    -0.092 NA
ATOM     29  N   UNL     1      27.262  37.689  13.152  1.00  0.00     0.001 N 
ATOM     30  N   UNL     1      27.236  37.753  11.910  1.00  0.00    -0.003 NA
ENDBRANCH  27  28
ENDBRANCH  26  27
ENDBRANCH  25  26
ENDBRANCH  19  25
BRANCH  20  31
ATOM     31  O   UNL     1      31.838  38.509  10.361  1.00  0.00    -0.387 OA
ATOM     32  H   UNL     1      32.009  38.976   9.504  1.00  0.00     0.211 HD
ENDBRANCH  20  31
BRANCH  21  33
ATOM     33  O   UNL     1      31.515  38.243  13.238  1.00  0.00    -0.385 OA
ATOM     34  H   UNL     1      31.481  38.563  14.153  1.00  0.00     0.211 HD
ENDBRANCH  21  33
ENDBRANCH  15  16
ENDBRANCH  10  15
BRANCH  12  35
ATOM     35  O   UNL     1      34.435  41.672   9.081  1.00  0.00    -0.385 OA
ATOM     36  H   UNL     1      34.585  41.614  10.051  1.00  0.00     0.211 HD
ENDBRANCH  12  35
BRANCH  13  37
ATOM     37  O   UNL     1      34.744  39.433   7.397  1.00  0.00    -0.387 OA
ATOM     38  H   UNL     1      34.632  38.817   8.140  1.00  0.00     0.211 HD
ENDBRANCH  13  37
BRANCH  14  39
ATOM     39  O   UNL     1      32.206  38.658   7.556  1.00  0.00    -0.387 OA
ATOM     40  H   UNL     1      31.821  38.964   8.392  1.00  0.00     0.211 HD
ENDBRANCH  14  39
ENDBRANCH   8   9
ENDBRANCH   7   8
ENDBRANCH   1   7
BRANCH   1  41
ATOM     41  C   UNL     1      28.195  37.819   5.847  1.00  0.00     0.364 C 
ATOM     42  O   UNL     1      28.783  36.941   6.501  1.00  0.00    -0.246 OA
BRANCH  41  43
ATOM     43  O   UNL     1      27.770  37.509   4.550  1.00  0.00    -0.477 OA
ATOM     44  H   UNL     1      27.299  36.609   4.402  1.00  0.00     0.296 HD
ENDBRANCH  41  43
ENDBRANCH   1  41
BRANCH   3  45
ATOM     45  O   UNL     1      25.885  41.918   5.300  1.00  0.00    -0.391 OA
ATOM     46  H   UNL     1      24.986  42.280   5.475  1.00  0.00     0.211 HD
ENDBRANCH   3  45
BRANCH   5  47
ATOM     47  C   UNL     1      24.917  38.103   8.142  1.00  0.00     0.176 C 
BRANCH  47  48
ATOM     48  O   UNL     1      23.931  37.469   7.341  1.00  0.00    -0.388 OA
ATOM     49  H   UNL     1      24.351  37.298   6.446  1.00  0.00     0.211 HD
ENDBRANCH  47  48
BRANCH  47  50
ATOM     50  C   UNL     1      25.691  36.981   8.801  1.00  0.00     0.165 C 
BRANCH  50  51
ATOM     51  O   UNL     1      26.253  36.168   7.830  1.00  0.00    -0.388 OA
ATOM     52  H   UNL     1      25.797  36.221   6.961  1.00  0.00     0.211 HD
ENDBRANCH  50  51
BRANCH  50  53
ATOM     53  C   UNL     1      24.718  36.116   9.608  1.00  0.00     0.154 C 
BRANCH  53  54
ATOM     54  N   UNL     1      24.724  36.458  11.003  1.00  0.00    -0.319 N 
ATOM     55  C   UNL     1      23.691  37.103  11.699  1.00  0.00     0.407 C 
ATOM     56  H   UNL     1      25.595  36.199  11.569  1.00  0.00     0.167 HD
ATOM     57  O   UNL     1      22.632  37.414  11.104  1.00  0.00    -0.225 OA
BRANCH  55  58
ATOM     58  O   UNL     1      23.805  37.423  13.082  1.00  0.00    -0.443 OA
BRANCH  58  59
ATOM     59  C   UNL     1      23.404  36.487  14.047  1.00  0.00     0.294 C 
BRANCH  59  60
ATOM     60  C   UNL     1      23.881  35.104  13.784  1.00  0.00     0.121 A 
ATOM     61  C   UNL     1      23.102  33.978  13.498  1.00  0.00     0.144 A 
ATOM     62  N   UNL     1      25.137  34.628  13.777  1.00  0.00    -0.131 NA
ATOM     63  N   UNL     1      23.897  32.905  13.336  1.00  0.00    -0.220 N 
ATOM     64  N   UNL     1      25.128  33.312  13.507  1.00  0.00    -0.062 NA
BRANCH  63  65
ATOM     65  C   UNL     1      23.398  31.606  13.046  1.00  0.00     0.068 A 
ATOM     66  C   UNL     1      24.168  30.467  13.077  1.00  0.00     0.028 A 
ATOM     67  C   UNL     1      22.047  31.428  12.703  1.00  0.00     0.049 A 
ATOM     68  C   UNL     1      23.632  29.216  12.785  1.00  0.00     0.004 A 
ATOM     69  C   UNL     1      21.520  30.193  12.415  1.00  0.00     0.043 A 
ATOM     70  C   UNL     1      22.304  29.062  12.451  1.00  0.00     0.020 A 
ATOM     71  Cl  UNL     1      19.827  29.988  11.989  1.00  0.00    -0.084 Cl
ENDBRANCH  63  65
ENDBRANCH  59  60
ENDBRANCH  58  59
ENDBRANCH  55  58
ENDBRANCH  53  54
ENDBRANCH  50  53
ENDBRANCH  47  50
ENDBRANCH   5  47
BRANCH   4  72
ATOM     72  N   UNL     1      23.907  40.338   6.822  1.00  0.00    -0.348 N 
ATOM     73  C   UNL     1      23.264  41.539   7.289  1.00  0.00     0.217 C 
ATOM     74  H   UNL     1      23.235  39.601   6.500  1.00  0.00     0.163 HD
ATOM     75  C   UNL     1      21.803  41.696   7.308  1.00  0.00     0.114 C 
ATOM     76  O   UNL     1      23.988  42.475   7.691  1.00  0.00    -0.275 OA
ENDBRANCH   4  72
TORSDOF 30
BEGIN_RES LYS A 131
REMARK  4 active torsions:
REMARK  status: ('A' for Active; 'I' for Inactive)
REMARK    1  A    between atoms: CA   and  CB  
REMARK    2  A    between atoms: CB   and  CG  
REMARK    3  A    between atoms: CG   and  CD  
REMARK    4  A    between atoms: CD   and  CE  
ROOT
ATOM      1  CA  LYS A 131      29.867  25.555  16.977  1.00 20.52     0.186 C 
ENDROOT
BRANCH   1   2
ATOM      2  CB  LYS A 131      28.345  25.722  17.026  1.00 20.94     0.034 C 
BRANCH   2   3
ATOM      3  CG  LYS A 131      27.602  24.400  16.912  1.00 22.96     0.005 C 
BRANCH   3   4
ATOM      4  CD  LYS A 131      26.152  24.531  17.288  1.00 24.33     0.041 C 
BRANCH   4   5
ATOM      5  CE  LYS A 131      25.951  24.046  18.720  1.00 26.91     0.338 C 
ATOM      6  NZ  LYS A 131      24.541  23.644  18.939  1.00 27.40     0.618 N 
ENDBRANCH   4   5
ENDBRANCH   3   4
ENDBRANCH   2   3
ENDBRANCH   1   2
END_RES LYS A 131
BEGIN_RES LYS A 135
REMARK  4 active torsions:
REMARK  status: ('A' for Active; 'I' for Inactive)
REMARK    5  A    between atoms: CA   and  CB  
REMARK    6  A    between atoms: CB   and  CG  
REMARK    7  A    between atoms: CG   and  CD  
REMARK    8  A    between atoms: CD   and  CE  
ROOT
ATOM      7  CA  LYS A 135      33.193  34.663   9.290  1.00 25.02     0.186 C 
ENDROOT
BRANCH   7   8
ATOM      8  CB  LYS A 135      32.060  35.360  10.034  1.00 26.63     0.034 C 
BRANCH   8   9
ATOM      9  CG  LYS A 135      30.716  35.203   9.370  1.00 29.45     0.005 C 
BRANCH   9  10
ATOM     10  CD  LYS A 135      29.606  35.708  10.278  1.00 32.00     0.041 C 
BRANCH  10  11
ATOM     11  CE  LYS A 135      28.681  34.571  10.671  1.00 34.25     0.338 C 
ATOM     12  NZ  LYS A 135      28.171  33.855   9.470  1.00 35.99     0.618 N 
ENDBRANCH  10  11
ENDBRANCH   9  10
ENDBRANCH   8   9
ENDBRANCH   7   8
END_RES LYS A 135
