REMARK VINA RESULT:    -5.104      4.469      9.681
REMARK INTER + INTRA:         -21.992
REMARK INTER:                 -12.204
REMARK INTRA:                  -9.787
REMARK UNBOUND:                -9.428
REMARK SMILES CC(=O)N[C@@H]1[C@@H](O)C[C@](OC[C@H]2O[C@@H](O[C@H]3[C@H](O)[C@@H](O)[C@H](OCCN=[N+]=[N-])O[C@@H]3CO)[C@H](O)[C@@H](O)[C@H]2O)(C(=O)O)O[C@H]1C(O)[C@H](O)CNC(=O)OCc1cn(-c2ccc(C)cc2)nn1
REMARK SMILES IDX 9 1 8 2 6 3 5 4 42 5 41 6 10 7 11 8 12 9 14 10 13 11 32 12
REMARK SMILES IDX 34 13 36 14 15 15 16 16 29 17 28 18 21 19 17 20 19 21 30 22
REMARK SMILES IDX 31 23 22 25 23 26 24 27 25 28 26 29 27 30 18 31 20 33 33 35
REMARK SMILES IDX 35 37 37 39 38 41 39 42 40 43 7 45 43 47 44 48 45 50 46 51
REMARK SMILES IDX 47 53 48 54 49 55 50 57 51 58 52 59 53 60 54 61 64 62 55 63
REMARK SMILES IDX 63 64 56 65 57 66 62 67 58 68 61 69 59 70 60 71 4 72 2 73
REMARK SMILES IDX 1 75 3 76
REMARK H PARENT 31 24 18 32 20 34 33 36 35 38 37 40 40 44 7 46 44 49 46 52
REMARK H PARENT 48 56 4 74
REMARK Flexibility Score: inf
ROOT
ATOM      1  C   UNL     1      28.977  32.482  15.784  1.00  0.00     0.272 C 
ATOM      2  C   UNL     1      29.036  33.478  16.937  1.00  0.00     0.113 C 
ATOM      3  C   UNL     1      29.597  34.782  16.514  1.00  0.00     0.145 C 
ATOM      4  C   UNL     1      29.307  35.180  15.111  1.00  0.00     0.142 C 
ATOM      5  C   UNL     1      28.346  34.279  14.344  1.00  0.00     0.178 C 
ATOM      6  O   UNL     1      28.526  32.974  14.655  1.00  0.00    -0.332 OA
ENDROOT
BRANCH   1   7
ATOM      7  O   UNL     1      28.035  31.505  16.233  1.00  0.00    -0.338 OA
BRANCH   7   8
ATOM      8  C   UNL     1      27.637  31.848  17.527  1.00  0.00     0.199 C 
BRANCH   8   9
ATOM      9  C   UNL     1      26.854  30.775  18.184  1.00  0.00     0.179 C 
ATOM     10  C   UNL     1      25.043  29.387  17.968  1.00  0.00     0.282 C 
ATOM     11  O   UNL     1      25.929  30.222  17.296  1.00  0.00    -0.341 OA
ATOM     12  C   UNL     1      25.736  28.158  18.421  1.00  0.00     0.202 C 
ATOM     13  C   UNL     1      27.228  28.334  18.343  1.00  0.00     0.179 C 
ATOM     14  C   UNL     1      27.697  29.697  18.807  1.00  0.00     0.177 C 
BRANCH  10  15
ATOM     15  O   UNL     1      23.999  29.043  17.113  1.00  0.00    -0.341 OA
BRANCH  15  16
ATOM     16  C   UNL     1      23.702  30.079  16.226  1.00  0.00     0.184 C 
ATOM     17  C   UNL     1      22.441  30.831  16.550  1.00  0.00     0.178 C 
ATOM     18  O   UNL     1      21.507  30.680  15.520  1.00  0.00    -0.341 OA
ATOM     19  C   UNL     1      21.130  29.352  15.440  1.00  0.00     0.281 C 
ATOM     20  C   UNL     1      23.514  29.421  14.877  1.00  0.00     0.180 C 
ATOM     21  C   UNL     1      22.307  28.484  15.041  1.00  0.00     0.202 C 
BRANCH  17  22
ATOM     22  C   UNL     1      22.722  32.343  16.590  1.00  0.00     0.191 C 
BRANCH  22  23
ATOM     23  O   UNL     1      24.042  32.584  16.961  1.00  0.00    -0.394 OA
ATOM     24  H   UNL     1      24.527  32.867  16.129  1.00  0.00     0.210 HD
ENDBRANCH  22  23
ENDBRANCH  17  22
BRANCH  19  25
ATOM     25  O   UNL     1      20.073  29.147  14.567  1.00  0.00    -0.350 OA
BRANCH  25  26
ATOM     26  C   UNL     1      20.406  28.411  13.458  1.00  0.00     0.169 C 
BRANCH  26  27
ATOM     27  C   UNL     1      20.279  29.133  12.147  1.00  0.00     0.119 C 
BRANCH  27  28
ATOM     28  N   UNL     1      20.998  30.383  12.148  1.00  0.00    -0.092 NA
ATOM     29  N   UNL     1      20.395  31.437  12.255  1.00  0.00     0.001 N 
ATOM     30  N   UNL     1      19.809  32.502  12.454  1.00  0.00    -0.003 NA
ENDBRANCH  27  28
ENDBRANCH  26  27
ENDBRANCH  25  26
ENDBRANCH  19  25
BRANCH  20  31
ATOM     31  O   UNL     1      23.268  30.332  13.860  1.00  0.00    -0.387 OA
ATOM     32  H   UNL     1      23.389  31.234  14.244  1.00  0.00     0.211 HD
ENDBRANCH  20  31
BRANCH  21  33
ATOM     33  O   UNL     1      22.624  27.686  16.159  1.00  0.00    -0.385 OA
ATOM     34  H   UNL     1      21.827  27.278  16.568  1.00  0.00     0.211 HD
ENDBRANCH  21  33
ENDBRANCH  15  16
ENDBRANCH  10  15
BRANCH  12  35
ATOM     35  O   UNL     1      25.350  27.779  19.720  1.00  0.00    -0.385 OA
ATOM     36  H   UNL     1      25.222  28.657  20.207  1.00  0.00     0.211 HD
ENDBRANCH  12  35
BRANCH  13  37
ATOM     37  O   UNL     1      27.663  27.985  17.089  1.00  0.00    -0.387 OA
ATOM     38  H   UNL     1      27.846  26.998  16.975  1.00  0.00     0.211 HD
ENDBRANCH  13  37
BRANCH  14  39
ATOM     39  O   UNL     1      29.004  29.883  18.400  1.00  0.00    -0.387 OA
ATOM     40  H   UNL     1      29.166  30.708  17.897  1.00  0.00     0.211 HD
ENDBRANCH  14  39
ENDBRANCH   8   9
ENDBRANCH   7   8
ENDBRANCH   1   7
BRANCH   1  41
ATOM     41  C   UNL     1      30.327  31.886  15.721  1.00  0.00     0.364 C 
ATOM     42  O   UNL     1      30.747  31.033  16.536  1.00  0.00    -0.246 OA
BRANCH  41  43
ATOM     43  O   UNL     1      31.174  32.304  14.678  1.00  0.00    -0.477 OA
ATOM     44  H   UNL     1      31.220  31.736  13.831  1.00  0.00     0.296 HD
ENDBRANCH  41  43
ENDBRANCH   1  41
BRANCH   3  45
ATOM     45  O   UNL     1      29.267  35.792  17.446  1.00  0.00    -0.391 OA
ATOM     46  H   UNL     1      28.391  36.172  17.113  1.00  0.00     0.211 HD
ENDBRANCH   3  45
BRANCH   5  47
ATOM     47  C   UNL     1      26.931  34.770  14.575  1.00  0.00     0.176 C 
BRANCH  47  48
ATOM     48  O   UNL     1      26.755  36.125  14.337  1.00  0.00    -0.388 OA
ATOM     49  H   UNL     1      27.472  36.381  13.699  1.00  0.00     0.211 HD
ENDBRANCH  47  48
BRANCH  47  50
ATOM     50  C   UNL     1      25.798  33.962  14.150  1.00  0.00     0.165 C 
BRANCH  50  51
ATOM     51  O   UNL     1      25.741  32.650  14.666  1.00  0.00    -0.388 OA
ATOM     52  H   UNL     1      26.637  32.375  14.993  1.00  0.00     0.211 HD
ENDBRANCH  50  51
BRANCH  50  53
ATOM     53  C   UNL     1      25.369  33.893  12.726  1.00  0.00     0.154 C 
BRANCH  53  54
ATOM     54  N   UNL     1      25.181  35.172  12.093  1.00  0.00    -0.319 N 
ATOM     55  C   UNL     1      23.966  35.490  11.419  1.00  0.00     0.407 C 
ATOM     56  H   UNL     1      25.942  35.889  12.119  1.00  0.00     0.167 HD
ATOM     57  O   UNL     1      23.044  34.638  11.397  1.00  0.00    -0.225 OA
BRANCH  55  58
ATOM     58  O   UNL     1      23.824  36.713  10.801  1.00  0.00    -0.443 OA
BRANCH  58  59
ATOM     59  C   UNL     1      23.708  36.877   9.430  1.00  0.00     0.294 C 
BRANCH  59  60
ATOM     60  C   UNL     1      25.016  37.024   8.790  1.00  0.00     0.121 A 
ATOM     61  C   UNL     1      26.143  37.665   9.338  1.00  0.00     0.144 A 
ATOM     62  N   UNL     1      25.417  36.605   7.597  1.00  0.00    -0.131 NA
ATOM     63  N   UNL     1      27.137  37.593   8.453  1.00  0.00    -0.220 N 
ATOM     64  N   UNL     1      26.675  36.947   7.403  1.00  0.00    -0.062 NA
BRANCH  63  65
ATOM     65  C   UNL     1      28.447  38.148   8.668  1.00  0.00     0.066 A 
ATOM     66  C   UNL     1      29.288  38.360   7.599  1.00  0.00     0.029 A 
ATOM     67  C   UNL     1      28.897  38.497   9.924  1.00  0.00     0.029 A 
ATOM     68  C   UNL     1      30.557  38.913   7.794  1.00  0.00     0.005 A 
ATOM     69  C   UNL     1      30.167  39.051  10.121  1.00  0.00     0.005 A 
ATOM     70  C   UNL     1      31.003  39.261   9.049  1.00  0.00    -0.051 A 
ATOM     71  C   UNL     1      32.359  39.865   9.258  1.00  0.00     0.044 C 
ENDBRANCH  63  65
ENDBRANCH  59  60
ENDBRANCH  58  59
ENDBRANCH  55  58
ENDBRANCH  53  54
ENDBRANCH  50  53
ENDBRANCH  47  50
ENDBRANCH   5  47
BRANCH   4  72
ATOM     72  N   UNL     1      30.507  35.482  14.353  1.00  0.00    -0.348 N 
ATOM     73  C   UNL     1      30.580  36.501  13.356  1.00  0.00     0.217 C 
ATOM     74  H   UNL     1      31.383  34.945  14.508  1.00  0.00     0.163 HD
ATOM     75  C   UNL     1      31.840  36.764  12.595  1.00  0.00     0.114 C 
ATOM     76  O   UNL     1      29.519  37.149  13.171  1.00  0.00    -0.275 OA
ENDBRANCH   4  72
TORSDOF 30
BEGIN_RES LYS A 131
REMARK  4 active torsions:
REMARK  status: ('A' for Active; 'I' for Inactive)
REMARK    1  A    between atoms: CA   and  CB  
REMARK    2  A    between atoms: CB   and  CG  
REMARK    3  A    between atoms: CG   and  CD  
REMARK    4  A    between atoms: CD   and  CE  
ROOT
ATOM      1  CA  LYS A 131      29.867  25.555  16.977  1.00 20.52     0.186 C 
ENDROOT
BRANCH   1   2
ATOM      2  CB  LYS A 131      28.345  25.722  17.026  1.00 20.94     0.034 C 
BRANCH   2   3
ATOM      3  CG  LYS A 131      27.599  24.436  16.704  1.00 22.96     0.005 C 
BRANCH   3   4
ATOM      4  CD  LYS A 131      27.100  23.745  17.943  1.00 24.33     0.041 C 
BRANCH   4   5
ATOM      5  CE  LYS A 131      25.673  24.196  18.237  1.00 26.91     0.338 C 
ATOM      6  NZ  LYS A 131      24.917  24.382  16.977  1.00 27.40     0.618 N 
ENDBRANCH   4   5
ENDBRANCH   3   4
ENDBRANCH   2   3
ENDBRANCH   1   2
END_RES LYS A 131
BEGIN_RES LYS A 135
REMARK  4 active torsions:
REMARK  status: ('A' for Active; 'I' for Inactive)
REMARK    5  A    between atoms: CA   and  CB  
REMARK    6  A    between atoms: CB   and  CG  
REMARK    7  A    between atoms: CG   and  CD  
REMARK    8  A    between atoms: CD   and  CE  
ROOT
ATOM      7  CA  LYS A 135      33.193  34.663   9.290  1.00 25.02     0.186 C 
ENDROOT
BRANCH   7   8
ATOM      8  CB  LYS A 135      32.060  35.360  10.034  1.00 26.63     0.034 C 
BRANCH   8   9
ATOM      9  CG  LYS A 135      30.788  35.466   9.233  1.00 29.45     0.005 C 
BRANCH   9  10
ATOM     10  CD  LYS A 135      29.638  34.788   9.960  1.00 32.00     0.041 C 
BRANCH  10  11
ATOM     11  CE  LYS A 135      28.678  34.159   8.968  1.00 34.25     0.338 C 
ATOM     12  NZ  LYS A 135      27.312  34.033   9.550  1.00 35.99     0.618 N 
ENDBRANCH  10  11
ENDBRANCH   9  10
ENDBRANCH   8   9
ENDBRANCH   7   8
END_RES LYS A 135
