REMARK VINA RESULT:    -4.342      4.349      7.877
REMARK INTER + INTRA:         -22.703
REMARK INTER:                 -13.158
REMARK INTRA:                  -9.546
REMARK UNBOUND:               -11.507
REMARK SMILES COc1ccc(Cn2cc(COC(=O)NC[C@@H](O)C(O)[C@@H]3O[C@@](OC[C@H]4O[C@@H](O[C@H]5[C@H](O)[C@@H](O)[C@H](OCCN=[N+]=[N-])O[C@@H]5CO)[C@H](O)[C@@H](O)[C@H]4O)(C(=O)O)C[C@H](O)[C@H]3NC(C)=O)nn2)cc1
REMARK SMILES IDX 23 1 55 2 56 3 58 4 21 5 22 6 24 7 25 8 26 9 28 10 27 11
REMARK SMILES IDX 46 12 48 13 50 14 29 15 30 16 43 17 42 18 35 19 31 20 33 21
REMARK SMILES IDX 44 22 45 23 36 25 37 26 38 27 39 28 40 29 41 30 32 31 34 33
REMARK SMILES IDX 47 35 49 37 51 39 52 41 53 42 54 43 57 45 19 47 20 48 17 50
REMARK SMILES IDX 18 51 16 53 15 54 13 55 14 57 12 58 11 59 10 60 9 61 63 62
REMARK SMILES IDX 8 63 64 64 7 65 6 66 5 67 65 68 4 69 66 70 3 71 2 72 1 73
REMARK SMILES IDX 59 74 60 75 61 77 62 78
REMARK H PARENT 45 24 32 32 34 34 47 36 49 38 51 40 54 44 57 46 20 49 18 52
REMARK H PARENT 15 56 59 76
REMARK Flexibility Score: inf
ROOT
ATOM      1  C   UNL     1      29.311  34.786  14.798  1.00  0.00     0.272 C 
ATOM      2  C   UNL     1      30.009  33.509  14.379  1.00  0.00     0.113 C 
ATOM      3  C   UNL     1      31.171  33.229  15.311  1.00  0.00     0.145 C 
ATOM      4  C   UNL     1      30.829  33.385  16.764  1.00  0.00     0.142 C 
ATOM      5  C   UNL     1      29.414  33.888  16.999  1.00  0.00     0.178 C 
ATOM      6  O   UNL     1      29.063  34.882  16.107  1.00  0.00    -0.332 OA
ENDROOT
BRANCH   1   7
ATOM      7  O   UNL     1      28.336  35.143  13.930  1.00  0.00    -0.338 OA
BRANCH   7   8
ATOM      8  C   UNL     1      27.484  36.152  14.142  1.00  0.00     0.199 C 
BRANCH   8   9
ATOM      9  C   UNL     1      26.034  35.754  13.970  1.00  0.00     0.179 C 
ATOM     10  C   UNL     1      24.479  35.664  12.309  1.00  0.00     0.282 C 
ATOM     11  O   UNL     1      25.815  35.334  12.628  1.00  0.00    -0.341 OA
ATOM     12  C   UNL     1      23.551  35.363  13.428  1.00  0.00     0.202 C 
ATOM     13  C   UNL     1      24.068  34.485  14.517  1.00  0.00     0.179 C 
ATOM     14  C   UNL     1      25.541  34.652  14.830  1.00  0.00     0.177 C 
BRANCH  10  15
ATOM     15  O   UNL     1      24.128  35.233  11.061  1.00  0.00    -0.341 OA
BRANCH  15  16
ATOM     16  C   UNL     1      23.870  36.202  10.116  1.00  0.00     0.184 C 
ATOM     17  C   UNL     1      22.571  36.033   9.366  1.00  0.00     0.178 C 
ATOM     18  O   UNL     1      22.663  36.579   8.086  1.00  0.00    -0.341 OA
ATOM     19  C   UNL     1      23.519  37.691   8.027  1.00  0.00     0.281 C 
ATOM     20  C   UNL     1      24.933  35.986   9.021  1.00  0.00     0.180 C 
ATOM     21  C   UNL     1      24.985  37.262   8.227  1.00  0.00     0.202 C 
BRANCH  17  22
ATOM     22  C   UNL     1      21.378  36.652  10.021  1.00  0.00     0.191 C 
BRANCH  22  23
ATOM     23  O   UNL     1      21.786  37.369  11.144  1.00  0.00    -0.394 OA
ATOM     24  H   UNL     1      21.325  36.966  11.934  1.00  0.00     0.210 HD
ENDBRANCH  22  23
ENDBRANCH  17  22
BRANCH  19  25
ATOM     25  O   UNL     1      23.190  38.704   8.869  1.00  0.00    -0.350 OA
BRANCH  25  26
ATOM     26  C   UNL     1      22.687  39.861   8.360  1.00  0.00     0.169 C 
BRANCH  26  27
ATOM     27  C   UNL     1      23.220  40.341   7.063  1.00  0.00     0.119 C 
BRANCH  27  28
ATOM     28  N   UNL     1      24.485  40.986   7.141  1.00  0.00    -0.092 NA
ATOM     29  N   UNL     1      25.573  40.426   6.944  1.00  0.00     0.001 N 
ATOM     30  N   UNL     1      26.641  40.112   6.370  1.00  0.00    -0.003 NA
ENDBRANCH  27  28
ENDBRANCH  26  27
ENDBRANCH  25  26
ENDBRANCH  19  25
BRANCH  20  31
ATOM     31  O   UNL     1      26.133  35.578   9.533  1.00  0.00    -0.387 OA
ATOM     32  H   UNL     1      26.168  35.669  10.539  1.00  0.00     0.211 HD
ENDBRANCH  20  31
BRANCH  21  33
ATOM     33  O   UNL     1      25.635  37.079   7.007  1.00  0.00    -0.385 OA
ATOM     34  H   UNL     1      26.410  37.697   6.959  1.00  0.00     0.211 HD
ENDBRANCH  21  33
ENDBRANCH  15  16
ENDBRANCH  10  15
BRANCH  12  35
ATOM     35  O   UNL     1      22.989  36.542  13.981  1.00  0.00    -0.385 OA
ATOM     36  H   UNL     1      22.067  36.674  13.602  1.00  0.00     0.211 HD
ENDBRANCH  12  35
BRANCH  13  37
ATOM     37  O   UNL     1      23.752  33.124  14.286  1.00  0.00    -0.387 OA
ATOM     38  H   UNL     1      24.590  32.658  14.034  1.00  0.00     0.211 HD
ENDBRANCH  13  37
BRANCH  14  39
ATOM     39  O   UNL     1      26.242  33.463  14.657  1.00  0.00    -0.387 OA
ATOM     40  H   UNL     1      26.007  32.786  15.339  1.00  0.00     0.211 HD
ENDBRANCH  14  39
ENDBRANCH   8   9
ENDBRANCH   7   8
ENDBRANCH   1   7
BRANCH   1  41
ATOM     41  C   UNL     1      30.381  35.863  14.418  1.00  0.00     0.364 C 
ATOM     42  O   UNL     1      30.784  36.665  15.287  1.00  0.00    -0.246 OA
BRANCH  41  43
ATOM     43  O   UNL     1      30.905  35.973  13.177  1.00  0.00    -0.477 OA
ATOM     44  H   UNL     1      30.444  36.015  12.302  1.00  0.00     0.296 HD
ENDBRANCH  41  43
ENDBRANCH   1  41
BRANCH   3  45
ATOM     45  O   UNL     1      31.498  31.868  15.039  1.00  0.00    -0.391 OA
ATOM     46  H   UNL     1      32.481  31.759  14.982  1.00  0.00     0.211 HD
ENDBRANCH   3  45
BRANCH   5  47
ATOM     47  C   UNL     1      28.532  32.706  17.111  1.00  0.00     0.176 C 
BRANCH  47  48
ATOM     48  O   UNL     1      27.494  32.855  18.077  1.00  0.00    -0.388 OA
ATOM     49  H   UNL     1      26.643  32.678  17.622  1.00  0.00     0.211 HD
ENDBRANCH  47  48
BRANCH  47  50
ATOM     50  C   UNL     1      29.226  31.467  17.750  1.00  0.00     0.165 C 
BRANCH  50  51
ATOM     51  O   UNL     1      29.728  30.542  16.926  1.00  0.00    -0.388 OA
ATOM     52  H   UNL     1      29.375  30.647  16.007  1.00  0.00     0.211 HD
ENDBRANCH  50  51
BRANCH  50  53
ATOM     53  C   UNL     1      28.196  30.853  18.724  1.00  0.00     0.154 C 
BRANCH  53  54
ATOM     54  N   UNL     1      27.068  30.292  18.056  1.00  0.00    -0.319 N 
ATOM     55  C   UNL     1      26.378  29.182  18.645  1.00  0.00     0.407 C 
ATOM     56  H   UNL     1      26.736  30.662  17.160  1.00  0.00     0.167 HD
ATOM     57  O   UNL     1      26.782  28.724  19.749  1.00  0.00    -0.225 OA
BRANCH  55  58
ATOM     58  O   UNL     1      25.288  28.657  17.974  1.00  0.00    -0.443 OA
BRANCH  58  59
ATOM     59  C   UNL     1      24.208  29.529  17.589  1.00  0.00     0.294 C 
BRANCH  59  60
ATOM     60  C   UNL     1      24.320  29.783  16.138  1.00  0.00     0.120 A 
ATOM     61  C   UNL     1      23.618  29.138  15.114  1.00  0.00     0.138 A 
ATOM     62  N   UNL     1      25.118  30.664  15.523  1.00  0.00    -0.132 NA
ATOM     63  N   UNL     1      24.034  29.664  13.956  1.00  0.00    -0.248 N 
ATOM     64  N   UNL     1      24.944  30.589  14.219  1.00  0.00    -0.067 NA
BRANCH  63  65
ATOM     65  C   UNL     1      23.573  29.289  12.643  1.00  0.00     0.181 C 
BRANCH  65  66
ATOM     66  C   UNL     1      22.184  29.765  12.463  1.00  0.00    -0.026 A 
ATOM     67  C   UNL     1      21.178  28.852  12.159  1.00  0.00     0.009 A 
ATOM     68  C   UNL     1      21.824  31.080  12.599  1.00  0.00     0.009 A 
ATOM     69  C   UNL     1      19.864  29.238  11.998  1.00  0.00     0.047 A 
ATOM     70  C   UNL     1      20.491  31.470  12.435  1.00  0.00     0.047 A 
ATOM     71  C   UNL     1      19.504  30.571  12.137  1.00  0.00     0.118 A 
BRANCH  71  72
ATOM     72  O   UNL     1      18.174  30.907  11.966  1.00  0.00    -0.497 OA
ATOM     73  C   UNL     1      17.607  31.343  10.765  1.00  0.00     0.278 C 
ENDBRANCH  71  72
ENDBRANCH  65  66
ENDBRANCH  63  65
ENDBRANCH  59  60
ENDBRANCH  58  59
ENDBRANCH  55  58
ENDBRANCH  53  54
ENDBRANCH  50  53
ENDBRANCH  47  50
ENDBRANCH   5  47
BRANCH   4  74
ATOM     74  N   UNL     1      31.802  34.114  17.549  1.00  0.00    -0.348 N 
ATOM     75  C   UNL     1      31.879  34.085  18.969  1.00  0.00     0.217 C 
ATOM     76  H   UNL     1      32.485  34.712  17.063  1.00  0.00     0.163 HD
ATOM     77  C   UNL     1      32.938  34.893  19.686  1.00  0.00     0.114 C 
ATOM     78  O   UNL     1      31.069  33.388  19.624  1.00  0.00    -0.275 OA
ENDBRANCH   4  74
TORSDOF 32
BEGIN_RES LYS A 131
REMARK  4 active torsions:
REMARK  status: ('A' for Active; 'I' for Inactive)
REMARK    1  A    between atoms: CA   and  CB  
REMARK    2  A    between atoms: CB   and  CG  
REMARK    3  A    between atoms: CG   and  CD  
REMARK    4  A    between atoms: CD   and  CE  
ROOT
ATOM      1  CA  LYS A 131      29.867  25.555  16.977  1.00 20.52     0.186 C 
ENDROOT
BRANCH   1   2
ATOM      2  CB  LYS A 131      28.345  25.722  17.026  1.00 20.94     0.034 C 
BRANCH   2   3
ATOM      3  CG  LYS A 131      27.600  24.410  16.830  1.00 22.96     0.005 C 
BRANCH   3   4
ATOM      4  CD  LYS A 131      26.717  24.080  18.001  1.00 24.33     0.041 C 
BRANCH   4   5
ATOM      5  CE  LYS A 131      26.315  25.367  18.714  1.00 26.91     0.338 C 
ATOM      6  NZ  LYS A 131      25.565  25.060  19.956  1.00 27.40     0.618 N 
ENDBRANCH   4   5
ENDBRANCH   3   4
ENDBRANCH   2   3
ENDBRANCH   1   2
END_RES LYS A 131
BEGIN_RES LYS A 135
REMARK  4 active torsions:
REMARK  status: ('A' for Active; 'I' for Inactive)
REMARK    5  A    between atoms: CA   and  CB  
REMARK    6  A    between atoms: CB   and  CG  
REMARK    7  A    between atoms: CG   and  CD  
REMARK    8  A    between atoms: CD   and  CE  
ROOT
ATOM      7  CA  LYS A 135      33.193  34.663   9.290  1.00 25.02     0.186 C 
ENDROOT
BRANCH   7   8
ATOM      8  CB  LYS A 135      32.060  35.360  10.034  1.00 26.63     0.034 C 
BRANCH   8   9
ATOM      9  CG  LYS A 135      30.709  34.738   9.793  1.00 29.45     0.005 C 
BRANCH   9  10
ATOM     10  CD  LYS A 135      30.475  34.520   8.306  1.00 32.00     0.041 C 
BRANCH  10  11
ATOM     11  CE  LYS A 135      29.028  34.799   7.948  1.00 34.25     0.338 C 
ATOM     12  NZ  LYS A 135      28.928  35.549   6.665  1.00 35.99     0.618 N 
ENDBRANCH  10  11
ENDBRANCH   9  10
ENDBRANCH   8   9
ENDBRANCH   7   8
END_RES LYS A 135
