REMARK VINA RESULT:    -5.242      3.030      7.278
REMARK INTER + INTRA:         -24.845
REMARK INTER:                 -13.499
REMARK INTRA:                 -11.345
REMARK UNBOUND:               -11.174
REMARK SMILES CC(=O)N[C@@H]1[C@@H](O)C[C@](OC[C@H]2O[C@@H](O[C@H]3[C@H](O)[C@@H](O)[C@H](OCCN=[N+]=[N-])O[C@@H]3CO)[C@H](O)[C@@H](O)[C@H]2O)(C(=O)O)O[C@H]1C(O)[C@H](O)CNC(=O)OCc1cn(-c2cc(C(=O)O)nc(-c3ccccc3)c2)nn1
REMARK SMILES IDX 9 1 8 2 6 3 5 4 42 5 41 6 10 7 11 8 12 9 14 10 13 11 32 12
REMARK SMILES IDX 34 13 36 14 15 15 16 16 29 17 28 18 21 19 17 20 19 21 30 22
REMARK SMILES IDX 31 23 22 25 23 26 24 27 25 28 26 29 27 30 18 31 20 33 33 35
REMARK SMILES IDX 35 37 37 39 38 41 39 42 40 43 7 45 43 47 44 48 45 50 46 51
REMARK SMILES IDX 47 53 48 54 49 55 50 57 51 58 52 59 53 60 54 61 72 62 55 63
REMARK SMILES IDX 71 64 56 65 57 66 70 67 58 68 63 69 62 70 59 71 60 72 61 73
REMARK SMILES IDX 64 75 65 76 69 77 66 78 68 79 67 80 4 81 2 82 1 84 3 85
REMARK H PARENT 31 24 18 32 20 34 33 36 35 38 37 40 40 44 7 46 44 49 46 52
REMARK H PARENT 48 56 61 74 4 83
REMARK Flexibility Score: inf
ROOT
ATOM      1  C   UNL     1      29.048  32.703  16.682  1.00  0.00     0.272 C 
ATOM      2  C   UNL     1      29.123  31.260  17.220  1.00  0.00     0.113 C 
ATOM      3  C   UNL     1      28.279  30.291  16.477  1.00  0.00     0.145 C 
ATOM      4  C   UNL     1      26.913  30.849  16.095  1.00  0.00     0.142 C 
ATOM      5  C   UNL     1      26.849  32.206  16.802  1.00  0.00     0.178 C 
ATOM      6  O   UNL     1      27.785  32.994  16.170  1.00  0.00    -0.332 OA
ENDROOT
BRANCH   1   7
ATOM      7  O   UNL     1      29.966  32.760  15.683  1.00  0.00    -0.338 OA
BRANCH   7   8
ATOM      8  C   UNL     1      31.273  32.968  15.980  1.00  0.00     0.199 C 
BRANCH   8   9
ATOM      9  C   UNL     1      31.961  33.787  14.860  1.00  0.00     0.179 C 
ATOM     10  C   UNL     1      31.375  34.999  12.948  1.00  0.00     0.282 C 
ATOM     11  O   UNL     1      30.998  34.197  13.994  1.00  0.00    -0.341 OA
ATOM     12  C   UNL     1      32.786  35.498  13.197  1.00  0.00     0.202 C 
ATOM     13  C   UNL     1      32.993  36.022  14.597  1.00  0.00     0.179 C 
ATOM     14  C   UNL     1      32.542  34.996  15.575  1.00  0.00     0.177 C 
BRANCH  10  15
ATOM     15  O   UNL     1      30.474  36.046  12.872  1.00  0.00    -0.341 OA
BRANCH  15  16
ATOM     16  C   UNL     1      29.155  35.701  13.112  1.00  0.00     0.184 C 
ATOM     17  C   UNL     1      28.267  35.882  11.936  1.00  0.00     0.178 C 
ATOM     18  O   UNL     1      27.267  36.808  12.178  1.00  0.00    -0.341 OA
ATOM     19  C   UNL     1      27.768  38.014  12.663  1.00  0.00     0.281 C 
ATOM     20  C   UNL     1      28.715  36.439  14.343  1.00  0.00     0.180 C 
ATOM     21  C   UNL     1      28.114  37.780  14.117  1.00  0.00     0.202 C 
BRANCH  17  22
ATOM     22  C   UNL     1      27.582  34.569  11.615  1.00  0.00     0.191 C 
BRANCH  22  23
ATOM     23  O   UNL     1      26.538  34.297  12.480  1.00  0.00    -0.394 OA
ATOM     24  H   UNL     1      26.326  33.328  12.446  1.00  0.00     0.210 HD
ENDBRANCH  22  23
ENDBRANCH  17  22
BRANCH  19  25
ATOM     25  O   UNL     1      26.738  38.939  12.584  1.00  0.00    -0.350 OA
BRANCH  25  26
ATOM     26  C   UNL     1      25.569  38.376  12.070  1.00  0.00     0.169 C 
BRANCH  26  27
ATOM     27  C   UNL     1      24.469  38.408  13.101  1.00  0.00     0.119 C 
BRANCH  27  28
ATOM     28  N   UNL     1      24.441  37.148  13.809  1.00  0.00    -0.092 NA
ATOM     29  N   UNL     1      24.591  37.156  15.023  1.00  0.00     0.001 N 
ATOM     30  N   UNL     1      24.453  36.874  16.225  1.00  0.00    -0.003 NA
ENDBRANCH  27  28
ENDBRANCH  26  27
ENDBRANCH  25  26
ENDBRANCH  19  25
BRANCH  20  31
ATOM     31  O   UNL     1      27.721  35.645  14.963  1.00  0.00    -0.387 OA
ATOM     32  H   UNL     1      27.960  34.686  14.906  1.00  0.00     0.211 HD
ENDBRANCH  20  31
BRANCH  21  33
ATOM     33  O   UNL     1      29.015  38.756  14.594  1.00  0.00    -0.385 OA
ATOM     34  H   UNL     1      28.607  39.306  15.318  1.00  0.00     0.211 HD
ENDBRANCH  21  33
ENDBRANCH  15  16
ENDBRANCH  10  15
BRANCH  12  35
ATOM     35  O   UNL     1      33.760  34.541  12.944  1.00  0.00    -0.385 OA
ATOM     36  H   UNL     1      34.616  34.950  13.256  1.00  0.00     0.211 HD
ENDBRANCH  12  35
BRANCH  13  37
ATOM     37  O   UNL     1      32.276  37.216  14.689  1.00  0.00    -0.387 OA
ATOM     38  H   UNL     1      32.168  37.413  15.655  1.00  0.00     0.211 HD
ENDBRANCH  13  37
BRANCH  14  39
ATOM     39  O   UNL     1      31.511  35.585  16.336  1.00  0.00    -0.387 OA
ATOM     40  H   UNL     1      30.627  35.299  16.054  1.00  0.00     0.211 HD
ENDBRANCH  14  39
ENDBRANCH   8   9
ENDBRANCH   7   8
ENDBRANCH   1   7
BRANCH   1  41
ATOM     41  C   UNL     1      29.278  33.634  17.815  1.00  0.00     0.364 C 
ATOM     42  O   UNL     1      29.705  33.241  18.934  1.00  0.00    -0.246 OA
BRANCH  41  43
ATOM     43  O   UNL     1      29.030  34.981  17.673  1.00  0.00    -0.477 OA
ATOM     44  H   UNL     1      29.766  35.698  17.658  1.00  0.00     0.296 HD
ENDBRANCH  41  43
ENDBRANCH   1  41
BRANCH   3  45
ATOM     45  O   UNL     1      28.924  29.690  15.418  1.00  0.00    -0.391 OA
ATOM     46  H   UNL     1      28.304  29.080  14.969  1.00  0.00     0.211 HD
ENDBRANCH   3  45
BRANCH   5  47
ATOM     47  C   UNL     1      25.481  32.762  16.913  1.00  0.00     0.176 C 
BRANCH  47  48
ATOM     48  O   UNL     1      25.480  34.069  16.373  1.00  0.00    -0.388 OA
ATOM     49  H   UNL     1      26.002  34.078  15.510  1.00  0.00     0.211 HD
ENDBRANCH  47  48
BRANCH  47  50
ATOM     50  C   UNL     1      24.881  32.775  18.291  1.00  0.00     0.165 C 
BRANCH  50  51
ATOM     51  O   UNL     1      25.467  31.792  19.063  1.00  0.00    -0.388 OA
ATOM     52  H   UNL     1      25.023  31.686  19.946  1.00  0.00     0.211 HD
ENDBRANCH  50  51
BRANCH  50  53
ATOM     53  C   UNL     1      23.397  32.556  18.122  1.00  0.00     0.154 C 
BRANCH  53  54
ATOM     54  N   UNL     1      22.716  33.485  17.295  1.00  0.00    -0.319 N 
ATOM     55  C   UNL     1      21.864  33.065  16.240  1.00  0.00     0.407 C 
ATOM     56  H   UNL     1      22.823  34.519  17.442  1.00  0.00     0.167 HD
ATOM     57  O   UNL     1      21.723  31.848  16.017  1.00  0.00    -0.225 OA
BRANCH  55  58
ATOM     58  O   UNL     1      21.178  34.005  15.446  1.00  0.00    -0.443 OA
BRANCH  58  59
ATOM     59  C   UNL     1      20.829  33.647  14.133  1.00  0.00     0.294 C 
BRANCH  59  60
ATOM     60  C   UNL     1      21.902  34.003  13.174  1.00  0.00     0.121 A 
ATOM     61  C   UNL     1      21.944  34.989  12.217  1.00  0.00     0.144 A 
ATOM     62  N   UNL     1      23.102  33.367  13.034  1.00  0.00    -0.131 NA
ATOM     63  N   UNL     1      23.109  34.945  11.535  1.00  0.00    -0.220 N 
ATOM     64  N   UNL     1      23.794  33.934  12.068  1.00  0.00    -0.062 NA
BRANCH  63  65
ATOM     65  C   UNL     1      23.496  35.783  10.460  1.00  0.00     0.071 A 
ATOM     66  C   UNL     1      22.684  36.868  10.171  1.00  0.00     0.064 A 
ATOM     67  C   UNL     1      24.626  35.615   9.685  1.00  0.00     0.057 A 
ATOM     68  C   UNL     1      23.035  37.719   9.139  1.00  0.00     0.151 A 
ATOM     69  C   UNL     1      24.964  36.457   8.673  1.00  0.00     0.073 A 
ATOM     70  N   UNL     1      24.153  37.502   8.417  1.00  0.00    -0.241 NA
BRANCH  68  71
ATOM     71  C   UNL     1      22.204  38.870   8.814  1.00  0.00     0.354 C 
ATOM     72  O   UNL     1      21.442  39.319   9.706  1.00  0.00    -0.245 OA
BRANCH  71  73
ATOM     73  O   UNL     1      22.203  39.494   7.590  1.00  0.00    -0.477 OA
ATOM     74  H   UNL     1      21.585  40.284   7.366  1.00  0.00     0.297 HD
ENDBRANCH  71  73
ENDBRANCH  68  71
BRANCH  69  75
ATOM     75  C   UNL     1      26.167  36.264   7.871  1.00  0.00     0.000 A 
ATOM     76  C   UNL     1      26.940  35.132   8.117  1.00  0.00     0.010 A 
ATOM     77  C   UNL     1      26.579  37.126   6.896  1.00  0.00     0.010 A 
ATOM     78  C   UNL     1      28.084  34.868   7.411  1.00  0.00     0.001 A 
ATOM     79  C   UNL     1      27.737  36.851   6.190  1.00  0.00     0.001 A 
ATOM     80  C   UNL     1      28.500  35.744   6.423  1.00  0.00     0.000 A 
ENDBRANCH  69  75
ENDBRANCH  63  65
ENDBRANCH  59  60
ENDBRANCH  58  59
ENDBRANCH  55  58
ENDBRANCH  53  54
ENDBRANCH  50  53
ENDBRANCH  47  50
ENDBRANCH   5  47
BRANCH   4  81
ATOM     81  N   UNL     1      25.850  29.970  16.458  1.00  0.00    -0.348 N 
ATOM     82  C   UNL     1      24.780  29.736  15.556  1.00  0.00     0.217 C 
ATOM     83  H   UNL     1      25.874  29.506  17.395  1.00  0.00     0.163 HD
ATOM     84  C   UNL     1      23.647  28.831  15.878  1.00  0.00     0.114 C 
ATOM     85  O   UNL     1      24.757  30.306  14.413  1.00  0.00    -0.275 OA
ENDBRANCH   4  81
TORSDOF 33
BEGIN_RES LYS A 131
REMARK  4 active torsions:
REMARK  status: ('A' for Active; 'I' for Inactive)
REMARK    1  A    between atoms: CA   and  CB  
REMARK    2  A    between atoms: CB   and  CG  
REMARK    3  A    between atoms: CG   and  CD  
REMARK    4  A    between atoms: CD   and  CE  
ROOT
ATOM      1  CA  LYS A 131      29.867  25.555  16.977  1.00 20.52     0.186 C 
ENDROOT
BRANCH   1   2
ATOM      2  CB  LYS A 131      28.345  25.722  17.026  1.00 20.94     0.034 C 
BRANCH   2   3
ATOM      3  CG  LYS A 131      27.602  24.400  16.913  1.00 22.96     0.005 C 
BRANCH   3   4
ATOM      4  CD  LYS A 131      26.155  24.528  17.302  1.00 24.33     0.041 C 
BRANCH   4   5
ATOM      5  CE  LYS A 131      26.039  24.579  18.822  1.00 26.91     0.338 C 
ATOM      6  NZ  LYS A 131      25.356  23.366  19.330  1.00 27.40     0.618 N 
ENDBRANCH   4   5
ENDBRANCH   3   4
ENDBRANCH   2   3
ENDBRANCH   1   2
END_RES LYS A 131
BEGIN_RES LYS A 135
REMARK  4 active torsions:
REMARK  status: ('A' for Active; 'I' for Inactive)
REMARK    5  A    between atoms: CA   and  CB  
REMARK    6  A    between atoms: CB   and  CG  
REMARK    7  A    between atoms: CG   and  CD  
REMARK    8  A    between atoms: CD   and  CE  
ROOT
ATOM      7  CA  LYS A 135      33.193  34.663   9.290  1.00 25.02     0.186 C 
ENDROOT
BRANCH   7   8
ATOM      8  CB  LYS A 135      32.060  35.360  10.034  1.00 26.63     0.034 C 
BRANCH   8   9
ATOM      9  CG  LYS A 135      30.871  35.675   9.163  1.00 29.45     0.005 C 
BRANCH   9  10
ATOM     10  CD  LYS A 135      30.462  37.131   9.319  1.00 32.00     0.041 C 
BRANCH  10  11
ATOM     11  CE  LYS A 135      31.491  37.889  10.137  1.00 34.25     0.338 C 
ATOM     12  NZ  LYS A 135      30.840  38.909  11.004  1.00 35.99     0.618 N 
ENDBRANCH  10  11
ENDBRANCH   9  10
ENDBRANCH   8   9
ENDBRANCH   7   8
END_RES LYS A 135
