REMARK VINA RESULT:    -3.623      6.641     12.861
REMARK INTER + INTRA:         -20.927
REMARK INTER:                 -11.330
REMARK INTRA:                  -9.597
REMARK UNBOUND:               -11.690
REMARK SMILES CC(=O)N[C@@H]1[C@@H](O)C[C@](OC[C@H]2O[C@@H](O[C@H]3[C@H](O)[C@@H](O)[C@H](OCCN=[N+]=[N-])O[C@@H]3CO)[C@H](O)[C@@H](O)[C@H]2O)(C(=O)O)O[C@H]1C(O)[C@H](O)CNC(=O)OCc1cn(CCO)nn1
REMARK SMILES IDX 9 1 8 2 6 3 5 4 42 5 41 6 10 7 11 8 12 9 14 10 13 11 32 12
REMARK SMILES IDX 34 13 36 14 15 15 16 16 29 17 28 18 21 19 17 20 19 21 30 22
REMARK SMILES IDX 31 23 22 25 23 26 24 27 25 28 26 29 27 30 18 31 20 33 33 35
REMARK SMILES IDX 35 37 37 39 38 41 39 42 40 43 7 45 43 47 44 48 45 50 46 51
REMARK SMILES IDX 47 53 48 54 49 55 50 57 51 58 52 59 53 60 54 61 60 62 55 63
REMARK SMILES IDX 59 64 56 65 57 66 58 67 4 69 2 70 1 72 3 73
REMARK H PARENT 31 24 18 32 20 34 33 36 35 38 37 40 40 44 7 46 44 49 46 52
REMARK H PARENT 48 56 58 68 4 71
REMARK Flexibility Score: inf
ROOT
ATOM      1  C   UNL     1      23.783  36.320  10.982  1.00  0.00     0.272 C 
ATOM      2  C   UNL     1      22.816  35.419  11.677  1.00  0.00     0.113 C 
ATOM      3  C   UNL     1      23.502  34.146  12.092  1.00  0.00     0.145 C 
ATOM      4  C   UNL     1      24.684  34.572  12.963  1.00  0.00     0.142 C 
ATOM      5  C   UNL     1      25.634  35.324  12.038  1.00  0.00     0.178 C 
ATOM      6  O   UNL     1      24.914  36.500  11.721  1.00  0.00    -0.332 OA
ENDROOT
BRANCH   1   7
ATOM      7  O   UNL     1      23.216  37.595  10.754  1.00  0.00    -0.338 OA
BRANCH   7   8
ATOM      8  C   UNL     1      23.989  38.655  11.092  1.00  0.00     0.199 C 
BRANCH   8   9
ATOM      9  C   UNL     1      24.436  39.434   9.845  1.00  0.00     0.179 C 
ATOM     10  C   UNL     1      25.545  39.200   7.820  1.00  0.00     0.282 C 
ATOM     11  O   UNL     1      25.240  38.637   9.059  1.00  0.00    -0.341 OA
ATOM     12  C   UNL     1      24.319  39.410   6.972  1.00  0.00     0.202 C 
ATOM     13  C   UNL     1      23.037  39.468   7.763  1.00  0.00     0.179 C 
ATOM     14  C   UNL     1      23.302  40.069   9.115  1.00  0.00     0.177 C 
BRANCH  10  15
ATOM     15  O   UNL     1      26.368  38.337   7.203  1.00  0.00    -0.341 OA
BRANCH  15  16
ATOM     16  C   UNL     1      27.499  38.748   6.609  1.00  0.00     0.184 C 
ATOM     17  C   UNL     1      27.790  38.479   5.201  1.00  0.00     0.178 C 
ATOM     18  O   UNL     1      29.143  38.257   5.014  1.00  0.00    -0.341 OA
ATOM     19  C   UNL     1      30.019  39.054   5.681  1.00  0.00     0.281 C 
ATOM     20  C   UNL     1      28.638  38.084   7.427  1.00  0.00     0.180 C 
ATOM     21  C   UNL     1      29.836  38.982   7.205  1.00  0.00     0.202 C 
BRANCH  17  22
ATOM     22  C   UNL     1      27.383  39.614   4.266  1.00  0.00     0.191 C 
BRANCH  22  23
ATOM     23  O   UNL     1      27.013  40.760   4.972  1.00  0.00    -0.394 OA
ATOM     24  H   UNL     1      26.734  41.438   4.328  1.00  0.00     0.210 HD
ENDBRANCH  22  23
ENDBRANCH  17  22
BRANCH  19  25
ATOM     25  O   UNL     1      30.141  40.344   5.250  1.00  0.00    -0.350 OA
BRANCH  25  26
ATOM     26  C   UNL     1      31.403  40.843   5.126  1.00  0.00     0.169 C 
BRANCH  26  27
ATOM     27  C   UNL     1      31.608  42.029   6.006  1.00  0.00     0.119 C 
BRANCH  27  28
ATOM     28  N   UNL     1      32.952  41.960   6.603  1.00  0.00    -0.092 NA
ATOM     29  N   UNL     1      33.047  41.196   7.582  1.00  0.00     0.001 N 
ATOM     30  N   UNL     1      33.396  40.136   8.129  1.00  0.00    -0.003 NA
ENDBRANCH  27  28
ENDBRANCH  26  27
ENDBRANCH  25  26
ENDBRANCH  19  25
BRANCH  20  31
ATOM     31  O   UNL     1      28.287  37.961   8.746  1.00  0.00    -0.387 OA
ATOM     32  H   UNL     1      28.343  37.028   9.074  1.00  0.00     0.211 HD
ENDBRANCH  20  31
BRANCH  21  33
ATOM     33  O   UNL     1      30.939  38.512   7.865  1.00  0.00    -0.385 OA
ATOM     34  H   UNL     1      31.715  38.371   7.268  1.00  0.00     0.211 HD
ENDBRANCH  21  33
ENDBRANCH  15  16
ENDBRANCH  10  15
BRANCH  12  35
ATOM     35  O   UNL     1      24.439  40.665   6.354  1.00  0.00    -0.385 OA
ATOM     36  H   UNL     1      23.578  41.091   6.172  1.00  0.00     0.211 HD
ENDBRANCH  12  35
BRANCH  13  37
ATOM     37  O   UNL     1      22.471  38.221   7.813  1.00  0.00    -0.387 OA
ATOM     38  H   UNL     1      21.616  38.173   7.281  1.00  0.00     0.211 HD
ENDBRANCH  13  37
BRANCH  14  39
ATOM     39  O   UNL     1      22.138  39.868   9.890  1.00  0.00    -0.387 OA
ATOM     40  H   UNL     1      22.045  40.576  10.574  1.00  0.00     0.211 HD
ENDBRANCH  14  39
ENDBRANCH   8   9
ENDBRANCH   7   8
ENDBRANCH   1   7
BRANCH   1  41
ATOM     41  C   UNL     1      24.035  35.791   9.624  1.00  0.00     0.364 C 
ATOM     42  O   UNL     1      23.155  35.236   8.940  1.00  0.00    -0.246 OA
BRANCH  41  43
ATOM     43  O   UNL     1      25.288  35.897   9.046  1.00  0.00    -0.477 OA
ATOM     44  H   UNL     1      25.428  35.976   8.024  1.00  0.00     0.296 HD
ENDBRANCH  41  43
ENDBRANCH   1  41
BRANCH   3  45
ATOM     45  O   UNL     1      22.660  33.377  12.926  1.00  0.00    -0.391 OA
ATOM     46  H   UNL     1      23.006  33.422  13.858  1.00  0.00     0.211 HD
ENDBRANCH   3  45
BRANCH   5  47
ATOM     47  C   UNL     1      26.804  35.807  12.834  1.00  0.00     0.176 C 
BRANCH  47  48
ATOM     48  O   UNL     1      27.787  34.825  12.959  1.00  0.00    -0.388 OA
ATOM     49  H   UNL     1      28.688  35.217  13.112  1.00  0.00     0.211 HD
ENDBRANCH  47  48
BRANCH  47  50
ATOM     50  C   UNL     1      27.417  37.107  12.485  1.00  0.00     0.165 C 
BRANCH  50  51
ATOM     51  O   UNL     1      28.017  36.824  11.181  1.00  0.00    -0.388 OA
ATOM     52  H   UNL     1      27.490  36.110  10.753  1.00  0.00     0.211 HD
ENDBRANCH  50  51
BRANCH  50  53
ATOM     53  C   UNL     1      28.652  37.456  13.296  1.00  0.00     0.154 C 
BRANCH  53  54
ATOM     54  N   UNL     1      29.828  36.757  12.887  1.00  0.00    -0.319 N 
ATOM     55  C   UNL     1      31.050  36.919  13.588  1.00  0.00     0.407 C 
ATOM     56  H   UNL     1      29.828  36.109  12.049  1.00  0.00     0.167 HD
ATOM     57  O   UNL     1      31.027  37.722  14.581  1.00  0.00    -0.225 OA
BRANCH  55  58
ATOM     58  O   UNL     1      32.236  36.298  13.300  1.00  0.00    -0.443 OA
BRANCH  58  59
ATOM     59  C   UNL     1      32.731  35.313  14.187  1.00  0.00     0.294 C 
BRANCH  59  60
ATOM     60  C   UNL     1      31.749  34.269  14.489  1.00  0.00     0.120 A 
ATOM     61  C   UNL     1      31.853  33.345  15.499  1.00  0.00     0.138 A 
ATOM     62  N   UNL     1      30.586  33.999  13.874  1.00  0.00    -0.132 NA
ATOM     63  N   UNL     1      30.770  32.543  15.479  1.00  0.00    -0.250 N 
ATOM     64  N   UNL     1      30.014  32.956  14.489  1.00  0.00    -0.067 NA
BRANCH  63  65
ATOM     65  C   UNL     1      30.513  31.430  16.405  1.00  0.00     0.174 C 
BRANCH  65  66
ATOM     66  C   UNL     1      29.059  31.048  16.290  1.00  0.00     0.179 C 
BRANCH  66  67
ATOM     67  O   UNL     1      28.951  30.118  15.242  1.00  0.00    -0.394 OA
ATOM     68  H   UNL     1      29.810  29.849  14.873  1.00  0.00     0.210 HD
ENDBRANCH  66  67
ENDBRANCH  65  66
ENDBRANCH  63  65
ENDBRANCH  59  60
ENDBRANCH  58  59
ENDBRANCH  55  58
ENDBRANCH  53  54
ENDBRANCH  50  53
ENDBRANCH  47  50
ENDBRANCH   5  47
BRANCH   4  69
ATOM     69  N   UNL     1      25.236  33.518  13.719  1.00  0.00    -0.348 N 
ATOM     70  C   UNL     1      24.931  33.226  15.069  1.00  0.00     0.217 C 
ATOM     71  H   UNL     1      25.924  32.864  13.266  1.00  0.00     0.163 HD
ATOM     72  C   UNL     1      25.591  32.088  15.740  1.00  0.00     0.114 C 
ATOM     73  O   UNL     1      24.116  33.914  15.702  1.00  0.00    -0.275 OA
ENDBRANCH   4  69
TORSDOF 32
BEGIN_RES LYS A 131
REMARK  4 active torsions:
REMARK  status: ('A' for Active; 'I' for Inactive)
REMARK    1  A    between atoms: CA   and  CB  
REMARK    2  A    between atoms: CB   and  CG  
REMARK    3  A    between atoms: CG   and  CD  
REMARK    4  A    between atoms: CD   and  CE  
ROOT
ATOM      1  CA  LYS A 131      29.867  25.555  16.977  1.00 20.52     0.186 C 
ENDROOT
BRANCH   1   2
ATOM      2  CB  LYS A 131      28.345  25.722  17.026  1.00 20.94     0.034 C 
BRANCH   2   3
ATOM      3  CG  LYS A 131      27.602  24.399  16.926  1.00 22.96     0.005 C 
BRANCH   3   4
ATOM      4  CD  LYS A 131      26.152  24.533  17.301  1.00 24.33     0.041 C 
BRANCH   4   5
ATOM      5  CE  LYS A 131      26.016  25.512  18.463  1.00 26.91     0.338 C 
ATOM      6  NZ  LYS A 131      24.931  26.486  18.197  1.00 27.40     0.618 N 
ENDBRANCH   4   5
ENDBRANCH   3   4
ENDBRANCH   2   3
ENDBRANCH   1   2
END_RES LYS A 131
BEGIN_RES LYS A 135
REMARK  4 active torsions:
REMARK  status: ('A' for Active; 'I' for Inactive)
REMARK    5  A    between atoms: CA   and  CB  
REMARK    6  A    between atoms: CB   and  CG  
REMARK    7  A    between atoms: CG   and  CD  
REMARK    8  A    between atoms: CD   and  CE  
ROOT
ATOM      7  CA  LYS A 135      33.193  34.663   9.290  1.00 25.02     0.186 C 
ENDROOT
BRANCH   7   8
ATOM      8  CB  LYS A 135      32.060  35.360  10.034  1.00 26.63     0.034 C 
BRANCH   8   9
ATOM      9  CG  LYS A 135      30.798  35.493   9.222  1.00 29.45     0.005 C 
BRANCH   9  10
ATOM     10  CD  LYS A 135      30.110  34.144   9.074  1.00 32.00     0.041 C 
BRANCH  10  11
ATOM     11  CE  LYS A 135      28.651  34.328   8.706  1.00 34.25     0.338 C 
ATOM     12  NZ  LYS A 135      27.762  33.606   9.658  1.00 35.99     0.618 N 
ENDBRANCH  10  11
ENDBRANCH   9  10
ENDBRANCH   8   9
ENDBRANCH   7   8
END_RES LYS A 135
