REMARK VINA RESULT:    -4.573      2.407      6.193
REMARK INTER + INTRA:         -21.585
REMARK INTER:                 -10.147
REMARK INTRA:                 -11.439
REMARK UNBOUND:                -9.660
REMARK SMILES CC(=O)N[C@@H]1[C@@H](O)C[C@](OC[C@H]2O[C@@H](O[C@H]3[C@H](O)[C@@H](O)[C@H](OCCN=[N+]=[N-])O[C@@H]3CO)[C@H](O)[C@@H](O)[C@H]2O)(C(=O)O)O[C@H]1C(O)[C@H](O)CNC(=O)OCc1cn(CCC(=O)O)nn1
REMARK SMILES IDX 43 1 42 2 9 3 8 4 41 5 6 6 5 7 10 8 11 9 12 10 14 11 13 12
REMARK SMILES IDX 32 13 34 14 36 15 15 16 16 17 29 18 28 19 21 20 17 21 19 22
REMARK SMILES IDX 30 23 31 24 22 26 23 27 24 28 25 29 26 30 27 31 18 32 20 34
REMARK SMILES IDX 33 36 35 38 37 40 38 42 39 43 40 44 7 46 4 48 2 49 1 51 3 52
REMARK SMILES IDX 44 53 45 55 46 56 47 58 48 59 49 60 50 62 51 63 52 64 53 65
REMARK SMILES IDX 54 66 62 67 55 68 61 69 56 70 57 71 58 72 59 73 60 74
REMARK H PARENT 31 25 18 33 20 35 33 37 35 39 37 41 40 45 7 47 4 50 44 54
REMARK H PARENT 46 57 48 61 60 75
REMARK Flexibility Score: inf
ROOT
ATOM      1  C   UNL     1      28.525  34.946  13.753  1.00  0.00     0.176 C 
ENDROOT
BRANCH   1   2
ATOM      2  C   UNL     1      29.846  35.679  13.744  1.00  0.00     0.178 C 
ATOM      3  C   UNL     1      30.992  37.374  12.596  1.00  0.00     0.272 C 
ATOM      4  C   UNL     1      31.883  37.055  13.783  1.00  0.00     0.113 C 
ATOM      5  O   UNL     1      30.170  36.187  12.513  1.00  0.00    -0.332 OA
ATOM      6  C   UNL     1      32.256  35.559  13.814  1.00  0.00     0.145 C 
ATOM      7  C   UNL     1      30.998  34.767  14.146  1.00  0.00     0.142 C 
BRANCH   3   8
ATOM      8  O   UNL     1      31.718  37.479  11.467  1.00  0.00    -0.338 OA
BRANCH   8   9
ATOM      9  C   UNL     1      31.931  38.522  10.714  1.00  0.00     0.199 C 
BRANCH   9  10
ATOM     10  C   UNL     1      31.313  38.826   9.417  1.00  0.00     0.179 C 
ATOM     11  C   UNL     1      29.518  38.718   7.989  1.00  0.00     0.282 C 
ATOM     12  O   UNL     1      30.083  38.289   9.155  1.00  0.00    -0.341 OA
ATOM     13  C   UNL     1      30.342  39.671   7.170  1.00  0.00     0.202 C 
ATOM     14  C   UNL     1      30.939  40.780   8.016  1.00  0.00     0.179 C 
ATOM     15  C   UNL     1      31.026  40.372   9.469  1.00  0.00     0.177 C 
BRANCH  11  16
ATOM     16  O   UNL     1      28.273  39.322   8.160  1.00  0.00    -0.341 OA
BRANCH  16  17
ATOM     17  C   UNL     1      27.328  38.919   7.219  1.00  0.00     0.184 C 
ATOM     18  C   UNL     1      26.182  39.868   7.257  1.00  0.00     0.178 C 
ATOM     19  O   UNL     1      24.984  39.296   7.719  1.00  0.00    -0.341 OA
ATOM     20  C   UNL     1      25.325  38.694   8.948  1.00  0.00     0.281 C 
ATOM     21  C   UNL     1      26.967  37.496   7.528  1.00  0.00     0.180 C 
ATOM     22  C   UNL     1      25.921  37.352   8.589  1.00  0.00     0.202 C 
BRANCH  18  23
ATOM     23  C   UNL     1      25.913  40.467   5.885  1.00  0.00     0.191 C 
BRANCH  23  24
ATOM     24  O   UNL     1      24.690  41.133   5.880  1.00  0.00    -0.394 OA
ATOM     25  H   UNL     1      24.780  41.951   6.423  1.00  0.00     0.210 HD
ENDBRANCH  23  24
ENDBRANCH  18  23
BRANCH  20  26
ATOM     26  O   UNL     1      24.239  38.578   9.782  1.00  0.00    -0.350 OA
BRANCH  26  27
ATOM     27  C   UNL     1      24.343  39.516  10.805  1.00  0.00     0.169 C 
BRANCH  27  28
ATOM     28  C   UNL     1      24.559  38.793  12.128  1.00  0.00     0.119 C 
BRANCH  28  29
ATOM     29  N   UNL     1      25.870  39.189  12.600  1.00  0.00    -0.092 NA
ATOM     30  N   UNL     1      26.103  40.387  12.746  1.00  0.00     0.001 N 
ATOM     31  N   UNL     1      26.567  41.502  13.069  1.00  0.00    -0.003 NA
ENDBRANCH  28  29
ENDBRANCH  27  28
ENDBRANCH  26  27
ENDBRANCH  20  26
BRANCH  21  32
ATOM     32  O   UNL     1      26.487  36.925   6.354  1.00  0.00    -0.387 OA
ATOM     33  H   UNL     1      27.235  36.506   5.885  1.00  0.00     0.211 HD
ENDBRANCH  21  32
BRANCH  22  34
ATOM     34  O   UNL     1      26.438  36.714   9.719  1.00  0.00    -0.385 OA
ATOM     35  H   UNL     1      26.005  35.825   9.841  1.00  0.00     0.211 HD
ENDBRANCH  22  34
ENDBRANCH  16  17
ENDBRANCH  11  16
BRANCH  13  36
ATOM     36  O   UNL     1      31.315  39.031   6.388  1.00  0.00    -0.385 OA
ATOM     37  H   UNL     1      32.200  39.263   6.712  1.00  0.00     0.211 HD
ENDBRANCH  13  36
BRANCH  14  38
ATOM     38  O   UNL     1      30.252  41.957   7.825  1.00  0.00    -0.387 OA
ATOM     39  H   UNL     1      30.855  42.727   7.855  1.00  0.00     0.211 HD
ENDBRANCH  14  38
BRANCH  15  40
ATOM     40  O   UNL     1      29.827  40.496  10.130  1.00  0.00    -0.387 OA
ATOM     41  H   UNL     1      29.150  39.820   9.897  1.00  0.00     0.211 HD
ENDBRANCH  15  40
ENDBRANCH   9  10
ENDBRANCH   8   9
ENDBRANCH   3   8
BRANCH   3  42
ATOM     42  C   UNL     1      30.062  38.482  12.827  1.00  0.00     0.364 C 
ATOM     43  O   UNL     1      30.279  39.305  13.751  1.00  0.00    -0.246 OA
BRANCH  42  44
ATOM     44  O   UNL     1      28.942  38.652  12.054  1.00  0.00    -0.477 OA
ATOM     45  H   UNL     1      28.462  37.933  11.552  1.00  0.00     0.296 HD
ENDBRANCH  42  44
ENDBRANCH   3  42
BRANCH   6  46
ATOM     46  O   UNL     1      32.663  35.218  12.543  1.00  0.00    -0.391 OA
ATOM     47  H   UNL     1      33.393  35.849  12.272  1.00  0.00     0.211 HD
ENDBRANCH   6  46
BRANCH   7  48
ATOM     48  N   UNL     1      30.964  34.427  15.530  1.00  0.00    -0.348 N 
ATOM     49  C   UNL     1      30.875  33.064  15.914  1.00  0.00     0.217 C 
ATOM     50  H   UNL     1      31.001  35.143  16.289  1.00  0.00     0.163 HD
ATOM     51  C   UNL     1      30.832  32.623  17.330  1.00  0.00     0.114 C 
ATOM     52  O   UNL     1      30.827  32.147  15.043  1.00  0.00    -0.275 OA
ENDBRANCH   7  48
ENDBRANCH   1   2
BRANCH   1  53
ATOM     53  O   UNL     1      27.870  35.250  14.947  1.00  0.00    -0.388 OA
ATOM     54  H   UNL     1      27.663  34.443  15.458  1.00  0.00     0.211 HD
ENDBRANCH   1  53
BRANCH   1  55
ATOM     55  C   UNL     1      27.617  35.279  12.612  1.00  0.00     0.165 C 
BRANCH  55  56
ATOM     56  O   UNL     1      27.209  36.611  12.740  1.00  0.00    -0.388 OA
ATOM     57  H   UNL     1      26.416  36.751  12.170  1.00  0.00     0.211 HD
ENDBRANCH  55  56
BRANCH  55  58
ATOM     58  C   UNL     1      26.368  34.407  12.776  1.00  0.00     0.154 C 
BRANCH  58  59
ATOM     59  N   UNL     1      25.475  34.578  11.663  1.00  0.00    -0.319 N 
ATOM     60  C   UNL     1      24.149  35.080  11.763  1.00  0.00     0.407 C 
ATOM     61  H   UNL     1      25.789  34.327  10.678  1.00  0.00     0.167 HD
ATOM     62  O   UNL     1      23.729  35.395  12.906  1.00  0.00    -0.225 OA
BRANCH  60  63
ATOM     63  O   UNL     1      23.325  35.227  10.662  1.00  0.00    -0.443 OA
BRANCH  63  64
ATOM     64  C   UNL     1      21.932  35.274  10.847  1.00  0.00     0.294 C 
BRANCH  64  65
ATOM     65  C   UNL     1      21.439  36.662  10.779  1.00  0.00     0.120 A 
ATOM     66  C   UNL     1      21.310  37.362   9.587  1.00  0.00     0.138 A 
ATOM     67  N   UNL     1      21.027  37.466  11.790  1.00  0.00    -0.132 NA
ATOM     68  N   UNL     1      20.818  38.577   9.929  1.00  0.00    -0.252 N 
ATOM     69  N   UNL     1      20.662  38.607  11.244  1.00  0.00    -0.067 NA
BRANCH  68  70
ATOM     70  C   UNL     1      20.506  39.660   9.021  1.00  0.00     0.158 C 
BRANCH  70  71
ATOM     71  C   UNL     1      21.230  40.945   9.355  1.00  0.00     0.146 C 
BRANCH  71  72
ATOM     72  C   UNL     1      22.131  41.267   8.239  1.00  0.00     0.305 C 
ATOM     73  O   UNL     1      23.167  41.933   8.453  1.00  0.00    -0.252 OA
BRANCH  72  74
ATOM     74  O   UNL     1      21.865  40.851   6.936  1.00  0.00    -0.481 OA
ATOM     75  H   UNL     1      21.924  39.884   6.635  1.00  0.00     0.296 HD
ENDBRANCH  72  74
ENDBRANCH  71  72
ENDBRANCH  70  71
ENDBRANCH  68  70
ENDBRANCH  64  65
ENDBRANCH  63  64
ENDBRANCH  60  63
ENDBRANCH  58  59
ENDBRANCH  55  58
ENDBRANCH   1  55
TORSDOF 33
BEGIN_RES LYS A 131
REMARK  4 active torsions:
REMARK  status: ('A' for Active; 'I' for Inactive)
REMARK    1  A    between atoms: CA   and  CB  
REMARK    2  A    between atoms: CB   and  CG  
REMARK    3  A    between atoms: CG   and  CD  
REMARK    4  A    between atoms: CD   and  CE  
ROOT
ATOM      1  CA  LYS A 131      29.867  25.555  16.977  1.00 20.52     0.186 C 
ENDROOT
BRANCH   1   2
ATOM      2  CB  LYS A 131      28.345  25.722  17.026  1.00 20.94     0.034 C 
BRANCH   2   3
ATOM      3  CG  LYS A 131      27.601  24.405  16.865  1.00 22.96     0.005 C 
BRANCH   3   4
ATOM      4  CD  LYS A 131      26.609  24.176  17.971  1.00 24.33     0.041 C 
BRANCH   4   5
ATOM      5  CE  LYS A 131      25.299  24.883  17.635  1.00 26.91     0.338 C 
ATOM      6  NZ  LYS A 131      24.435  24.008  16.807  1.00 27.40     0.618 N 
ENDBRANCH   4   5
ENDBRANCH   3   4
ENDBRANCH   2   3
ENDBRANCH   1   2
END_RES LYS A 131
BEGIN_RES LYS A 135
REMARK  4 active torsions:
REMARK  status: ('A' for Active; 'I' for Inactive)
REMARK    5  A    between atoms: CA   and  CB  
REMARK    6  A    between atoms: CB   and  CG  
REMARK    7  A    between atoms: CG   and  CD  
REMARK    8  A    between atoms: CD   and  CE  
ROOT
ATOM      7  CA  LYS A 135      33.193  34.663   9.290  1.00 25.02     0.186 C 
ENDROOT
BRANCH   7   8
ATOM      8  CB  LYS A 135      32.060  35.360  10.034  1.00 26.63     0.034 C 
BRANCH   8   9
ATOM      9  CG  LYS A 135      30.724  34.682   9.870  1.00 29.45     0.005 C 
BRANCH   9  10
ATOM     10  CD  LYS A 135      30.363  34.557   8.398  1.00 32.00     0.041 C 
BRANCH  10  11
ATOM     11  CE  LYS A 135      28.857  34.536   8.219  1.00 34.25     0.338 C 
ATOM     12  NZ  LYS A 135      28.191  33.844   9.358  1.00 35.99     0.618 N 
ENDBRANCH  10  11
ENDBRANCH   9  10
ENDBRANCH   8   9
ENDBRANCH   7   8
END_RES LYS A 135
