REMARK VINA RESULT:    -4.883      2.642      5.375
REMARK INTER + INTRA:         -22.088
REMARK INTER:                  -9.960
REMARK INTRA:                 -12.128
REMARK UNBOUND:               -10.068
REMARK SMILES CC(=O)N[C@@H]1[C@@H](O)C[C@](OC[C@H]2O[C@@H](O[C@H]3[C@H](O)[C@@H](O)[C@H](OCCN=[N+]=[N-])O[C@@H]3CO)[C@H](O)[C@@H](O)[C@H]2O)(C(=O)O)O[C@H]1C(O)[C@H](O)CNC(=O)OCc1cn(-c2cnc3ccccc3c2)nn1
REMARK SMILES IDX 9 1 8 2 6 3 5 4 42 5 41 6 10 7 11 8 12 9 14 10 13 11 32 12
REMARK SMILES IDX 34 13 36 14 15 15 16 16 29 17 28 18 21 19 17 20 19 21 30 22
REMARK SMILES IDX 31 23 22 25 23 26 24 27 25 28 26 29 27 30 18 31 20 33 33 35
REMARK SMILES IDX 35 37 37 39 38 41 39 42 40 43 7 45 43 47 44 48 45 50 46 51
REMARK SMILES IDX 47 53 48 54 49 55 50 57 51 58 52 59 53 60 54 61 67 62 55 63
REMARK SMILES IDX 66 64 56 65 57 66 65 67 58 68 64 69 59 70 63 71 60 72 62 73
REMARK SMILES IDX 61 74 4 75 2 76 1 78 3 79
REMARK H PARENT 31 24 18 32 20 34 33 36 35 38 37 40 40 44 7 46 44 49 46 52
REMARK H PARENT 48 56 4 77
REMARK Flexibility Score: inf
ROOT
ATOM      1  C   UNL     1      29.336  31.301  18.642  1.00  0.00     0.272 C 
ATOM      2  C   UNL     1      29.392  32.486  19.538  1.00  0.00     0.113 C 
ATOM      3  C   UNL     1      28.484  33.606  19.070  1.00  0.00     0.145 C 
ATOM      4  C   UNL     1      27.132  32.941  18.805  1.00  0.00     0.142 C 
ATOM      5  C   UNL     1      27.350  32.022  17.593  1.00  0.00     0.178 C 
ATOM      6  O   UNL     1      28.112  30.968  18.140  1.00  0.00    -0.332 OA
ENDROOT
BRANCH   1   7
ATOM      7  O   UNL     1      29.782  30.139  19.307  1.00  0.00    -0.338 OA
BRANCH   7   8
ATOM      8  C   UNL     1      30.899  30.319  20.074  1.00  0.00     0.199 C 
BRANCH   8   9
ATOM      9  C   UNL     1      30.789  29.435  21.298  1.00  0.00     0.179 C 
ATOM     10  C   UNL     1      29.468  28.841  23.079  1.00  0.00     0.282 C 
ATOM     11  O   UNL     1      29.500  29.305  21.774  1.00  0.00    -0.341 OA
ATOM     12  C   UNL     1      30.674  28.017  23.428  1.00  0.00     0.202 C 
ATOM     13  C   UNL     1      31.249  27.264  22.282  1.00  0.00     0.179 C 
ATOM     14  C   UNL     1      31.591  28.210  21.167  1.00  0.00     0.177 C 
BRANCH  10  15
ATOM     15  O   UNL     1      28.280  28.179  23.298  1.00  0.00    -0.341 OA
BRANCH  15  16
ATOM     16  C   UNL     1      27.291  28.517  22.374  1.00  0.00     0.184 C 
ATOM     17  C   UNL     1      26.152  29.294  22.987  1.00  0.00     0.178 C 
ATOM     18  O   UNL     1      24.903  28.853  22.678  1.00  0.00    -0.341 OA
ATOM     19  C   UNL     1      24.643  28.528  21.375  1.00  0.00     0.281 C 
ATOM     20  C   UNL     1      26.849  27.338  21.553  1.00  0.00     0.180 C 
ATOM     21  C   UNL     1      25.703  27.734  20.677  1.00  0.00     0.202 C 
BRANCH  17  22
ATOM     22  C   UNL     1      26.351  30.797  22.781  1.00  0.00     0.191 C 
BRANCH  22  23
ATOM     23  O   UNL     1      25.155  31.502  22.879  1.00  0.00    -0.394 OA
ATOM     24  H   UNL     1      25.286  32.469  22.949  1.00  0.00     0.210 HD
ENDBRANCH  22  23
ENDBRANCH  17  22
BRANCH  19  25
ATOM     25  O   UNL     1      24.224  29.618  20.609  1.00  0.00    -0.350 OA
BRANCH  25  26
ATOM     26  C   UNL     1      22.860  29.816  20.668  1.00  0.00     0.169 C 
BRANCH  26  27
ATOM     27  C   UNL     1      22.139  29.131  19.530  1.00  0.00     0.119 C 
BRANCH  27  28
ATOM     28  N   UNL     1      22.943  29.147  18.326  1.00  0.00    -0.092 NA
ATOM     29  N   UNL     1      23.478  28.134  17.878  1.00  0.00     0.001 N 
ATOM     30  N   UNL     1      23.662  27.102  17.232  1.00  0.00    -0.003 NA
ENDBRANCH  27  28
ENDBRANCH  26  27
ENDBRANCH  25  26
ENDBRANCH  19  25
BRANCH  20  31
ATOM     31  O   UNL     1      27.921  26.972  20.709  1.00  0.00    -0.387 OA
ATOM     32  H   UNL     1      27.749  26.077  20.310  1.00  0.00     0.211 HD
ENDBRANCH  20  31
BRANCH  21  33
ATOM     33  O   UNL     1      25.190  26.542  20.112  1.00  0.00    -0.385 OA
ATOM     34  H   UNL     1      24.352  26.751  19.602  1.00  0.00     0.211 HD
ENDBRANCH  21  33
ENDBRANCH  15  16
ENDBRANCH  10  15
BRANCH  12  35
ATOM     35  O   UNL     1      31.688  28.746  24.041  1.00  0.00    -0.385 OA
ATOM     36  H   UNL     1      31.453  29.001  24.965  1.00  0.00     0.211 HD
ENDBRANCH  12  35
BRANCH  13  37
ATOM     37  O   UNL     1      30.378  26.258  21.858  1.00  0.00    -0.387 OA
ATOM     38  H   UNL     1      30.307  26.269  20.889  1.00  0.00     0.211 HD
ENDBRANCH  13  37
BRANCH  14  39
ATOM     39  O   UNL     1      31.402  27.520  19.975  1.00  0.00    -0.387 OA
ATOM     40  H   UNL     1      32.198  27.044  19.672  1.00  0.00     0.211 HD
ENDBRANCH  14  39
ENDBRANCH   8   9
ENDBRANCH   7   8
ENDBRANCH   1   7
BRANCH   1  41
ATOM     41  C   UNL     1      30.232  31.560  17.463  1.00  0.00     0.364 C 
ATOM     42  O   UNL     1      30.190  30.805  16.437  1.00  0.00    -0.246 OA
BRANCH  41  43
ATOM     43  O   UNL     1      31.140  32.590  17.390  1.00  0.00    -0.477 OA
ATOM     44  H   UNL     1      30.866  33.584  17.412  1.00  0.00     0.296 HD
ENDBRANCH  41  43
ENDBRANCH   1  41
BRANCH   3  45
ATOM     45  O   UNL     1      28.383  34.622  19.989  1.00  0.00    -0.391 OA
ATOM     46  H   UNL     1      28.784  35.428  19.601  1.00  0.00     0.211 HD
ENDBRANCH   3  45
BRANCH   5  47
ATOM     47  C   UNL     1      26.062  31.391  17.142  1.00  0.00     0.176 C 
BRANCH  47  48
ATOM     48  O   UNL     1      25.353  31.013  18.313  1.00  0.00    -0.388 OA
ATOM     49  H   UNL     1      25.979  30.793  19.049  1.00  0.00     0.211 HD
ENDBRANCH  47  48
BRANCH  47  50
ATOM     50  C   UNL     1      26.231  30.109  16.339  1.00  0.00     0.165 C 
BRANCH  50  51
ATOM     51  O   UNL     1      27.380  30.411  15.525  1.00  0.00    -0.388 OA
ATOM     52  H   UNL     1      27.242  31.317  15.163  1.00  0.00     0.211 HD
ENDBRANCH  50  51
BRANCH  50  53
ATOM     53  C   UNL     1      25.127  29.984  15.311  1.00  0.00     0.154 C 
BRANCH  53  54
ATOM     54  N   UNL     1      25.042  31.012  14.344  1.00  0.00    -0.319 N 
ATOM     55  C   UNL     1      23.932  31.867  14.173  1.00  0.00     0.407 C 
ATOM     56  H   UNL     1      25.885  31.141  13.699  1.00  0.00     0.167 HD
ATOM     57  O   UNL     1      22.935  31.720  14.907  1.00  0.00    -0.225 OA
BRANCH  55  58
ATOM     58  O   UNL     1      24.000  32.832  13.194  1.00  0.00    -0.443 OA
BRANCH  58  59
ATOM     59  C   UNL     1      23.982  34.204  13.479  1.00  0.00     0.294 C 
BRANCH  59  60
ATOM     60  C   UNL     1      25.167  34.566  14.321  1.00  0.00     0.121 A 
ATOM     61  C   UNL     1      26.476  34.575  13.974  1.00  0.00     0.144 A 
ATOM     62  N   UNL     1      25.083  34.947  15.617  1.00  0.00    -0.131 NA
ATOM     63  N   UNL     1      27.156  34.962  15.070  1.00  0.00    -0.219 N 
ATOM     64  N   UNL     1      26.296  35.187  16.067  1.00  0.00    -0.062 NA
BRANCH  63  65
ATOM     65  C   UNL     1      28.573  35.100  15.131  1.00  0.00     0.085 A 
ATOM     66  C   UNL     1      29.187  35.252  16.332  1.00  0.00     0.140 A 
ATOM     67  C   UNL     1      29.295  35.068  13.948  1.00  0.00     0.040 A 
ATOM     68  N   UNL     1      30.529  35.375  16.372  1.00  0.00    -0.254 NA
ATOM     69  C   UNL     1      30.653  35.193  14.009  1.00  0.00     0.002 A 
ATOM     70  C   UNL     1      31.234  35.345  15.235  1.00  0.00     0.070 A 
ATOM     71  C   UNL     1      31.394  35.164  12.846  1.00  0.00     0.010 A 
ATOM     72  C   UNL     1      32.623  35.472  15.289  1.00  0.00     0.029 A 
ATOM     73  C   UNL     1      32.770  35.292  12.923  1.00  0.00     0.001 A 
ATOM     74  C   UNL     1      33.394  35.448  14.162  1.00  0.00     0.002 A 
ENDBRANCH  63  65
ENDBRANCH  59  60
ENDBRANCH  58  59
ENDBRANCH  55  58
ENDBRANCH  53  54
ENDBRANCH  50  53
ENDBRANCH  47  50
ENDBRANCH   5  47
BRANCH   4  75
ATOM     75  N   UNL     1      26.091  33.886  18.673  1.00  0.00    -0.348 N 
ATOM     76  C   UNL     1      25.242  34.207  19.798  1.00  0.00     0.217 C 
ATOM     77  H   UNL     1      25.874  34.413  17.802  1.00  0.00     0.163 HD
ATOM     78  C   UNL     1      24.158  35.184  19.678  1.00  0.00     0.114 C 
ATOM     79  O   UNL     1      25.485  33.600  20.884  1.00  0.00    -0.275 OA
ENDBRANCH   4  75
TORSDOF 30
BEGIN_RES LYS A 131
REMARK  4 active torsions:
REMARK  status: ('A' for Active; 'I' for Inactive)
REMARK    1  A    between atoms: CA   and  CB  
REMARK    2  A    between atoms: CB   and  CG  
REMARK    3  A    between atoms: CG   and  CD  
REMARK    4  A    between atoms: CD   and  CE  
ROOT
ATOM      1  CA  LYS A 131      29.867  25.555  16.977  1.00 20.52     0.186 C 
ENDROOT
BRANCH   1   2
ATOM      2  CB  LYS A 131      28.345  25.722  17.026  1.00 20.94     0.034 C 
BRANCH   2   3
ATOM      3  CG  LYS A 131      27.601  24.403  16.887  1.00 22.96     0.005 C 
BRANCH   3   4
ATOM      4  CD  LYS A 131      26.166  24.513  17.320  1.00 24.33     0.041 C 
BRANCH   4   5
ATOM      5  CE  LYS A 131      25.892  23.510  18.436  1.00 26.91     0.338 C 
ATOM      6  NZ  LYS A 131      24.435  23.377  18.669  1.00 27.40     0.618 N 
ENDBRANCH   4   5
ENDBRANCH   3   4
ENDBRANCH   2   3
ENDBRANCH   1   2
END_RES LYS A 131
BEGIN_RES LYS A 135
REMARK  4 active torsions:
REMARK  status: ('A' for Active; 'I' for Inactive)
REMARK    5  A    between atoms: CA   and  CB  
REMARK    6  A    between atoms: CB   and  CG  
REMARK    7  A    between atoms: CG   and  CD  
REMARK    8  A    between atoms: CD   and  CE  
ROOT
ATOM      7  CA  LYS A 135      33.193  34.663   9.290  1.00 25.02     0.186 C 
ENDROOT
BRANCH   7   8
ATOM      8  CB  LYS A 135      32.060  35.360  10.034  1.00 26.63     0.034 C 
BRANCH   8   9
ATOM      9  CG  LYS A 135      30.793  35.481   9.226  1.00 29.45     0.005 C 
BRANCH   9  10
ATOM     10  CD  LYS A 135      29.897  34.272   9.450  1.00 32.00     0.041 C 
BRANCH  10  11
ATOM     11  CE  LYS A 135      28.573  34.451   8.732  1.00 34.25     0.338 C 
ATOM     12  NZ  LYS A 135      27.479  33.728   9.437  1.00 35.99     0.618 N 
ENDBRANCH  10  11
ENDBRANCH   9  10
ENDBRANCH   8   9
ENDBRANCH   7   8
END_RES LYS A 135
