REMARK VINA RESULT:    -5.531      3.314      8.529
REMARK INTER + INTRA:         -22.311
REMARK INTER:                 -12.330
REMARK INTRA:                  -9.981
REMARK UNBOUND:                -8.212
REMARK SMILES CC(=O)N[C@@H]1[C@@H](O)C[C@](OC[C@H]2O[C@@H](O[C@H]3[C@H](O)[C@@H](O)[C@H](OCCN=[N+]=[N-])O[C@@H]3CO)[C@H](O)[C@@H](O)[C@H]2O)(C(=O)O)O[C@H]1C(O)[C@H](O)CNC(=O)OCc1cn(-c2ccc(CO)cn2)nn1
REMARK SMILES IDX 9 1 8 2 6 3 5 4 42 5 41 6 10 7 11 8 12 9 14 10 13 11 32 12
REMARK SMILES IDX 34 13 36 14 15 15 16 16 29 17 28 18 21 19 17 20 19 21 30 22
REMARK SMILES IDX 31 23 22 25 23 26 24 27 25 28 26 29 27 30 18 31 20 33 33 35
REMARK SMILES IDX 35 37 37 39 38 41 39 42 40 43 7 45 43 47 44 48 45 50 46 51
REMARK SMILES IDX 47 53 48 54 49 55 50 57 51 58 52 59 53 60 54 61 65 62 55 63
REMARK SMILES IDX 64 64 56 65 57 66 63 67 58 68 62 69 59 70 60 71 61 72 4 74
REMARK SMILES IDX 2 75 1 77 3 78
REMARK H PARENT 31 24 18 32 20 34 33 36 35 38 37 40 40 44 7 46 44 49 46 52
REMARK H PARENT 48 56 61 73 4 76
REMARK Flexibility Score: inf
ROOT
ATOM      1  C   UNL     1      29.953  38.523  11.823  1.00  0.00     0.272 C 
ATOM      2  C   UNL     1      31.225  37.831  11.500  1.00  0.00     0.113 C 
ATOM      3  C   UNL     1      31.772  37.059  12.669  1.00  0.00     0.145 C 
ATOM      4  C   UNL     1      30.677  36.218  13.294  1.00  0.00     0.142 C 
ATOM      5  C   UNL     1      29.484  37.039  13.566  1.00  0.00     0.178 C 
ATOM      6  O   UNL     1      29.048  37.746  12.500  1.00  0.00    -0.332 OA
ENDROOT
BRANCH   1   7
ATOM      7  O   UNL     1      29.299  39.036  10.716  1.00  0.00    -0.338 OA
BRANCH   7   8
ATOM      8  C   UNL     1      29.441  38.253   9.589  1.00  0.00     0.199 C 
BRANCH   8   9
ATOM      9  C   UNL     1      28.117  38.117   8.899  1.00  0.00     0.179 C 
ATOM     10  C   UNL     1      26.095  37.123   9.080  1.00  0.00     0.282 C 
ATOM     11  O   UNL     1      27.080  37.838   9.809  1.00  0.00    -0.341 OA
ATOM     12  C   UNL     1      25.758  37.845   7.841  1.00  0.00     0.202 C 
ATOM     13  C   UNL     1      26.255  39.278   7.753  1.00  0.00     0.179 C 
ATOM     14  C   UNL     1      27.719  39.361   8.174  1.00  0.00     0.177 C 
BRANCH  10  15
ATOM     15  O   UNL     1      25.011  36.846   9.920  1.00  0.00    -0.341 OA
BRANCH  15  16
ATOM     16  C   UNL     1      23.811  36.803   9.244  1.00  0.00     0.184 C 
ATOM     17  C   UNL     1      22.727  37.679   9.789  1.00  0.00     0.178 C 
ATOM     18  O   UNL     1      21.669  36.971  10.353  1.00  0.00    -0.341 OA
ATOM     19  C   UNL     1      22.057  36.120  11.356  1.00  0.00     0.281 C 
ATOM     20  C   UNL     1      23.310  35.351   9.360  1.00  0.00     0.180 C 
ATOM     21  C   UNL     1      23.134  35.137  10.870  1.00  0.00     0.202 C 
BRANCH  17  22
ATOM     22  C   UNL     1      22.107  38.419   8.589  1.00  0.00     0.191 C 
BRANCH  22  23
ATOM     23  O   UNL     1      22.185  37.610   7.445  1.00  0.00    -0.394 OA
ATOM     24  H   UNL     1      21.354  37.705   6.890  1.00  0.00     0.210 HD
ENDBRANCH  22  23
ENDBRANCH  17  22
BRANCH  19  25
ATOM     25  O   UNL     1      20.944  35.394  11.771  1.00  0.00    -0.350 OA
BRANCH  25  26
ATOM     26  C   UNL     1      19.772  35.824  11.205  1.00  0.00     0.169 C 
BRANCH  26  27
ATOM     27  C   UNL     1      19.027  34.605  10.677  1.00  0.00     0.119 C 
BRANCH  27  28
ATOM     28  N   UNL     1      19.195  34.497   9.234  1.00  0.00    -0.092 NA
ATOM     29  N   UNL     1      19.073  35.435   8.465  1.00  0.00     0.001 N 
ATOM     30  N   UNL     1      19.355  36.351   7.692  1.00  0.00    -0.003 NA
ENDBRANCH  27  28
ENDBRANCH  26  27
ENDBRANCH  25  26
ENDBRANCH  19  25
BRANCH  20  31
ATOM     31  O   UNL     1      22.168  35.122   8.644  1.00  0.00    -0.387 OA
ATOM     32  H   UNL     1      21.891  34.201   8.757  1.00  0.00     0.211 HD
ENDBRANCH  20  31
BRANCH  21  33
ATOM     33  O   UNL     1      24.360  35.452  11.451  1.00  0.00    -0.385 OA
ATOM     34  H   UNL     1      25.065  35.010  10.913  1.00  0.00     0.211 HD
ENDBRANCH  21  33
ENDBRANCH  15  16
ENDBRANCH  10  15
BRANCH  12  35
ATOM     35  O   UNL     1      26.293  37.137   6.738  1.00  0.00    -0.385 OA
ATOM     36  H   UNL     1      26.697  36.276   7.022  1.00  0.00     0.211 HD
ENDBRANCH  12  35
BRANCH  13  37
ATOM     37  O   UNL     1      25.444  40.156   8.452  1.00  0.00    -0.387 OA
ATOM     38  H   UNL     1      25.384  39.973   9.401  1.00  0.00     0.211 HD
ENDBRANCH  13  37
BRANCH  14  39
ATOM     39  O   UNL     1      27.859  40.484   8.960  1.00  0.00    -0.387 OA
ATOM     40  H   UNL     1      26.988  40.906   9.086  1.00  0.00     0.211 HD
ENDBRANCH  14  39
ENDBRANCH   8   9
ENDBRANCH   7   8
ENDBRANCH   1   7
BRANCH   1  41
ATOM     41  C   UNL     1      30.188  39.718  12.723  1.00  0.00     0.364 C 
ATOM     42  O   UNL     1      29.287  40.226  13.432  1.00  0.00    -0.246 OA
BRANCH  41  43
ATOM     43  O   UNL     1      31.435  40.305  12.792  1.00  0.00    -0.477 OA
ATOM     44  H   UNL     1      31.517  41.293  13.063  1.00  0.00     0.296 HD
ENDBRANCH  41  43
ENDBRANCH   1  41
BRANCH   3  45
ATOM     45  O   UNL     1      32.702  36.144  12.137  1.00  0.00    -0.391 OA
ATOM     46  H   UNL     1      32.290  35.435  11.611  1.00  0.00     0.211 HD
ENDBRANCH   3  45
BRANCH   5  47
ATOM     47  C   UNL     1      28.340  36.260  14.188  1.00  0.00     0.176 C 
BRANCH  47  48
ATOM     48  O   UNL     1      28.144  35.074  13.482  1.00  0.00    -0.388 OA
ATOM     49  H   UNL     1      28.037  34.314  14.101  1.00  0.00     0.211 HD
ENDBRANCH  47  48
BRANCH  47  50
ATOM     50  C   UNL     1      27.046  36.976  14.265  1.00  0.00     0.165 C 
BRANCH  50  51
ATOM     51  O   UNL     1      27.190  38.343  14.540  1.00  0.00    -0.388 OA
ATOM     52  H   UNL     1      26.455  38.885  14.217  1.00  0.00     0.211 HD
ENDBRANCH  50  51
BRANCH  50  53
ATOM     53  C   UNL     1      25.999  36.361  15.148  1.00  0.00     0.154 C 
BRANCH  53  54
ATOM     54  N   UNL     1      25.133  35.492  14.394  1.00  0.00    -0.319 N 
ATOM     55  C   UNL     1      25.276  34.088  14.492  1.00  0.00     0.407 C 
ATOM     56  H   UNL     1      24.381  35.913  13.756  1.00  0.00     0.167 HD
ATOM     57  O   UNL     1      26.133  33.541  15.221  1.00  0.00    -0.225 OA
BRANCH  55  58
ATOM     58  O   UNL     1      24.447  33.227  13.766  1.00  0.00    -0.443 OA
BRANCH  58  59
ATOM     59  C   UNL     1      24.881  31.924  13.496  1.00  0.00     0.294 C 
BRANCH  59  60
ATOM     60  C   UNL     1      23.853  30.984  13.069  1.00  0.00     0.121 A 
ATOM     61  C   UNL     1      22.527  31.257  12.842  1.00  0.00     0.146 A 
ATOM     62  N   UNL     1      24.007  29.673  12.821  1.00  0.00    -0.131 NA
ATOM     63  N   UNL     1      21.914  30.117  12.467  1.00  0.00    -0.202 N 
ATOM     64  N   UNL     1      22.846  29.182  12.466  1.00  0.00    -0.061 NA
BRANCH  63  65
ATOM     65  C   UNL     1      20.535  30.005  12.150  1.00  0.00     0.155 A 
ATOM     66  C   UNL     1      19.944  28.776  11.876  1.00  0.00     0.049 A 
ATOM     67  N   UNL     1      19.745  31.091  12.096  1.00  0.00    -0.237 NA
ATOM     68  C   UNL     1      18.595  28.688  11.560  1.00  0.00     0.011 A 
ATOM     69  C   UNL     1      18.427  31.027  11.790  1.00  0.00     0.119 A 
ATOM     70  C   UNL     1      17.810  29.819  11.511  1.00  0.00    -0.004 A 
BRANCH  70  71
ATOM     71  C   UNL     1      16.366  29.717  11.170  1.00  0.00     0.193 C 
BRANCH  71  72
ATOM     72  O   UNL     1      16.145  30.066   9.837  1.00  0.00    -0.392 OA
ATOM     73  H   UNL     1      16.545  30.928   9.604  1.00  0.00     0.211 HD
ENDBRANCH  71  72
ENDBRANCH  70  71
ENDBRANCH  63  65
ENDBRANCH  59  60
ENDBRANCH  58  59
ENDBRANCH  55  58
ENDBRANCH  53  54
ENDBRANCH  50  53
ENDBRANCH  47  50
ENDBRANCH   5  47
BRANCH   4  74
ATOM     74  N   UNL     1      31.195  35.570  14.500  1.00  0.00    -0.348 N 
ATOM     75  C   UNL     1      31.069  34.203  14.731  1.00  0.00     0.217 C 
ATOM     76  H   UNL     1      31.681  36.167  15.199  1.00  0.00     0.163 HD
ATOM     77  C   UNL     1      31.644  33.665  16.022  1.00  0.00     0.114 C 
ATOM     78  O   UNL     1      30.520  33.413  13.950  1.00  0.00    -0.275 OA
ENDBRANCH   4  74
TORSDOF 32
BEGIN_RES LYS A 131
REMARK  4 active torsions:
REMARK  status: ('A' for Active; 'I' for Inactive)
REMARK    1  A    between atoms: CA   and  CB  
REMARK    2  A    between atoms: CB   and  CG  
REMARK    3  A    between atoms: CG   and  CD  
REMARK    4  A    between atoms: CD   and  CE  
ROOT
ATOM      1  CA  LYS A 131      29.867  25.555  16.977  1.00 20.52     0.186 C 
ENDROOT
BRANCH   1   2
ATOM      2  CB  LYS A 131      28.345  25.722  17.026  1.00 20.94     0.034 C 
BRANCH   2   3
ATOM      3  CG  LYS A 131      27.601  24.402  16.892  1.00 22.96     0.005 C 
BRANCH   3   4
ATOM      4  CD  LYS A 131      26.502  24.265  17.908  1.00 24.33     0.041 C 
BRANCH   4   5
ATOM      5  CE  LYS A 131      25.158  24.548  17.246  1.00 26.91     0.338 C 
ATOM      6  NZ  LYS A 131      24.088  24.654  18.266  1.00 27.40     0.618 N 
ENDBRANCH   4   5
ENDBRANCH   3   4
ENDBRANCH   2   3
ENDBRANCH   1   2
END_RES LYS A 131
BEGIN_RES LYS A 135
REMARK  4 active torsions:
REMARK  status: ('A' for Active; 'I' for Inactive)
REMARK    5  A    between atoms: CA   and  CB  
REMARK    6  A    between atoms: CB   and  CG  
REMARK    7  A    between atoms: CG   and  CD  
REMARK    8  A    between atoms: CD   and  CE  
ROOT
ATOM      7  CA  LYS A 135      33.193  34.663   9.290  1.00 25.02     0.186 C 
ENDROOT
BRANCH   7   8
ATOM      8  CB  LYS A 135      32.060  35.360  10.034  1.00 26.63     0.034 C 
BRANCH   8   9
ATOM      9  CG  LYS A 135      30.710  34.733   9.799  1.00 29.45     0.005 C 
BRANCH   9  10
ATOM     10  CD  LYS A 135      30.500  34.448   8.320  1.00 32.00     0.041 C 
BRANCH  10  11
ATOM     11  CE  LYS A 135      29.083  34.797   7.906  1.00 34.25     0.338 C 
ATOM     12  NZ  LYS A 135      29.062  35.460   6.573  1.00 35.99     0.618 N 
ENDBRANCH  10  11
ENDBRANCH   9  10
ENDBRANCH   8   9
ENDBRANCH   7   8
END_RES LYS A 135
