REMARK VINA RESULT:    -4.965      7.128     12.911
REMARK INTER + INTRA:         -24.599
REMARK INTER:                 -15.349
REMARK INTRA:                  -9.250
REMARK UNBOUND:               -11.071
REMARK SMILES CC(=O)N[C@@H]1[C@@H](O)C[C@](OC[C@H]2O[C@@H](O[C@H]3[C@H](O)[C@@H](O)[C@H](OCCN=[N+]=[N-])O[C@@H]3CO)[C@H](O)[C@@H](O)[C@H]2O)(C(=O)O)O[C@H]1C(O)[C@H](O)CNC(=O)OCc1cn(CC(O)CCc2ccccc2)nn1
REMARK SMILES IDX 43 1 42 2 9 3 8 4 41 5 6 6 5 7 10 8 11 9 12 10 14 11 13 12
REMARK SMILES IDX 32 13 34 14 36 15 15 16 16 17 29 18 28 19 21 20 17 21 19 22
REMARK SMILES IDX 30 23 31 24 22 26 23 27 24 28 25 29 26 30 27 31 18 32 20 34
REMARK SMILES IDX 33 36 35 38 37 40 38 42 39 43 40 44 7 46 4 48 2 49 1 51 3 52
REMARK SMILES IDX 44 53 45 55 46 56 47 58 48 59 49 60 50 62 51 63 52 64 53 65
REMARK SMILES IDX 54 66 68 67 55 68 67 69 56 70 57 71 58 72 59 74 60 75 61 76
REMARK SMILES IDX 62 77 66 78 63 79 65 80 64 81
REMARK H PARENT 31 25 18 33 20 35 33 37 35 39 37 41 40 45 7 47 4 50 44 54
REMARK H PARENT 46 57 48 61 58 73
REMARK Flexibility Score: inf
ROOT
ATOM      1  C   UNL     1      30.417  31.706  16.910  1.00  0.00     0.176 C 
ENDROOT
BRANCH   1   2
ATOM      2  C   UNL     1      30.792  32.797  17.931  1.00  0.00     0.178 C 
ATOM      3  C   UNL     1      30.333  32.791  20.259  1.00  0.00     0.272 C 
ATOM      4  C   UNL     1      28.995  33.356  19.913  1.00  0.00     0.113 C 
ATOM      5  O   UNL     1      30.891  32.237  19.138  1.00  0.00    -0.332 OA
ATOM      6  C   UNL     1      29.106  34.404  18.865  1.00  0.00     0.145 C 
ATOM      7  C   UNL     1      29.935  33.979  17.689  1.00  0.00     0.142 C 
BRANCH   3   8
ATOM      8  O   UNL     1      30.223  31.854  21.305  1.00  0.00    -0.338 OA
BRANCH   8   9
ATOM      9  C   UNL     1      31.375  31.358  21.802  1.00  0.00     0.199 C 
BRANCH   9  10
ATOM     10  C   UNL     1      31.264  29.838  22.065  1.00  0.00     0.179 C 
ATOM     11  C   UNL     1      29.854  28.108  22.473  1.00  0.00     0.282 C 
ATOM     12  O   UNL     1      30.018  29.469  22.427  1.00  0.00    -0.341 OA
ATOM     13  C   UNL     1      30.096  27.630  21.015  1.00  0.00     0.202 C 
ATOM     14  C   UNL     1      31.623  27.689  20.909  1.00  0.00     0.179 C 
ATOM     15  C   UNL     1      31.937  29.159  20.928  1.00  0.00     0.177 C 
BRANCH  11  16
ATOM     16  O   UNL     1      28.588  27.772  22.803  1.00  0.00    -0.341 OA
BRANCH  16  17
ATOM     17  C   UNL     1      27.542  28.235  22.041  1.00  0.00     0.184 C 
ATOM     18  C   UNL     1      26.850  29.420  22.627  1.00  0.00     0.178 C 
ATOM     19  O   UNL     1      25.513  29.317  22.848  1.00  0.00    -0.341 OA
ATOM     20  C   UNL     1      24.778  28.526  22.017  1.00  0.00     0.281 C 
ATOM     21  C   UNL     1      26.677  27.052  21.714  1.00  0.00     0.180 C 
ATOM     22  C   UNL     1      25.269  27.109  22.184  1.00  0.00     0.202 C 
BRANCH  18  23
ATOM     23  C   UNL     1      27.074  30.621  21.734  1.00  0.00     0.191 C 
BRANCH  23  24
ATOM     24  O   UNL     1      27.713  30.262  20.548  1.00  0.00    -0.394 OA
ATOM     25  H   UNL     1      28.483  30.899  20.450  1.00  0.00     0.210 HD
ENDBRANCH  23  24
ENDBRANCH  18  23
BRANCH  20  26
ATOM     26  O   UNL     1      24.775  28.939  20.695  1.00  0.00    -0.350 OA
BRANCH  26  27
ATOM     27  C   UNL     1      23.464  28.953  20.213  1.00  0.00     0.169 C 
BRANCH  27  28
ATOM     28  C   UNL     1      23.518  28.428  18.780  1.00  0.00     0.119 C 
BRANCH  28  29
ATOM     29  N   UNL     1      24.076  27.104  18.728  1.00  0.00    -0.092 NA
ATOM     30  N   UNL     1      23.433  26.153  19.218  1.00  0.00     0.001 N 
ATOM     31  N   UNL     1      22.931  25.278  19.949  1.00  0.00    -0.003 NA
ENDBRANCH  28  29
ENDBRANCH  27  28
ENDBRANCH  26  27
ENDBRANCH  20  26
BRANCH  21  32
ATOM     32  O   UNL     1      26.609  26.840  20.311  1.00  0.00    -0.387 OA
ATOM     33  H   UNL     1      26.116  26.018  20.085  1.00  0.00     0.211 HD
ENDBRANCH  21  32
BRANCH  22  34
ATOM     34  O   UNL     1      25.179  26.786  23.541  1.00  0.00    -0.385 OA
ATOM     35  H   UNL     1      25.750  26.029  23.783  1.00  0.00     0.211 HD
ENDBRANCH  22  34
ENDBRANCH  16  17
ENDBRANCH  11  16
BRANCH  13  36
ATOM     36  O   UNL     1      29.575  26.407  20.748  1.00  0.00    -0.385 OA
ATOM     37  H   UNL     1      29.546  26.114  19.823  1.00  0.00     0.211 HD
ENDBRANCH  13  36
BRANCH  14  38
ATOM     38  O   UNL     1      32.068  27.067  19.745  1.00  0.00    -0.387 OA
ATOM     39  H   UNL     1      32.789  26.430  19.950  1.00  0.00     0.211 HD
ENDBRANCH  14  38
BRANCH  15  40
ATOM     40  O   UNL     1      31.468  29.677  19.716  1.00  0.00    -0.387 OA
ATOM     41  H   UNL     1      31.459  30.662  19.726  1.00  0.00     0.211 HD
ENDBRANCH  15  40
ENDBRANCH   9  10
ENDBRANCH   8   9
ENDBRANCH   3   8
BRANCH   3  42
ATOM     42  C   UNL     1      31.172  33.863  20.849  1.00  0.00     0.364 C 
ATOM     43  O   UNL     1      32.320  34.074  20.363  1.00  0.00    -0.246 OA
BRANCH  42  44
ATOM     44  O   UNL     1      30.771  34.644  21.897  1.00  0.00    -0.477 OA
ATOM     45  H   UNL     1      29.856  35.070  21.882  1.00  0.00     0.296 HD
ENDBRANCH  42  44
ENDBRANCH   3  42
BRANCH   6  46
ATOM     46  O   UNL     1      27.771  34.703  18.479  1.00  0.00    -0.391 OA
ATOM     47  H   UNL     1      27.729  35.461  17.863  1.00  0.00     0.211 HD
ENDBRANCH   6  46
BRANCH   7  48
ATOM     48  N   UNL     1      30.658  35.069  17.083  1.00  0.00    -0.348 N 
ATOM     49  C   UNL     1      30.083  35.980  16.155  1.00  0.00     0.217 C 
ATOM     50  H   UNL     1      31.684  35.229  17.315  1.00  0.00     0.163 HD
ATOM     51  C   UNL     1      30.929  37.061  15.607  1.00  0.00     0.114 C 
ATOM     52  O   UNL     1      28.901  35.873  15.813  1.00  0.00    -0.275 OA
ENDBRANCH   7  48
ENDBRANCH   1   2
BRANCH   1  53
ATOM     53  O   UNL     1      30.623  32.172  15.626  1.00  0.00    -0.388 OA
ATOM     54  H   UNL     1      29.800  32.516  15.202  1.00  0.00     0.211 HD
ENDBRANCH   1  53
BRANCH   1  55
ATOM     55  C   UNL     1      29.124  31.029  17.163  1.00  0.00     0.165 C 
BRANCH  55  56
ATOM     56  O   UNL     1      29.282  30.040  18.100  1.00  0.00    -0.388 OA
ATOM     57  H   UNL     1      28.448  29.771  18.533  1.00  0.00     0.211 HD
ENDBRANCH  55  56
BRANCH  55  58
ATOM     58  C   UNL     1      28.644  30.467  15.844  1.00  0.00     0.154 C 
BRANCH  58  59
ATOM     59  N   UNL     1      27.250  30.486  15.610  1.00  0.00    -0.319 N 
ATOM     60  C   UNL     1      26.259  29.653  16.194  1.00  0.00     0.407 C 
ATOM     61  H   UNL     1      26.837  31.200  14.915  1.00  0.00     0.167 HD
ATOM     62  O   UNL     1      26.574  28.796  17.028  1.00  0.00    -0.225 OA
BRANCH  60  63
ATOM     63  O   UNL     1      24.923  29.779  15.845  1.00  0.00    -0.443 OA
BRANCH  63  64
ATOM     64  C   UNL     1      24.398  30.160  14.628  1.00  0.00     0.294 C 
BRANCH  64  65
ATOM     65  C   UNL     1      24.482  31.585  14.273  1.00  0.00     0.120 A 
ATOM     66  C   UNL     1      24.191  32.164  13.044  1.00  0.00     0.138 A 
ATOM     67  N   UNL     1      24.894  32.586  15.080  1.00  0.00    -0.132 NA
ATOM     68  N   UNL     1      24.441  33.465  13.169  1.00  0.00    -0.250 N 
ATOM     69  N   UNL     1      24.858  33.704  14.387  1.00  0.00    -0.067 NA
BRANCH  68  70
ATOM     70  C   UNL     1      24.273  34.435  12.055  1.00  0.00     0.177 C 
BRANCH  70  71
ATOM     71  C   UNL     1      25.642  34.713  11.534  1.00  0.00     0.136 C 
BRANCH  71  72
ATOM     72  O   UNL     1      26.392  35.494  12.430  1.00  0.00    -0.391 OA
ATOM     73  H   UNL     1      26.926  34.944  13.042  1.00  0.00     0.211 HD
ENDBRANCH  71  72
BRANCH  71  74
ATOM     74  C   UNL     1      25.696  35.283  10.172  1.00  0.00     0.038 C 
BRANCH  74  75
ATOM     75  C   UNL     1      26.223  34.538   9.034  1.00  0.00     0.038 C 
BRANCH  75  76
ATOM     76  C   UNL     1      27.627  34.626   8.690  1.00  0.00    -0.048 A 
ATOM     77  C   UNL     1      28.038  35.274   7.528  1.00  0.00     0.004 A 
ATOM     78  C   UNL     1      28.609  34.003   9.460  1.00  0.00     0.004 A 
ATOM     79  C   UNL     1      29.354  35.291   7.168  1.00  0.00     0.000 A 
ATOM     80  C   UNL     1      29.925  34.039   9.069  1.00  0.00     0.000 A 
ATOM     81  C   UNL     1      30.337  34.683   7.910  1.00  0.00     0.000 A 
ENDBRANCH  75  76
ENDBRANCH  74  75
ENDBRANCH  71  74
ENDBRANCH  70  71
ENDBRANCH  68  70
ENDBRANCH  64  65
ENDBRANCH  63  64
ENDBRANCH  60  63
ENDBRANCH  58  59
ENDBRANCH  55  58
ENDBRANCH   1  55
TORSDOF 35
BEGIN_RES LYS A 131
REMARK  4 active torsions:
REMARK  status: ('A' for Active; 'I' for Inactive)
REMARK    1  A    between atoms: CA   and  CB  
REMARK    2  A    between atoms: CB   and  CG  
REMARK    3  A    between atoms: CG   and  CD  
REMARK    4  A    between atoms: CD   and  CE  
ROOT
ATOM      1  CA  LYS A 131      29.867  25.555  16.977  1.00 20.52     0.186 C 
ENDROOT
BRANCH   1   2
ATOM      2  CB  LYS A 131      28.345  25.722  17.026  1.00 20.94     0.034 C 
BRANCH   2   3
ATOM      3  CG  LYS A 131      27.603  24.396  16.956  1.00 22.96     0.005 C 
BRANCH   3   4
ATOM      4  CD  LYS A 131      26.111  24.580  16.999  1.00 24.33     0.041 C 
BRANCH   4   5
ATOM      5  CE  LYS A 131      25.481  23.440  17.793  1.00 26.91     0.338 C 
ATOM      6  NZ  LYS A 131      25.880  23.517  19.218  1.00 27.40     0.618 N 
ENDBRANCH   4   5
ENDBRANCH   3   4
ENDBRANCH   2   3
ENDBRANCH   1   2
END_RES LYS A 131
BEGIN_RES LYS A 135
REMARK  4 active torsions:
REMARK  status: ('A' for Active; 'I' for Inactive)
REMARK    5  A    between atoms: CA   and  CB  
REMARK    6  A    between atoms: CB   and  CG  
REMARK    7  A    between atoms: CG   and  CD  
REMARK    8  A    between atoms: CD   and  CE  
ROOT
ATOM      7  CA  LYS A 135      33.193  34.663   9.290  1.00 25.02     0.186 C 
ENDROOT
BRANCH   7   8
ATOM      8  CB  LYS A 135      32.060  35.360  10.034  1.00 26.63     0.034 C 
BRANCH   8   9
ATOM      9  CG  LYS A 135      32.527  36.194  11.199  1.00 29.45     0.005 C 
BRANCH   9  10
ATOM     10  CD  LYS A 135      32.202  35.506  12.516  1.00 32.00     0.041 C 
BRANCH  10  11
ATOM     11  CE  LYS A 135      30.791  34.951  12.493  1.00 34.25     0.338 C 
ATOM     12  NZ  LYS A 135      29.784  36.048  12.446  1.00 35.99     0.618 N 
ENDBRANCH  10  11
ENDBRANCH   9  10
ENDBRANCH   8   9
ENDBRANCH   7   8
END_RES LYS A 135
