REMARK VINA RESULT:    -4.925      6.099     12.854
REMARK INTER + INTRA:         -25.752
REMARK INTER:                 -11.707
REMARK INTRA:                 -14.045
REMARK UNBOUND:               -12.046
REMARK SMILES CC(=O)N[C@@H]1[C@@H](O)C[C@](OC[C@H]2O[C@@H](O[C@H]3[C@H](O)[C@@H](O)[C@H](OCCN=[N+]=[N-])O[C@@H]3CO)[C@H](O)[C@@H](O)[C@H]2O)(C(=O)O)O[C@H]1C(O)[C@H](O)CNC(=O)OCc1cn(C[C@@H](C(=O)O)C(c2ccccc2)c2ccccc2)nn1
REMARK SMILES IDX 43 1 42 2 9 3 8 4 41 5 6 6 5 7 10 8 11 9 12 10 14 11 13 12
REMARK SMILES IDX 32 13 34 14 36 15 15 16 16 17 29 18 28 19 21 20 17 21 19 22
REMARK SMILES IDX 30 23 31 24 22 26 23 27 24 28 25 29 26 30 27 31 18 32 20 34
REMARK SMILES IDX 33 36 35 38 37 40 38 42 39 43 40 44 7 46 4 48 2 49 1 51 3 52
REMARK SMILES IDX 44 53 45 55 46 56 47 58 48 59 49 60 50 62 51 63 52 64 53 65
REMARK SMILES IDX 54 66 75 67 55 68 74 69 56 70 57 71 58 72 59 73 60 74 61 76
REMARK SMILES IDX 62 77 63 78 67 79 64 80 66 81 65 82 68 83 69 84 73 85 70 86
REMARK SMILES IDX 72 87 71 88
REMARK H PARENT 31 25 18 33 20 35 33 37 35 39 37 41 40 45 7 47 4 50 44 54
REMARK H PARENT 46 57 48 61 60 75
REMARK Flexibility Score: inf
ROOT
ATOM      1  C   UNL     1      22.652  38.180   8.215  1.00  0.00     0.176 C 
ENDROOT
BRANCH   1   2
ATOM      2  C   UNL     1      23.972  38.751   7.654  1.00  0.00     0.178 C 
ATOM      3  C   UNL     1      26.281  38.677   7.594  1.00  0.00     0.272 C 
ATOM      4  C   UNL     1      25.902  39.718   6.490  1.00  0.00     0.113 C 
ATOM      5  O   UNL     1      25.089  38.211   8.177  1.00  0.00    -0.332 OA
ATOM      6  C   UNL     1      25.045  40.813   7.026  1.00  0.00     0.145 C 
ATOM      7  C   UNL     1      23.863  40.255   7.749  1.00  0.00     0.142 C 
BRANCH   3   8
ATOM      8  O   UNL     1      27.141  39.229   8.384  1.00  0.00    -0.338 OA
BRANCH   8   9
ATOM      9  C   UNL     1      28.371  39.556   8.442  1.00  0.00     0.199 C 
BRANCH   9  10
ATOM     10  C   UNL     1      29.176  39.695   9.707  1.00  0.00     0.179 C 
ATOM     11  C   UNL     1      28.701  40.616  11.841  1.00  0.00     0.282 C 
ATOM     12  O   UNL     1      28.654  40.670  10.501  1.00  0.00    -0.341 OA
ATOM     13  C   UNL     1      29.461  39.542  12.516  1.00  0.00     0.202 C 
ATOM     14  C   UNL     1      29.962  38.445  11.623  1.00  0.00     0.179 C 
ATOM     15  C   UNL     1      29.007  38.364  10.475  1.00  0.00     0.177 C 
BRANCH  11  16
ATOM     16  O   UNL     1      27.343  40.461  12.249  1.00  0.00    -0.341 OA
BRANCH  16  17
ATOM     17  C   UNL     1      26.469  41.235  11.540  1.00  0.00     0.184 C 
ATOM     18  C   UNL     1      26.105  42.435  12.368  1.00  0.00     0.178 C 
ATOM     19  O   UNL     1      25.048  42.186  13.236  1.00  0.00    -0.341 OA
ATOM     20  C   UNL     1      24.939  40.840  13.613  1.00  0.00     0.281 C 
ATOM     21  C   UNL     1      25.178  40.499  11.208  1.00  0.00     0.180 C 
ATOM     22  C   UNL     1      24.542  39.964  12.474  1.00  0.00     0.202 C 
BRANCH  18  23
ATOM     23  C   UNL     1      25.800  43.670  11.568  1.00  0.00     0.191 C 
BRANCH  23  24
ATOM     24  O   UNL     1      26.272  43.608  10.272  1.00  0.00    -0.394 OA
ATOM     25  H   UNL     1      26.222  44.539   9.901  1.00  0.00     0.210 HD
ENDBRANCH  23  24
ENDBRANCH  18  23
BRANCH  20  26
ATOM     26  O   UNL     1      23.973  40.745  14.589  1.00  0.00    -0.350 OA
BRANCH  26  27
ATOM     27  C   UNL     1      24.400  40.576  15.869  1.00  0.00     0.169 C 
BRANCH  27  28
ATOM     28  C   UNL     1      25.491  39.569  16.037  1.00  0.00     0.119 C 
BRANCH  28  29
ATOM     29  N   UNL     1      24.853  38.367  16.610  1.00  0.00    -0.092 NA
ATOM     30  N   UNL     1      24.496  37.495  15.814  1.00  0.00     0.001 N 
ATOM     31  N   UNL     1      24.005  36.687  15.029  1.00  0.00    -0.003 NA
ENDBRANCH  28  29
ENDBRANCH  27  28
ENDBRANCH  26  27
ENDBRANCH  20  26
BRANCH  21  32
ATOM     32  O   UNL     1      24.303  41.435  10.662  1.00  0.00    -0.387 OA
ATOM     33  H   UNL     1      23.641  41.767  11.310  1.00  0.00     0.211 HD
ENDBRANCH  21  32
BRANCH  22  34
ATOM     34  O   UNL     1      24.976  38.667  12.717  1.00  0.00    -0.385 OA
ATOM     35  H   UNL     1      24.152  38.120  12.918  1.00  0.00     0.211 HD
ENDBRANCH  22  34
ENDBRANCH  16  17
ENDBRANCH  11  16
BRANCH  13  36
ATOM     36  O   UNL     1      30.609  40.078  13.147  1.00  0.00    -0.385 OA
ATOM     37  H   UNL     1      31.117  40.652  12.507  1.00  0.00     0.211 HD
ENDBRANCH  13  36
BRANCH  14  38
ATOM     38  O   UNL     1      30.006  37.250  12.314  1.00  0.00    -0.387 OA
ATOM     39  H   UNL     1      29.260  37.228  12.969  1.00  0.00     0.211 HD
ENDBRANCH  14  38
BRANCH  15  40
ATOM     40  O   UNL     1      27.716  38.242  10.970  1.00  0.00    -0.387 OA
ATOM     41  H   UNL     1      27.170  37.799  10.288  1.00  0.00     0.211 HD
ENDBRANCH  15  40
ENDBRANCH   9  10
ENDBRANCH   8   9
ENDBRANCH   3   8
BRANCH   3  42
ATOM     42  C   UNL     1      26.774  37.540   6.790  1.00  0.00     0.364 C 
ATOM     43  O   UNL     1      27.391  37.636   5.709  1.00  0.00    -0.246 OA
BRANCH  42  44
ATOM     44  O   UNL     1      26.549  36.224   7.246  1.00  0.00    -0.477 OA
ATOM     45  H   UNL     1      27.091  35.497   6.830  1.00  0.00     0.296 HD
ENDBRANCH  42  44
ENDBRANCH   3  42
BRANCH   6  46
ATOM     46  O   UNL     1      25.763  41.701   7.840  1.00  0.00    -0.391 OA
ATOM     47  H   UNL     1      25.748  41.428   8.787  1.00  0.00     0.211 HD
ENDBRANCH   6  46
BRANCH   7  48
ATOM     48  N   UNL     1      22.653  40.660   7.071  1.00  0.00    -0.348 N 
ATOM     49  C   UNL     1      22.022  41.894   7.364  1.00  0.00     0.217 C 
ATOM     50  H   UNL     1      22.242  40.012   6.341  1.00  0.00     0.163 HD
ATOM     51  C   UNL     1      20.763  42.321   6.660  1.00  0.00     0.114 C 
ATOM     52  O   UNL     1      22.556  42.622   8.239  1.00  0.00    -0.275 OA
ENDBRANCH   7  48
ENDBRANCH   1   2
BRANCH   1  53
ATOM     53  O   UNL     1      22.560  38.391   9.564  1.00  0.00    -0.388 OA
ATOM     54  H   UNL     1      22.655  39.332   9.835  1.00  0.00     0.211 HD
ENDBRANCH   1  53
BRANCH   1  55
ATOM     55  C   UNL     1      22.536  36.738   7.910  1.00  0.00     0.165 C 
BRANCH  55  56
ATOM     56  O   UNL     1      21.355  36.408   7.213  1.00  0.00    -0.388 OA
ATOM     57  H   UNL     1      21.274  37.127   6.512  1.00  0.00     0.211 HD
ENDBRANCH  55  56
BRANCH  55  58
ATOM     58  C   UNL     1      22.783  35.717   8.957  1.00  0.00     0.154 C 
BRANCH  58  59
ATOM     59  N   UNL     1      24.063  35.715   9.562  1.00  0.00    -0.319 N 
ATOM     60  C   UNL     1      24.361  36.033  10.905  1.00  0.00     0.407 C 
ATOM     61  H   UNL     1      24.913  35.436   8.933  1.00  0.00     0.167 HD
ATOM     62  O   UNL     1      23.498  36.405  11.719  1.00  0.00    -0.225 OA
BRANCH  60  63
ATOM     63  O   UNL     1      25.670  35.918  11.323  1.00  0.00    -0.443 OA
BRANCH  63  64
ATOM     64  C   UNL     1      26.049  35.065  12.345  1.00  0.00     0.294 C 
BRANCH  64  65
ATOM     65  C   UNL     1      26.965  35.655  13.332  1.00  0.00     0.120 A 
ATOM     66  C   UNL     1      27.817  35.035  14.214  1.00  0.00     0.138 A 
ATOM     67  N   UNL     1      27.120  36.991  13.586  1.00  0.00    -0.132 NA
ATOM     68  N   UNL     1      28.441  35.958  14.953  1.00  0.00    -0.251 N 
ATOM     69  N   UNL     1      27.999  37.135  14.551  1.00  0.00    -0.067 NA
BRANCH  68  70
ATOM     70  C   UNL     1      29.440  35.755  16.020  1.00  0.00     0.162 C 
BRANCH  70  71
ATOM     71  C   UNL     1      30.817  35.872  15.455  1.00  0.00     0.132 C 
BRANCH  71  72
ATOM     72  C   UNL     1      31.303  37.283  15.526  1.00  0.00     0.309 C 
ATOM     73  O   UNL     1      31.134  38.007  16.521  1.00  0.00    -0.252 OA
BRANCH  72  74
ATOM     74  O   UNL     1      31.976  37.824  14.444  1.00  0.00    -0.481 OA
ATOM     75  H   UNL     1      31.699  38.742  14.086  1.00  0.00     0.296 HD
ENDBRANCH  72  74
ENDBRANCH  71  72
BRANCH  71  76
ATOM     76  C   UNL     1      31.840  34.890  15.890  1.00  0.00     0.065 C 
BRANCH  76  77
ATOM     77  C   UNL     1      32.966  35.384  16.685  1.00  0.00    -0.040 A 
ATOM     78  C   UNL     1      34.189  35.709  16.080  1.00  0.00     0.004 A 
ATOM     79  C   UNL     1      32.922  35.559  18.070  1.00  0.00     0.004 A 
ATOM     80  C   UNL     1      35.263  36.165  16.778  1.00  0.00     0.000 A 
ATOM     81  C   UNL     1      34.013  36.020  18.766  1.00  0.00     0.000 A 
ATOM     82  C   UNL     1      35.197  36.328  18.127  1.00  0.00     0.000 A 
ENDBRANCH  76  77
BRANCH  76  83
ATOM     83  C   UNL     1      31.268  33.597  16.351  1.00  0.00    -0.040 A 
ATOM     84  C   UNL     1      31.090  32.621  15.394  1.00  0.00     0.004 A 
ATOM     85  C   UNL     1      30.937  33.356  17.657  1.00  0.00     0.004 A 
ATOM     86  C   UNL     1      30.581  31.398  15.727  1.00  0.00     0.000 A 
ATOM     87  C   UNL     1      30.420  32.105  17.983  1.00  0.00     0.000 A 
ATOM     88  C   UNL     1      30.239  31.126  17.032  1.00  0.00     0.000 A 
ENDBRANCH  76  83
ENDBRANCH  71  76
ENDBRANCH  70  71
ENDBRANCH  68  70
ENDBRANCH  64  65
ENDBRANCH  63  64
ENDBRANCH  60  63
ENDBRANCH  58  59
ENDBRANCH  55  58
ENDBRANCH   1  55
TORSDOF 36
BEGIN_RES LYS A 131
REMARK  4 active torsions:
REMARK  status: ('A' for Active; 'I' for Inactive)
REMARK    1  A    between atoms: CA   and  CB  
REMARK    2  A    between atoms: CB   and  CG  
REMARK    3  A    between atoms: CG   and  CD  
REMARK    4  A    between atoms: CD   and  CE  
ROOT
ATOM      1  CA  LYS A 131      29.867  25.555  16.977  1.00 20.52     0.186 C 
ENDROOT
BRANCH   1   2
ATOM      2  CB  LYS A 131      28.345  25.722  17.026  1.00 20.94     0.034 C 
BRANCH   2   3
ATOM      3  CG  LYS A 131      27.602  24.400  16.916  1.00 22.96     0.005 C 
BRANCH   3   4
ATOM      4  CD  LYS A 131      26.633  24.198  18.048  1.00 24.33     0.041 C 
BRANCH   4   5
ATOM      5  CE  LYS A 131      25.930  25.516  18.357  1.00 26.91     0.338 C 
ATOM      6  NZ  LYS A 131      25.894  25.755  19.819  1.00 27.40     0.618 N 
ENDBRANCH   4   5
ENDBRANCH   3   4
ENDBRANCH   2   3
ENDBRANCH   1   2
END_RES LYS A 131
BEGIN_RES LYS A 135
REMARK  4 active torsions:
REMARK  status: ('A' for Active; 'I' for Inactive)
REMARK    5  A    between atoms: CA   and  CB  
REMARK    6  A    between atoms: CB   and  CG  
REMARK    7  A    between atoms: CG   and  CD  
REMARK    8  A    between atoms: CD   and  CE  
ROOT
ATOM      7  CA  LYS A 135      33.193  34.663   9.290  1.00 25.02     0.186 C 
ENDROOT
BRANCH   7   8
ATOM      8  CB  LYS A 135      32.060  35.360  10.034  1.00 26.63     0.034 C 
BRANCH   8   9
ATOM      9  CG  LYS A 135      30.852  35.630   9.175  1.00 29.45     0.005 C 
BRANCH   9  10
ATOM     10  CD  LYS A 135      30.382  34.354   8.493  1.00 32.00     0.041 C 
BRANCH  10  11
ATOM     11  CE  LYS A 135      28.886  34.176   8.669  1.00 34.25     0.338 C 
ATOM     12  NZ  LYS A 135      28.514  34.160  10.111  1.00 35.99     0.618 N 
ENDBRANCH  10  11
ENDBRANCH   9  10
ENDBRANCH   8   9
ENDBRANCH   7   8
END_RES LYS A 135
