REMARK VINA RESULT:    -5.198      4.436     11.165
REMARK INTER + INTRA:         -22.519
REMARK INTER:                 -11.657
REMARK INTRA:                 -10.862
REMARK UNBOUND:                -9.116
REMARK SMILES CC(=O)N[C@@H]1[C@@H](O)C[C@](OC[C@H]2O[C@@H](O[C@H]3[C@H](O)[C@@H](O)[C@H](OCCN=[N+]=[N-])O[C@@H]3CO)[C@H](O)[C@@H](O)[C@H]2O)(C(=O)O)O[C@H]1C(O)[C@H](O)CNC(=O)OCc1cn(CCC2OCCO2)nn1
REMARK SMILES IDX 9 1 8 2 6 3 5 4 42 5 41 6 10 7 11 8 12 9 14 10 13 11 32 12
REMARK SMILES IDX 34 13 36 14 15 15 16 16 29 17 28 18 21 19 17 20 19 21 30 22
REMARK SMILES IDX 31 23 22 25 23 26 24 27 25 28 26 29 27 30 18 31 20 33 33 35
REMARK SMILES IDX 35 37 37 39 38 41 39 42 40 43 7 45 43 47 44 48 45 50 46 51
REMARK SMILES IDX 47 53 48 54 49 55 50 57 51 58 52 59 53 60 54 61 64 62 55 63
REMARK SMILES IDX 63 64 56 65 57 66 58 67 59 68 62 69 60 70 61 71 4 72 2 73
REMARK SMILES IDX 1 75 3 76
REMARK H PARENT 31 24 18 32 20 34 33 36 35 38 37 40 40 44 7 46 44 49 46 52
REMARK H PARENT 48 56 4 74
REMARK Flexibility Score: inf
ROOT
ATOM      1  C   UNL     1      28.229  36.475   7.282  1.00  0.00     0.272 C 
ATOM      2  C   UNL     1      28.272  37.293   8.625  1.00  0.00     0.113 C 
ATOM      3  C   UNL     1      29.616  37.832   8.876  1.00  0.00     0.145 C 
ATOM      4  C   UNL     1      30.033  38.725   7.725  1.00  0.00     0.142 C 
ATOM      5  C   UNL     1      29.293  38.413   6.469  1.00  0.00     0.178 C 
ATOM      6  O   UNL     1      28.890  37.139   6.279  1.00  0.00    -0.332 OA
ENDROOT
BRANCH   1   7
ATOM      7  O   UNL     1      26.922  36.413   7.026  1.00  0.00    -0.338 OA
BRANCH   7   8
ATOM      8  C   UNL     1      25.949  37.178   7.467  1.00  0.00     0.199 C 
BRANCH   8   9
ATOM      9  C   UNL     1      24.802  36.630   8.254  1.00  0.00     0.179 C 
ATOM     10  C   UNL     1      24.331  35.636  10.320  1.00  0.00     0.282 C 
ATOM     11  O   UNL     1      25.256  35.909   9.334  1.00  0.00    -0.341 OA
ATOM     12  C   UNL     1      22.912  35.887   9.965  1.00  0.00     0.202 C 
ATOM     13  C   UNL     1      22.677  37.211   9.291  1.00  0.00     0.179 C 
ATOM     14  C   UNL     1      23.986  37.792   8.872  1.00  0.00     0.177 C 
BRANCH  10  15
ATOM     15  O   UNL     1      24.768  36.224  11.507  1.00  0.00    -0.341 OA
BRANCH  15  16
ATOM     16  C   UNL     1      26.004  35.760  11.936  1.00  0.00     0.184 C 
ATOM     17  C   UNL     1      25.954  34.923  13.177  1.00  0.00     0.178 C 
ATOM     18  O   UNL     1      27.248  34.465  13.436  1.00  0.00    -0.341 OA
ATOM     19  C   UNL     1      28.126  35.475  13.799  1.00  0.00     0.281 C 
ATOM     20  C   UNL     1      26.893  36.979  12.316  1.00  0.00     0.180 C 
ATOM     21  C   UNL     1      28.269  36.379  12.578  1.00  0.00     0.202 C 
BRANCH  17  22
ATOM     22  C   UNL     1      25.127  33.677  12.911  1.00  0.00     0.191 C 
BRANCH  22  23
ATOM     23  O   UNL     1      23.819  33.999  13.352  1.00  0.00    -0.394 OA
ATOM     24  H   UNL     1      23.242  34.310  12.623  1.00  0.00     0.210 HD
ENDBRANCH  22  23
ENDBRANCH  17  22
BRANCH  19  25
ATOM     25  O   UNL     1      29.326  34.916  14.140  1.00  0.00    -0.350 OA
BRANCH  25  26
ATOM     26  C   UNL     1      29.274  33.838  14.977  1.00  0.00     0.169 C 
BRANCH  26  27
ATOM     27  C   UNL     1      30.341  32.793  14.737  1.00  0.00     0.119 C 
BRANCH  27  28
ATOM     28  N   UNL     1      31.141  32.609  15.933  1.00  0.00    -0.092 NA
ATOM     29  N   UNL     1      31.590  33.547  16.587  1.00  0.00     0.001 N 
ATOM     30  N   UNL     1      31.937  34.417  17.382  1.00  0.00    -0.003 NA
ENDBRANCH  27  28
ENDBRANCH  26  27
ENDBRANCH  25  26
ENDBRANCH  19  25
BRANCH  20  31
ATOM     31  O   UNL     1      26.943  37.833  11.242  1.00  0.00    -0.387 OA
ATOM     32  H   UNL     1      26.482  37.403  10.470  1.00  0.00     0.211 HD
ENDBRANCH  20  31
BRANCH  21  33
ATOM     33  O   UNL     1      29.138  37.425  12.803  1.00  0.00    -0.385 OA
ATOM     34  H   UNL     1      28.964  38.125  12.125  1.00  0.00     0.211 HD
ENDBRANCH  21  33
ENDBRANCH  15  16
ENDBRANCH  10  15
BRANCH  12  35
ATOM     35  O   UNL     1      22.438  34.821   9.159  1.00  0.00    -0.385 OA
ATOM     36  H   UNL     1      22.080  35.260   8.342  1.00  0.00     0.211 HD
ENDBRANCH  12  35
BRANCH  13  37
ATOM     37  O   UNL     1      21.929  38.077  10.088  1.00  0.00    -0.387 OA
ATOM     38  H   UNL     1      22.487  38.879  10.267  1.00  0.00     0.211 HD
ENDBRANCH  13  37
BRANCH  14  39
ATOM     39  O   UNL     1      24.716  38.347   9.902  1.00  0.00    -0.387 OA
ATOM     40  H   UNL     1      24.838  37.747  10.679  1.00  0.00     0.211 HD
ENDBRANCH  14  39
ENDBRANCH   8   9
ENDBRANCH   7   8
ENDBRANCH   1   7
BRANCH   1  41
ATOM     41  C   UNL     1      28.996  35.273   7.608  1.00  0.00     0.364 C 
ATOM     42  O   UNL     1      28.471  34.381   8.394  1.00  0.00    -0.246 OA
BRANCH  41  43
ATOM     43  O   UNL     1      30.257  34.920   7.183  1.00  0.00    -0.477 OA
ATOM     44  H   UNL     1      30.936  35.637   6.972  1.00  0.00     0.296 HD
ENDBRANCH  41  43
ENDBRANCH   1  41
BRANCH   3  45
ATOM     45  O   UNL     1      29.520  38.606  10.070  1.00  0.00    -0.391 OA
ATOM     46  H   UNL     1      28.548  38.850  10.159  1.00  0.00     0.211 HD
ENDBRANCH   3  45
BRANCH   5  47
ATOM     47  C   UNL     1      28.245  39.454   6.214  1.00  0.00     0.176 C 
BRANCH  47  48
ATOM     48  O   UNL     1      28.458  40.636   6.940  1.00  0.00    -0.388 OA
ATOM     49  H   UNL     1      27.605  41.152   7.038  1.00  0.00     0.211 HD
ENDBRANCH  47  48
BRANCH  47  50
ATOM     50  C   UNL     1      28.332  39.935   4.738  1.00  0.00     0.165 C 
BRANCH  50  51
ATOM     51  O   UNL     1      29.285  40.924   4.659  1.00  0.00    -0.388 OA
ATOM     52  H   UNL     1      29.953  40.893   5.369  1.00  0.00     0.211 HD
ENDBRANCH  50  51
BRANCH  50  53
ATOM     53  C   UNL     1      26.969  40.258   4.278  1.00  0.00     0.154 C 
BRANCH  53  54
ATOM     54  N   UNL     1      26.010  40.194   5.335  1.00  0.00    -0.319 N 
ATOM     55  C   UNL     1      25.079  41.191   5.624  1.00  0.00     0.407 C 
ATOM     56  H   UNL     1      26.019  39.326   5.927  1.00  0.00     0.167 HD
ATOM     57  O   UNL     1      25.031  42.241   4.964  1.00  0.00    -0.225 OA
BRANCH  55  58
ATOM     58  O   UNL     1      24.142  41.090   6.663  1.00  0.00    -0.443 OA
BRANCH  58  59
ATOM     59  C   UNL     1      24.218  41.934   7.798  1.00  0.00     0.294 C 
BRANCH  59  60
ATOM     60  C   UNL     1      25.285  41.530   8.742  1.00  0.00     0.120 A 
ATOM     61  C   UNL     1      25.556  42.160   9.961  1.00  0.00     0.138 A 
ATOM     62  N   UNL     1      26.185  40.537   8.663  1.00  0.00    -0.132 NA
ATOM     63  N   UNL     1      26.599  41.529  10.565  1.00  0.00    -0.252 N 
ATOM     64  N   UNL     1      26.956  40.556   9.759  1.00  0.00    -0.067 NA
BRANCH  63  65
ATOM     65  C   UNL     1      27.124  41.941  11.859  1.00  0.00     0.151 C 
BRANCH  65  66
ATOM     66  C   UNL     1      27.974  40.832  12.465  1.00  0.00     0.086 C 
BRANCH  66  67
ATOM     67  C   UNL     1      29.412  41.247  12.587  1.00  0.00     0.251 C 
ATOM     68  O   UNL     1      30.233  40.172  12.243  1.00  0.00    -0.350 OA
ATOM     69  O   UNL     1      29.765  42.272  11.731  1.00  0.00    -0.350 OA
ATOM     70  C   UNL     1      31.470  40.745  11.973  1.00  0.00     0.192 C 
ATOM     71  C   UNL     1      31.174  42.230  11.853  1.00  0.00     0.192 C 
ENDBRANCH  66  67
ENDBRANCH  65  66
ENDBRANCH  63  65
ENDBRANCH  59  60
ENDBRANCH  58  59
ENDBRANCH  55  58
ENDBRANCH  53  54
ENDBRANCH  50  53
ENDBRANCH  47  50
ENDBRANCH   5  47
BRANCH   4  72
ATOM     72  N   UNL     1      31.484  38.701   7.555  1.00  0.00    -0.348 N 
ATOM     73  C   UNL     1      32.220  39.777   7.048  1.00  0.00     0.217 C 
ATOM     74  H   UNL     1      31.975  37.805   7.841  1.00  0.00     0.163 HD
ATOM     75  C   UNL     1      33.708  39.675   6.904  1.00  0.00     0.114 C 
ATOM     76  O   UNL     1      31.586  40.818   6.724  1.00  0.00    -0.275 OA
ENDBRANCH   4  72
TORSDOF 32
BEGIN_RES LYS A 131
REMARK  4 active torsions:
REMARK  status: ('A' for Active; 'I' for Inactive)
REMARK    1  A    between atoms: CA   and  CB  
REMARK    2  A    between atoms: CB   and  CG  
REMARK    3  A    between atoms: CG   and  CD  
REMARK    4  A    between atoms: CD   and  CE  
ROOT
ATOM      1  CA  LYS A 131      29.867  25.555  16.977  1.00 20.52     0.186 C 
ENDROOT
BRANCH   1   2
ATOM      2  CB  LYS A 131      28.345  25.722  17.026  1.00 20.94     0.034 C 
BRANCH   2   3
ATOM      3  CG  LYS A 131      27.601  24.403  16.884  1.00 22.96     0.005 C 
BRANCH   3   4
ATOM      4  CD  LYS A 131      26.154  24.524  17.276  1.00 24.33     0.041 C 
BRANCH   4   5
ATOM      5  CE  LYS A 131      25.767  23.344  18.162  1.00 26.91     0.338 C 
ATOM      6  NZ  LYS A 131      25.511  23.799  19.549  1.00 27.40     0.618 N 
ENDBRANCH   4   5
ENDBRANCH   3   4
ENDBRANCH   2   3
ENDBRANCH   1   2
END_RES LYS A 131
BEGIN_RES LYS A 135
REMARK  4 active torsions:
REMARK  status: ('A' for Active; 'I' for Inactive)
REMARK    5  A    between atoms: CA   and  CB  
REMARK    6  A    between atoms: CB   and  CG  
REMARK    7  A    between atoms: CG   and  CD  
REMARK    8  A    between atoms: CD   and  CE  
ROOT
ATOM      7  CA  LYS A 135      33.193  34.663   9.290  1.00 25.02     0.186 C 
ENDROOT
BRANCH   7   8
ATOM      8  CB  LYS A 135      32.060  35.360  10.034  1.00 26.63     0.034 C 
BRANCH   8   9
ATOM      9  CG  LYS A 135      31.986  34.998  11.495  1.00 29.45     0.005 C 
BRANCH   9  10
ATOM     10  CD  LYS A 135      32.631  36.078  12.349  1.00 32.00     0.041 C 
BRANCH  10  11
ATOM     11  CE  LYS A 135      32.604  35.686  13.814  1.00 34.25     0.338 C 
ATOM     12  NZ  LYS A 135      33.734  34.773  14.145  1.00 35.99     0.618 N 
ENDBRANCH  10  11
ENDBRANCH   9  10
ENDBRANCH   8   9
ENDBRANCH   7   8
END_RES LYS A 135
