REMARK VINA RESULT:    -4.468      5.062     11.571
REMARK INTER + INTRA:         -24.566
REMARK INTER:                 -13.511
REMARK INTRA:                 -11.055
REMARK UNBOUND:               -12.132
REMARK SMILES CCOCCc1c(-c2ccccc2)nc(N)nc1-n1cc(COC(=O)NC[C@@H](O)C(O)[C@@H]2O[C@@](OC[C@H]3O[C@@H](O[C@H]4[C@H](O)[C@@H](O)[C@H](OCCN=[N+]=[N-])O[C@@H]4CO)[C@H](O)[C@@H](O)[C@H]3O)(C(=O)O)C[C@H](O)[C@H]2NC(C)=O)nn1
REMARK SMILES IDX 30 1 32 2 34 3 66 4 33 5 67 6 69 7 35 8 36 9 37 10 39 11
REMARK SMILES IDX 38 12 57 13 59 14 61 15 40 16 41 17 54 18 53 19 46 20 42 21
REMARK SMILES IDX 44 22 55 23 56 24 47 26 48 27 49 28 50 29 51 30 52 31 43 32
REMARK SMILES IDX 45 34 58 36 60 38 62 40 63 42 64 43 65 44 68 46 70 48 71 49
REMARK SMILES IDX 72 51 73 52 31 53 28 55 29 56 27 58 26 59 24 60 25 62 23 63
REMARK SMILES IDX 22 64 21 65 20 66 74 67 19 68 75 69 18 70 17 71 6 72 15 73
REMARK SMILES IDX 7 74 14 75 5 76 4 77 3 78 2 79 1 80 16 81 8 84 9 85 13 86
REMARK SMILES IDX 10 87 12 88 11 89
REMARK H PARENT 56 25 43 33 45 35 58 37 60 39 62 41 65 45 68 47 70 50 31 54
REMARK H PARENT 29 57 26 61 16 82 16 83
REMARK Flexibility Score: inf
ROOT
ATOM      1  C   UNL     1      21.758  39.556   9.594  1.00  0.00     0.176 C 
ENDROOT
BRANCH   1   2
ATOM      2  C   UNL     1      21.699  38.083   9.867  1.00  0.00     0.178 C 
ATOM      3  C   UNL     1      23.253  36.384  10.284  1.00  0.00     0.272 C 
ATOM      4  C   UNL     1      21.970  35.559  10.406  1.00  0.00     0.113 C 
ATOM      5  O   UNL     1      23.025  37.712  10.244  1.00  0.00    -0.332 OA
ATOM      6  C   UNL     1      21.011  35.824   9.285  1.00  0.00     0.145 C 
ATOM      7  C   UNL     1      21.326  37.200   8.727  1.00  0.00     0.142 C 
BRANCH   3   8
ATOM      8  O   UNL     1      23.957  35.877   9.214  1.00  0.00    -0.338 OA
BRANCH   8   9
ATOM      9  C   UNL     1      25.203  36.407   9.009  1.00  0.00     0.199 C 
BRANCH   9  10
ATOM     10  C   UNL     1      26.010  35.611   7.994  1.00  0.00     0.179 C 
ATOM     11  C   UNL     1      27.818  36.121   6.609  1.00  0.00     0.282 C 
ATOM     12  O   UNL     1      26.622  36.495   7.153  1.00  0.00    -0.341 OA
ATOM     13  C   UNL     1      28.758  35.842   7.789  1.00  0.00     0.202 C 
ATOM     14  C   UNL     1      28.265  34.508   8.346  1.00  0.00     0.179 C 
ATOM     15  C   UNL     1      26.791  34.489   8.545  1.00  0.00     0.177 C 
BRANCH  11  16
ATOM     16  O   UNL     1      28.293  37.111   5.781  1.00  0.00    -0.341 OA
BRANCH  16  17
ATOM     17  C   UNL     1      28.329  38.349   6.403  1.00  0.00     0.184 C 
ATOM     18  C   UNL     1      27.214  39.223   5.939  1.00  0.00     0.178 C 
ATOM     19  O   UNL     1      27.554  40.296   5.176  1.00  0.00    -0.341 OA
ATOM     20  C   UNL     1      28.625  41.050   5.538  1.00  0.00     0.281 C 
ATOM     21  C   UNL     1      29.683  38.982   6.295  1.00  0.00     0.180 C 
ATOM     22  C   UNL     1      29.563  40.463   6.539  1.00  0.00     0.202 C 
BRANCH  18  23
ATOM     23  C   UNL     1      26.274  39.598   7.085  1.00  0.00     0.191 C 
BRANCH  23  24
ATOM     24  O   UNL     1      24.986  39.152   6.848  1.00  0.00    -0.394 OA
ATOM     25  H   UNL     1      25.056  38.306   6.338  1.00  0.00     0.210 HD
ENDBRANCH  23  24
ENDBRANCH  18  23
BRANCH  20  26
ATOM     26  O   UNL     1      28.144  42.262   6.023  1.00  0.00    -0.350 OA
BRANCH  26  27
ATOM     27  C   UNL     1      27.140  42.815   5.267  1.00  0.00     0.169 C 
BRANCH  27  28
ATOM     28  C   UNL     1      25.961  43.308   6.072  1.00  0.00     0.119 C 
BRANCH  28  29
ATOM     29  N   UNL     1      24.732  42.998   5.343  1.00  0.00    -0.092 NA
ATOM     30  N   UNL     1      23.794  42.400   5.885  1.00  0.00     0.001 N 
ATOM     31  N   UNL     1      23.010  41.694   6.516  1.00  0.00    -0.003 NA
ENDBRANCH  28  29
ENDBRANCH  27  28
ENDBRANCH  26  27
ENDBRANCH  20  26
BRANCH  21  32
ATOM     32  O   UNL     1      30.590  38.463   7.223  1.00  0.00    -0.387 OA
ATOM     33  H   UNL     1      30.739  39.090   7.982  1.00  0.00     0.211 HD
ENDBRANCH  21  32
BRANCH  22  34
ATOM     34  O   UNL     1      30.824  41.025   6.344  1.00  0.00    -0.385 OA
ATOM     35  H   UNL     1      31.138  40.930   5.410  1.00  0.00     0.211 HD
ENDBRANCH  22  34
ENDBRANCH  16  17
ENDBRANCH  11  16
BRANCH  13  36
ATOM     36  O   UNL     1      30.073  35.733   7.406  1.00  0.00    -0.385 OA
ATOM     37  H   UNL     1      30.560  36.596   7.506  1.00  0.00     0.211 HD
ENDBRANCH  13  36
BRANCH  14  38
ATOM     38  O   UNL     1      29.007  34.060   9.416  1.00  0.00    -0.387 OA
ATOM     39  H   UNL     1      28.445  33.540  10.067  1.00  0.00     0.211 HD
ENDBRANCH  14  38
BRANCH  15  40
ATOM     40  O   UNL     1      26.553  34.410   9.934  1.00  0.00    -0.387 OA
ATOM     41  H   UNL     1      26.359  33.468  10.176  1.00  0.00     0.211 HD
ENDBRANCH  15  40
ENDBRANCH   9  10
ENDBRANCH   8   9
ENDBRANCH   3   8
BRANCH   3  42
ATOM     42  C   UNL     1      23.987  36.063  11.550  1.00  0.00     0.364 C 
ATOM     43  O   UNL     1      24.304  34.829  11.686  1.00  0.00    -0.246 OA
BRANCH  42  44
ATOM     44  O   UNL     1      24.328  36.960  12.521  1.00  0.00    -0.477 OA
ATOM     45  H   UNL     1      24.098  37.942  12.397  1.00  0.00     0.296 HD
ENDBRANCH  42  44
ENDBRANCH   3  42
BRANCH   6  46
ATOM     46  O   UNL     1      21.212  34.818   8.328  1.00  0.00    -0.391 OA
ATOM     47  H   UNL     1      20.592  34.900   7.577  1.00  0.00     0.211 HD
ENDBRANCH   6  46
BRANCH   7  48
ATOM     48  N   UNL     1      20.290  37.664   7.857  1.00  0.00    -0.348 N 
ATOM     49  C   UNL     1      18.931  37.794   8.246  1.00  0.00     0.217 C 
ATOM     50  H   UNL     1      20.574  37.934   6.891  1.00  0.00     0.163 HD
ATOM     51  C   UNL     1      17.944  38.287   7.264  1.00  0.00     0.114 C 
ATOM     52  O   UNL     1      18.582  37.494   9.407  1.00  0.00    -0.275 OA
ENDBRANCH   7  48
ENDBRANCH   1   2
BRANCH   1  53
ATOM     53  O   UNL     1      22.537  39.682   8.393  1.00  0.00    -0.388 OA
ATOM     54  H   UNL     1      23.068  40.497   8.511  1.00  0.00     0.211 HD
ENDBRANCH   1  53
BRANCH   1  55
ATOM     55  C   UNL     1      22.380  40.442  10.596  1.00  0.00     0.165 C 
BRANCH  55  56
ATOM     56  O   UNL     1      21.375  41.401  10.915  1.00  0.00    -0.388 OA
ATOM     57  H   UNL     1      21.549  42.207  10.389  1.00  0.00     0.211 HD
ENDBRANCH  55  56
BRANCH  55  58
ATOM     58  C   UNL     1      23.605  41.163  10.218  1.00  0.00     0.154 C 
BRANCH  58  59
ATOM     59  N   UNL     1      24.753  40.373   9.993  1.00  0.00    -0.319 N 
ATOM     60  C   UNL     1      25.551  39.769  10.983  1.00  0.00     0.407 C 
ATOM     61  H   UNL     1      25.111  40.174   8.985  1.00  0.00     0.167 HD
ATOM     62  O   UNL     1      25.307  39.884  12.204  1.00  0.00    -0.225 OA
BRANCH  60  63
ATOM     63  O   UNL     1      26.673  38.994  10.669  1.00  0.00    -0.443 OA
BRANCH  63  64
ATOM     64  C   UNL     1      27.731  38.803  11.583  1.00  0.00     0.294 C 
BRANCH  64  65
ATOM     65  C   UNL     1      27.913  37.371  11.918  1.00  0.00     0.121 A 
ATOM     66  C   UNL     1      27.415  36.706  13.008  1.00  0.00     0.146 A 
ATOM     67  N   UNL     1      28.621  36.444  11.232  1.00  0.00    -0.131 NA
ATOM     68  N   UNL     1      27.832  35.384  12.968  1.00  0.00    -0.202 N 
ATOM     69  N   UNL     1      28.545  35.299  11.885  1.00  0.00    -0.060 NA
BRANCH  68  70
ATOM     70  C   UNL     1      27.452  34.519  14.008  1.00  0.00     0.164 A 
ATOM     71  N   UNL     1      26.190  34.021  14.009  1.00  0.00    -0.193 NA
ATOM     72  C   UNL     1      28.316  34.064  15.015  1.00  0.00     0.026 A 
ATOM     73  C   UNL     1      25.747  33.136  14.903  1.00  0.00     0.222 A 
ATOM     74  C   UNL     1      27.886  33.157  15.936  1.00  0.00     0.081 A 
ATOM     75  N   UNL     1      26.588  32.714  15.849  1.00  0.00    -0.213 NA
BRANCH  72  76
ATOM     76  C   UNL     1      29.633  34.711  15.064  1.00  0.00     0.070 C 
BRANCH  76  77
ATOM     77  C   UNL     1      29.703  35.911  15.984  1.00  0.00     0.165 C 
BRANCH  77  78
ATOM     78  O   UNL     1      30.788  36.004  16.801  1.00  0.00    -0.381 OA
BRANCH  78  79
ATOM     79  C   UNL     1      31.652  34.951  16.844  1.00  0.00     0.156 C 
ATOM     80  C   UNL     1      32.259  34.785  18.248  1.00  0.00     0.035 C 
ENDBRANCH  78  79
ENDBRANCH  77  78
ENDBRANCH  76  77
ENDBRANCH  72  76
BRANCH  73  81
ATOM     81  N   UNL     1      24.404  32.643  14.863  1.00  0.00    -0.368 N 
ATOM     82  H   UNL     1      23.717  33.047  14.194  1.00  0.00     0.159 HD
ATOM     83  H   UNL     1      24.067  31.884  15.478  1.00  0.00     0.159 HD
ENDBRANCH  73  81
BRANCH  74  84
ATOM     84  C   UNL     1      28.720  32.621  16.988  1.00  0.00     0.001 A 
ATOM     85  C   UNL     1      29.617  31.608  16.657  1.00  0.00     0.010 A 
ATOM     86  C   UNL     1      28.675  33.093  18.288  1.00  0.00     0.010 A 
ATOM     87  C   UNL     1      30.471  31.061  17.606  1.00  0.00     0.001 A 
ATOM     88  C   UNL     1      29.528  32.537  19.211  1.00  0.00     0.001 A 
ATOM     89  C   UNL     1      30.416  31.539  18.894  1.00  0.00     0.000 A 
ENDBRANCH  74  84
ENDBRANCH  68  70
ENDBRANCH  64  65
ENDBRANCH  63  64
ENDBRANCH  60  63
ENDBRANCH  58  59
ENDBRANCH  55  58
ENDBRANCH   1  55
TORSDOF 36
BEGIN_RES LYS A 131
REMARK  4 active torsions:
REMARK  status: ('A' for Active; 'I' for Inactive)
REMARK    1  A    between atoms: CA   and  CB  
REMARK    2  A    between atoms: CB   and  CG  
REMARK    3  A    between atoms: CG   and  CD  
REMARK    4  A    between atoms: CD   and  CE  
ROOT
ATOM      1  CA  LYS A 131      29.867  25.555  16.977  1.00 20.52     0.186 C 
ENDROOT
BRANCH   1   2
ATOM      2  CB  LYS A 131      28.345  25.722  17.026  1.00 20.94     0.034 C 
BRANCH   2   3
ATOM      3  CG  LYS A 131      27.601  24.400  16.907  1.00 22.96     0.005 C 
BRANCH   3   4
ATOM      4  CD  LYS A 131      26.147  24.535  17.262  1.00 24.33     0.041 C 
BRANCH   4   5
ATOM      5  CE  LYS A 131      25.549  23.151  17.493  1.00 26.91     0.338 C 
ATOM      6  NZ  LYS A 131      24.083  23.175  17.271  1.00 27.40     0.618 N 
ENDBRANCH   4   5
ENDBRANCH   3   4
ENDBRANCH   2   3
ENDBRANCH   1   2
END_RES LYS A 131
BEGIN_RES LYS A 135
REMARK  4 active torsions:
REMARK  status: ('A' for Active; 'I' for Inactive)
REMARK    5  A    between atoms: CA   and  CB  
REMARK    6  A    between atoms: CB   and  CG  
REMARK    7  A    between atoms: CG   and  CD  
REMARK    8  A    between atoms: CD   and  CE  
ROOT
ATOM      7  CA  LYS A 135      33.193  34.663   9.290  1.00 25.02     0.186 C 
ENDROOT
BRANCH   7   8
ATOM      8  CB  LYS A 135      32.060  35.360  10.034  1.00 26.63     0.034 C 
BRANCH   8   9
ATOM      9  CG  LYS A 135      32.378  35.654  11.477  1.00 29.45     0.005 C 
BRANCH   9  10
ATOM     10  CD  LYS A 135      32.130  37.121  11.793  1.00 32.00     0.041 C 
BRANCH  10  11
ATOM     11  CE  LYS A 135      31.622  37.282  13.213  1.00 34.25     0.338 C 
ATOM     12  NZ  LYS A 135      30.921  38.584  13.389  1.00 35.99     0.618 N 
ENDBRANCH  10  11
ENDBRANCH   9  10
ENDBRANCH   8   9
ENDBRANCH   7   8
END_RES LYS A 135
