REMARK VINA RESULT:    -4.409      3.331      9.314
REMARK INTER + INTRA:         -21.795
REMARK INTER:                  -9.657
REMARK INTRA:                 -12.138
REMARK UNBOUND:               -10.943
REMARK SMILES CC(=O)N[C@@H]1[C@@H](O)C[C@](OC[C@H]2O[C@@H](O[C@H]3[C@H](O)[C@@H](O)[C@H](OCCN=[N+]=[N-])O[C@@H]3CO)[C@H](O)[C@@H](O)[C@H]2O)(C(=O)O)O[C@H]1C(O)[C@H](O)CNC(=O)OCc1cn([C@@H]2C[C@H]3CC[C@@H](C2)N3C)nn1
REMARK SMILES IDX 9 1 8 2 6 3 5 4 42 5 41 6 10 7 11 8 12 9 14 10 13 11 32 12
REMARK SMILES IDX 34 13 36 14 15 15 16 16 29 17 28 18 21 19 17 20 19 21 30 22
REMARK SMILES IDX 31 23 22 25 23 26 24 27 25 28 26 29 27 30 18 31 20 33 33 35
REMARK SMILES IDX 35 37 37 39 38 41 39 42 40 43 7 45 43 47 44 48 45 50 46 51
REMARK SMILES IDX 47 53 48 54 49 55 50 57 51 58 52 59 53 60 54 61 66 62 55 63
REMARK SMILES IDX 65 64 56 65 62 66 57 67 61 68 58 69 63 70 60 71 59 72 64 73
REMARK SMILES IDX 4 74 2 75 1 77 3 78
REMARK H PARENT 31 24 18 32 20 34 33 36 35 38 37 40 40 44 7 46 44 49 46 52
REMARK H PARENT 48 56 4 76
REMARK Flexibility Score: inf
ROOT
ATOM      1  C   UNL     1      31.521  35.169  14.372  1.00  0.00     0.272 C 
ATOM      2  C   UNL     1      32.092  34.199  15.326  1.00  0.00     0.113 C 
ATOM      3  C   UNL     1      32.232  34.791  16.721  1.00  0.00     0.145 C 
ATOM      4  C   UNL     1      33.025  36.116  16.633  1.00  0.00     0.142 C 
ATOM      5  C   UNL     1      32.599  36.924  15.473  1.00  0.00     0.178 C 
ATOM      6  O   UNL     1      31.396  36.432  15.013  1.00  0.00    -0.332 OA
ENDROOT
BRANCH   1   7
ATOM      7  O   UNL     1      30.383  34.920  13.692  1.00  0.00    -0.338 OA
BRANCH   7   8
ATOM      8  C   UNL     1      29.507  35.715  13.169  1.00  0.00     0.199 C 
BRANCH   8   9
ATOM      9  C   UNL     1      28.049  35.504  13.552  1.00  0.00     0.179 C 
ATOM     10  C   UNL     1      27.452  33.755  15.005  1.00  0.00     0.282 C 
ATOM     11  O   UNL     1      27.875  34.129  13.763  1.00  0.00    -0.341 OA
ATOM     12  C   UNL     1      26.191  34.420  15.447  1.00  0.00     0.202 C 
ATOM     13  C   UNL     1      26.364  35.893  15.313  1.00  0.00     0.179 C 
ATOM     14  C   UNL     1      27.683  36.306  14.760  1.00  0.00     0.177 C 
BRANCH  10  15
ATOM     15  O   UNL     1      28.455  33.754  15.958  1.00  0.00    -0.341 OA
BRANCH  15  16
ATOM     16  C   UNL     1      28.375  32.722  16.871  1.00  0.00     0.184 C 
ATOM     17  C   UNL     1      28.567  33.186  18.260  1.00  0.00     0.178 C 
ATOM     18  O   UNL     1      28.322  32.174  19.194  1.00  0.00    -0.341 OA
ATOM     19  C   UNL     1      28.286  30.899  18.629  1.00  0.00     0.281 C 
ATOM     20  C   UNL     1      29.579  31.752  16.621  1.00  0.00     0.180 C 
ATOM     21  C   UNL     1      29.380  30.650  17.611  1.00  0.00     0.202 C 
BRANCH  17  22
ATOM     22  C   UNL     1      27.867  34.433  18.672  1.00  0.00     0.191 C 
BRANCH  22  23
ATOM     23  O   UNL     1      27.890  34.572  20.057  1.00  0.00    -0.394 OA
ATOM     24  H   UNL     1      28.792  34.868  20.335  1.00  0.00     0.210 HD
ENDBRANCH  22  23
ENDBRANCH  17  22
BRANCH  19  25
ATOM     25  O   UNL     1      27.032  30.546  18.214  1.00  0.00    -0.350 OA
BRANCH  25  26
ATOM     26  C   UNL     1      26.802  29.306  17.733  1.00  0.00     0.169 C 
BRANCH  26  27
ATOM     27  C   UNL     1      25.949  29.235  16.521  1.00  0.00     0.119 C 
BRANCH  27  28
ATOM     28  N   UNL     1      26.103  30.302  15.594  1.00  0.00    -0.092 NA
ATOM     29  N   UNL     1      25.202  30.704  14.851  1.00  0.00     0.001 N 
ATOM     30  N   UNL     1      24.682  30.985  13.767  1.00  0.00    -0.003 NA
ENDBRANCH  27  28
ENDBRANCH  26  27
ENDBRANCH  25  26
ENDBRANCH  19  25
BRANCH  20  31
ATOM     31  O   UNL     1      29.551  31.249  15.346  1.00  0.00    -0.387 OA
ATOM     32  H   UNL     1      29.196  30.319  15.344  1.00  0.00     0.211 HD
ENDBRANCH  20  31
BRANCH  21  33
ATOM     33  O   UNL     1      30.569  30.382  18.296  1.00  0.00    -0.385 OA
ATOM     34  H   UNL     1      30.584  29.443  18.529  1.00  0.00     0.211 HD
ENDBRANCH  21  33
ENDBRANCH  15  16
ENDBRANCH  10  15
BRANCH  12  35
ATOM     35  O   UNL     1      25.128  33.988  14.627  1.00  0.00    -0.385 OA
ATOM     36  H   UNL     1      25.179  32.997  14.575  1.00  0.00     0.211 HD
ENDBRANCH  12  35
BRANCH  13  37
ATOM     37  O   UNL     1      26.189  36.535  16.563  1.00  0.00    -0.387 OA
ATOM     38  H   UNL     1      26.974  36.376  17.140  1.00  0.00     0.211 HD
ENDBRANCH  13  37
BRANCH  14  39
ATOM     39  O   UNL     1      28.653  36.290  15.769  1.00  0.00    -0.387 OA
ATOM     40  H   UNL     1      28.145  36.257  16.631  1.00  0.00     0.211 HD
ENDBRANCH  14  39
ENDBRANCH   8   9
ENDBRANCH   7   8
ENDBRANCH   1   7
BRANCH   1  41
ATOM     41  C   UNL     1      32.550  35.375  13.278  1.00  0.00     0.364 C 
ATOM     42  O   UNL     1      32.503  36.270  12.420  1.00  0.00    -0.246 OA
BRANCH  41  43
ATOM     43  O   UNL     1      33.649  34.514  13.196  1.00  0.00    -0.477 OA
ATOM     44  H   UNL     1      34.398  34.699  12.519  1.00  0.00     0.296 HD
ENDBRANCH  41  43
ENDBRANCH   1  41
BRANCH   3  45
ATOM     45  O   UNL     1      31.041  34.946  17.395  1.00  0.00    -0.391 OA
ATOM     46  H   UNL     1      30.292  34.833  16.734  1.00  0.00     0.211 HD
ENDBRANCH   3  45
BRANCH   5  47
ATOM     47  C   UNL     1      32.177  38.372  15.928  1.00  0.00     0.176 C 
BRANCH  47  48
ATOM     48  O   UNL     1      32.789  38.477  17.250  1.00  0.00    -0.388 OA
ATOM     49  H   UNL     1      33.608  39.040  17.104  1.00  0.00     0.211 HD
ENDBRANCH  47  48
BRANCH  47  50
ATOM     50  C   UNL     1      30.723  38.464  16.250  1.00  0.00     0.165 C 
BRANCH  50  51
ATOM     51  O   UNL     1      30.053  39.170  15.278  1.00  0.00    -0.388 OA
ATOM     52  H   UNL     1      29.840  40.093  15.489  1.00  0.00     0.211 HD
ENDBRANCH  50  51
BRANCH  50  53
ATOM     53  C   UNL     1      30.390  38.860  17.639  1.00  0.00     0.154 C 
BRANCH  53  54
ATOM     54  N   UNL     1      29.954  37.700  18.416  1.00  0.00    -0.319 N 
ATOM     55  C   UNL     1      30.656  37.283  19.552  1.00  0.00     0.407 C 
ATOM     56  H   UNL     1      29.109  37.200  18.101  1.00  0.00     0.167 HD
ATOM     57  O   UNL     1      31.686  37.932  19.900  1.00  0.00    -0.225 OA
BRANCH  55  58
ATOM     58  O   UNL     1      30.275  36.187  20.319  1.00  0.00    -0.443 OA
BRANCH  58  59
ATOM     59  C   UNL     1      31.171  35.617  21.265  1.00  0.00     0.294 C 
BRANCH  59  60
ATOM     60  C   UNL     1      31.213  34.133  21.082  1.00  0.00     0.120 A 
ATOM     61  C   UNL     1      30.845  33.168  21.996  1.00  0.00     0.138 A 
ATOM     62  N   UNL     1      31.618  33.468  20.005  1.00  0.00    -0.132 NA
ATOM     63  N   UNL     1      31.033  31.954  21.460  1.00  0.00    -0.249 N 
ATOM     64  N   UNL     1      31.514  32.182  20.224  1.00  0.00    -0.067 NA
BRANCH  63  65
ATOM     65  C   UNL     1      30.801  30.639  22.008  1.00  0.00     0.112 C 
ATOM     66  C   UNL     1      31.580  29.554  21.326  1.00  0.00     0.046 C 
ATOM     67  C   UNL     1      31.270  30.652  23.471  1.00  0.00     0.046 C 
ATOM     68  C   UNL     1      33.048  29.670  21.644  1.00  0.00     0.058 C 
ATOM     69  C   UNL     1      32.763  30.910  23.524  1.00  0.00     0.058 C 
ATOM     70  N   UNL     1      33.267  31.012  22.166  1.00  0.00    -0.300 NA
ATOM     71  C   UNL     1      33.455  28.780  22.789  1.00  0.00     0.021 C 
ATOM     72  C   UNL     1      33.481  29.663  24.005  1.00  0.00     0.021 C 
ATOM     73  C   UNL     1      34.673  31.278  22.122  1.00  0.00     0.105 C 
ENDBRANCH  63  65
ENDBRANCH  59  60
ENDBRANCH  58  59
ENDBRANCH  55  58
ENDBRANCH  53  54
ENDBRANCH  50  53
ENDBRANCH  47  50
ENDBRANCH   5  47
BRANCH   4  74
ATOM     74  N   UNL     1      34.449  35.760  16.671  1.00  0.00    -0.348 N 
ATOM     75  C   UNL     1      35.266  36.115  17.811  1.00  0.00     0.217 C 
ATOM     76  H   UNL     1      34.948  35.252  15.918  1.00  0.00     0.163 HD
ATOM     77  C   UNL     1      36.692  35.797  17.927  1.00  0.00     0.114 C 
ATOM     78  O   UNL     1      34.692  36.728  18.735  1.00  0.00    -0.275 OA
ENDBRANCH   4  74
TORSDOF 30
BEGIN_RES LYS A 131
REMARK  4 active torsions:
REMARK  status: ('A' for Active; 'I' for Inactive)
REMARK    1  A    between atoms: CA   and  CB  
REMARK    2  A    between atoms: CB   and  CG  
REMARK    3  A    between atoms: CG   and  CD  
REMARK    4  A    between atoms: CD   and  CE  
ROOT
ATOM      1  CA  LYS A 131      29.867  25.555  16.977  1.00 20.52     0.186 C 
ENDROOT
BRANCH   1   2
ATOM      2  CB  LYS A 131      28.345  25.722  17.026  1.00 20.94     0.034 C 
BRANCH   2   3
ATOM      3  CG  LYS A 131      27.602  24.397  16.942  1.00 22.96     0.005 C 
BRANCH   3   4
ATOM      4  CD  LYS A 131      26.627  24.222  18.073  1.00 24.33     0.041 C 
BRANCH   4   5
ATOM      5  CE  LYS A 131      26.104  25.586  18.510  1.00 26.91     0.338 C 
ATOM      6  NZ  LYS A 131      24.833  25.901  17.816  1.00 27.40     0.618 N 
ENDBRANCH   4   5
ENDBRANCH   3   4
ENDBRANCH   2   3
ENDBRANCH   1   2
END_RES LYS A 131
BEGIN_RES LYS A 135
REMARK  4 active torsions:
REMARK  status: ('A' for Active; 'I' for Inactive)
REMARK    5  A    between atoms: CA   and  CB  
REMARK    6  A    between atoms: CB   and  CG  
REMARK    7  A    between atoms: CG   and  CD  
REMARK    8  A    between atoms: CD   and  CE  
ROOT
ATOM      7  CA  LYS A 135      33.193  34.663   9.290  1.00 25.02     0.186 C 
ENDROOT
BRANCH   7   8
ATOM      8  CB  LYS A 135      32.060  35.360  10.034  1.00 26.63     0.034 C 
BRANCH   8   9
ATOM      9  CG  LYS A 135      30.710  34.732   9.801  1.00 29.45     0.005 C 
BRANCH   9  10
ATOM     10  CD  LYS A 135      30.459  34.534   8.314  1.00 32.00     0.041 C 
BRANCH  10  11
ATOM     11  CE  LYS A 135      29.010  34.826   7.975  1.00 34.25     0.338 C 
ATOM     12  NZ  LYS A 135      28.898  35.540   6.673  1.00 35.99     0.618 N 
ENDBRANCH  10  11
ENDBRANCH   9  10
ENDBRANCH   8   9
ENDBRANCH   7   8
END_RES LYS A 135
