REMARK VINA RESULT:    -3.225      3.422      9.438
REMARK INTER + INTRA:         -22.800
REMARK INTER:                 -12.493
REMARK INTRA:                 -10.306
REMARK UNBOUND:               -13.729
REMARK SMILES CCOC(CCn1cc(COC(=O)NC[C@@H](O)C(O)[C@@H]2O[C@@](OC[C@H]3O[C@@H](O[C@H]4[C@H](O)[C@@H](O)[C@H](OCCN=[N+]=[N-])O[C@@H]4CO)[C@H](O)[C@@H](O)[C@H]3O)(C(=O)O)C[C@H](O)[C@H]2NC(C)=O)nn1)OCC
REMARK SMILES IDX 18 1 20 2 22 3 54 4 21 5 55 6 57 7 23 8 24 9 25 10 27 11
REMARK SMILES IDX 26 12 45 13 47 14 49 15 28 16 29 17 42 18 41 19 34 20 30 21
REMARK SMILES IDX 32 22 43 23 44 24 35 26 36 27 37 28 38 29 39 30 40 31 31 32
REMARK SMILES IDX 33 34 46 36 48 38 50 40 51 42 52 43 53 44 56 46 58 48 59 49
REMARK SMILES IDX 60 51 61 52 19 53 16 55 17 56 15 58 14 59 12 60 13 62 11 63
REMARK SMILES IDX 10 64 9 65 8 66 62 67 7 68 63 69 6 70 5 71 4 72 3 73 2 74
REMARK SMILES IDX 1 75 64 76 65 77 66 78
REMARK H PARENT 44 25 31 33 33 35 46 37 48 39 50 41 53 45 56 47 58 50 19 54
REMARK H PARENT 17 57 14 61
REMARK Flexibility Score: inf
ROOT
ATOM      1  C   UNL     1      28.905  38.145   7.319  1.00  0.00     0.176 C 
ENDROOT
BRANCH   1   2
ATOM      2  C   UNL     1      28.278  37.793   8.635  1.00  0.00     0.178 C 
ATOM      3  C   UNL     1      26.473  36.743   9.633  1.00  0.00     0.272 C 
ATOM      4  C   UNL     1      27.286  37.081  10.833  1.00  0.00     0.113 C 
ATOM      5  O   UNL     1      27.057  37.171   8.420  1.00  0.00    -0.332 OA
ATOM      6  C   UNL     1      27.836  38.464  10.886  1.00  0.00     0.145 C 
ATOM      7  C   UNL     1      27.942  39.035   9.466  1.00  0.00     0.142 C 
BRANCH   3   8
ATOM      8  O   UNL     1      25.184  37.092   9.612  1.00  0.00    -0.338 OA
BRANCH   8   9
ATOM      9  C   UNL     1      24.452  37.056   8.485  1.00  0.00     0.199 C 
BRANCH   9  10
ATOM     10  C   UNL     1      23.150  36.317   8.699  1.00  0.00     0.179 C 
ATOM     11  C   UNL     1      21.779  35.310  10.165  1.00  0.00     0.282 C 
ATOM     12  O   UNL     1      22.664  36.407   9.991  1.00  0.00    -0.341 OA
ATOM     13  C   UNL     1      20.558  35.573   9.366  1.00  0.00     0.202 C 
ATOM     14  C   UNL     1      20.933  35.785   7.918  1.00  0.00     0.179 C 
ATOM     15  C   UNL     1      22.070  36.751   7.713  1.00  0.00     0.177 C 
BRANCH  11  16
ATOM     16  O   UNL     1      21.565  35.119  11.535  1.00  0.00    -0.341 OA
BRANCH  16  17
ATOM     17  C   UNL     1      22.299  34.055  11.954  1.00  0.00     0.184 C 
ATOM     18  C   UNL     1      21.647  33.018  12.784  1.00  0.00     0.178 C 
ATOM     19  O   UNL     1      22.453  31.871  12.756  1.00  0.00    -0.341 OA
ATOM     20  C   UNL     1      23.661  32.107  13.430  1.00  0.00     0.281 C 
ATOM     21  C   UNL     1      23.509  34.533  12.820  1.00  0.00     0.180 C 
ATOM     22  C   UNL     1      24.413  33.293  12.865  1.00  0.00     0.202 C 
BRANCH  18  23
ATOM     23  C   UNL     1      20.296  32.653  12.248  1.00  0.00     0.191 C 
BRANCH  23  24
ATOM     24  O   UNL     1      19.390  33.711  12.327  1.00  0.00    -0.394 OA
ATOM     25  H   UNL     1      19.676  34.494  11.826  1.00  0.00     0.210 HD
ENDBRANCH  23  24
ENDBRANCH  18  23
BRANCH  20  26
ATOM     26  O   UNL     1      24.442  30.980  13.245  1.00  0.00    -0.350 OA
BRANCH  26  27
ATOM     27  C   UNL     1      24.388  30.032  14.222  1.00  0.00     0.169 C 
BRANCH  27  28
ATOM     28  C   UNL     1      24.421  30.678  15.582  1.00  0.00     0.119 C 
BRANCH  28  29
ATOM     29  N   UNL     1      24.977  29.733  16.548  1.00  0.00    -0.092 NA
ATOM     30  N   UNL     1      26.223  29.662  16.547  1.00  0.00     0.001 N 
ATOM     31  N   UNL     1      27.348  29.164  16.452  1.00  0.00    -0.003 NA
ENDBRANCH  28  29
ENDBRANCH  27  28
ENDBRANCH  26  27
ENDBRANCH  20  26
BRANCH  21  32
ATOM     32  O   UNL     1      24.157  35.585  12.229  1.00  0.00    -0.387 OA
ATOM     33  H   UNL     1      24.070  35.591  11.245  1.00  0.00     0.211 HD
ENDBRANCH  21  32
BRANCH  22  34
ATOM     34  O   UNL     1      25.530  33.521  13.622  1.00  0.00    -0.385 OA
ATOM     35  H   UNL     1      26.186  34.011  13.036  1.00  0.00     0.211 HD
ENDBRANCH  22  34
ENDBRANCH  16  17
ENDBRANCH  11  16
BRANCH  13  36
ATOM     36  O   UNL     1      19.690  34.469   9.376  1.00  0.00    -0.385 OA
ATOM     37  H   UNL     1      20.121  33.664   9.012  1.00  0.00     0.211 HD
ENDBRANCH  13  36
BRANCH  14  38
ATOM     38  O   UNL     1      19.826  36.095   7.134  1.00  0.00    -0.387 OA
ATOM     39  H   UNL     1      20.080  36.205   6.179  1.00  0.00     0.211 HD
ENDBRANCH  14  38
BRANCH  15  40
ATOM     40  O   UNL     1      21.709  38.064   7.974  1.00  0.00    -0.387 OA
ATOM     41  H   UNL     1      21.620  38.578   7.141  1.00  0.00     0.211 HD
ENDBRANCH  15  40
ENDBRANCH   9  10
ENDBRANCH   8   9
ENDBRANCH   3   8
BRANCH   3  42
ATOM     42  C   UNL     1      26.508  35.250   9.511  1.00  0.00     0.364 C 
ATOM     43  O   UNL     1      26.699  34.687   8.418  1.00  0.00    -0.246 OA
BRANCH  42  44
ATOM     44  O   UNL     1      26.326  34.430  10.619  1.00  0.00    -0.477 OA
ATOM     45  H   UNL     1      26.915  34.583  11.432  1.00  0.00     0.296 HD
ENDBRANCH  42  44
ENDBRANCH   3  42
BRANCH   6  46
ATOM     46  O   UNL     1      27.160  39.326  11.713  1.00  0.00    -0.391 OA
ATOM     47  H   UNL     1      27.182  39.075  12.669  1.00  0.00     0.211 HD
ENDBRANCH   6  46
BRANCH   7  48
ATOM     48  N   UNL     1      28.922  40.067   9.366  1.00  0.00    -0.348 N 
ATOM     49  C   UNL     1      28.488  41.419   9.468  1.00  0.00     0.217 C 
ATOM     50  H   UNL     1      29.934  39.884   9.226  1.00  0.00     0.163 HD
ATOM     51  C   UNL     1      29.484  42.517   9.367  1.00  0.00     0.114 C 
ATOM     52  O   UNL     1      27.257  41.709   9.645  1.00  0.00    -0.275 OA
ENDBRANCH   7  48
ENDBRANCH   1   2
BRANCH   1  53
ATOM     53  O   UNL     1      30.292  37.974   7.479  1.00  0.00    -0.388 OA
ATOM     54  H   UNL     1      30.545  37.019   7.320  1.00  0.00     0.211 HD
ENDBRANCH   1  53
BRANCH   1  55
ATOM     55  C   UNL     1      28.453  37.118   6.299  1.00  0.00     0.165 C 
BRANCH  55  56
ATOM     56  O   UNL     1      29.243  36.006   6.335  1.00  0.00    -0.388 OA
ATOM     57  H   UNL     1      29.914  35.997   7.062  1.00  0.00     0.211 HD
ENDBRANCH  55  56
BRANCH  55  58
ATOM     58  C   UNL     1      28.443  37.719   4.921  1.00  0.00     0.154 C 
BRANCH  58  59
ATOM     59  N   UNL     1      27.363  38.620   4.643  1.00  0.00    -0.319 N 
ATOM     60  C   UNL     1      27.504  39.975   4.309  1.00  0.00     0.407 C 
ATOM     61  H   UNL     1      26.387  38.196   4.703  1.00  0.00     0.167 HD
ATOM     62  O   UNL     1      28.607  40.541   4.211  1.00  0.00    -0.225 OA
BRANCH  60  63
ATOM     63  O   UNL     1      26.365  40.774   4.063  1.00  0.00    -0.443 OA
BRANCH  63  64
ATOM     64  C   UNL     1      26.031  41.812   4.997  1.00  0.00     0.294 C 
BRANCH  64  65
ATOM     65  C   UNL     1      24.891  41.347   5.828  1.00  0.00     0.120 A 
ATOM     66  C   UNL     1      23.741  42.036   6.129  1.00  0.00     0.138 A 
ATOM     67  N   UNL     1      24.797  40.164   6.440  1.00  0.00    -0.132 NA
ATOM     68  N   UNL     1      22.997  41.232   6.917  1.00  0.00    -0.252 N 
ATOM     69  N   UNL     1      23.666  40.105   7.084  1.00  0.00    -0.067 NA
BRANCH  68  70
ATOM     70  C   UNL     1      21.713  41.588   7.447  1.00  0.00     0.151 C 
BRANCH  70  71
ATOM     71  C   UNL     1      21.721  42.004   8.890  1.00  0.00     0.086 C 
BRANCH  71  72
ATOM     72  C   UNL     1      21.126  40.879   9.736  1.00  0.00     0.251 C 
BRANCH  72  73
ATOM     73  O   UNL     1      22.135  39.955   9.930  1.00  0.00    -0.353 OA
BRANCH  73  74
ATOM     74  C   UNL     1      22.249  39.567  11.259  1.00  0.00     0.160 C 
ATOM     75  C   UNL     1      23.699  39.501  11.696  1.00  0.00     0.035 C 
ENDBRANCH  73  74
ENDBRANCH  72  73
BRANCH  72  76
ATOM     76  O   UNL     1      19.965  40.397   9.211  1.00  0.00    -0.353 OA
BRANCH  76  77
ATOM     77  C   UNL     1      18.809  41.061   9.522  1.00  0.00     0.160 C 
ATOM     78  C   UNL     1      17.632  40.139   9.307  1.00  0.00     0.035 C 
ENDBRANCH  76  77
ENDBRANCH  72  76
ENDBRANCH  71  72
ENDBRANCH  70  71
ENDBRANCH  68  70
ENDBRANCH  64  65
ENDBRANCH  63  64
ENDBRANCH  60  63
ENDBRANCH  58  59
ENDBRANCH  55  58
ENDBRANCH   1  55
TORSDOF 36
BEGIN_RES LYS A 131
REMARK  4 active torsions:
REMARK  status: ('A' for Active; 'I' for Inactive)
REMARK    1  A    between atoms: CA   and  CB  
REMARK    2  A    between atoms: CB   and  CG  
REMARK    3  A    between atoms: CG   and  CD  
REMARK    4  A    between atoms: CD   and  CE  
ROOT
ATOM      1  CA  LYS A 131      29.867  25.555  16.977  1.00 20.52     0.186 C 
ENDROOT
BRANCH   1   2
ATOM      2  CB  LYS A 131      28.345  25.722  17.026  1.00 20.94     0.034 C 
BRANCH   2   3
ATOM      3  CG  LYS A 131      27.599  24.420  16.774  1.00 22.96     0.005 C 
BRANCH   3   4
ATOM      4  CD  LYS A 131      26.841  23.958  17.987  1.00 24.33     0.041 C 
BRANCH   4   5
ATOM      5  CE  LYS A 131      25.606  23.178  17.548  1.00 26.91     0.338 C 
ATOM      6  NZ  LYS A 131      24.636  24.076  16.877  1.00 27.40     0.618 N 
ENDBRANCH   4   5
ENDBRANCH   3   4
ENDBRANCH   2   3
ENDBRANCH   1   2
END_RES LYS A 131
BEGIN_RES LYS A 135
REMARK  4 active torsions:
REMARK  status: ('A' for Active; 'I' for Inactive)
REMARK    5  A    between atoms: CA   and  CB  
REMARK    6  A    between atoms: CB   and  CG  
REMARK    7  A    between atoms: CG   and  CD  
REMARK    8  A    between atoms: CD   and  CE  
ROOT
ATOM      7  CA  LYS A 135      33.193  34.663   9.290  1.00 25.02     0.186 C 
ENDROOT
BRANCH   7   8
ATOM      8  CB  LYS A 135      32.060  35.360  10.034  1.00 26.63     0.034 C 
BRANCH   8   9
ATOM      9  CG  LYS A 135      30.695  35.061   9.470  1.00 29.45     0.005 C 
BRANCH   9  10
ATOM     10  CD  LYS A 135      29.784  34.488  10.545  1.00 32.00     0.041 C 
BRANCH  10  11
ATOM     11  CE  LYS A 135      30.234  34.941  11.921  1.00 34.25     0.338 C 
ATOM     12  NZ  LYS A 135      29.222  34.595  12.957  1.00 35.99     0.618 N 
ENDBRANCH  10  11
ENDBRANCH   9  10
ENDBRANCH   8   9
ENDBRANCH   7   8
END_RES LYS A 135
