REMARK VINA RESULT:    -5.229      7.017     13.507
REMARK INTER + INTRA:         -21.994
REMARK INTER:                 -11.321
REMARK INTRA:                 -10.673
REMARK UNBOUND:                -9.122
REMARK SMILES CC(=O)N[C@@H]1[C@@H](O)C[C@](OC[C@H]2O[C@@H](O[C@H]3[C@H](O)[C@@H](O)[C@H](OCCN=[N+]=[N-])O[C@@H]3CO)[C@H](O)[C@@H](O)[C@H]2O)(C(=O)O)O[C@H]1C(O)[C@H](O)CNC(=O)OCc1cn(-c2ccc(Cl)cc2)nn1
REMARK SMILES IDX 9 1 8 2 6 3 5 4 42 5 41 6 10 7 11 8 12 9 14 10 13 11 32 12
REMARK SMILES IDX 34 13 36 14 15 15 16 16 29 17 28 18 21 19 17 20 19 21 30 22
REMARK SMILES IDX 31 23 22 25 23 26 24 27 25 28 26 29 27 30 18 31 20 33 33 35
REMARK SMILES IDX 35 37 37 39 38 41 39 42 40 43 7 45 43 47 44 48 45 50 46 51
REMARK SMILES IDX 47 53 48 54 49 55 50 57 51 58 52 59 53 60 54 61 64 62 55 63
REMARK SMILES IDX 63 64 56 65 57 66 62 67 58 68 61 69 59 70 60 71 4 72 2 73
REMARK SMILES IDX 1 75 3 76
REMARK H PARENT 31 24 18 32 20 34 33 36 35 38 37 40 40 44 7 46 44 49 46 52
REMARK H PARENT 48 56 4 74
REMARK Flexibility Score: inf
ROOT
ATOM      1  C   UNL     1      30.766  29.788  21.321  1.00  0.00     0.272 C 
ATOM      2  C   UNL     1      30.638  28.597  20.464  1.00  0.00     0.113 C 
ATOM      3  C   UNL     1      29.954  27.396  20.976  1.00  0.00     0.145 C 
ATOM      4  C   UNL     1      29.305  27.689  22.312  1.00  0.00     0.142 C 
ATOM      5  C   UNL     1      30.391  28.438  23.115  1.00  0.00     0.178 C 
ATOM      6  O   UNL     1      30.235  29.755  22.584  1.00  0.00    -0.332 OA
ENDROOT
BRANCH   1   7
ATOM      7  O   UNL     1      30.177  30.874  20.615  1.00  0.00    -0.338 OA
BRANCH   7   8
ATOM      8  C   UNL     1      29.735  30.535  19.366  1.00  0.00     0.199 C 
BRANCH   8   9
ATOM      9  C   UNL     1      28.495  31.331  18.966  1.00  0.00     0.179 C 
ATOM     10  C   UNL     1      27.577  31.764  16.844  1.00  0.00     0.282 C 
ATOM     11  O   UNL     1      28.630  31.915  17.747  1.00  0.00    -0.341 OA
ATOM     12  C   UNL     1      27.383  30.326  16.600  1.00  0.00     0.202 C 
ATOM     13  C   UNL     1      27.013  29.636  17.905  1.00  0.00     0.179 C 
ATOM     14  C   UNL     1      27.238  30.503  19.103  1.00  0.00     0.177 C 
BRANCH  10  15
ATOM     15  O   UNL     1      27.970  32.547  15.761  1.00  0.00    -0.341 OA
BRANCH  15  16
ATOM     16  C   UNL     1      29.135  33.181  15.847  1.00  0.00     0.184 C 
ATOM     17  C   UNL     1      29.067  34.634  15.543  1.00  0.00     0.178 C 
ATOM     18  O   UNL     1      30.225  35.289  15.950  1.00  0.00    -0.341 OA
ATOM     19  C   UNL     1      31.378  34.852  15.383  1.00  0.00     0.281 C 
ATOM     20  C   UNL     1      30.241  32.620  14.929  1.00  0.00     0.180 C 
ATOM     21  C   UNL     1      31.164  33.694  14.478  1.00  0.00     0.202 C 
BRANCH  17  22
ATOM     22  C   UNL     1      27.884  35.384  16.071  1.00  0.00     0.191 C 
BRANCH  22  23
ATOM     23  O   UNL     1      27.341  36.252  15.124  1.00  0.00    -0.394 OA
ATOM     24  H   UNL     1      27.130  35.746  14.304  1.00  0.00     0.210 HD
ENDBRANCH  22  23
ENDBRANCH  17  22
BRANCH  19  25
ATOM     25  O   UNL     1      32.287  34.459  16.373  1.00  0.00    -0.350 OA
BRANCH  25  26
ATOM     26  C   UNL     1      31.994  35.043  17.596  1.00  0.00     0.169 C 
BRANCH  26  27
ATOM     27  C   UNL     1      31.698  34.057  18.684  1.00  0.00     0.119 C 
BRANCH  27  28
ATOM     28  N   UNL     1      30.385  34.400  19.224  1.00  0.00    -0.092 NA
ATOM     29  N   UNL     1      30.388  35.264  20.120  1.00  0.00     0.001 N 
ATOM     30  N   UNL     1      30.310  36.346  20.741  1.00  0.00    -0.003 NA
ENDBRANCH  27  28
ENDBRANCH  26  27
ENDBRANCH  25  26
ENDBRANCH  19  25
BRANCH  20  31
ATOM     31  O   UNL     1      30.939  31.690  15.680  1.00  0.00    -0.387 OA
ATOM     32  H   UNL     1      30.246  31.173  16.203  1.00  0.00     0.211 HD
ENDBRANCH  20  31
BRANCH  21  33
ATOM     33  O   UNL     1      30.857  34.160  13.183  1.00  0.00    -0.385 OA
ATOM     34  H   UNL     1      30.063  34.729  13.297  1.00  0.00     0.211 HD
ENDBRANCH  21  33
ENDBRANCH  15  16
ENDBRANCH  10  15
BRANCH  12  35
ATOM     35  O   UNL     1      26.407  30.002  15.655  1.00  0.00    -0.385 OA
ATOM     36  H   UNL     1      26.409  30.660  14.888  1.00  0.00     0.211 HD
ENDBRANCH  12  35
BRANCH  13  37
ATOM     37  O   UNL     1      27.694  28.422  17.960  1.00  0.00    -0.387 OA
ATOM     38  H   UNL     1      27.187  27.685  18.336  1.00  0.00     0.211 HD
ENDBRANCH  13  37
BRANCH  14  39
ATOM     39  O   UNL     1      27.455  29.689  20.242  1.00  0.00    -0.387 OA
ATOM     40  H   UNL     1      26.644  29.164  20.367  1.00  0.00     0.211 HD
ENDBRANCH  14  39
ENDBRANCH   8   9
ENDBRANCH   7   8
ENDBRANCH   1   7
BRANCH   1  41
ATOM     41  C   UNL     1      32.226  30.145  21.432  1.00  0.00     0.364 C 
ATOM     42  O   UNL     1      32.606  31.228  21.928  1.00  0.00    -0.246 OA
BRANCH  41  43
ATOM     43  O   UNL     1      33.169  29.257  20.977  1.00  0.00    -0.477 OA
ATOM     44  H   UNL     1      33.418  29.148  19.996  1.00  0.00     0.296 HD
ENDBRANCH  41  43
ENDBRANCH   1  41
BRANCH   3  45
ATOM     45  O   UNL     1      28.935  26.988  20.116  1.00  0.00    -0.391 OA
ATOM     46  H   UNL     1      28.793  26.031  20.248  1.00  0.00     0.211 HD
ENDBRANCH   3  45
BRANCH   5  47
ATOM     47  C   UNL     1      30.110  28.484  24.573  1.00  0.00     0.176 C 
BRANCH  47  48
ATOM     48  O   UNL     1      30.428  27.244  25.108  1.00  0.00    -0.388 OA
ATOM     49  H   UNL     1      29.856  26.503  24.792  1.00  0.00     0.211 HD
ENDBRANCH  47  48
BRANCH  47  50
ATOM     50  C   UNL     1      30.653  29.580  25.388  1.00  0.00     0.165 C 
BRANCH  50  51
ATOM     51  O   UNL     1      31.980  29.802  24.866  1.00  0.00    -0.388 OA
ATOM     52  H   UNL     1      32.232  29.058  24.270  1.00  0.00     0.211 HD
ENDBRANCH  50  51
BRANCH  50  53
ATOM     53  C   UNL     1      30.945  29.179  26.826  1.00  0.00     0.154 C 
BRANCH  53  54
ATOM     54  N   UNL     1      32.259  28.634  27.032  1.00  0.00    -0.319 N 
ATOM     55  C   UNL     1      32.380  27.328  27.572  1.00  0.00     0.407 C 
ATOM     56  H   UNL     1      33.140  29.154  26.806  1.00  0.00     0.167 HD
ATOM     57  O   UNL     1      31.366  26.638  27.891  1.00  0.00    -0.225 OA
BRANCH  55  58
ATOM     58  O   UNL     1      33.623  26.757  27.771  1.00  0.00    -0.443 OA
BRANCH  58  59
ATOM     59  C   UNL     1      34.314  26.059  26.731  1.00  0.00     0.294 C 
BRANCH  59  60
ATOM     60  C   UNL     1      34.403  26.912  25.510  1.00  0.00     0.121 A 
ATOM     61  C   UNL     1      35.450  27.771  25.209  1.00  0.00     0.144 A 
ATOM     62  N   UNL     1      33.521  27.011  24.506  1.00  0.00    -0.131 NA
ATOM     63  N   UNL     1      35.173  28.360  24.039  1.00  0.00    -0.220 N 
ATOM     64  N   UNL     1      34.024  27.891  23.645  1.00  0.00    -0.062 NA
BRANCH  63  65
ATOM     65  C   UNL     1      36.048  29.312  23.429  1.00  0.00     0.066 A 
ATOM     66  C   UNL     1      35.587  30.528  22.993  1.00  0.00     0.030 A 
ATOM     67  C   UNL     1      37.376  29.026  23.267  1.00  0.00     0.030 A 
ATOM     68  C   UNL     1      36.417  31.478  22.394  1.00  0.00     0.023 A 
ATOM     69  C   UNL     1      38.224  29.952  22.675  1.00  0.00     0.023 A 
ATOM     70  C   UNL     1      37.745  31.186  22.234  1.00  0.00     0.041 A 
ATOM     71  Cl  UNL     1      38.835  32.354  21.482  1.00  0.00    -0.084 Cl
ENDBRANCH  63  65
ENDBRANCH  59  60
ENDBRANCH  58  59
ENDBRANCH  55  58
ENDBRANCH  53  54
ENDBRANCH  50  53
ENDBRANCH  47  50
ENDBRANCH   5  47
BRANCH   4  72
ATOM     72  N   UNL     1      28.819  26.512  22.925  1.00  0.00    -0.348 N 
ATOM     73  C   UNL     1      27.442  26.441  23.339  1.00  0.00     0.217 C 
ATOM     74  H   UNL     1      29.375  25.660  23.100  1.00  0.00     0.163 HD
ATOM     75  C   UNL     1      26.897  25.215  23.989  1.00  0.00     0.114 C 
ATOM     76  O   UNL     1      26.707  27.442  23.138  1.00  0.00    -0.275 OA
ENDBRANCH   4  72
TORSDOF 30
BEGIN_RES LYS A 131
REMARK  4 active torsions:
REMARK  status: ('A' for Active; 'I' for Inactive)
REMARK    1  A    between atoms: CA   and  CB  
REMARK    2  A    between atoms: CB   and  CG  
REMARK    3  A    between atoms: CG   and  CD  
REMARK    4  A    between atoms: CD   and  CE  
ROOT
ATOM      1  CA  LYS A 131      29.867  25.555  16.977  1.00 20.52     0.186 C 
ENDROOT
BRANCH   1   2
ATOM      2  CB  LYS A 131      28.345  25.722  17.026  1.00 20.94     0.034 C 
BRANCH   2   3
ATOM      3  CG  LYS A 131      27.601  24.401  16.902  1.00 22.96     0.005 C 
BRANCH   3   4
ATOM      4  CD  LYS A 131      26.677  24.160  18.063  1.00 24.33     0.041 C 
BRANCH   4   5
ATOM      5  CE  LYS A 131      25.824  25.401  18.301  1.00 26.91     0.338 C 
ATOM      6  NZ  LYS A 131      25.835  25.771  19.736  1.00 27.40     0.618 N 
ENDBRANCH   4   5
ENDBRANCH   3   4
ENDBRANCH   2   3
ENDBRANCH   1   2
END_RES LYS A 131
BEGIN_RES LYS A 135
REMARK  4 active torsions:
REMARK  status: ('A' for Active; 'I' for Inactive)
REMARK    5  A    between atoms: CA   and  CB  
REMARK    6  A    between atoms: CB   and  CG  
REMARK    7  A    between atoms: CG   and  CD  
REMARK    8  A    between atoms: CD   and  CE  
ROOT
ATOM      7  CA  LYS A 135      33.193  34.663   9.290  1.00 25.02     0.186 C 
ENDROOT
BRANCH   7   8
ATOM      8  CB  LYS A 135      32.060  35.360  10.034  1.00 26.63     0.034 C 
BRANCH   8   9
ATOM      9  CG  LYS A 135      30.811  35.530   9.208  1.00 29.45     0.005 C 
BRANCH   9  10
ATOM     10  CD  LYS A 135      30.153  34.184   8.946  1.00 32.00     0.041 C 
BRANCH  10  11
ATOM     11  CE  LYS A 135      28.704  34.370   8.538  1.00 34.25     0.338 C 
ATOM     12  NZ  LYS A 135      27.784  33.743   9.527  1.00 35.99     0.618 N 
ENDBRANCH  10  11
ENDBRANCH   9  10
ENDBRANCH   8   9
ENDBRANCH   7   8
END_RES LYS A 135
