REMARK VINA RESULT:    -3.922      2.557      8.273
REMARK INTER + INTRA:         -22.582
REMARK INTER:                 -10.589
REMARK INTRA:                 -11.992
REMARK UNBOUND:               -12.699
REMARK SMILES CC(=O)N[C@@H]1[C@@H](O)C[C@](OC[C@H]2O[C@@H](O[C@H]3[C@H](O)[C@@H](O)[C@H](OCCN=[N+]=[N-])O[C@@H]3CO)[C@H](O)[C@@H](O)[C@H]2O)(C(=O)O)O[C@H]1C(O)[C@H](O)CNC(=O)OCc1cn(Cc2ccc(Br)cc2)nn1
REMARK SMILES IDX 9 1 8 2 6 3 5 4 42 5 41 6 10 7 11 8 12 9 14 10 13 11 32 12
REMARK SMILES IDX 34 13 36 14 15 15 16 16 29 17 28 18 21 19 17 20 19 21 30 22
REMARK SMILES IDX 31 23 22 25 23 26 24 27 25 28 26 29 27 30 18 31 20 33 33 35
REMARK SMILES IDX 35 37 37 39 38 41 39 42 40 43 7 45 43 47 44 48 45 50 46 51
REMARK SMILES IDX 47 53 48 54 49 55 50 57 51 58 52 59 53 60 54 61 65 62 55 63
REMARK SMILES IDX 64 64 56 65 57 66 58 67 63 68 59 69 62 70 60 71 61 72 4 73
REMARK SMILES IDX 2 74 1 76 3 77
REMARK H PARENT 31 24 18 32 20 34 33 36 35 38 37 40 40 44 7 46 44 49 46 52
REMARK H PARENT 48 56 4 75
REMARK Flexibility Score: inf
ROOT
ATOM      1  C   UNL     1      28.096  33.347  15.459  1.00  0.00     0.272 C 
ATOM      2  C   UNL     1      29.295  33.456  14.590  1.00  0.00     0.113 C 
ATOM      3  C   UNL     1      30.624  33.579  15.225  1.00  0.00     0.145 C 
ATOM      4  C   UNL     1      30.573  34.067  16.697  1.00  0.00     0.142 C 
ATOM      5  C   UNL     1      29.329  34.912  16.712  1.00  0.00     0.178 C 
ATOM      6  O   UNL     1      28.292  33.936  16.721  1.00  0.00    -0.332 OA
ENDROOT
BRANCH   1   7
ATOM      7  O   UNL     1      27.390  32.223  15.509  1.00  0.00    -0.338 OA
BRANCH   7   8
ATOM      8  C   UNL     1      27.619  30.965  15.483  1.00  0.00     0.199 C 
BRANCH   8   9
ATOM      9  C   UNL     1      27.099  30.158  16.649  1.00  0.00     0.179 C 
ATOM     10  C   UNL     1      27.652  29.040  18.544  1.00  0.00     0.282 C 
ATOM     11  O   UNL     1      28.097  29.581  17.389  1.00  0.00    -0.341 OA
ATOM     12  C   UNL     1      26.150  28.884  18.689  1.00  0.00     0.202 C 
ATOM     13  C   UNL     1      25.421  30.165  18.348  1.00  0.00     0.179 C 
ATOM     14  C   UNL     1      26.351  31.108  17.598  1.00  0.00     0.177 C 
BRANCH  10  15
ATOM     15  O   UNL     1      28.112  29.559  19.708  1.00  0.00    -0.341 OA
BRANCH  15  16
ATOM     16  C   UNL     1      29.363  29.404  20.162  1.00  0.00     0.184 C 
ATOM     17  C   UNL     1      29.543  28.545  21.371  1.00  0.00     0.178 C 
ATOM     18  O   UNL     1      30.011  29.216  22.468  1.00  0.00    -0.341 OA
ATOM     19  C   UNL     1      31.262  29.791  22.300  1.00  0.00     0.281 C 
ATOM     20  C   UNL     1      29.971  30.764  20.434  1.00  0.00     0.180 C 
ATOM     21  C   UNL     1      31.356  30.550  20.991  1.00  0.00     0.202 C 
BRANCH  17  22
ATOM     22  C   UNL     1      30.411  27.360  21.018  1.00  0.00     0.191 C 
BRANCH  22  23
ATOM     23  O   UNL     1      30.389  26.386  22.036  1.00  0.00    -0.394 OA
ATOM     24  H   UNL     1      29.939  26.718  22.833  1.00  0.00     0.210 HD
ENDBRANCH  22  23
ENDBRANCH  17  22
BRANCH  19  25
ATOM     25  O   UNL     1      32.317  28.906  22.443  1.00  0.00    -0.350 OA
BRANCH  25  26
ATOM     26  C   UNL     1      33.207  29.201  23.441  1.00  0.00     0.169 C 
BRANCH  26  27
ATOM     27  C   UNL     1      34.602  28.711  23.183  1.00  0.00     0.119 C 
BRANCH  27  28
ATOM     28  N   UNL     1      35.514  29.842  23.064  1.00  0.00    -0.092 NA
ATOM     29  N   UNL     1      35.145  30.872  22.504  1.00  0.00     0.001 N 
ATOM     30  N   UNL     1      34.982  31.880  21.779  1.00  0.00    -0.003 NA
ENDBRANCH  27  28
ENDBRANCH  26  27
ENDBRANCH  25  26
ENDBRANCH  19  25
BRANCH  20  31
ATOM     31  O   UNL     1      30.123  31.392  19.182  1.00  0.00    -0.387 OA
ATOM     32  H   UNL     1      29.253  31.785  18.894  1.00  0.00     0.211 HD
ENDBRANCH  20  31
BRANCH  21  33
ATOM     33  O   UNL     1      32.057  31.742  21.132  1.00  0.00    -0.385 OA
ATOM     34  H   UNL     1      32.948  31.608  20.719  1.00  0.00     0.211 HD
ENDBRANCH  21  33
ENDBRANCH  15  16
ENDBRANCH  10  15
BRANCH  12  35
ATOM     35  O   UNL     1      25.624  27.848  17.938  1.00  0.00    -0.385 OA
ATOM     36  H   UNL     1      26.289  27.206  17.597  1.00  0.00     0.211 HD
ENDBRANCH  12  35
BRANCH  13  37
ATOM     37  O   UNL     1      24.872  30.794  19.459  1.00  0.00    -0.387 OA
ATOM     38  H   UNL     1      24.032  31.222  19.163  1.00  0.00     0.211 HD
ENDBRANCH  13  37
BRANCH  14  39
ATOM     39  O   UNL     1      27.322  31.651  18.446  1.00  0.00    -0.387 OA
ATOM     40  H   UNL     1      27.033  31.566  19.376  1.00  0.00     0.211 HD
ENDBRANCH  14  39
ENDBRANCH   8   9
ENDBRANCH   7   8
ENDBRANCH   1   7
BRANCH   1  41
ATOM     41  C   UNL     1      27.077  34.318  14.839  1.00  0.00     0.364 C 
ATOM     42  O   UNL     1      26.343  34.947  15.599  1.00  0.00    -0.246 OA
BRANCH  41  43
ATOM     43  O   UNL     1      26.962  34.503  13.486  1.00  0.00    -0.477 OA
ATOM     44  H   UNL     1      27.687  35.039  12.984  1.00  0.00     0.296 HD
ENDBRANCH  41  43
ENDBRANCH   1  41
BRANCH   3  45
ATOM     45  O   UNL     1      31.476  32.495  15.093  1.00  0.00    -0.391 OA
ATOM     46  H   UNL     1      31.674  32.369  14.140  1.00  0.00     0.211 HD
ENDBRANCH   3  45
BRANCH   5  47
ATOM     47  C   UNL     1      29.139  35.843  17.849  1.00  0.00     0.176 C 
BRANCH  47  48
ATOM     48  O   UNL     1      28.831  37.106  17.464  1.00  0.00    -0.388 OA
ATOM     49  H   UNL     1      29.510  37.511  16.910  1.00  0.00     0.211 HD
ENDBRANCH  47  48
BRANCH  47  50
ATOM     50  C   UNL     1      28.434  35.385  19.057  1.00  0.00     0.165 C 
BRANCH  50  51
ATOM     51  O   UNL     1      28.774  34.070  19.414  1.00  0.00    -0.388 OA
ATOM     52  H   UNL     1      29.502  33.994  20.047  1.00  0.00     0.211 HD
ENDBRANCH  50  51
BRANCH  50  53
ATOM     53  C   UNL     1      26.987  35.627  19.207  1.00  0.00     0.154 C 
BRANCH  53  54
ATOM     54  N   UNL     1      26.124  34.588  18.671  1.00  0.00    -0.319 N 
ATOM     55  C   UNL     1      24.796  34.408  19.135  1.00  0.00     0.407 C 
ATOM     56  H   UNL     1      26.435  33.925  17.918  1.00  0.00     0.167 HD
ATOM     57  O   UNL     1      24.329  35.178  20.036  1.00  0.00    -0.225 OA
BRANCH  55  58
ATOM     58  O   UNL     1      23.944  33.416  18.660  1.00  0.00    -0.443 OA
BRANCH  58  59
ATOM     59  C   UNL     1      22.783  33.772  17.885  1.00  0.00     0.294 C 
BRANCH  59  60
ATOM     60  C   UNL     1      23.052  33.762  16.438  1.00  0.00     0.120 A 
ATOM     61  C   UNL     1      23.455  32.659  15.711  1.00  0.00     0.138 A 
ATOM     62  N   UNL     1      22.968  34.780  15.581  1.00  0.00    -0.132 NA
ATOM     63  N   UNL     1      23.602  33.039  14.436  1.00  0.00    -0.248 N 
ATOM     64  N   UNL     1      23.303  34.321  14.389  1.00  0.00    -0.067 NA
BRANCH  63  65
ATOM     65  C   UNL     1      23.990  32.236  13.293  1.00  0.00     0.181 C 
BRANCH  65  66
ATOM     66  C   UNL     1      22.989  31.213  12.915  1.00  0.00    -0.026 A 
ATOM     67  C   UNL     1      21.665  31.626  12.736  1.00  0.00     0.007 A 
ATOM     68  C   UNL     1      23.275  29.893  12.715  1.00  0.00     0.007 A 
ATOM     69  C   UNL     1      20.694  30.711  12.368  1.00  0.00     0.016 A 
ATOM     70  C   UNL     1      22.305  28.960  12.343  1.00  0.00     0.016 A 
ATOM     71  C   UNL     1      21.014  29.379  12.171  1.00  0.00     0.017 A 
ATOM     72  Br  UNL     1      19.637  28.138  11.657  1.00  0.00    -0.051 Br
ENDBRANCH  65  66
ENDBRANCH  63  65
ENDBRANCH  59  60
ENDBRANCH  58  59
ENDBRANCH  55  58
ENDBRANCH  53  54
ENDBRANCH  50  53
ENDBRANCH  47  50
ENDBRANCH   5  47
BRANCH   4  73
ATOM     73  N   UNL     1      31.794  34.705  17.029  1.00  0.00    -0.348 N 
ATOM     74  C   UNL     1      32.320  34.617  18.341  1.00  0.00     0.217 C 
ATOM     75  H   UNL     1      32.324  35.228  16.312  1.00  0.00     0.163 HD
ATOM     76  C   UNL     1      33.572  35.229  18.793  1.00  0.00     0.114 C 
ATOM     77  O   UNL     1      31.655  33.949  19.211  1.00  0.00    -0.275 OA
ENDBRANCH   4  73
TORSDOF 31
BEGIN_RES LYS A 131
REMARK  4 active torsions:
REMARK  status: ('A' for Active; 'I' for Inactive)
REMARK    1  A    between atoms: CA   and  CB  
REMARK    2  A    between atoms: CB   and  CG  
REMARK    3  A    between atoms: CG   and  CD  
REMARK    4  A    between atoms: CD   and  CE  
ROOT
ATOM      1  CA  LYS A 131      29.867  25.555  16.977  1.00 20.52     0.186 C 
ENDROOT
BRANCH   1   2
ATOM      2  CB  LYS A 131      28.345  25.722  17.026  1.00 20.94     0.034 C 
BRANCH   2   3
ATOM      3  CG  LYS A 131      27.599  24.420  16.775  1.00 22.96     0.005 C 
BRANCH   3   4
ATOM      4  CD  LYS A 131      26.860  23.947  17.996  1.00 24.33     0.041 C 
BRANCH   4   5
ATOM      5  CE  LYS A 131      25.534  23.320  17.576  1.00 26.91     0.338 C 
ATOM      6  NZ  LYS A 131      24.678  24.322  16.899  1.00 27.40     0.618 N 
ENDBRANCH   4   5
ENDBRANCH   3   4
ENDBRANCH   2   3
ENDBRANCH   1   2
END_RES LYS A 131
BEGIN_RES LYS A 135
REMARK  4 active torsions:
REMARK  status: ('A' for Active; 'I' for Inactive)
REMARK    5  A    between atoms: CA   and  CB  
REMARK    6  A    between atoms: CB   and  CG  
REMARK    7  A    between atoms: CG   and  CD  
REMARK    8  A    between atoms: CD   and  CE  
ROOT
ATOM      7  CA  LYS A 135      33.193  34.663   9.290  1.00 25.02     0.186 C 
ENDROOT
BRANCH   7   8
ATOM      8  CB  LYS A 135      32.060  35.360  10.034  1.00 26.63     0.034 C 
BRANCH   8   9
ATOM      9  CG  LYS A 135      30.744  35.321   9.301  1.00 29.45     0.005 C 
BRANCH   9  10
ATOM     10  CD  LYS A 135      29.689  34.604  10.130  1.00 32.00     0.041 C 
BRANCH  10  11
ATOM     11  CE  LYS A 135      28.650  33.962   9.230  1.00 34.25     0.338 C 
ATOM     12  NZ  LYS A 135      27.318  33.922   9.893  1.00 35.99     0.618 N 
ENDBRANCH  10  11
ENDBRANCH   9  10
ENDBRANCH   8   9
ENDBRANCH   7   8
END_RES LYS A 135
