REMARK VINA RESULT:    -4.667      4.829      8.240
REMARK INTER + INTRA:         -22.973
REMARK INTER:                 -11.248
REMARK INTRA:                 -11.725
REMARK UNBOUND:               -11.213
REMARK SMILES CC(=O)N[C@@H]1[C@@H](O)C[C@](OC[C@H]2O[C@@H](O[C@H]3[C@H](O)[C@@H](O)[C@H](OCCN=[N+]=[N-])O[C@@H]3CO)[C@H](O)[C@@H](O)[C@H]2O)(C(=O)O)O[C@H]1C(O)[C@H](O)CNC(=O)OCc1cn(CC2=CC[C@H]3C[C@@H]2C3(C)C)nn1
REMARK SMILES IDX 9 1 8 2 6 3 5 4 42 5 41 6 10 7 11 8 12 9 14 10 13 11 32 12
REMARK SMILES IDX 34 13 36 14 15 15 16 16 29 17 28 18 21 19 17 20 19 21 30 22
REMARK SMILES IDX 31 23 22 25 23 26 24 27 25 28 26 29 27 30 18 31 20 33 33 35
REMARK SMILES IDX 35 37 37 39 38 41 39 42 40 43 7 45 43 47 44 48 45 50 46 51
REMARK SMILES IDX 47 53 48 54 49 55 50 57 51 58 52 59 53 60 54 61 67 62 55 63
REMARK SMILES IDX 66 64 56 65 57 66 58 67 62 68 59 69 61 70 63 71 60 72 64 73
REMARK SMILES IDX 65 74 4 75 2 76 1 78 3 79
REMARK H PARENT 31 24 18 32 20 34 33 36 35 38 37 40 40 44 7 46 44 49 46 52
REMARK H PARENT 48 56 4 77
REMARK Flexibility Score: inf
ROOT
ATOM      1  C   UNL     1      29.528  31.521  17.973  1.00  0.00     0.272 C 
ATOM      2  C   UNL     1      29.173  32.651  18.884  1.00  0.00     0.113 C 
ATOM      3  C   UNL     1      30.285  32.859  19.927  1.00  0.00     0.145 C 
ATOM      4  C   UNL     1      30.429  31.654  20.785  1.00  0.00     0.142 C 
ATOM      5  C   UNL     1      29.689  30.528  20.092  1.00  0.00     0.178 C 
ATOM      6  O   UNL     1      30.004  30.436  18.785  1.00  0.00    -0.332 OA
ENDROOT
BRANCH   1   7
ATOM      7  O   UNL     1      30.504  31.728  17.104  1.00  0.00    -0.338 OA
BRANCH   7   8
ATOM      8  C   UNL     1      30.466  31.802  15.798  1.00  0.00     0.199 C 
BRANCH   8   9
ATOM      9  C   UNL     1      30.436  33.025  14.984  1.00  0.00     0.179 C 
ATOM     10  C   UNL     1      28.890  34.563  14.213  1.00  0.00     0.282 C 
ATOM     11  O   UNL     1      29.146  33.605  15.187  1.00  0.00    -0.341 OA
ATOM     12  C   UNL     1      30.004  35.449  13.880  1.00  0.00     0.202 C 
ATOM     13  C   UNL     1      31.337  35.197  14.464  1.00  0.00     0.179 C 
ATOM     14  C   UNL     1      31.330  34.148  15.547  1.00  0.00     0.177 C 
BRANCH  10  15
ATOM     15  O   UNL     1      27.826  35.318  14.743  1.00  0.00    -0.341 OA
BRANCH  15  16
ATOM     16  C   UNL     1      26.701  35.291  13.938  1.00  0.00     0.184 C 
ATOM     17  C   UNL     1      26.063  36.649  13.894  1.00  0.00     0.178 C 
ATOM     18  O   UNL     1      24.760  36.649  13.426  1.00  0.00    -0.341 OA
ATOM     19  C   UNL     1      24.315  35.485  12.871  1.00  0.00     0.281 C 
ATOM     20  C   UNL     1      25.694  34.360  14.621  1.00  0.00     0.180 C 
ATOM     21  C   UNL     1      24.457  34.287  13.778  1.00  0.00     0.202 C 
BRANCH  17  22
ATOM     22  C   UNL     1      26.914  37.539  12.980  1.00  0.00     0.191 C 
BRANCH  22  23
ATOM     23  O   UNL     1      27.460  36.734  11.991  1.00  0.00    -0.394 OA
ATOM     24  H   UNL     1      26.709  36.222  11.561  1.00  0.00     0.210 HD
ENDBRANCH  22  23
ENDBRANCH  17  22
BRANCH  19  25
ATOM     25  O   UNL     1      24.952  35.206  11.655  1.00  0.00    -0.350 OA
BRANCH  25  26
ATOM     26  C   UNL     1      24.081  35.330  10.571  1.00  0.00     0.169 C 
BRANCH  26  27
ATOM     27  C   UNL     1      24.346  36.721   9.991  1.00  0.00     0.119 C 
BRANCH  27  28
ATOM     28  N   UNL     1      25.283  36.612   8.894  1.00  0.00    -0.092 NA
ATOM     29  N   UNL     1      26.400  37.096   8.940  1.00  0.00     0.001 N 
ATOM     30  N   UNL     1      27.468  37.718   8.973  1.00  0.00    -0.003 NA
ENDBRANCH  27  28
ENDBRANCH  26  27
ENDBRANCH  25  26
ENDBRANCH  19  25
BRANCH  20  31
ATOM     31  O   UNL     1      26.237  33.066  14.718  1.00  0.00    -0.387 OA
ATOM     32  H   UNL     1      27.061  33.080  15.250  1.00  0.00     0.211 HD
ENDBRANCH  20  31
BRANCH  21  33
ATOM     33  O   UNL     1      23.300  34.111  14.535  1.00  0.00    -0.385 OA
ATOM     34  H   UNL     1      22.963  33.184  14.370  1.00  0.00     0.211 HD
ENDBRANCH  21  33
ENDBRANCH  15  16
ENDBRANCH  10  15
BRANCH  12  35
ATOM     35  O   UNL     1      30.148  35.432  12.466  1.00  0.00    -0.385 OA
ATOM     36  H   UNL     1      31.103  35.437  12.202  1.00  0.00     0.211 HD
ENDBRANCH  12  35
BRANCH  13  37
ATOM     37  O   UNL     1      31.969  36.377  14.870  1.00  0.00    -0.387 OA
ATOM     38  H   UNL     1      32.946  36.321  14.688  1.00  0.00     0.211 HD
ENDBRANCH  13  37
BRANCH  14  39
ATOM     39  O   UNL     1      30.652  34.693  16.657  1.00  0.00    -0.387 OA
ATOM     40  H   UNL     1      30.377  33.970  17.274  1.00  0.00     0.211 HD
ENDBRANCH  14  39
ENDBRANCH   8   9
ENDBRANCH   7   8
ENDBRANCH   1   7
BRANCH   1  41
ATOM     41  C   UNL     1      28.296  30.921  17.396  1.00  0.00     0.364 C 
ATOM     42  O   UNL     1      28.168  29.647  17.352  1.00  0.00    -0.246 OA
BRANCH  41  43
ATOM     43  O   UNL     1      27.270  31.647  16.893  1.00  0.00    -0.477 OA
ATOM     44  H   UNL     1      26.756  31.491  16.042  1.00  0.00     0.296 HD
ENDBRANCH  41  43
ENDBRANCH   1  41
BRANCH   3  45
ATOM     45  O   UNL     1      31.451  32.953  19.152  1.00  0.00    -0.391 OA
ATOM     46  H   UNL     1      32.225  32.879  19.764  1.00  0.00     0.211 HD
ENDBRANCH   3  45
BRANCH   5  47
ATOM     47  C   UNL     1      30.028  29.186  20.746  1.00  0.00     0.176 C 
BRANCH  47  48
ATOM     48  O   UNL     1      31.082  28.589  20.103  1.00  0.00    -0.388 OA
ATOM     49  H   UNL     1      31.857  29.191  19.924  1.00  0.00     0.211 HD
ENDBRANCH  47  48
BRANCH  47  50
ATOM     50  C   UNL     1      28.826  28.290  20.772  1.00  0.00     0.165 C 
BRANCH  50  51
ATOM     51  O   UNL     1      28.711  27.774  19.449  1.00  0.00    -0.388 OA
ATOM     52  H   UNL     1      28.513  28.598  18.903  1.00  0.00     0.211 HD
ENDBRANCH  50  51
BRANCH  50  53
ATOM     53  C   UNL     1      27.563  29.050  21.022  1.00  0.00     0.154 C 
BRANCH  53  54
ATOM     54  N   UNL     1      26.617  29.024  19.953  1.00  0.00    -0.319 N 
ATOM     55  C   UNL     1      25.634  30.036  19.843  1.00  0.00     0.407 C 
ATOM     56  H   UNL     1      26.666  28.249  19.246  1.00  0.00     0.167 HD
ATOM     57  O   UNL     1      25.587  30.952  20.674  1.00  0.00    -0.225 OA
BRANCH  55  58
ATOM     58  O   UNL     1      24.716  30.022  18.811  1.00  0.00    -0.443 OA
BRANCH  58  59
ATOM     59  C   UNL     1      24.606  29.069  17.807  1.00  0.00     0.294 C 
BRANCH  59  60
ATOM     60  C   UNL     1      24.416  29.630  16.438  1.00  0.00     0.120 A 
ATOM     61  C   UNL     1      24.075  28.959  15.287  1.00  0.00     0.138 A 
ATOM     62  N   UNL     1      24.541  30.937  16.078  1.00  0.00    -0.132 NA
ATOM     63  N   UNL     1      24.001  29.838  14.285  1.00  0.00    -0.248 N 
ATOM     64  N   UNL     1      24.287  31.023  14.789  1.00  0.00    -0.067 NA
BRANCH  63  65
ATOM     65  C   UNL     1      23.662  29.556  12.878  1.00  0.00     0.177 C 
BRANCH  65  66
ATOM     66  C   UNL     1      22.195  29.850  12.763  1.00  0.00    -0.049 C 
ATOM     67  C   UNL     1      21.766  31.082  12.421  1.00  0.00    -0.025 C 
ATOM     68  C   UNL     1      21.164  28.832  13.007  1.00  0.00     0.023 C 
ATOM     69  C   UNL     1      20.317  31.375  12.471  1.00  0.00     0.031 C 
ATOM     70  C   UNL     1      20.114  28.997  11.899  1.00  0.00     0.013 C 
ATOM     71  C   UNL     1      20.142  29.371  13.961  1.00  0.00    -0.026 C 
ATOM     72  C   UNL     1      19.540  30.124  12.767  1.00  0.00    -0.000 C 
ATOM     73  C   UNL     1      19.145  28.353  14.459  1.00  0.00     0.012 C 
ATOM     74  C   UNL     1      20.629  30.234  15.076  1.00  0.00     0.012 C 
ENDBRANCH  65  66
ENDBRANCH  63  65
ENDBRANCH  59  60
ENDBRANCH  58  59
ENDBRANCH  55  58
ENDBRANCH  53  54
ENDBRANCH  50  53
ENDBRANCH  47  50
ENDBRANCH   5  47
BRANCH   4  75
ATOM     75  N   UNL     1      29.939  31.745  22.116  1.00  0.00    -0.348 N 
ATOM     76  C   UNL     1      30.693  31.677  23.296  1.00  0.00     0.217 C 
ATOM     77  H   UNL     1      28.890  31.878  22.209  1.00  0.00     0.163 HD
ATOM     78  C   UNL     1      30.048  31.788  24.630  1.00  0.00     0.114 C 
ATOM     79  O   UNL     1      31.920  31.521  23.172  1.00  0.00    -0.275 OA
ENDBRANCH   4  75
TORSDOF 31
BEGIN_RES LYS A 131
REMARK  4 active torsions:
REMARK  status: ('A' for Active; 'I' for Inactive)
REMARK    1  A    between atoms: CA   and  CB  
REMARK    2  A    between atoms: CB   and  CG  
REMARK    3  A    between atoms: CG   and  CD  
REMARK    4  A    between atoms: CD   and  CE  
ROOT
ATOM      1  CA  LYS A 131      29.867  25.555  16.977  1.00 20.52     0.186 C 
ENDROOT
BRANCH   1   2
ATOM      2  CB  LYS A 131      28.345  25.722  17.026  1.00 20.94     0.034 C 
BRANCH   2   3
ATOM      3  CG  LYS A 131      27.601  24.401  16.906  1.00 22.96     0.005 C 
BRANCH   3   4
ATOM      4  CD  LYS A 131      26.589  24.219  18.003  1.00 24.33     0.041 C 
BRANCH   4   5
ATOM      5  CE  LYS A 131      25.296  24.933  17.625  1.00 26.91     0.338 C 
ATOM      6  NZ  LYS A 131      24.406  24.027  16.861  1.00 27.40     0.618 N 
ENDBRANCH   4   5
ENDBRANCH   3   4
ENDBRANCH   2   3
ENDBRANCH   1   2
END_RES LYS A 131
BEGIN_RES LYS A 135
REMARK  4 active torsions:
REMARK  status: ('A' for Active; 'I' for Inactive)
REMARK    5  A    between atoms: CA   and  CB  
REMARK    6  A    between atoms: CB   and  CG  
REMARK    7  A    between atoms: CG   and  CD  
REMARK    8  A    between atoms: CD   and  CE  
ROOT
ATOM      7  CA  LYS A 135      33.193  34.663   9.290  1.00 25.02     0.186 C 
ENDROOT
BRANCH   7   8
ATOM      8  CB  LYS A 135      32.060  35.360  10.034  1.00 26.63     0.034 C 
BRANCH   8   9
ATOM      9  CG  LYS A 135      30.801  35.502   9.218  1.00 29.45     0.005 C 
BRANCH   9  10
ATOM     10  CD  LYS A 135      30.134  34.150   9.021  1.00 32.00     0.041 C 
BRANCH  10  11
ATOM     11  CE  LYS A 135      28.676  34.325   8.641  1.00 34.25     0.338 C 
ATOM     12  NZ  LYS A 135      27.778  33.797   9.705  1.00 35.99     0.618 N 
ENDBRANCH  10  11
ENDBRANCH   9  10
ENDBRANCH   8   9
ENDBRANCH   7   8
END_RES LYS A 135
