REMARK VINA RESULT:    -5.964      0.000      0.000
REMARK INTER + INTRA:         -24.882
REMARK INTER:                 -12.461
REMARK INTRA:                 -12.421
REMARK UNBOUND:                -9.852
REMARK SMILES CC(=O)N[C@@H]1[C@@H](O)C[C@](OC[C@H]2O[C@@H](O[C@H]3[C@H](O)[C@@H](O)[C@H](OCCN=[N+]=[N-])O[C@@H]3CO)[C@H](O)[C@@H](O)[C@H]2O)(C(=O)O)O[C@H]1C(O)[C@H](O)CNC(=O)OCc1cn(Cc2ccc3c(c2)OCO3)nn1
REMARK SMILES IDX 9 1 8 2 6 3 5 4 42 5 41 6 10 7 11 8 12 9 14 10 13 11 32 12
REMARK SMILES IDX 34 13 36 14 15 15 16 16 29 17 28 18 21 19 17 20 19 21 30 22
REMARK SMILES IDX 31 23 22 25 23 26 24 27 25 28 26 29 27 30 18 31 20 33 33 35
REMARK SMILES IDX 35 37 37 39 38 41 39 42 40 43 7 45 43 47 44 48 45 50 46 51
REMARK SMILES IDX 47 53 48 54 49 55 50 57 51 58 52 59 53 60 54 61 67 62 55 63
REMARK SMILES IDX 66 64 56 65 57 66 58 67 62 68 59 69 61 70 60 71 63 72 65 73
REMARK SMILES IDX 64 74 4 75 2 76 1 78 3 79
REMARK H PARENT 31 24 18 32 20 34 33 36 35 38 37 40 40 44 7 46 44 49 46 52
REMARK H PARENT 48 56 4 77
REMARK Flexibility Score: inf
ROOT
ATOM      1  C   UNL     1      25.958  30.143  18.016  1.00  0.00     0.272 C 
ATOM      2  C   UNL     1      26.514  29.420  16.805  1.00  0.00     0.113 C 
ATOM      3  C   UNL     1      26.730  30.403  15.694  1.00  0.00     0.145 C 
ATOM      4  C   UNL     1      25.330  30.967  15.338  1.00  0.00     0.142 C 
ATOM      5  C   UNL     1      24.736  31.499  16.593  1.00  0.00     0.178 C 
ATOM      6  O   UNL     1      25.574  31.424  17.703  1.00  0.00    -0.332 OA
ENDROOT
BRANCH   1   7
ATOM      7  O   UNL     1      26.888  30.126  19.068  1.00  0.00    -0.338 OA
BRANCH   7   8
ATOM      8  C   UNL     1      27.935  29.276  18.947  1.00  0.00     0.199 C 
BRANCH   8   9
ATOM      9  C   UNL     1      29.206  29.995  19.428  1.00  0.00     0.179 C 
ATOM     10  C   UNL     1      30.308  32.012  19.348  1.00  0.00     0.282 C 
ATOM     11  O   UNL     1      29.308  31.208  18.801  1.00  0.00    -0.341 OA
ATOM     12  C   UNL     1      29.895  32.387  20.773  1.00  0.00     0.202 C 
ATOM     13  C   UNL     1      29.052  31.365  21.446  1.00  0.00     0.179 C 
ATOM     14  C   UNL     1      29.322  30.000  20.909  1.00  0.00     0.177 C 
BRANCH  10  15
ATOM     15  O   UNL     1      30.392  33.151  18.651  1.00  0.00    -0.341 OA
BRANCH  15  16
ATOM     16  C   UNL     1      30.101  33.193  17.321  1.00  0.00     0.184 C 
ATOM     17  C   UNL     1      31.296  33.396  16.430  1.00  0.00     0.178 C 
ATOM     18  O   UNL     1      31.274  34.577  15.767  1.00  0.00    -0.341 OA
ATOM     19  C   UNL     1      30.187  34.775  14.892  1.00  0.00     0.281 C 
ATOM     20  C   UNL     1      29.075  34.267  17.075  1.00  0.00     0.180 C 
ATOM     21  C   UNL     1      28.891  34.406  15.577  1.00  0.00     0.202 C 
BRANCH  17  22
ATOM     22  C   UNL     1      31.377  32.252  15.450  1.00  0.00     0.191 C 
BRANCH  22  23
ATOM     23  O   UNL     1      30.463  31.228  15.810  1.00  0.00    -0.394 OA
ATOM     24  H   UNL     1      30.595  30.918  16.735  1.00  0.00     0.210 HD
ENDBRANCH  22  23
ENDBRANCH  17  22
BRANCH  19  25
ATOM     25  O   UNL     1      30.393  34.170  13.693  1.00  0.00    -0.350 OA
BRANCH  25  26
ATOM     26  C   UNL     1      30.263  34.787  12.521  1.00  0.00     0.169 C 
BRANCH  26  27
ATOM     27  C   UNL     1      28.878  34.901  11.968  1.00  0.00     0.119 C 
BRANCH  27  28
ATOM     28  N   UNL     1      28.372  36.217  11.801  1.00  0.00    -0.092 NA
ATOM     29  N   UNL     1      28.682  37.174  12.506  1.00  0.00     0.001 N 
ATOM     30  N   UNL     1      28.775  37.890  13.518  1.00  0.00    -0.003 NA
ENDBRANCH  27  28
ENDBRANCH  26  27
ENDBRANCH  25  26
ENDBRANCH  19  25
BRANCH  20  31
ATOM     31  O   UNL     1      27.871  33.849  17.636  1.00  0.00    -0.387 OA
ATOM     32  H   UNL     1      27.680  32.899  17.424  1.00  0.00     0.211 HD
ENDBRANCH  20  31
BRANCH  21  33
ATOM     33  O   UNL     1      27.941  35.407  15.395  1.00  0.00    -0.385 OA
ATOM     34  H   UNL     1      27.196  35.073  14.827  1.00  0.00     0.211 HD
ENDBRANCH  21  33
ENDBRANCH  15  16
ENDBRANCH  10  15
BRANCH  12  35
ATOM     35  O   UNL     1      31.022  32.685  21.538  1.00  0.00    -0.385 OA
ATOM     36  H   UNL     1      31.827  32.349  21.111  1.00  0.00     0.211 HD
ENDBRANCH  12  35
BRANCH  13  37
ATOM     37  O   UNL     1      27.700  31.669  21.442  1.00  0.00    -0.387 OA
ATOM     38  H   UNL     1      27.593  32.639  21.269  1.00  0.00     0.211 HD
ENDBRANCH  13  37
BRANCH  14  39
ATOM     39  O   UNL     1      28.402  29.121  21.499  1.00  0.00    -0.387 OA
ATOM     40  H   UNL     1      28.783  28.797  22.338  1.00  0.00     0.211 HD
ENDBRANCH  14  39
ENDBRANCH   8   9
ENDBRANCH   7   8
ENDBRANCH   1   7
BRANCH   1  41
ATOM     41  C   UNL     1      24.800  29.393  18.535  1.00  0.00     0.364 C 
ATOM     42  O   UNL     1      24.398  28.334  18.037  1.00  0.00    -0.246 OA
BRANCH  41  43
ATOM     43  O   UNL     1      24.081  29.851  19.644  1.00  0.00    -0.477 OA
ATOM     44  H   UNL     1      24.307  29.498  20.589  1.00  0.00     0.296 HD
ENDBRANCH  41  43
ENDBRANCH   1  41
BRANCH   3  45
ATOM     45  O   UNL     1      27.504  31.490  15.980  1.00  0.00    -0.391 OA
ATOM     46  H   UNL     1      27.395  31.836  16.901  1.00  0.00     0.211 HD
ENDBRANCH   3  45
BRANCH   5  47
ATOM     47  C   UNL     1      24.475  33.019  16.457  1.00  0.00     0.176 C 
BRANCH  47  48
ATOM     48  O   UNL     1      25.556  33.700  15.986  1.00  0.00    -0.388 OA
ATOM     49  H   UNL     1      25.485  34.655  16.224  1.00  0.00     0.211 HD
ENDBRANCH  47  48
BRANCH  47  50
ATOM     50  C   UNL     1      23.201  33.392  15.837  1.00  0.00     0.165 C 
BRANCH  50  51
ATOM     51  O   UNL     1      23.237  33.558  14.446  1.00  0.00    -0.388 OA
ATOM     52  H   UNL     1      22.426  33.170  14.027  1.00  0.00     0.211 HD
ENDBRANCH  50  51
BRANCH  50  53
ATOM     53  C   UNL     1      22.490  34.586  16.412  1.00  0.00     0.154 C 
BRANCH  53  54
ATOM     54  N   UNL     1      22.853  35.750  15.586  1.00  0.00    -0.319 N 
ATOM     55  C   UNL     1      23.854  36.678  15.995  1.00  0.00     0.407 C 
ATOM     56  H   UNL     1      22.362  35.878  14.694  1.00  0.00     0.167 HD
ATOM     57  O   UNL     1      24.419  36.462  17.100  1.00  0.00    -0.225 OA
BRANCH  55  58
ATOM     58  O   UNL     1      24.214  37.773  15.246  1.00  0.00    -0.443 OA
BRANCH  58  59
ATOM     59  C   UNL     1      25.372  37.756  14.446  1.00  0.00     0.294 C 
BRANCH  59  60
ATOM     60  C   UNL     1      25.217  36.703  13.414  1.00  0.00     0.120 A 
ATOM     61  C   UNL     1      24.780  36.843  12.102  1.00  0.00     0.138 A 
ATOM     62  N   UNL     1      25.464  35.384  13.550  1.00  0.00    -0.132 NA
ATOM     63  N   UNL     1      24.780  35.635  11.509  1.00  0.00    -0.248 N 
ATOM     64  N   UNL     1      25.195  34.775  12.403  1.00  0.00    -0.067 NA
BRANCH  63  65
ATOM     65  C   UNL     1      24.399  35.370  10.154  1.00  0.00     0.181 C 
BRANCH  65  66
ATOM     66  C   UNL     1      25.500  35.507   9.173  1.00  0.00    -0.023 A 
ATOM     67  C   UNL     1      26.448  34.536   9.069  1.00  0.00     0.010 A 
ATOM     68  C   UNL     1      25.572  36.637   8.350  1.00  0.00     0.056 A 
ATOM     69  C   UNL     1      27.460  34.685   8.156  1.00  0.00     0.051 A 
ATOM     70  C   UNL     1      26.577  36.797   7.437  1.00  0.00     0.166 A 
ATOM     71  C   UNL     1      27.524  35.793   7.356  1.00  0.00     0.165 A 
ATOM     72  O   UNL     1      26.936  37.751   6.503  1.00  0.00    -0.454 OA
ATOM     73  O   UNL     1      28.463  36.133   6.373  1.00  0.00    -0.454 OA
ATOM     74  C   UNL     1      27.876  37.164   5.607  1.00  0.00     0.468 C 
ENDBRANCH  65  66
ENDBRANCH  63  65
ENDBRANCH  59  60
ENDBRANCH  58  59
ENDBRANCH  55  58
ENDBRANCH  53  54
ENDBRANCH  50  53
ENDBRANCH  47  50
ENDBRANCH   5  47
BRANCH   4  75
ATOM     75  N   UNL     1      24.642  29.859  14.739  1.00  0.00    -0.348 N 
ATOM     76  C   UNL     1      24.017  30.058  13.463  1.00  0.00     0.217 C 
ATOM     77  H   UNL     1      24.539  28.903  15.124  1.00  0.00     0.163 HD
ATOM     78  C   UNL     1      23.287  28.915  12.815  1.00  0.00     0.114 C 
ATOM     79  O   UNL     1      24.080  31.173  12.893  1.00  0.00    -0.275 OA
ENDBRANCH   4  75
TORSDOF 31
BEGIN_RES LYS A 131
REMARK  4 active torsions:
REMARK  status: ('A' for Active; 'I' for Inactive)
REMARK    1  A    between atoms: CA   and  CB  
REMARK    2  A    between atoms: CB   and  CG  
REMARK    3  A    between atoms: CG   and  CD  
REMARK    4  A    between atoms: CD   and  CE  
ROOT
ATOM      1  CA  LYS A 131      29.867  25.555  16.977  1.00 20.52     0.186 C 
ENDROOT
BRANCH   1   2
ATOM      2  CB  LYS A 131      28.345  25.722  17.026  1.00 20.94     0.034 C 
BRANCH   2   3
ATOM      3  CG  LYS A 131      27.602  24.400  16.910  1.00 22.96     0.005 C 
BRANCH   3   4
ATOM      4  CD  LYS A 131      26.151  24.532  17.283  1.00 24.33     0.041 C 
BRANCH   4   5
ATOM      5  CE  LYS A 131      26.034  24.841  18.772  1.00 26.91     0.338 C 
ATOM      6  NZ  LYS A 131      25.497  23.669  19.504  1.00 27.40     0.618 N 
ENDBRANCH   4   5
ENDBRANCH   3   4
ENDBRANCH   2   3
ENDBRANCH   1   2
END_RES LYS A 131
BEGIN_RES LYS A 135
REMARK  4 active torsions:
REMARK  status: ('A' for Active; 'I' for Inactive)
REMARK    5  A    between atoms: CA   and  CB  
REMARK    6  A    between atoms: CB   and  CG  
REMARK    7  A    between atoms: CG   and  CD  
REMARK    8  A    between atoms: CD   and  CE  
ROOT
ATOM      7  CA  LYS A 135      33.193  34.663   9.290  1.00 25.02     0.186 C 
ENDROOT
BRANCH   7   8
ATOM      8  CB  LYS A 135      32.060  35.360  10.034  1.00 26.63     0.034 C 
BRANCH   8   9
ATOM      9  CG  LYS A 135      30.865  35.660   9.167  1.00 29.45     0.005 C 
BRANCH   9  10
ATOM     10  CD  LYS A 135      30.591  37.156   9.129  1.00 32.00     0.041 C 
BRANCH  10  11
ATOM     11  CE  LYS A 135      31.399  37.872  10.194  1.00 34.25     0.338 C 
ATOM     12  NZ  LYS A 135      30.818  39.209  10.499  1.00 35.99     0.618 N 
ENDBRANCH  10  11
ENDBRANCH   9  10
ENDBRANCH   8   9
ENDBRANCH   7   8
END_RES LYS A 135
