REMARK VINA RESULT:    -5.143      2.690      6.802
REMARK INTER + INTRA:         -23.077
REMARK INTER:                 -12.394
REMARK INTRA:                 -10.683
REMARK UNBOUND:               -10.416
REMARK SMILES CC(=O)N[C@@H]1[C@@H](O)C[C@](OC[C@H]2O[C@@H](O[C@H]3[C@H](O)[C@@H](O)[C@H](OCCN=[N+]=[N-])O[C@@H]3CO)[C@H](O)[C@@H](O)[C@H]2O)(C(=O)O)O[C@H]1C(O)[C@H](O)CNC(=O)OCc1cn(-c2ccc3c(c2)OCO3)nn1
REMARK SMILES IDX 9 1 8 2 6 3 5 4 42 5 41 6 10 7 11 8 12 9 14 10 13 11 32 12
REMARK SMILES IDX 34 13 36 14 15 15 16 16 29 17 28 18 21 19 17 20 19 21 30 22
REMARK SMILES IDX 31 23 22 25 23 26 24 27 25 28 26 29 27 30 18 31 20 33 33 35
REMARK SMILES IDX 35 37 37 39 38 41 39 42 40 43 7 45 43 47 44 48 45 50 46 51
REMARK SMILES IDX 47 53 48 54 49 55 50 57 51 58 52 59 53 60 54 61 66 62 55 63
REMARK SMILES IDX 65 64 56 65 57 66 61 67 58 68 60 69 59 70 62 71 64 72 63 73
REMARK SMILES IDX 4 74 2 75 1 77 3 78
REMARK H PARENT 31 24 18 32 20 34 33 36 35 38 37 40 40 44 7 46 44 49 46 52
REMARK H PARENT 48 56 4 76
REMARK Flexibility Score: inf
ROOT
ATOM      1  C   UNL     1      30.296  33.425  16.730  1.00  0.00     0.272 C 
ATOM      2  C   UNL     1      31.490  34.337  16.689  1.00  0.00     0.113 C 
ATOM      3  C   UNL     1      31.082  35.813  16.532  1.00  0.00     0.145 C 
ATOM      4  C   UNL     1      30.494  35.915  15.140  1.00  0.00     0.142 C 
ATOM      5  C   UNL     1      29.415  34.854  15.074  1.00  0.00     0.178 C 
ATOM      6  O   UNL     1      29.196  34.175  16.224  1.00  0.00    -0.332 OA
ENDROOT
BRANCH   1   7
ATOM      7  O   UNL     1      29.930  33.052  17.945  1.00  0.00    -0.338 OA
BRANCH   7   8
ATOM      8  C   UNL     1      30.577  32.766  19.033  1.00  0.00     0.199 C 
BRANCH   8   9
ATOM      9  C   UNL     1      30.037  31.808  20.062  1.00  0.00     0.179 C 
ATOM     10  C   UNL     1      27.976  30.968  20.748  1.00  0.00     0.282 C 
ATOM     11  O   UNL     1      28.677  31.968  20.125  1.00  0.00    -0.341 OA
ATOM     12  C   UNL     1      28.829  29.994  21.490  1.00  0.00     0.202 C 
ATOM     13  C   UNL     1      29.897  29.384  20.598  1.00  0.00     0.179 C 
ATOM     14  C   UNL     1      30.365  30.372  19.578  1.00  0.00     0.177 C 
BRANCH  10  15
ATOM     15  O   UNL     1      27.319  30.239  19.737  1.00  0.00    -0.341 OA
BRANCH  15  16
ATOM     16  C   UNL     1      25.956  30.383  19.765  1.00  0.00     0.184 C 
ATOM     17  C   UNL     1      25.308  29.149  19.194  1.00  0.00     0.178 C 
ATOM     18  O   UNL     1      25.181  29.168  17.825  1.00  0.00    -0.341 OA
ATOM     19  C   UNL     1      26.168  29.929  17.198  1.00  0.00     0.281 C 
ATOM     20  C   UNL     1      25.620  31.624  18.972  1.00  0.00     0.180 C 
ATOM     21  C   UNL     1      26.051  31.393  17.541  1.00  0.00     0.202 C 
BRANCH  17  22
ATOM     22  C   UNL     1      23.919  28.928  19.776  1.00  0.00     0.191 C 
BRANCH  22  23
ATOM     23  O   UNL     1      23.757  29.616  20.971  1.00  0.00    -0.394 OA
ATOM     24  H   UNL     1      23.905  29.028  21.775  1.00  0.00     0.210 HD
ENDBRANCH  22  23
ENDBRANCH  17  22
BRANCH  19  25
ATOM     25  O   UNL     1      25.941  29.789  15.835  1.00  0.00    -0.350 OA
BRANCH  25  26
ATOM     26  C   UNL     1      24.755  30.437  15.509  1.00  0.00     0.169 C 
BRANCH  26  27
ATOM     27  C   UNL     1      24.699  30.766  14.021  1.00  0.00     0.119 C 
BRANCH  27  28
ATOM     28  N   UNL     1      24.454  32.212  13.922  1.00  0.00    -0.092 NA
ATOM     29  N   UNL     1      23.466  32.612  13.269  1.00  0.00     0.001 N 
ATOM     30  N   UNL     1      22.475  32.802  12.542  1.00  0.00    -0.003 NA
ENDBRANCH  27  28
ENDBRANCH  26  27
ENDBRANCH  25  26
ENDBRANCH  19  25
BRANCH  20  31
ATOM     31  O   UNL     1      24.295  31.997  19.073  1.00  0.00    -0.387 OA
ATOM     32  H   UNL     1      23.695  31.542  18.413  1.00  0.00     0.211 HD
ENDBRANCH  20  31
BRANCH  21  33
ATOM     33  O   UNL     1      27.316  31.964  17.387  1.00  0.00    -0.385 OA
ATOM     34  H   UNL     1      27.412  32.463  16.536  1.00  0.00     0.211 HD
ENDBRANCH  21  33
ENDBRANCH  15  16
ENDBRANCH  10  15
BRANCH  12  35
ATOM     35  O   UNL     1      29.443  30.515  22.626  1.00  0.00    -0.385 OA
ATOM     36  H   UNL     1      29.142  31.471  22.728  1.00  0.00     0.211 HD
ENDBRANCH  12  35
BRANCH  13  37
ATOM     37  O   UNL     1      29.349  28.258  19.981  1.00  0.00    -0.387 OA
ATOM     38  H   UNL     1      28.546  28.443  19.459  1.00  0.00     0.211 HD
ENDBRANCH  13  37
BRANCH  14  39
ATOM     39  O   UNL     1      29.702  30.119  18.381  1.00  0.00    -0.387 OA
ATOM     40  H   UNL     1      28.879  30.622  18.269  1.00  0.00     0.211 HD
ENDBRANCH  14  39
ENDBRANCH   8   9
ENDBRANCH   7   8
ENDBRANCH   1   7
BRANCH   1  41
ATOM     41  C   UNL     1      30.464  32.281  15.775  1.00  0.00     0.364 C 
ATOM     42  O   UNL     1      29.531  31.403  15.793  1.00  0.00    -0.246 OA
BRANCH  41  43
ATOM     43  O   UNL     1      31.497  32.098  14.914  1.00  0.00    -0.477 OA
ATOM     44  H   UNL     1      31.822  32.795  14.263  1.00  0.00     0.296 HD
ENDBRANCH  41  43
ENDBRANCH   1  41
BRANCH   3  45
ATOM     45  O   UNL     1      30.104  36.032  17.511  1.00  0.00    -0.391 OA
ATOM     46  H   UNL     1      30.071  36.983  17.757  1.00  0.00     0.211 HD
ENDBRANCH   3  45
BRANCH   5  47
ATOM     47  C   UNL     1      28.115  35.643  14.812  1.00  0.00     0.176 C 
BRANCH  47  48
ATOM     48  O   UNL     1      28.314  36.778  14.080  1.00  0.00    -0.388 OA
ATOM     49  H   UNL     1      28.017  36.718  13.139  1.00  0.00     0.211 HD
ENDBRANCH  47  48
BRANCH  47  50
ATOM     50  C   UNL     1      27.071  34.765  14.134  1.00  0.00     0.165 C 
BRANCH  50  51
ATOM     51  O   UNL     1      26.982  33.529  14.682  1.00  0.00    -0.388 OA
ATOM     52  H   UNL     1      26.378  33.422  15.445  1.00  0.00     0.211 HD
ENDBRANCH  50  51
BRANCH  50  53
ATOM     53  C   UNL     1      27.446  34.713  12.686  1.00  0.00     0.154 C 
BRANCH  53  54
ATOM     54  N   UNL     1      26.547  35.457  11.859  1.00  0.00    -0.319 N 
ATOM     55  C   UNL     1      26.896  36.554  11.031  1.00  0.00     0.407 C 
ATOM     56  H   UNL     1      25.496  35.205  11.822  1.00  0.00     0.167 HD
ATOM     57  O   UNL     1      28.077  36.951  10.957  1.00  0.00    -0.225 OA
BRANCH  55  58
ATOM     58  O   UNL     1      25.935  37.227  10.271  1.00  0.00    -0.443 OA
BRANCH  58  59
ATOM     59  C   UNL     1      25.823  37.109   8.879  1.00  0.00     0.294 C 
BRANCH  59  60
ATOM     60  C   UNL     1      24.373  36.938   8.530  1.00  0.00     0.121 A 
ATOM     61  C   UNL     1      23.473  36.090   9.180  1.00  0.00     0.144 A 
ATOM     62  N   UNL     1      23.662  37.542   7.569  1.00  0.00    -0.131 NA
ATOM     63  N   UNL     1      22.264  36.213   8.590  1.00  0.00    -0.220 N 
ATOM     64  N   UNL     1      22.430  37.102   7.623  1.00  0.00    -0.062 NA
BRANCH  63  65
ATOM     65  C   UNL     1      21.065  35.555   8.919  1.00  0.00     0.070 A 
ATOM     66  C   UNL     1      20.743  35.306  10.223  1.00  0.00     0.032 A 
ATOM     67  C   UNL     1      20.198  35.156   7.931  1.00  0.00     0.079 A 
ATOM     68  C   UNL     1      19.542  34.652  10.536  1.00  0.00     0.053 A 
ATOM     69  C   UNL     1      19.014  34.511   8.220  1.00  0.00     0.167 A 
ATOM     70  C   UNL     1      18.693  34.263   9.530  1.00  0.00     0.165 A 
ATOM     71  O   UNL     1      18.012  34.030   7.406  1.00  0.00    -0.454 OA
ATOM     72  O   UNL     1      17.466  33.613   9.553  1.00  0.00    -0.454 OA
ATOM     73  C   UNL     1      17.185  33.210   8.240  1.00  0.00     0.468 C 
ENDBRANCH  63  65
ENDBRANCH  59  60
ENDBRANCH  58  59
ENDBRANCH  55  58
ENDBRANCH  53  54
ENDBRANCH  50  53
ENDBRANCH  47  50
ENDBRANCH   5  47
BRANCH   4  74
ATOM     74  N   UNL     1      31.537  35.757  14.172  1.00  0.00    -0.348 N 
ATOM     75  C   UNL     1      31.639  36.623  13.022  1.00  0.00     0.217 C 
ATOM     76  H   UNL     1      32.282  35.029  14.212  1.00  0.00     0.163 HD
ATOM     77  C   UNL     1      32.727  36.448  12.024  1.00  0.00     0.114 C 
ATOM     78  O   UNL     1      30.805  37.522  12.870  1.00  0.00    -0.275 OA
ENDBRANCH   4  74
TORSDOF 30
BEGIN_RES LYS A 131
REMARK  4 active torsions:
REMARK  status: ('A' for Active; 'I' for Inactive)
REMARK    1  A    between atoms: CA   and  CB  
REMARK    2  A    between atoms: CB   and  CG  
REMARK    3  A    between atoms: CG   and  CD  
REMARK    4  A    between atoms: CD   and  CE  
ROOT
ATOM      1  CA  LYS A 131      29.867  25.555  16.977  1.00 20.52     0.186 C 
ENDROOT
BRANCH   1   2
ATOM      2  CB  LYS A 131      28.345  25.722  17.026  1.00 20.94     0.034 C 
BRANCH   2   3
ATOM      3  CG  LYS A 131      27.602  24.400  16.915  1.00 22.96     0.005 C 
BRANCH   3   4
ATOM      4  CD  LYS A 131      26.675  24.171  18.077  1.00 24.33     0.041 C 
BRANCH   4   5
ATOM      5  CE  LYS A 131      26.040  25.495  18.489  1.00 26.91     0.338 C 
ATOM      6  NZ  LYS A 131      24.768  25.710  17.759  1.00 27.40     0.618 N 
ENDBRANCH   4   5
ENDBRANCH   3   4
ENDBRANCH   2   3
ENDBRANCH   1   2
END_RES LYS A 131
BEGIN_RES LYS A 135
REMARK  4 active torsions:
REMARK  status: ('A' for Active; 'I' for Inactive)
REMARK    5  A    between atoms: CA   and  CB  
REMARK    6  A    between atoms: CB   and  CG  
REMARK    7  A    between atoms: CG   and  CD  
REMARK    8  A    between atoms: CD   and  CE  
ROOT
ATOM      7  CA  LYS A 135      33.193  34.663   9.290  1.00 25.02     0.186 C 
ENDROOT
BRANCH   7   8
ATOM      8  CB  LYS A 135      32.060  35.360  10.034  1.00 26.63     0.034 C 
BRANCH   8   9
ATOM      9  CG  LYS A 135      30.709  34.737   9.795  1.00 29.45     0.005 C 
BRANCH   9  10
ATOM     10  CD  LYS A 135      30.468  34.532   8.307  1.00 32.00     0.041 C 
BRANCH  10  11
ATOM     11  CE  LYS A 135      29.034  34.871   7.949  1.00 34.25     0.338 C 
ATOM     12  NZ  LYS A 135      28.075  34.120   8.805  1.00 35.99     0.618 N 
ENDBRANCH  10  11
ENDBRANCH   9  10
ENDBRANCH   8   9
ENDBRANCH   7   8
END_RES LYS A 135
