REMARK VINA RESULT:    -5.335      3.127      9.581
REMARK INTER + INTRA:         -25.086
REMARK INTER:                 -14.137
REMARK INTRA:                 -10.949
REMARK UNBOUND:               -11.174
REMARK SMILES CC(=O)N[C@@H]1[C@@H](O)C[C@](OC[C@H]2O[C@@H](O[C@H]3[C@H](O)[C@@H](O)[C@H](OCCN=[N+]=[N-])O[C@@H]3CO)[C@H](O)[C@@H](O)[C@H]2O)(C(=O)O)O[C@H]1C(O)[C@H](O)CNC(=O)OCc1cn(-c2cc(C(=O)O)nc(-c3ccccc3)c2)nn1
REMARK SMILES IDX 9 1 8 2 6 3 5 4 42 5 41 6 10 7 11 8 12 9 14 10 13 11 32 12
REMARK SMILES IDX 34 13 36 14 15 15 16 16 29 17 28 18 21 19 17 20 19 21 30 22
REMARK SMILES IDX 31 23 22 25 23 26 24 27 25 28 26 29 27 30 18 31 20 33 33 35
REMARK SMILES IDX 35 37 37 39 38 41 39 42 40 43 7 45 43 47 44 48 45 50 46 51
REMARK SMILES IDX 47 53 48 54 49 55 50 57 51 58 52 59 53 60 54 61 72 62 55 63
REMARK SMILES IDX 71 64 56 65 57 66 70 67 58 68 63 69 62 70 59 71 60 72 61 73
REMARK SMILES IDX 64 75 65 76 69 77 66 78 68 79 67 80 4 81 2 82 1 84 3 85
REMARK H PARENT 31 24 18 32 20 34 33 36 35 38 37 40 40 44 7 46 44 49 46 52
REMARK H PARENT 48 56 61 74 4 83
REMARK Flexibility Score: inf
ROOT
ATOM      1  C   UNL     1      30.128  31.036  21.321  1.00  0.00     0.272 C 
ATOM      2  C   UNL     1      30.765  31.357  22.688  1.00  0.00     0.113 C 
ATOM      3  C   UNL     1      32.231  31.123  22.744  1.00  0.00     0.145 C 
ATOM      4  C   UNL     1      32.667  29.853  22.024  1.00  0.00     0.142 C 
ATOM      5  C   UNL     1      31.352  29.167  21.640  1.00  0.00     0.178 C 
ATOM      6  O   UNL     1      30.778  29.979  20.687  1.00  0.00    -0.332 OA
ENDROOT
BRANCH   1   7
ATOM      7  O   UNL     1      30.277  32.166  20.583  1.00  0.00    -0.338 OA
BRANCH   7   8
ATOM      8  C   UNL     1      30.802  32.091  19.334  1.00  0.00     0.199 C 
BRANCH   8   9
ATOM      9  C   UNL     1      31.000  33.509  18.742  1.00  0.00     0.179 C 
ATOM     10  C   UNL     1      31.453  34.511  16.678  1.00  0.00     0.282 C 
ATOM     11  O   UNL     1      31.298  33.370  17.424  1.00  0.00    -0.341 OA
ATOM     12  C   UNL     1      30.935  35.692  17.476  1.00  0.00     0.202 C 
ATOM     13  C   UNL     1      29.587  35.439  18.105  1.00  0.00     0.179 C 
ATOM     14  C   UNL     1      29.639  34.172  18.882  1.00  0.00     0.177 C 
BRANCH  10  15
ATOM     15  O   UNL     1      30.745  34.346  15.501  1.00  0.00    -0.341 OA
BRANCH  15  16
ATOM     16  C   UNL     1      31.491  34.493  14.344  1.00  0.00     0.184 C 
ATOM     17  C   UNL     1      32.599  35.474  14.469  1.00  0.00     0.178 C 
ATOM     18  O   UNL     1      32.452  36.538  13.596  1.00  0.00    -0.341 OA
ATOM     19  C   UNL     1      31.196  37.133  13.692  1.00  0.00     0.281 C 
ATOM     20  C   UNL     1      30.532  34.778  13.225  1.00  0.00     0.180 C 
ATOM     21  C   UNL     1      30.231  36.214  12.975  1.00  0.00     0.202 C 
BRANCH  17  22
ATOM     22  C   UNL     1      33.911  34.800  14.123  1.00  0.00     0.191 C 
BRANCH  22  23
ATOM     23  O   UNL     1      33.995  34.474  12.782  1.00  0.00    -0.394 OA
ATOM     24  H   UNL     1      34.219  33.511  12.690  1.00  0.00     0.210 HD
ENDBRANCH  22  23
ENDBRANCH  17  22
BRANCH  19  25
ATOM     25  O   UNL     1      31.267  38.338  13.010  1.00  0.00    -0.350 OA
BRANCH  25  26
ATOM     26  C   UNL     1      31.653  38.163  11.680  1.00  0.00     0.169 C 
BRANCH  26  27
ATOM     27  C   UNL     1      31.014  39.209  10.802  1.00  0.00     0.119 C 
BRANCH  27  28
ATOM     28  N   UNL     1      30.469  40.260  11.632  1.00  0.00    -0.092 NA
ATOM     29  N   UNL     1      30.331  41.375  11.148  1.00  0.00     0.001 N 
ATOM     30  N   UNL     1      29.846  42.487  10.878  1.00  0.00    -0.003 NA
ENDBRANCH  27  28
ENDBRANCH  26  27
ENDBRANCH  25  26
ENDBRANCH  19  25
BRANCH  20  31
ATOM     31  O   UNL     1      31.122  34.274  12.042  1.00  0.00    -0.387 OA
ATOM     32  H   UNL     1      30.642  34.612  11.245  1.00  0.00     0.211 HD
ENDBRANCH  20  31
BRANCH  21  33
ATOM     33  O   UNL     1      28.899  36.461  13.367  1.00  0.00    -0.385 OA
ATOM     34  H   UNL     1      28.357  35.625  13.365  1.00  0.00     0.211 HD
ENDBRANCH  21  33
ENDBRANCH  15  16
ENDBRANCH  10  15
BRANCH  12  35
ATOM     35  O   UNL     1      31.809  36.106  18.474  1.00  0.00    -0.385 OA
ATOM     36  H   UNL     1      31.385  36.920  18.870  1.00  0.00     0.211 HD
ENDBRANCH  12  35
BRANCH  13  37
ATOM     37  O   UNL     1      28.659  35.404  17.064  1.00  0.00    -0.387 OA
ATOM     38  H   UNL     1      27.759  35.394  17.482  1.00  0.00     0.211 HD
ENDBRANCH  13  37
BRANCH  14  39
ATOM     39  O   UNL     1      28.677  33.310  18.319  1.00  0.00    -0.387 OA
ATOM     40  H   UNL     1      28.974  32.909  17.486  1.00  0.00     0.211 HD
ENDBRANCH  14  39
ENDBRANCH   8   9
ENDBRANCH   7   8
ENDBRANCH   1   7
BRANCH   1  41
ATOM     41  C   UNL     1      28.727  30.604  21.551  1.00  0.00     0.364 C 
ATOM     42  O   UNL     1      28.024  30.082  20.644  1.00  0.00    -0.246 OA
BRANCH  41  43
ATOM     43  O   UNL     1      28.143  30.760  22.788  1.00  0.00    -0.477 OA
ATOM     44  H   UNL     1      28.587  31.258  23.570  1.00  0.00     0.296 HD
ENDBRANCH  41  43
ENDBRANCH   1  41
BRANCH   3  45
ATOM     45  O   UNL     1      32.982  32.221  22.387  1.00  0.00    -0.391 OA
ATOM     46  H   UNL     1      33.389  32.062  21.512  1.00  0.00     0.211 HD
ENDBRANCH   3  45
BRANCH   5  47
ATOM     47  C   UNL     1      31.501  27.736  21.287  1.00  0.00     0.176 C 
BRANCH  47  48
ATOM     48  O   UNL     1      32.242  27.642  20.087  1.00  0.00    -0.388 OA
ATOM     49  H   UNL     1      31.671  27.948  19.313  1.00  0.00     0.211 HD
ENDBRANCH  47  48
BRANCH  47  50
ATOM     50  C   UNL     1      30.227  26.947  21.168  1.00  0.00     0.165 C 
BRANCH  50  51
ATOM     51  O   UNL     1      29.527  27.358  20.052  1.00  0.00    -0.388 OA
ATOM     52  H   UNL     1      28.752  27.936  20.280  1.00  0.00     0.211 HD
ENDBRANCH  50  51
BRANCH  50  53
ATOM     53  C   UNL     1      29.452  27.177  22.442  1.00  0.00     0.154 C 
BRANCH  53  54
ATOM     54  N   UNL     1      28.129  27.667  22.293  1.00  0.00    -0.319 N 
ATOM     55  C   UNL     1      27.006  26.952  22.784  1.00  0.00     0.407 C 
ATOM     56  H   UNL     1      27.943  28.580  21.812  1.00  0.00     0.167 HD
ATOM     57  O   UNL     1      27.179  25.853  23.344  1.00  0.00    -0.225 OA
BRANCH  55  58
ATOM     58  O   UNL     1      25.703  27.468  22.646  1.00  0.00    -0.443 OA
BRANCH  58  59
ATOM     59  C   UNL     1      24.927  27.053  21.550  1.00  0.00     0.294 C 
BRANCH  59  60
ATOM     60  C   UNL     1      25.545  27.462  20.267  1.00  0.00     0.121 A 
ATOM     61  C   UNL     1      25.186  28.458  19.389  1.00  0.00     0.144 A 
ATOM     62  N   UNL     1      26.625  26.881  19.668  1.00  0.00    -0.131 NA
ATOM     63  N   UNL     1      26.007  28.472  18.318  1.00  0.00    -0.220 N 
ATOM     64  N   UNL     1      26.880  27.486  18.528  1.00  0.00    -0.062 NA
BRANCH  63  65
ATOM     65  C   UNL     1      25.928  29.335  17.197  1.00  0.00     0.071 A 
ATOM     66  C   UNL     1      26.963  30.238  17.012  1.00  0.00     0.064 A 
ATOM     67  C   UNL     1      24.912  29.339  16.263  1.00  0.00     0.057 A 
ATOM     68  C   UNL     1      26.932  31.087  15.921  1.00  0.00     0.151 A 
ATOM     69  C   UNL     1      24.889  30.177  15.193  1.00  0.00     0.073 A 
ATOM     70  N   UNL     1      25.910  31.044  15.043  1.00  0.00    -0.241 NA
BRANCH  68  71
ATOM     71  C   UNL     1      28.006  32.045  15.699  1.00  0.00     0.354 C 
ATOM     72  O   UNL     1      27.693  33.221  15.383  1.00  0.00    -0.245 OA
BRANCH  71  73
ATOM     73  O   UNL     1      29.342  31.741  15.813  1.00  0.00    -0.477 OA
ATOM     74  H   UNL     1      29.986  32.273  16.411  1.00  0.00     0.297 HD
ENDBRANCH  71  73
ENDBRANCH  68  71
BRANCH  69  75
ATOM     75  C   UNL     1      23.808  30.160  14.215  1.00  0.00     0.000 A 
ATOM     76  C   UNL     1      22.936  31.246  14.188  1.00  0.00     0.010 A 
ATOM     77  C   UNL     1      23.599  29.144  13.327  1.00  0.00     0.010 A 
ATOM     78  C   UNL     1      21.894  31.316  13.302  1.00  0.00     0.001 A 
ATOM     79  C   UNL     1      22.542  29.225  12.437  1.00  0.00     0.001 A 
ATOM     80  C   UNL     1      21.684  30.286  12.403  1.00  0.00     0.000 A 
ENDBRANCH  69  75
ENDBRANCH  63  65
ENDBRANCH  59  60
ENDBRANCH  58  59
ENDBRANCH  55  58
ENDBRANCH  53  54
ENDBRANCH  50  53
ENDBRANCH  47  50
ENDBRANCH   5  47
BRANCH   4  81
ATOM     81  N   UNL     1      33.516  29.039  22.831  1.00  0.00    -0.348 N 
ATOM     82  C   UNL     1      34.894  29.351  22.953  1.00  0.00     0.217 C 
ATOM     83  H   UNL     1      33.105  28.214  23.326  1.00  0.00     0.163 HD
ATOM     84  C   UNL     1      35.826  28.542  23.780  1.00  0.00     0.114 C 
ATOM     85  O   UNL     1      35.388  30.361  22.346  1.00  0.00    -0.275 OA
ENDBRANCH   4  81
TORSDOF 33
BEGIN_RES LYS A 131
REMARK  4 active torsions:
REMARK  status: ('A' for Active; 'I' for Inactive)
REMARK    1  A    between atoms: CA   and  CB  
REMARK    2  A    between atoms: CB   and  CG  
REMARK    3  A    between atoms: CG   and  CD  
REMARK    4  A    between atoms: CD   and  CE  
ROOT
ATOM      1  CA  LYS A 131      29.867  25.555  16.977  1.00 20.52     0.186 C 
ENDROOT
BRANCH   1   2
ATOM      2  CB  LYS A 131      28.345  25.722  17.026  1.00 20.94     0.034 C 
BRANCH   2   3
ATOM      3  CG  LYS A 131      27.599  24.485  16.550  1.00 22.96     0.005 C 
BRANCH   3   4
ATOM      4  CD  LYS A 131      27.252  23.561  17.685  1.00 24.33     0.041 C 
BRANCH   4   5
ATOM      5  CE  LYS A 131      25.834  23.855  18.164  1.00 26.91     0.338 C 
ATOM      6  NZ  LYS A 131      24.859  23.626  17.072  1.00 27.40     0.618 N 
ENDBRANCH   4   5
ENDBRANCH   3   4
ENDBRANCH   2   3
ENDBRANCH   1   2
END_RES LYS A 131
BEGIN_RES LYS A 135
REMARK  4 active torsions:
REMARK  status: ('A' for Active; 'I' for Inactive)
REMARK    5  A    between atoms: CA   and  CB  
REMARK    6  A    between atoms: CB   and  CG  
REMARK    7  A    between atoms: CG   and  CD  
REMARK    8  A    between atoms: CD   and  CE  
ROOT
ATOM      7  CA  LYS A 135      33.193  34.663   9.290  1.00 25.02     0.186 C 
ENDROOT
BRANCH   7   8
ATOM      8  CB  LYS A 135      32.060  35.360  10.034  1.00 26.63     0.034 C 
BRANCH   8   9
ATOM      9  CG  LYS A 135      30.867  35.666   9.165  1.00 29.45     0.005 C 
BRANCH   9  10
ATOM     10  CD  LYS A 135      30.390  34.412   8.448  1.00 32.00     0.041 C 
BRANCH  10  11
ATOM     11  CE  LYS A 135      28.875  34.363   8.411  1.00 34.25     0.338 C 
ATOM     12  NZ  LYS A 135      28.301  35.709   8.130  1.00 35.99     0.618 N 
ENDBRANCH  10  11
ENDBRANCH   9  10
ENDBRANCH   8   9
ENDBRANCH   7   8
END_RES LYS A 135
