REMARK VINA RESULT:    -4.495      3.357      8.237
REMARK INTER + INTRA:         -22.662
REMARK INTER:                 -13.719
REMARK INTRA:                  -8.943
REMARK UNBOUND:               -10.809
REMARK SMILES COc1ccc(Cn2cc(COC(=O)NC[C@@H](O)C(O)[C@@H]3O[C@@](OC[C@H]4O[C@@H](O[C@H]5[C@H](O)[C@@H](O)[C@H](OCCN=[N+]=[N-])O[C@@H]5CO)[C@H](O)[C@@H](O)[C@H]4O)(C(=O)O)C[C@H](O)[C@H]3NC(C)=O)nn2)cc1OC
REMARK SMILES IDX 23 1 55 2 56 3 58 4 21 5 22 6 24 7 25 8 26 9 28 10 27 11
REMARK SMILES IDX 46 12 48 13 50 14 29 15 30 16 43 17 42 18 35 19 31 20 33 21
REMARK SMILES IDX 44 22 45 23 36 25 37 26 38 27 39 28 40 29 41 30 32 31 34 33
REMARK SMILES IDX 47 35 49 37 51 39 52 41 53 42 54 43 57 45 19 47 20 48 17 50
REMARK SMILES IDX 18 51 16 53 15 54 13 55 14 57 12 58 11 59 10 60 9 61 63 62
REMARK SMILES IDX 8 63 64 64 7 65 6 66 65 67 5 68 66 69 4 70 3 71 67 72 68 73
REMARK SMILES IDX 2 74 1 75 59 76 60 77 61 79 62 80
REMARK H PARENT 45 24 32 32 34 34 47 36 49 38 51 40 54 44 57 46 20 49 18 52
REMARK H PARENT 15 56 59 78
REMARK Flexibility Score: inf
ROOT
ATOM      1  C   UNL     1      28.406  39.683   5.671  1.00  0.00     0.272 C 
ATOM      2  C   UNL     1      28.324  38.369   4.916  1.00  0.00     0.113 C 
ATOM      3  C   UNL     1      27.972  37.137   5.668  1.00  0.00     0.145 C 
ATOM      4  C   UNL     1      28.270  37.338   7.151  1.00  0.00     0.142 C 
ATOM      5  C   UNL     1      29.423  38.260   7.195  1.00  0.00     0.178 C 
ATOM      6  O   UNL     1      28.991  39.549   6.946  1.00  0.00    -0.332 OA
ENDROOT
BRANCH   1   7
ATOM      7  O   UNL     1      27.081  40.062   5.847  1.00  0.00    -0.338 OA
BRANCH   7   8
ATOM      8  C   UNL     1      26.754  40.681   7.014  1.00  0.00     0.199 C 
BRANCH   8   9
ATOM      9  C   UNL     1      25.559  40.030   7.656  1.00  0.00     0.179 C 
ATOM     10  C   UNL     1      24.505  39.501   9.599  1.00  0.00     0.282 C 
ATOM     11  O   UNL     1      25.400  40.461   8.986  1.00  0.00    -0.341 OA
ATOM     12  C   UNL     1      23.151  39.706   9.100  1.00  0.00     0.202 C 
ATOM     13  C   UNL     1      23.103  39.890   7.592  1.00  0.00     0.179 C 
ATOM     14  C   UNL     1      24.278  40.545   6.981  1.00  0.00     0.177 C 
BRANCH  10  15
ATOM     15  O   UNL     1      24.665  39.649  10.961  1.00  0.00    -0.341 OA
BRANCH  15  16
ATOM     16  C   UNL     1      24.914  38.412  11.557  1.00  0.00     0.184 C 
ATOM     17  C   UNL     1      24.193  38.213  12.831  1.00  0.00     0.178 C 
ATOM     18  O   UNL     1      24.294  36.869  13.177  1.00  0.00    -0.341 OA
ATOM     19  C   UNL     1      25.495  36.327  12.889  1.00  0.00     0.281 C 
ATOM     20  C   UNL     1      26.426  38.331  11.798  1.00  0.00     0.180 C 
ATOM     21  C   UNL     1      26.668  37.281  12.891  1.00  0.00     0.202 C 
BRANCH  17  22
ATOM     22  C   UNL     1      22.752  38.666  12.776  1.00  0.00     0.191 C 
BRANCH  22  23
ATOM     23  O   UNL     1      22.763  40.044  12.988  1.00  0.00    -0.394 OA
ATOM     24  H   UNL     1      22.127  40.475  12.343  1.00  0.00     0.210 HD
ENDBRANCH  22  23
ENDBRANCH  17  22
BRANCH  19  25
ATOM     25  O   UNL     1      25.435  35.799  11.549  1.00  0.00    -0.350 OA
BRANCH  25  26
ATOM     26  C   UNL     1      24.307  34.955  11.500  1.00  0.00     0.169 C 
BRANCH  26  27
ATOM     27  C   UNL     1      23.497  35.128  10.228  1.00  0.00     0.119 C 
BRANCH  27  28
ATOM     28  N   UNL     1      22.343  35.933  10.517  1.00  0.00    -0.092 NA
ATOM     29  N   UNL     1      21.346  35.476  11.081  1.00  0.00     0.001 N 
ATOM     30  N   UNL     1      20.451  34.705  11.483  1.00  0.00    -0.003 NA
ENDBRANCH  27  28
ENDBRANCH  26  27
ENDBRANCH  25  26
ENDBRANCH  19  25
BRANCH  20  31
ATOM     31  O   UNL     1      27.003  37.849  10.634  1.00  0.00    -0.387 OA
ATOM     32  H   UNL     1      26.958  36.846  10.659  1.00  0.00     0.211 HD
ENDBRANCH  20  31
BRANCH  21  33
ATOM     33  O   UNL     1      26.738  37.929  14.101  1.00  0.00    -0.385 OA
ATOM     34  H   UNL     1      25.870  37.918  14.589  1.00  0.00     0.211 HD
ENDBRANCH  21  33
ENDBRANCH  15  16
ENDBRANCH  10  15
BRANCH  12  35
ATOM     35  O   UNL     1      22.330  38.626   9.378  1.00  0.00    -0.385 OA
ATOM     36  H   UNL     1      22.855  37.807   9.615  1.00  0.00     0.211 HD
ENDBRANCH  12  35
BRANCH  13  37
ATOM     37  O   UNL     1      21.909  40.598   7.292  1.00  0.00    -0.387 OA
ATOM     38  H   UNL     1      21.742  40.468   6.322  1.00  0.00     0.211 HD
ENDBRANCH  13  37
BRANCH  14  39
ATOM     39  O   UNL     1      24.274  41.938   7.211  1.00  0.00    -0.387 OA
ATOM     40  H   UNL     1      23.537  42.388   6.672  1.00  0.00     0.211 HD
ENDBRANCH  14  39
ENDBRANCH   8   9
ENDBRANCH   7   8
ENDBRANCH   1   7
BRANCH   1  41
ATOM     41  C   UNL     1      29.236  40.622   4.875  1.00  0.00     0.364 C 
ATOM     42  O   UNL     1      30.448  40.745   5.074  1.00  0.00    -0.246 OA
BRANCH  41  43
ATOM     43  O   UNL     1      28.714  41.444   3.840  1.00  0.00    -0.477 OA
ATOM     44  H   UNL     1      29.419  42.041   3.349  1.00  0.00     0.296 HD
ENDBRANCH  41  43
ENDBRANCH   1  41
BRANCH   3  45
ATOM     45  O   UNL     1      26.641  36.819   5.533  1.00  0.00    -0.391 OA
ATOM     46  H   UNL     1      26.149  37.570   5.090  1.00  0.00     0.211 HD
ENDBRANCH   3  45
BRANCH   5  47
ATOM     47  C   UNL     1      30.316  38.062   8.332  1.00  0.00     0.176 C 
BRANCH  47  48
ATOM     48  O   UNL     1      31.127  36.934   8.295  1.00  0.00    -0.388 OA
ATOM     49  H   UNL     1      30.686  36.096   8.473  1.00  0.00     0.211 HD
ENDBRANCH  47  48
BRANCH  47  50
ATOM     50  C   UNL     1      31.495  39.172   8.218  1.00  0.00     0.165 C 
BRANCH  50  51
ATOM     51  O   UNL     1      32.062  39.024   7.013  1.00  0.00    -0.388 OA
ATOM     52  H   UNL     1      32.225  38.067   6.765  1.00  0.00     0.211 HD
ENDBRANCH  50  51
BRANCH  50  53
ATOM     53  C   UNL     1      32.245  39.231   9.451  1.00  0.00     0.154 C 
BRANCH  53  54
ATOM     54  N   UNL     1      32.120  38.306  10.526  1.00  0.00    -0.319 N 
ATOM     55  C   UNL     1      31.551  38.805  11.724  1.00  0.00     0.407 C 
ATOM     56  H   UNL     1      32.411  37.331  10.529  1.00  0.00     0.167 HD
ATOM     57  O   UNL     1      31.188  40.024  11.809  1.00  0.00    -0.225 OA
BRANCH  55  58
ATOM     58  O   UNL     1      31.333  38.065  12.881  1.00  0.00    -0.443 OA
BRANCH  58  59
ATOM     59  C   UNL     1      30.155  38.440  13.675  1.00  0.00     0.294 C 
BRANCH  59  60
ATOM     60  C   UNL     1      30.289  37.571  14.880  1.00  0.00     0.120 A 
ATOM     61  C   UNL     1      31.454  36.845  15.226  1.00  0.00     0.138 A 
ATOM     62  N   UNL     1      29.406  37.385  15.853  1.00  0.00    -0.132 NA
ATOM     63  N   UNL     1      31.176  36.266  16.418  1.00  0.00    -0.248 N 
ATOM     64  N   UNL     1      29.981  36.584  16.776  1.00  0.00    -0.067 NA
BRANCH  63  65
ATOM     65  C   UNL     1      32.150  35.453  17.194  1.00  0.00     0.181 C 
BRANCH  65  66
ATOM     66  C   UNL     1      31.578  34.040  17.078  1.00  0.00    -0.023 A 
ATOM     67  C   UNL     1      30.937  33.419  18.129  1.00  0.00     0.056 A 
ATOM     68  C   UNL     1      31.611  33.456  15.853  1.00  0.00     0.010 A 
ATOM     69  C   UNL     1      30.335  32.166  17.821  1.00  0.00     0.161 A 
ATOM     70  C   UNL     1      31.001  32.196  15.565  1.00  0.00     0.051 A 
ATOM     71  C   UNL     1      30.362  31.592  16.615  1.00  0.00     0.160 A 
BRANCH  69  72
ATOM     72  O   UNL     1      29.676  31.482  18.843  1.00  0.00    -0.493 OA
ATOM     73  C   UNL     1      28.983  32.172  19.890  1.00  0.00     0.278 C 
ENDBRANCH  69  72
BRANCH  71  74
ATOM     74  O   UNL     1      29.698  30.348  16.420  1.00  0.00    -0.493 OA
ATOM     75  C   UNL     1      28.482  30.343  15.642  1.00  0.00     0.278 C 
ENDBRANCH  71  74
ENDBRANCH  65  66
ENDBRANCH  63  65
ENDBRANCH  59  60
ENDBRANCH  58  59
ENDBRANCH  55  58
ENDBRANCH  53  54
ENDBRANCH  50  53
ENDBRANCH  47  50
ENDBRANCH   5  47
BRANCH   4  76
ATOM     76  N   UNL     1      28.494  36.050   7.749  1.00  0.00    -0.348 N 
ATOM     77  C   UNL     1      27.423  35.369   8.339  1.00  0.00     0.217 C 
ATOM     78  H   UNL     1      29.432  35.562   7.754  1.00  0.00     0.163 HD
ATOM     79  C   UNL     1      27.492  34.041   9.022  1.00  0.00     0.114 C 
ATOM     80  O   UNL     1      26.217  35.848   8.352  1.00  0.00    -0.275 OA
ENDBRANCH   4  76
TORSDOF 33
BEGIN_RES LYS A 131
REMARK  4 active torsions:
REMARK  status: ('A' for Active; 'I' for Inactive)
REMARK    1  A    between atoms: CA   and  CB  
REMARK    2  A    between atoms: CB   and  CG  
REMARK    3  A    between atoms: CG   and  CD  
REMARK    4  A    between atoms: CD   and  CE  
ROOT
ATOM      1  CA  LYS A 131      29.867  25.555  16.977  1.00 20.52     0.186 C 
ENDROOT
BRANCH   1   2
ATOM      2  CB  LYS A 131      28.345  25.722  17.026  1.00 20.94     0.034 C 
BRANCH   2   3
ATOM      3  CG  LYS A 131      27.602  24.400  16.915  1.00 22.96     0.005 C 
BRANCH   3   4
ATOM      4  CD  LYS A 131      26.157  24.527  17.312  1.00 24.33     0.041 C 
BRANCH   4   5
ATOM      5  CE  LYS A 131      26.034  25.504  18.477  1.00 26.91     0.338 C 
ATOM      6  NZ  LYS A 131      25.522  24.811  19.683  1.00 27.40     0.618 N 
ENDBRANCH   4   5
ENDBRANCH   3   4
ENDBRANCH   2   3
ENDBRANCH   1   2
END_RES LYS A 131
BEGIN_RES LYS A 135
REMARK  4 active torsions:
REMARK  status: ('A' for Active; 'I' for Inactive)
REMARK    5  A    between atoms: CA   and  CB  
REMARK    6  A    between atoms: CB   and  CG  
REMARK    7  A    between atoms: CG   and  CD  
REMARK    8  A    between atoms: CD   and  CE  
ROOT
ATOM      7  CA  LYS A 135      33.193  34.663   9.290  1.00 25.02     0.186 C 
ENDROOT
BRANCH   7   8
ATOM      8  CB  LYS A 135      32.060  35.360  10.034  1.00 26.63     0.034 C 
BRANCH   8   9
ATOM      9  CG  LYS A 135      30.870  34.471  10.289  1.00 29.45     0.005 C 
BRANCH   9  10
ATOM     10  CD  LYS A 135      29.939  35.101  11.314  1.00 32.00     0.041 C 
BRANCH  10  11
ATOM     11  CE  LYS A 135      30.201  34.529  12.694  1.00 34.25     0.338 C 
ATOM     12  NZ  LYS A 135      28.959  34.518  13.514  1.00 35.99     0.618 N 
ENDBRANCH  10  11
ENDBRANCH   9  10
ENDBRANCH   8   9
ENDBRANCH   7   8
END_RES LYS A 135
