REMARK VINA RESULT:    -5.209      2.792      6.407
REMARK INTER + INTRA:         -23.069
REMARK INTER:                 -12.638
REMARK INTRA:                 -10.430
REMARK UNBOUND:                -9.487
REMARK SMILES CC(=O)N[C@@H]1[C@@H](O)C[C@](OC[C@H]2O[C@@H](O[C@H]3[C@H](O)[C@@H](O)[C@H](OCCN=[N+]=[N-])O[C@@H]3CO)[C@H](O)[C@@H](O)[C@H]2O)(C(=O)O)O[C@H]1C(O)[C@H](O)CNC(=O)OCc1cn(Cc2ccc(C(=O)O)cc2)nn1
REMARK SMILES IDX 43 1 42 2 9 3 8 4 41 5 6 6 5 7 10 8 11 9 12 10 14 11 13 12
REMARK SMILES IDX 32 13 34 14 36 15 15 16 16 17 29 18 28 19 21 20 17 21 19 22
REMARK SMILES IDX 30 23 31 24 22 26 23 27 24 28 25 29 26 30 27 31 18 32 20 34
REMARK SMILES IDX 33 36 35 38 37 40 38 42 39 43 40 44 7 46 4 48 2 49 1 51 3 52
REMARK SMILES IDX 44 53 45 55 46 56 47 58 48 59 49 60 50 62 51 63 52 64 53 65
REMARK SMILES IDX 54 66 67 67 55 68 66 69 56 70 57 71 58 72 65 73 59 74 64 75
REMARK SMILES IDX 60 76 61 77 62 78 63 79
REMARK H PARENT 31 25 18 33 20 35 33 37 35 39 37 41 40 45 7 47 4 50 44 54
REMARK H PARENT 46 57 48 61 63 80
REMARK Flexibility Score: inf
ROOT
ATOM      1  C   UNL     1      29.376  38.514   7.097  1.00  0.00     0.176 C 
ENDROOT
BRANCH   1   2
ATOM      2  C   UNL     1      27.965  38.995   7.499  1.00  0.00     0.178 C 
ATOM      3  C   UNL     1      26.536  38.325   9.262  1.00  0.00     0.272 C 
ATOM      4  C   UNL     1      25.512  37.991   8.253  1.00  0.00     0.113 C 
ATOM      5  O   UNL     1      27.788  38.569   8.758  1.00  0.00    -0.332 OA
ATOM      6  C   UNL     1      26.096  37.481   6.952  1.00  0.00     0.145 C 
ATOM      7  C   UNL     1      27.030  38.543   6.453  1.00  0.00     0.142 C 
BRANCH   3   8
ATOM      8  O   UNL     1      26.699  37.312  10.170  1.00  0.00    -0.338 OA
BRANCH   8   9
ATOM      9  C   UNL     1      27.918  37.055  10.688  1.00  0.00     0.199 C 
BRANCH   9  10
ATOM     10  C   UNL     1      27.811  36.831  12.215  1.00  0.00     0.179 C 
ATOM     11  C   UNL     1      26.326  37.138  13.985  1.00  0.00     0.282 C 
ATOM     12  O   UNL     1      26.665  37.421  12.663  1.00  0.00    -0.341 OA
ATOM     13  C   UNL     1      27.385  36.427  14.748  1.00  0.00     0.202 C 
ATOM     14  C   UNL     1      27.740  35.160  13.999  1.00  0.00     0.179 C 
ATOM     15  C   UNL     1      27.871  35.357  12.521  1.00  0.00     0.177 C 
BRANCH  11  16
ATOM     16  O   UNL     1      25.140  36.405  13.973  1.00  0.00    -0.341 OA
BRANCH  16  17
ATOM     17  C   UNL     1      24.189  36.981  13.182  1.00  0.00     0.184 C 
ATOM     18  C   UNL     1      23.014  37.465  13.949  1.00  0.00     0.178 C 
ATOM     19  O   UNL     1      22.195  38.281  13.154  1.00  0.00    -0.341 OA
ATOM     20  C   UNL     1      22.049  37.745  11.873  1.00  0.00     0.281 C 
ATOM     21  C   UNL     1      23.735  35.895  12.189  1.00  0.00     0.180 C 
ATOM     22  C   UNL     1      22.323  36.272  11.792  1.00  0.00     0.202 C 
BRANCH  18  23
ATOM     23  C   UNL     1      23.448  38.272  15.139  1.00  0.00     0.191 C 
BRANCH  23  24
ATOM     24  O   UNL     1      24.044  39.441  14.612  1.00  0.00    -0.394 OA
ATOM     25  H   UNL     1      24.052  39.407  13.636  1.00  0.00     0.210 HD
ENDBRANCH  23  24
ENDBRANCH  18  23
BRANCH  20  26
ATOM     26  O   UNL     1      22.818  38.470  10.993  1.00  0.00    -0.350 OA
BRANCH  26  27
ATOM     27  C   UNL     1      22.115  39.180  10.047  1.00  0.00     0.169 C 
BRANCH  27  28
ATOM     28  C   UNL     1      21.905  38.485   8.744  1.00  0.00     0.119 C 
BRANCH  28  29
ATOM     29  N   UNL     1      20.470  38.168   8.665  1.00  0.00    -0.092 NA
ATOM     30  N   UNL     1      20.050  37.137   8.151  1.00  0.00     0.001 N 
ATOM     31  N   UNL     1      19.873  36.122   7.485  1.00  0.00    -0.003 NA
ENDBRANCH  28  29
ENDBRANCH  27  28
ENDBRANCH  26  27
ENDBRANCH  20  26
BRANCH  21  32
ATOM     32  O   UNL     1      24.580  35.857  11.101  1.00  0.00    -0.387 OA
ATOM     33  H   UNL     1      24.454  36.665  10.505  1.00  0.00     0.211 HD
ENDBRANCH  21  32
BRANCH  22  34
ATOM     34  O   UNL     1      21.423  35.535  12.526  1.00  0.00    -0.385 OA
ATOM     35  H   UNL     1      21.642  34.587  12.552  1.00  0.00     0.211 HD
ENDBRANCH  22  34
ENDBRANCH  16  17
ENDBRANCH  11  16
BRANCH  13  36
ATOM     36  O   UNL     1      28.529  37.221  14.920  1.00  0.00    -0.385 OA
ATOM     37  H   UNL     1      29.294  36.673  14.594  1.00  0.00     0.211 HD
ENDBRANCH  13  36
BRANCH  14  38
ATOM     38  O   UNL     1      26.815  34.146  14.251  1.00  0.00    -0.387 OA
ATOM     39  H   UNL     1      25.919  34.570  14.365  1.00  0.00     0.211 HD
ENDBRANCH  14  38
BRANCH  15  40
ATOM     40  O   UNL     1      26.902  34.642  11.804  1.00  0.00    -0.387 OA
ATOM     41  H   UNL     1      26.622  33.880  12.376  1.00  0.00     0.211 HD
ENDBRANCH  15  40
ENDBRANCH   9  10
ENDBRANCH   8   9
ENDBRANCH   3   8
BRANCH   3  42
ATOM     42  C   UNL     1      26.122  39.602   9.953  1.00  0.00     0.364 C 
ATOM     43  O   UNL     1      26.322  40.718   9.411  1.00  0.00    -0.246 OA
BRANCH  42  44
ATOM     44  O   UNL     1      25.510  39.591  11.195  1.00  0.00    -0.477 OA
ATOM     45  H   UNL     1      25.466  38.686  11.688  1.00  0.00     0.296 HD
ENDBRANCH  42  44
ENDBRANCH   3  42
BRANCH   6  46
ATOM     46  O   UNL     1      26.700  36.271   7.212  1.00  0.00    -0.391 OA
ATOM     47  H   UNL     1      26.316  35.569   6.624  1.00  0.00     0.211 HD
ENDBRANCH   6  46
BRANCH   7  48
ATOM     48  N   UNL     1      26.234  39.673   5.992  1.00  0.00    -0.348 N 
ATOM     49  C   UNL     1      26.513  40.320   4.738  1.00  0.00     0.217 C 
ATOM     50  H   UNL     1      25.433  40.080   6.519  1.00  0.00     0.163 HD
ATOM     51  C   UNL     1      25.671  41.478   4.299  1.00  0.00     0.114 C 
ATOM     52  O   UNL     1      27.454  39.898   4.047  1.00  0.00    -0.275 OA
ENDBRANCH   7  48
ENDBRANCH   1   2
BRANCH   1  53
ATOM     53  O   UNL     1      29.377  37.484   6.214  1.00  0.00    -0.388 OA
ATOM     54  H   UNL     1      28.608  36.873   6.246  1.00  0.00     0.211 HD
ENDBRANCH   1  53
BRANCH   1  55
ATOM     55  C   UNL     1      30.250  39.672   6.679  1.00  0.00     0.165 C 
BRANCH  55  56
ATOM     56  O   UNL     1      30.030  39.956   5.369  1.00  0.00    -0.388 OA
ATOM     57  H   UNL     1      29.276  40.545   5.172  1.00  0.00     0.211 HD
ENDBRANCH  55  56
BRANCH  55  58
ATOM     58  C   UNL     1      31.641  39.452   7.133  1.00  0.00     0.154 C 
BRANCH  58  59
ATOM     59  N   UNL     1      31.717  38.555   8.253  1.00  0.00    -0.319 N 
ATOM     60  C   UNL     1      31.934  38.965   9.587  1.00  0.00     0.407 C 
ATOM     61  H   UNL     1      31.608  37.515   8.097  1.00  0.00     0.167 HD
ATOM     62  O   UNL     1      32.076  40.158   9.896  1.00  0.00    -0.225 OA
BRANCH  60  63
ATOM     63  O   UNL     1      32.001  38.055  10.662  1.00  0.00    -0.443 OA
BRANCH  63  64
ATOM     64  C   UNL     1      31.171  38.242  11.794  1.00  0.00     0.294 C 
BRANCH  64  65
ATOM     65  C   UNL     1      31.570  37.403  12.937  1.00  0.00     0.120 A 
ATOM     66  C   UNL     1      32.320  36.260  12.964  1.00  0.00     0.138 A 
ATOM     67  N   UNL     1      31.210  37.652  14.211  1.00  0.00    -0.132 NA
ATOM     68  N   UNL     1      32.392  35.846  14.249  1.00  0.00    -0.248 N 
ATOM     69  N   UNL     1      31.712  36.707  14.984  1.00  0.00    -0.067 NA
BRANCH  68  70
ATOM     70  C   UNL     1      33.092  34.670  14.697  1.00  0.00     0.181 C 
BRANCH  70  71
ATOM     71  C   UNL     1      32.225  33.846  15.563  1.00  0.00    -0.026 A 
ATOM     72  C   UNL     1      31.615  32.720  15.054  1.00  0.00     0.006 A 
ATOM     73  C   UNL     1      32.005  34.210  16.888  1.00  0.00     0.006 A 
ATOM     74  C   UNL     1      30.802  32.003  15.914  1.00  0.00     0.016 A 
ATOM     75  C   UNL     1      31.192  33.494  17.738  1.00  0.00     0.016 A 
ATOM     76  C   UNL     1      30.586  32.370  17.227  1.00  0.00     0.059 A 
BRANCH  76  77
ATOM     77  C   UNL     1      29.713  31.576  18.078  1.00  0.00     0.335 C 
ATOM     78  O   UNL     1      28.569  31.970  18.339  1.00  0.00    -0.246 OA
BRANCH  77  79
ATOM     79  O   UNL     1      30.164  30.382  18.594  1.00  0.00    -0.478 OA
ATOM     80  H   UNL     1      29.618  29.524  18.537  1.00  0.00     0.297 HD
ENDBRANCH  77  79
ENDBRANCH  76  77
ENDBRANCH  70  71
ENDBRANCH  68  70
ENDBRANCH  64  65
ENDBRANCH  63  64
ENDBRANCH  60  63
ENDBRANCH  58  59
ENDBRANCH  55  58
ENDBRANCH   1  55
TORSDOF 33
BEGIN_RES LYS A 131
REMARK  4 active torsions:
REMARK  status: ('A' for Active; 'I' for Inactive)
REMARK    1  A    between atoms: CA   and  CB  
REMARK    2  A    between atoms: CB   and  CG  
REMARK    3  A    between atoms: CG   and  CD  
REMARK    4  A    between atoms: CD   and  CE  
ROOT
ATOM      1  CA  LYS A 131      29.867  25.555  16.977  1.00 20.52     0.186 C 
ENDROOT
BRANCH   1   2
ATOM      2  CB  LYS A 131      28.345  25.722  17.026  1.00 20.94     0.034 C 
BRANCH   2   3
ATOM      3  CG  LYS A 131      27.599  24.448  16.662  1.00 22.96     0.005 C 
BRANCH   3   4
ATOM      4  CD  LYS A 131      27.010  23.771  17.869  1.00 24.33     0.041 C 
BRANCH   4   5
ATOM      5  CE  LYS A 131      25.545  23.440  17.603  1.00 26.91     0.338 C 
ATOM      6  NZ  LYS A 131      24.775  24.676  17.328  1.00 27.40     0.618 N 
ENDBRANCH   4   5
ENDBRANCH   3   4
ENDBRANCH   2   3
ENDBRANCH   1   2
END_RES LYS A 131
BEGIN_RES LYS A 135
REMARK  4 active torsions:
REMARK  status: ('A' for Active; 'I' for Inactive)
REMARK    5  A    between atoms: CA   and  CB  
REMARK    6  A    between atoms: CB   and  CG  
REMARK    7  A    between atoms: CG   and  CD  
REMARK    8  A    between atoms: CD   and  CE  
ROOT
ATOM      7  CA  LYS A 135      33.193  34.663   9.290  1.00 25.02     0.186 C 
ENDROOT
BRANCH   7   8
ATOM      8  CB  LYS A 135      32.060  35.360  10.034  1.00 26.63     0.034 C 
BRANCH   8   9
ATOM      9  CG  LYS A 135      30.719  34.699   9.845  1.00 29.45     0.005 C 
BRANCH   9  10
ATOM     10  CD  LYS A 135      30.417  34.510   8.367  1.00 32.00     0.041 C 
BRANCH  10  11
ATOM     11  CE  LYS A 135      28.920  34.500   8.126  1.00 34.25     0.338 C 
ATOM     12  NZ  LYS A 135      28.207  33.765   9.208  1.00 35.99     0.618 N 
ENDBRANCH  10  11
ENDBRANCH   9  10
ENDBRANCH   8   9
ENDBRANCH   7   8
END_RES LYS A 135
