REMARK VINA RESULT:    -3.892      4.754      8.635
REMARK INTER + INTRA:         -22.507
REMARK INTER:                 -11.364
REMARK INTRA:                 -11.143
REMARK UNBOUND:               -12.699
REMARK SMILES CC(=O)N[C@@H]1[C@@H](O)C[C@](OC[C@H]2O[C@@H](O[C@H]3[C@H](O)[C@@H](O)[C@H](OCCN=[N+]=[N-])O[C@@H]3CO)[C@H](O)[C@@H](O)[C@H]2O)(C(=O)O)O[C@H]1C(O)[C@H](O)CNC(=O)OCc1cn(Cc2ccc(Br)cc2)nn1
REMARK SMILES IDX 9 1 8 2 6 3 5 4 42 5 41 6 10 7 11 8 12 9 14 10 13 11 32 12
REMARK SMILES IDX 34 13 36 14 15 15 16 16 29 17 28 18 21 19 17 20 19 21 30 22
REMARK SMILES IDX 31 23 22 25 23 26 24 27 25 28 26 29 27 30 18 31 20 33 33 35
REMARK SMILES IDX 35 37 37 39 38 41 39 42 40 43 7 45 43 47 44 48 45 50 46 51
REMARK SMILES IDX 47 53 48 54 49 55 50 57 51 58 52 59 53 60 54 61 65 62 55 63
REMARK SMILES IDX 64 64 56 65 57 66 58 67 63 68 59 69 62 70 60 71 61 72 4 73
REMARK SMILES IDX 2 74 1 76 3 77
REMARK H PARENT 31 24 18 32 20 34 33 36 35 38 37 40 40 44 7 46 44 49 46 52
REMARK H PARENT 48 56 4 75
REMARK Flexibility Score: inf
ROOT
ATOM      1  C   UNL     1      29.126  39.011  11.357  1.00  0.00     0.272 C 
ATOM      2  C   UNL     1      30.541  39.176  11.779  1.00  0.00     0.113 C 
ATOM      3  C   UNL     1      31.227  38.036  12.422  1.00  0.00     0.145 C 
ATOM      4  C   UNL     1      30.262  36.977  13.018  1.00  0.00     0.142 C 
ATOM      5  C   UNL     1      29.060  37.806  13.377  1.00  0.00     0.178 C 
ATOM      6  O   UNL     1      28.451  38.034  12.111  1.00  0.00    -0.332 OA
ENDROOT
BRANCH   1   7
ATOM      7  O   UNL     1      28.795  39.003  10.070  1.00  0.00    -0.338 OA
BRANCH   7   8
ATOM      8  C   UNL     1      29.398  38.972   8.944  1.00  0.00     0.199 C 
BRANCH   8   9
ATOM      9  C   UNL     1      28.863  38.003   7.916  1.00  0.00     0.179 C 
ATOM     10  C   UNL     1      27.228  36.506   7.431  1.00  0.00     0.282 C 
ATOM     11  O   UNL     1      27.848  37.219   8.397  1.00  0.00    -0.341 OA
ATOM     12  C   UNL     1      27.918  36.447   6.080  1.00  0.00     0.202 C 
ATOM     13  C   UNL     1      28.319  37.823   5.597  1.00  0.00     0.179 C 
ATOM     14  C   UNL     1      28.270  38.813   6.752  1.00  0.00     0.177 C 
BRANCH  10  15
ATOM     15  O   UNL     1      25.918  36.758   7.196  1.00  0.00    -0.341 OA
BRANCH  15  16
ATOM     16  C   UNL     1      25.022  37.047   8.150  1.00  0.00     0.184 C 
ATOM     17  C   UNL     1      24.736  35.980   9.156  1.00  0.00     0.178 C 
ATOM     18  O   UNL     1      23.452  35.509   9.120  1.00  0.00    -0.341 OA
ATOM     19  C   UNL     1      22.481  36.465   9.387  1.00  0.00     0.281 C 
ATOM     20  C   UNL     1      23.720  37.471   7.504  1.00  0.00     0.180 C 
ATOM     21  C   UNL     1      22.723  37.739   8.603  1.00  0.00     0.202 C 
BRANCH  17  22
ATOM     22  C   UNL     1      25.120  36.475  10.531  1.00  0.00     0.191 C 
BRANCH  22  23
ATOM     23  O   UNL     1      25.966  37.600  10.453  1.00  0.00    -0.394 OA
ATOM     24  H   UNL     1      26.899  37.350  10.577  1.00  0.00     0.210 HD
ENDBRANCH  22  23
ENDBRANCH  17  22
BRANCH  19  25
ATOM     25  O   UNL     1      22.302  36.731  10.734  1.00  0.00    -0.350 OA
BRANCH  25  26
ATOM     26  C   UNL     1      21.301  36.027  11.348  1.00  0.00     0.169 C 
BRANCH  26  27
ATOM     27  C   UNL     1      20.009  36.005  10.584  1.00  0.00     0.119 C 
BRANCH  27  28
ATOM     28  N   UNL     1      19.429  37.341  10.546  1.00  0.00    -0.092 NA
ATOM     29  N   UNL     1      18.824  37.720   9.545  1.00  0.00     0.001 N 
ATOM     30  N   UNL     1      18.384  38.306   8.530  1.00  0.00    -0.003 NA
ENDBRANCH  27  28
ENDBRANCH  26  27
ENDBRANCH  25  26
ENDBRANCH  19  25
BRANCH  20  31
ATOM     31  O   UNL     1      23.971  38.703   6.868  1.00  0.00    -0.387 OA
ATOM     32  H   UNL     1      23.757  39.453   7.489  1.00  0.00     0.211 HD
ENDBRANCH  20  31
BRANCH  21  33
ATOM     33  O   UNL     1      21.538  38.283   8.119  1.00  0.00    -0.385 OA
ATOM     34  H   UNL     1      21.778  38.885   7.369  1.00  0.00     0.211 HD
ENDBRANCH  21  33
ENDBRANCH  15  16
ENDBRANCH  10  15
BRANCH  12  35
ATOM     35  O   UNL     1      29.025  35.616   6.058  1.00  0.00    -0.385 OA
ATOM     36  H   UNL     1      28.941  34.802   6.607  1.00  0.00     0.211 HD
ENDBRANCH  12  35
BRANCH  13  37
ATOM     37  O   UNL     1      27.553  38.271   4.529  1.00  0.00    -0.387 OA
ATOM     38  H   UNL     1      27.874  37.796   3.723  1.00  0.00     0.211 HD
ENDBRANCH  13  37
BRANCH  14  39
ATOM     39  O   UNL     1      26.951  39.107   7.118  1.00  0.00    -0.387 OA
ATOM     40  H   UNL     1      26.332  38.679   6.494  1.00  0.00     0.211 HD
ENDBRANCH  14  39
ENDBRANCH   8   9
ENDBRANCH   7   8
ENDBRANCH   1   7
BRANCH   1  41
ATOM     41  C   UNL     1      28.424  40.291  11.843  1.00  0.00     0.364 C 
ATOM     42  O   UNL     1      27.196  40.327  11.798  1.00  0.00    -0.246 OA
BRANCH  41  43
ATOM     43  O   UNL     1      29.112  41.376  12.317  1.00  0.00    -0.477 OA
ATOM     44  H   UNL     1      29.847  41.806  11.734  1.00  0.00     0.296 HD
ENDBRANCH  41  43
ENDBRANCH   1  41
BRANCH   3  45
ATOM     45  O   UNL     1      32.236  37.429  11.692  1.00  0.00    -0.391 OA
ATOM     46  H   UNL     1      32.362  37.933  10.859  1.00  0.00     0.211 HD
ENDBRANCH   3  45
BRANCH   5  47
ATOM     47  C   UNL     1      28.064  37.215  14.303  1.00  0.00     0.176 C 
BRANCH  47  48
ATOM     48  O   UNL     1      28.618  36.673  15.415  1.00  0.00    -0.388 OA
ATOM     49  H   UNL     1      27.967  36.405  16.073  1.00  0.00     0.211 HD
ENDBRANCH  47  48
BRANCH  47  50
ATOM     50  C   UNL     1      26.784  37.904  14.532  1.00  0.00     0.165 C 
BRANCH  50  51
ATOM     51  O   UNL     1      26.046  38.081  13.350  1.00  0.00    -0.388 OA
ATOM     52  H   UNL     1      25.732  37.262  12.939  1.00  0.00     0.211 HD
ENDBRANCH  50  51
BRANCH  50  53
ATOM     53  C   UNL     1      26.733  39.107  15.383  1.00  0.00     0.154 C 
BRANCH  53  54
ATOM     54  N   UNL     1      27.871  39.293  16.266  1.00  0.00    -0.319 N 
ATOM     55  C   UNL     1      28.775  40.374  16.101  1.00  0.00     0.407 C 
ATOM     56  H   UNL     1      28.080  38.645  17.066  1.00  0.00     0.167 HD
ATOM     57  O   UNL     1      28.589  41.219  15.168  1.00  0.00    -0.225 OA
BRANCH  55  58
ATOM     58  O   UNL     1      29.886  40.578  16.915  1.00  0.00    -0.443 OA
BRANCH  58  59
ATOM     59  C   UNL     1      29.980  39.908  18.186  1.00  0.00     0.294 C 
BRANCH  59  60
ATOM     60  C   UNL     1      30.344  38.489  18.046  1.00  0.00     0.120 A 
ATOM     61  C   UNL     1      30.200  37.528  19.028  1.00  0.00     0.138 A 
ATOM     62  N   UNL     1      30.870  37.878  16.983  1.00  0.00    -0.132 NA
ATOM     63  N   UNL     1      30.641  36.365  18.533  1.00  0.00    -0.248 N 
ATOM     64  N   UNL     1      31.039  36.608  17.300  1.00  0.00    -0.067 NA
BRANCH  63  65
ATOM     65  C   UNL     1      30.675  35.066  19.174  1.00  0.00     0.181 C 
BRANCH  65  66
ATOM     66  C   UNL     1      30.126  33.973  18.340  1.00  0.00    -0.026 A 
ATOM     67  C   UNL     1      30.866  32.792  18.238  1.00  0.00     0.007 A 
ATOM     68  C   UNL     1      28.935  34.037  17.674  1.00  0.00     0.007 A 
ATOM     69  C   UNL     1      30.390  31.734  17.482  1.00  0.00     0.016 A 
ATOM     70  C   UNL     1      28.443  32.978  16.909  1.00  0.00     0.016 A 
ATOM     71  C   UNL     1      29.179  31.828  16.819  1.00  0.00     0.017 A 
ATOM     72  Br  UNL     1      28.547  30.336  15.781  1.00  0.00    -0.051 Br
ENDBRANCH  65  66
ENDBRANCH  63  65
ENDBRANCH  59  60
ENDBRANCH  58  59
ENDBRANCH  55  58
ENDBRANCH  53  54
ENDBRANCH  50  53
ENDBRANCH  47  50
ENDBRANCH   5  47
BRANCH   4  73
ATOM     73  N   UNL     1      30.909  36.283  14.071  1.00  0.00    -0.348 N 
ATOM     74  C   UNL     1      31.203  34.903  13.951  1.00  0.00     0.217 C 
ATOM     75  H   UNL     1      31.190  36.781  14.933  1.00  0.00     0.163 HD
ATOM     76  C   UNL     1      31.873  34.089  14.969  1.00  0.00     0.114 C 
ATOM     77  O   UNL     1      30.862  34.309  12.867  1.00  0.00    -0.275 OA
ENDBRANCH   4  73
TORSDOF 31
BEGIN_RES LYS A 131
REMARK  4 active torsions:
REMARK  status: ('A' for Active; 'I' for Inactive)
REMARK    1  A    between atoms: CA   and  CB  
REMARK    2  A    between atoms: CB   and  CG  
REMARK    3  A    between atoms: CG   and  CD  
REMARK    4  A    between atoms: CD   and  CE  
ROOT
ATOM      1  CA  LYS A 131      29.867  25.555  16.977  1.00 20.52     0.186 C 
ENDROOT
BRANCH   1   2
ATOM      2  CB  LYS A 131      28.345  25.722  17.026  1.00 20.94     0.034 C 
BRANCH   2   3
ATOM      3  CG  LYS A 131      27.602  24.397  16.941  1.00 22.96     0.005 C 
BRANCH   3   4
ATOM      4  CD  LYS A 131      26.137  24.549  17.243  1.00 24.33     0.041 C 
BRANCH   4   5
ATOM      5  CE  LYS A 131      25.861  24.090  18.671  1.00 26.91     0.338 C 
ATOM      6  NZ  LYS A 131      25.760  25.256  19.581  1.00 27.40     0.618 N 
ENDBRANCH   4   5
ENDBRANCH   3   4
ENDBRANCH   2   3
ENDBRANCH   1   2
END_RES LYS A 131
BEGIN_RES LYS A 135
REMARK  4 active torsions:
REMARK  status: ('A' for Active; 'I' for Inactive)
REMARK    5  A    between atoms: CA   and  CB  
REMARK    6  A    between atoms: CB   and  CG  
REMARK    7  A    between atoms: CG   and  CD  
REMARK    8  A    between atoms: CD   and  CE  
ROOT
ATOM      7  CA  LYS A 135      33.193  34.663   9.290  1.00 25.02     0.186 C 
ENDROOT
BRANCH   7   8
ATOM      8  CB  LYS A 135      32.060  35.360  10.034  1.00 26.63     0.034 C 
BRANCH   8   9
ATOM      9  CG  LYS A 135      30.767  35.399   9.262  1.00 29.45     0.005 C 
BRANCH   9  10
ATOM     10  CD  LYS A 135      30.221  33.995   9.057  1.00 32.00     0.041 C 
BRANCH  10  11
ATOM     11  CE  LYS A 135      28.741  33.945   9.385  1.00 34.25     0.338 C 
ATOM     12  NZ  LYS A 135      28.437  34.731  10.613  1.00 35.99     0.618 N 
ENDBRANCH  10  11
ENDBRANCH   9  10
ENDBRANCH   8   9
ENDBRANCH   7   8
END_RES LYS A 135
