REMARK VINA RESULT:    -4.307      2.170      3.751
REMARK INTER + INTRA:         -22.476
REMARK INTER:                 -10.692
REMARK INTRA:                 -11.785
REMARK UNBOUND:               -11.119
REMARK SMILES CC(=O)N[C@@H]1[C@@H](O)C[C@](OC[C@H]2O[C@@H](O[C@H]3[C@H](O)[C@@H](O)[C@H](OCCN=[N+]=[N-])O[C@@H]3CO)[C@H](O)[C@@H](O)[C@H]2O)(C(=O)O)O[C@H]1C(O)[C@H](O)CNC(=O)OCc1cn(CC(O)CO)nn1
REMARK SMILES IDX 43 1 42 2 9 3 8 4 41 5 6 6 5 7 10 8 11 9 12 10 14 11 13 12
REMARK SMILES IDX 32 13 34 14 36 15 15 16 16 17 29 18 28 19 21 20 17 21 19 22
REMARK SMILES IDX 30 23 31 24 22 26 23 27 24 28 25 29 26 30 27 31 18 32 20 34
REMARK SMILES IDX 33 36 35 38 37 40 38 42 39 43 40 44 7 46 4 48 2 49 1 51 3 52
REMARK SMILES IDX 44 53 45 55 46 56 47 58 48 59 49 60 50 62 51 63 52 64 53 65
REMARK SMILES IDX 54 66 62 67 55 68 61 69 56 70 57 71 58 72 59 74 60 75
REMARK H PARENT 31 25 18 33 20 35 33 37 35 39 37 41 40 45 7 47 4 50 44 54
REMARK H PARENT 46 57 48 61 58 73 60 76
REMARK Flexibility Score: inf
ROOT
ATOM      1  C   UNL     1      27.953  33.939  14.859  1.00  0.00     0.176 C 
ENDROOT
BRANCH   1   2
ATOM      2  C   UNL     1      28.741  35.191  14.430  1.00  0.00     0.178 C 
ATOM      3  C   UNL     1      28.989  36.737  12.662  1.00  0.00     0.272 C 
ATOM      4  C   UNL     1      30.479  36.542  12.675  1.00  0.00     0.113 C 
ATOM      5  O   UNL     1      28.376  35.605  13.220  1.00  0.00    -0.332 OA
ATOM      6  C   UNL     1      31.005  35.381  13.432  1.00  0.00     0.145 C 
ATOM      7  C   UNL     1      30.189  34.911  14.578  1.00  0.00     0.142 C 
BRANCH   3   8
ATOM      8  O   UNL     1      28.542  36.867  11.430  1.00  0.00    -0.338 OA
BRANCH   8   9
ATOM      9  C   UNL     1      28.393  37.662  10.457  1.00  0.00     0.199 C 
BRANCH   9  10
ATOM     10  C   UNL     1      27.178  37.747   9.591  1.00  0.00     0.179 C 
ATOM     11  C   UNL     1      25.371  36.507   8.934  1.00  0.00     0.282 C 
ATOM     12  O   UNL     1      26.253  36.708   9.991  1.00  0.00    -0.341 OA
ATOM     13  C   UNL     1      25.181  37.678   8.032  1.00  0.00     0.202 C 
ATOM     14  C   UNL     1      25.333  39.021   8.678  1.00  0.00     0.179 C 
ATOM     15  C   UNL     1      26.319  38.989   9.834  1.00  0.00     0.177 C 
BRANCH  11  16
ATOM     16  O   UNL     1      24.138  36.010   9.303  1.00  0.00    -0.341 OA
BRANCH  16  17
ATOM     17  C   UNL     1      23.776  36.307  10.615  1.00  0.00     0.184 C 
ATOM     18  C   UNL     1      23.752  35.046  11.424  1.00  0.00     0.178 C 
ATOM     19  O   UNL     1      22.492  34.723  11.904  1.00  0.00    -0.341 OA
ATOM     20  C   UNL     1      21.513  34.916  10.916  1.00  0.00     0.281 C 
ATOM     21  C   UNL     1      22.543  37.110  10.635  1.00  0.00     0.180 C 
ATOM     22  C   UNL     1      21.258  36.404  10.893  1.00  0.00     0.202 C 
BRANCH  18  23
ATOM     23  C   UNL     1      24.691  35.112  12.612  1.00  0.00     0.191 C 
BRANCH  23  24
ATOM     24  O   UNL     1      25.530  36.215  12.546  1.00  0.00    -0.394 OA
ATOM     25  H   UNL     1      26.268  36.057  13.218  1.00  0.00     0.210 HD
ENDBRANCH  23  24
ENDBRANCH  18  23
BRANCH  20  26
ATOM     26  O   UNL     1      20.392  34.221  11.341  1.00  0.00    -0.350 OA
BRANCH  26  27
ATOM     27  C   UNL     1      20.551  33.572  12.555  1.00  0.00     0.169 C 
BRANCH  27  28
ATOM     28  C   UNL     1      20.621  32.067  12.415  1.00  0.00     0.119 C 
BRANCH  28  29
ATOM     29  N   UNL     1      21.826  31.518  12.976  1.00  0.00    -0.092 NA
ATOM     30  N   UNL     1      22.309  30.428  12.693  1.00  0.00     0.001 N 
ATOM     31  N   UNL     1      22.630  29.279  12.391  1.00  0.00    -0.003 NA
ENDBRANCH  28  29
ENDBRANCH  27  28
ENDBRANCH  26  27
ENDBRANCH  20  26
BRANCH  21  32
ATOM     32  O   UNL     1      22.632  38.188  11.551  1.00  0.00    -0.387 OA
ATOM     33  H   UNL     1      22.406  37.765  12.441  1.00  0.00     0.211 HD
ENDBRANCH  21  32
BRANCH  22  34
ATOM     34  O   UNL     1      20.241  36.744  10.005  1.00  0.00    -0.385 OA
ATOM     35  H   UNL     1      20.558  37.224   9.222  1.00  0.00     0.211 HD
ENDBRANCH  22  34
ENDBRANCH  16  17
ENDBRANCH  11  16
BRANCH  13  36
ATOM     36  O   UNL     1      25.930  37.556   6.839  1.00  0.00    -0.385 OA
ATOM     37  H   UNL     1      25.544  38.052   6.094  1.00  0.00     0.211 HD
ENDBRANCH  13  36
BRANCH  14  38
ATOM     38  O   UNL     1      24.124  39.589   9.072  1.00  0.00    -0.387 OA
ATOM     39  H   UNL     1      23.803  40.193   8.359  1.00  0.00     0.211 HD
ENDBRANCH  14  38
BRANCH  15  40
ATOM     40  O   UNL     1      25.556  38.711  11.000  1.00  0.00    -0.387 OA
ATOM     41  H   UNL     1      24.681  39.166  10.957  1.00  0.00     0.211 HD
ENDBRANCH  15  40
ENDBRANCH   9  10
ENDBRANCH   8   9
ENDBRANCH   3   8
BRANCH   3  42
ATOM     42  C   UNL     1      28.592  37.912  13.505  1.00  0.00     0.364 C 
ATOM     43  O   UNL     1      27.359  38.219  13.495  1.00  0.00    -0.246 OA
BRANCH  42  44
ATOM     44  O   UNL     1      29.473  38.644  14.257  1.00  0.00    -0.477 OA
ATOM     45  H   UNL     1      29.405  39.664  14.334  1.00  0.00     0.296 HD
ENDBRANCH  42  44
ENDBRANCH   3  42
BRANCH   6  46
ATOM     46  O   UNL     1      31.133  34.312  12.514  1.00  0.00    -0.391 OA
ATOM     47  H   UNL     1      30.901  33.473  12.958  1.00  0.00     0.211 HD
ENDBRANCH   6  46
BRANCH   7  48
ATOM     48  N   UNL     1      30.760  35.430  15.818  1.00  0.00    -0.348 N 
ATOM     49  C   UNL     1      31.290  34.576  16.818  1.00  0.00     0.217 C 
ATOM     50  H   UNL     1      30.797  36.450  16.014  1.00  0.00     0.163 HD
ATOM     51  C   UNL     1      31.871  35.099  18.081  1.00  0.00     0.114 C 
ATOM     52  O   UNL     1      31.256  33.338  16.603  1.00  0.00    -0.275 OA
ENDBRANCH   7  48
ENDBRANCH   1   2
BRANCH   1  53
ATOM     53  O   UNL     1      28.835  32.898  15.071  1.00  0.00    -0.388 OA
ATOM     54  H   UNL     1      28.967  32.377  14.240  1.00  0.00     0.211 HD
ENDBRANCH   1  53
BRANCH   1  55
ATOM     55  C   UNL     1      27.181  34.225  16.137  1.00  0.00     0.165 C 
BRANCH  55  56
ATOM     56  O   UNL     1      27.624  33.239  17.052  1.00  0.00    -0.388 OA
ATOM     57  H   UNL     1      27.967  33.679  17.868  1.00  0.00     0.211 HD
ENDBRANCH  55  56
BRANCH  55  58
ATOM     58  C   UNL     1      25.703  34.102  15.992  1.00  0.00     0.154 C 
BRANCH  58  59
ATOM     59  N   UNL     1      25.226  32.780  16.341  1.00  0.00    -0.319 N 
ATOM     60  C   UNL     1      24.906  31.838  15.337  1.00  0.00     0.407 C 
ATOM     61  H   UNL     1      25.104  32.475  17.347  1.00  0.00     0.167 HD
ATOM     62  O   UNL     1      25.007  32.106  14.118  1.00  0.00    -0.225 OA
BRANCH  60  63
ATOM     63  O   UNL     1      24.470  30.569  15.662  1.00  0.00    -0.443 OA
BRANCH  63  64
ATOM     64  C   UNL     1      25.237  29.480  16.041  1.00  0.00     0.294 C 
BRANCH  64  65
ATOM     65  C   UNL     1      26.543  29.799  16.661  1.00  0.00     0.120 A 
ATOM     66  C   UNL     1      26.838  29.646  17.985  1.00  0.00     0.138 A 
ATOM     67  N   UNL     1      27.641  30.300  16.020  1.00  0.00    -0.132 NA
ATOM     68  N   UNL     1      28.112  30.057  18.128  1.00  0.00    -0.249 N 
ATOM     69  N   UNL     1      28.567  30.439  16.960  1.00  0.00    -0.067 NA
BRANCH  68  70
ATOM     70  C   UNL     1      28.876  30.094  19.357  1.00  0.00     0.180 C 
BRANCH  70  71
ATOM     71  C   UNL     1      30.099  30.982  19.093  1.00  0.00     0.161 C 
BRANCH  71  72
ATOM     72  O   UNL     1      29.641  32.267  18.927  1.00  0.00    -0.389 OA
ATOM     73  H   UNL     1      29.323  32.666  19.773  1.00  0.00     0.211 HD
ENDBRANCH  71  72
BRANCH  71  74
ATOM     74  C   UNL     1      31.062  30.875  20.251  1.00  0.00     0.189 C 
BRANCH  74  75
ATOM     75  O   UNL     1      31.252  29.554  20.590  1.00  0.00    -0.394 OA
ATOM     76  H   UNL     1      32.208  29.401  20.805  1.00  0.00     0.210 HD
ENDBRANCH  74  75
ENDBRANCH  71  74
ENDBRANCH  70  71
ENDBRANCH  68  70
ENDBRANCH  64  65
ENDBRANCH  63  64
ENDBRANCH  60  63
ENDBRANCH  58  59
ENDBRANCH  55  58
ENDBRANCH   1  55
TORSDOF 34
BEGIN_RES LYS A 131
REMARK  4 active torsions:
REMARK  status: ('A' for Active; 'I' for Inactive)
REMARK    1  A    between atoms: CA   and  CB  
REMARK    2  A    between atoms: CB   and  CG  
REMARK    3  A    between atoms: CG   and  CD  
REMARK    4  A    between atoms: CD   and  CE  
ROOT
ATOM      1  CA  LYS A 131      29.867  25.555  16.977  1.00 20.52     0.186 C 
ENDROOT
BRANCH   1   2
ATOM      2  CB  LYS A 131      28.345  25.722  17.026  1.00 20.94     0.034 C 
BRANCH   2   3
ATOM      3  CG  LYS A 131      27.599  24.433  16.717  1.00 22.96     0.005 C 
BRANCH   3   4
ATOM      4  CD  LYS A 131      26.985  23.825  17.947  1.00 24.33     0.041 C 
BRANCH   4   5
ATOM      5  CE  LYS A 131      25.603  23.275  17.608  1.00 26.91     0.338 C 
ATOM      6  NZ  LYS A 131      24.801  24.296  16.893  1.00 27.40     0.618 N 
ENDBRANCH   4   5
ENDBRANCH   3   4
ENDBRANCH   2   3
ENDBRANCH   1   2
END_RES LYS A 131
BEGIN_RES LYS A 135
REMARK  4 active torsions:
REMARK  status: ('A' for Active; 'I' for Inactive)
REMARK    5  A    between atoms: CA   and  CB  
REMARK    6  A    between atoms: CB   and  CG  
REMARK    7  A    between atoms: CG   and  CD  
REMARK    8  A    between atoms: CD   and  CE  
ROOT
ATOM      7  CA  LYS A 135      33.193  34.663   9.290  1.00 25.02     0.186 C 
ENDROOT
BRANCH   7   8
ATOM      8  CB  LYS A 135      32.060  35.360  10.034  1.00 26.63     0.034 C 
BRANCH   8   9
ATOM      9  CG  LYS A 135      30.802  35.505   9.217  1.00 29.45     0.005 C 
BRANCH   9  10
ATOM     10  CD  LYS A 135      30.129  34.154   9.024  1.00 32.00     0.041 C 
BRANCH  10  11
ATOM     11  CE  LYS A 135      28.661  34.334   8.690  1.00 34.25     0.338 C 
ATOM     12  NZ  LYS A 135      27.794  33.761   9.757  1.00 35.99     0.618 N 
ENDBRANCH  10  11
ENDBRANCH   9  10
ENDBRANCH   8   9
ENDBRANCH   7   8
END_RES LYS A 135
