REMARK VINA RESULT:    -4.660      0.000      0.000
REMARK INTER + INTRA:         -24.148
REMARK INTER:                 -13.828
REMARK INTRA:                 -10.320
REMARK UNBOUND:               -12.269
REMARK SMILES CC(=O)N[C@@H]1[C@@H](O)C[C@](OC[C@H]2O[C@@H](O[C@H]3[C@H](O)[C@@H](O)[C@H](OCCN=[N+]=[N-])O[C@@H]3CO)[C@H](O)[C@@H](O)[C@H]2O)(C(=O)O)O[C@H]1C(O)[C@H](O)CNC(=O)OCc1cn(-c2cccc(S(N)(=O)=O)c2)nn1
REMARK SMILES IDX 9 1 8 2 6 3 5 4 42 5 41 6 10 7 11 8 12 9 14 10 13 11 32 12
REMARK SMILES IDX 34 13 36 14 15 15 16 16 29 17 28 18 21 19 17 20 19 21 30 22
REMARK SMILES IDX 31 23 22 25 23 26 24 27 25 28 26 29 27 30 18 31 20 33 33 35
REMARK SMILES IDX 35 37 37 39 38 41 39 42 40 43 7 45 43 47 44 48 45 50 46 51
REMARK SMILES IDX 47 53 48 54 49 55 50 57 51 58 52 59 53 60 54 61 67 62 55 63
REMARK SMILES IDX 66 64 56 65 65 66 57 67 60 68 58 69 59 70 61 71 63 72 64 73
REMARK SMILES IDX 62 74 4 77 2 78 1 80 3 81
REMARK H PARENT 31 24 18 32 20 34 33 36 35 38 37 40 40 44 7 46 44 49 46 52
REMARK H PARENT 48 56 62 75 62 76 4 79
REMARK Flexibility Score: inf
ROOT
ATOM      1  C   UNL     1      32.075  34.788  14.707  1.00  0.00     0.272 C 
ATOM      2  C   UNL     1      31.784  36.134  15.398  1.00  0.00     0.113 C 
ATOM      3  C   UNL     1      31.957  37.215  14.389  1.00  0.00     0.145 C 
ATOM      4  C   UNL     1      31.042  37.016  13.233  1.00  0.00     0.142 C 
ATOM      5  C   UNL     1      30.782  35.583  12.931  1.00  0.00     0.178 C 
ATOM      6  O   UNL     1      31.176  34.599  13.746  1.00  0.00    -0.332 OA
ENDROOT
BRANCH   1   7
ATOM      7  O   UNL     1      31.915  33.854  15.766  1.00  0.00    -0.338 OA
BRANCH   7   8
ATOM      8  C   UNL     1      30.784  34.167  16.456  1.00  0.00     0.199 C 
BRANCH   8   9
ATOM      9  C   UNL     1      29.984  32.948  16.861  1.00  0.00     0.179 C 
ATOM     10  C   UNL     1      27.987  32.409  17.713  1.00  0.00     0.282 C 
ATOM     11  O   UNL     1      28.616  33.145  16.678  1.00  0.00    -0.341 OA
ATOM     12  C   UNL     1      28.538  31.035  17.829  1.00  0.00     0.202 C 
ATOM     13  C   UNL     1      29.414  30.599  16.682  1.00  0.00     0.179 C 
ATOM     14  C   UNL     1      30.371  31.678  16.210  1.00  0.00     0.177 C 
BRANCH  10  15
ATOM     15  O   UNL     1      26.622  32.519  17.645  1.00  0.00    -0.341 OA
BRANCH  15  16
ATOM     16  C   UNL     1      26.132  33.078  16.488  1.00  0.00     0.184 C 
ATOM     17  C   UNL     1      24.912  33.905  16.814  1.00  0.00     0.178 C 
ATOM     18  O   UNL     1      23.906  33.708  15.861  1.00  0.00    -0.341 OA
ATOM     19  C   UNL     1      23.358  32.466  16.075  1.00  0.00     0.281 C 
ATOM     20  C   UNL     1      25.784  31.935  15.562  1.00  0.00     0.180 C 
ATOM     21  C   UNL     1      24.386  31.434  15.739  1.00  0.00     0.202 C 
BRANCH  17  22
ATOM     22  C   UNL     1      25.174  35.377  16.865  1.00  0.00     0.191 C 
BRANCH  22  23
ATOM     23  O   UNL     1      25.498  35.791  18.173  1.00  0.00    -0.394 OA
ATOM     24  H   UNL     1      25.069  36.652  18.390  1.00  0.00     0.210 HD
ENDBRANCH  22  23
ENDBRANCH  17  22
BRANCH  19  25
ATOM     25  O   UNL     1      22.226  32.237  15.294  1.00  0.00    -0.350 OA
BRANCH  25  26
ATOM     26  C   UNL     1      22.115  33.036  14.188  1.00  0.00     0.169 C 
BRANCH  26  27
ATOM     27  C   UNL     1      22.295  32.314  12.869  1.00  0.00     0.119 C 
BRANCH  27  28
ATOM     28  N   UNL     1      22.028  30.895  13.001  1.00  0.00    -0.092 NA
ATOM     29  N   UNL     1      22.882  30.040  12.786  1.00  0.00     0.001 N 
ATOM     30  N   UNL     1      23.650  29.114  12.587  1.00  0.00    -0.003 NA
ENDBRANCH  27  28
ENDBRANCH  26  27
ENDBRANCH  25  26
ENDBRANCH  19  25
BRANCH  20  31
ATOM     31  O   UNL     1      25.906  32.385  14.235  1.00  0.00    -0.387 OA
ATOM     32  H   UNL     1      25.252  31.952  13.631  1.00  0.00     0.211 HD
ENDBRANCH  20  31
BRANCH  21  33
ATOM     33  O   UNL     1      24.349  30.453  16.759  1.00  0.00    -0.385 OA
ATOM     34  H   UNL     1      24.711  30.872  17.574  1.00  0.00     0.211 HD
ENDBRANCH  21  33
ENDBRANCH  15  16
ENDBRANCH  10  15
BRANCH  12  35
ATOM     35  O   UNL     1      29.186  30.796  19.065  1.00  0.00    -0.385 OA
ATOM     36  H   UNL     1      30.150  30.659  18.799  1.00  0.00     0.211 HD
ENDBRANCH  12  35
BRANCH  13  37
ATOM     37  O   UNL     1      28.683  30.023  15.660  1.00  0.00    -0.387 OA
ATOM     38  H   UNL     1      29.359  29.673  14.995  1.00  0.00     0.211 HD
ENDBRANCH  13  37
BRANCH  14  39
ATOM     39  O   UNL     1      30.194  31.804  14.827  1.00  0.00    -0.387 OA
ATOM     40  H   UNL     1      30.952  32.274  14.398  1.00  0.00     0.211 HD
ENDBRANCH  14  39
ENDBRANCH   8   9
ENDBRANCH   7   8
ENDBRANCH   1   7
BRANCH   1  41
ATOM     41  C   UNL     1      33.504  34.844  14.310  1.00  0.00     0.364 C 
ATOM     42  O   UNL     1      34.361  35.213  15.193  1.00  0.00    -0.246 OA
BRANCH  41  43
ATOM     43  O   UNL     1      34.026  34.539  13.087  1.00  0.00    -0.477 OA
ATOM     44  H   UNL     1      34.019  33.589  12.696  1.00  0.00     0.296 HD
ENDBRANCH  41  43
ENDBRANCH   1  41
BRANCH   3  45
ATOM     45  O   UNL     1      31.654  38.427  15.072  1.00  0.00    -0.391 OA
ATOM     46  H   UNL     1      30.674  38.338  15.290  1.00  0.00     0.211 HD
ENDBRANCH   3  45
BRANCH   5  47
ATOM     47  C   UNL     1      29.268  35.442  12.642  1.00  0.00     0.176 C 
BRANCH  47  48
ATOM     48  O   UNL     1      28.859  36.533  11.899  1.00  0.00    -0.388 OA
ATOM     49  H   UNL     1      29.354  36.698  11.079  1.00  0.00     0.211 HD
ENDBRANCH  47  48
BRANCH  47  50
ATOM     50  C   UNL     1      28.522  35.184  13.893  1.00  0.00     0.165 C 
BRANCH  50  51
ATOM     51  O   UNL     1      28.382  33.809  14.066  1.00  0.00    -0.388 OA
ATOM     52  H   UNL     1      27.787  33.711  14.864  1.00  0.00     0.211 HD
ENDBRANCH  50  51
BRANCH  50  53
ATOM     53  C   UNL     1      27.124  35.781  13.873  1.00  0.00     0.154 C 
BRANCH  53  54
ATOM     54  N   UNL     1      26.372  35.122  12.831  1.00  0.00    -0.319 N 
ATOM     55  C   UNL     1      24.950  35.356  12.727  1.00  0.00     0.407 C 
ATOM     56  H   UNL     1      26.813  34.471  12.143  1.00  0.00     0.167 HD
ATOM     57  O   UNL     1      24.357  36.124  13.529  1.00  0.00    -0.225 OA
BRANCH  55  58
ATOM     58  O   UNL     1      24.294  34.698  11.707  1.00  0.00    -0.443 OA
BRANCH  58  59
ATOM     59  C   UNL     1      23.441  35.377  10.834  1.00  0.00     0.294 C 
BRANCH  59  60
ATOM     60  C   UNL     1      24.173  36.312   9.966  1.00  0.00     0.121 A 
ATOM     61  C   UNL     1      25.237  35.934   9.134  1.00  0.00     0.144 A 
ATOM     62  N   UNL     1      24.004  37.616   9.789  1.00  0.00    -0.131 NA
ATOM     63  N   UNL     1      25.649  37.028   8.504  1.00  0.00    -0.220 N 
ATOM     64  N   UNL     1      24.902  38.016   8.908  1.00  0.00    -0.062 NA
BRANCH  63  65
ATOM     65  C   UNL     1      26.721  37.044   7.552  1.00  0.00     0.068 A 
ATOM     66  C   UNL     1      27.353  38.258   7.270  1.00  0.00     0.050 A 
ATOM     67  C   UNL     1      27.125  35.901   6.931  1.00  0.00     0.028 A 
ATOM     68  C   UNL     1      28.386  38.326   6.369  1.00  0.00     0.084 A 
ATOM     69  C   UNL     1      28.146  35.955   6.037  1.00  0.00     0.004 A 
ATOM     70  C   UNL     1      28.793  37.157   5.739  1.00  0.00     0.022 A 
BRANCH  68  71
ATOM     71  S   UNL     1      29.218  39.802   5.971  1.00  0.00     0.238 S 
ATOM     72  O   UNL     1      28.504  40.463   4.826  1.00  0.00    -0.207 OA
ATOM     73  O   UNL     1      30.625  39.512   5.558  1.00  0.00    -0.207 OA
BRANCH  71  74
ATOM     74  N   UNL     1      29.200  40.841   7.366  1.00  0.00    -0.225 NA
ATOM     75  H   UNL     1      29.884  41.615   7.209  1.00  0.00     0.137 HD
ATOM     76  H   UNL     1      29.353  40.309   8.247  1.00  0.00     0.137 HD
ENDBRANCH  71  74
ENDBRANCH  68  71
ENDBRANCH  63  65
ENDBRANCH  59  60
ENDBRANCH  58  59
ENDBRANCH  55  58
ENDBRANCH  53  54
ENDBRANCH  50  53
ENDBRANCH  47  50
ENDBRANCH   5  47
BRANCH   4  77
ATOM     77  N   UNL     1      31.693  37.629  12.063  1.00  0.00    -0.348 N 
ATOM     78  C   UNL     1      31.192  38.797  11.430  1.00  0.00     0.217 C 
ATOM     79  H   UNL     1      32.556  37.193  11.679  1.00  0.00     0.163 HD
ATOM     80  C   UNL     1      31.894  39.369  10.253  1.00  0.00     0.114 C 
ATOM     81  O   UNL     1      30.140  39.321  11.899  1.00  0.00    -0.275 OA
ENDBRANCH   4  77
TORSDOF 32
BEGIN_RES LYS A 131
REMARK  4 active torsions:
REMARK  status: ('A' for Active; 'I' for Inactive)
REMARK    1  A    between atoms: CA   and  CB  
REMARK    2  A    between atoms: CB   and  CG  
REMARK    3  A    between atoms: CG   and  CD  
REMARK    4  A    between atoms: CD   and  CE  
ROOT
ATOM      1  CA  LYS A 131      29.867  25.555  16.977  1.00 20.52     0.186 C 
ENDROOT
BRANCH   1   2
ATOM      2  CB  LYS A 131      28.345  25.722  17.026  1.00 20.94     0.034 C 
BRANCH   2   3
ATOM      3  CG  LYS A 131      27.601  24.404  16.879  1.00 22.96     0.005 C 
BRANCH   3   4
ATOM      4  CD  LYS A 131      26.154  24.523  17.269  1.00 24.33     0.041 C 
BRANCH   4   5
ATOM      5  CE  LYS A 131      25.964  25.755  18.148  1.00 26.91     0.338 C 
ATOM      6  NZ  LYS A 131      25.812  25.361  19.569  1.00 27.40     0.618 N 
ENDBRANCH   4   5
ENDBRANCH   3   4
ENDBRANCH   2   3
ENDBRANCH   1   2
END_RES LYS A 131
BEGIN_RES LYS A 135
REMARK  4 active torsions:
REMARK  status: ('A' for Active; 'I' for Inactive)
REMARK    5  A    between atoms: CA   and  CB  
REMARK    6  A    between atoms: CB   and  CG  
REMARK    7  A    between atoms: CG   and  CD  
REMARK    8  A    between atoms: CD   and  CE  
ROOT
ATOM      7  CA  LYS A 135      33.193  34.663   9.290  1.00 25.02     0.186 C 
ENDROOT
BRANCH   7   8
ATOM      8  CB  LYS A 135      32.060  35.360  10.034  1.00 26.63     0.034 C 
BRANCH   8   9
ATOM      9  CG  LYS A 135      30.907  35.752   9.146  1.00 29.45     0.005 C 
BRANCH   9  10
ATOM     10  CD  LYS A 135      30.283  34.523   8.503  1.00 32.00     0.041 C 
BRANCH  10  11
ATOM     11  CE  LYS A 135      29.624  33.650   9.554  1.00 34.25     0.338 C 
ATOM     12  NZ  LYS A 135      28.147  33.844   9.564  1.00 35.99     0.618 N 
ENDBRANCH  10  11
ENDBRANCH   9  10
ENDBRANCH   8   9
ENDBRANCH   7   8
END_RES LYS A 135
