REMARK VINA RESULT:    -5.808      3.488      6.504
REMARK INTER + INTRA:         -22.213
REMARK INTER:                 -14.126
REMARK INTRA:                  -8.087
REMARK UNBOUND:                -7.575
REMARK SMILES CC(=O)N[C@@H]1[C@@H](O)C[C@](OC[C@H]2O[C@@H](O[C@H]3[C@H](O)[C@@H](O)[C@H](OCCN=[N+]=[N-])O[C@@H]3CO)[C@H](O)[C@@H](O)[C@H]2O)(C(=O)O)O[C@H]1C(O)[C@H](O)CNC(=O)OCc1cn(Cc2ccccc2Br)nn1
REMARK SMILES IDX 9 1 8 2 6 3 5 4 42 5 41 6 10 7 11 8 12 9 14 10 13 11 32 12
REMARK SMILES IDX 34 13 36 14 15 15 16 16 29 17 28 18 21 19 17 20 19 21 30 22
REMARK SMILES IDX 31 23 22 25 23 26 24 27 25 28 26 29 27 30 18 31 20 33 33 35
REMARK SMILES IDX 35 37 37 39 38 41 39 42 40 43 7 45 43 47 44 48 45 50 46 51
REMARK SMILES IDX 47 53 48 54 49 55 50 57 51 58 52 59 53 60 54 61 65 62 55 63
REMARK SMILES IDX 64 64 56 65 57 66 58 67 62 68 59 69 61 70 63 71 60 72 4 73
REMARK SMILES IDX 2 74 1 76 3 77
REMARK H PARENT 31 24 18 32 20 34 33 36 35 38 37 40 40 44 7 46 44 49 46 52
REMARK H PARENT 48 56 4 75
REMARK Flexibility Score: inf
ROOT
ATOM      1  C   UNL     1      30.408  33.905  14.911  1.00  0.00     0.272 C 
ATOM      2  C   UNL     1      29.876  32.530  14.809  1.00  0.00     0.113 C 
ATOM      3  C   UNL     1      30.279  31.699  15.974  1.00  0.00     0.145 C 
ATOM      4  C   UNL     1      29.818  32.362  17.241  1.00  0.00     0.142 C 
ATOM      5  C   UNL     1      29.863  33.841  17.204  1.00  0.00     0.178 C 
ATOM      6  O   UNL     1      29.634  34.469  16.031  1.00  0.00    -0.332 OA
ENDROOT
BRANCH   1   7
ATOM      7  O   UNL     1      30.117  34.724  13.884  1.00  0.00    -0.338 OA
BRANCH   7   8
ATOM      8  C   UNL     1      29.714  34.465  12.682  1.00  0.00     0.199 C 
BRANCH   8   9
ATOM      9  C   UNL     1      28.554  34.958  11.938  1.00  0.00     0.179 C 
ATOM     10  C   UNL     1      27.296  35.042  10.022  1.00  0.00     0.282 C 
ATOM     11  O   UNL     1      28.165  34.241  10.802  1.00  0.00    -0.341 OA
ATOM     12  C   UNL     1      25.955  34.986  10.700  1.00  0.00     0.202 C 
ATOM     13  C   UNL     1      26.061  35.298  12.152  1.00  0.00     0.179 C 
ATOM     14  C   UNL     1      27.437  35.598  12.678  1.00  0.00     0.177 C 
BRANCH  10  15
ATOM     15  O   UNL     1      27.294  34.507   8.769  1.00  0.00    -0.341 OA
BRANCH  15  16
ATOM     16  C   UNL     1      28.250  34.921   7.892  1.00  0.00     0.184 C 
ATOM     17  C   UNL     1      29.428  35.616   8.477  1.00  0.00     0.178 C 
ATOM     18  O   UNL     1      29.643  36.792   7.763  1.00  0.00    -0.341 OA
ATOM     19  C   UNL     1      28.507  37.604   8.007  1.00  0.00     0.281 C 
ATOM     20  C   UNL     1      27.686  35.720   6.727  1.00  0.00     0.180 C 
ATOM     21  C   UNL     1      27.362  37.140   7.148  1.00  0.00     0.202 C 
BRANCH  17  22
ATOM     22  C   UNL     1      30.710  34.795   8.345  1.00  0.00     0.191 C 
BRANCH  22  23
ATOM     23  O   UNL     1      30.707  33.735   9.252  1.00  0.00    -0.394 OA
ATOM     24  H   UNL     1      29.823  33.591   9.662  1.00  0.00     0.210 HD
ENDBRANCH  22  23
ENDBRANCH  17  22
BRANCH  19  25
ATOM     25  O   UNL     1      28.909  38.908   7.732  1.00  0.00    -0.350 OA
BRANCH  25  26
ATOM     26  C   UNL     1      29.785  38.961   6.648  1.00  0.00     0.169 C 
BRANCH  26  27
ATOM     27  C   UNL     1      30.682  40.173   6.837  1.00  0.00     0.119 C 
BRANCH  27  28
ATOM     28  N   UNL     1      32.043  39.710   6.929  1.00  0.00    -0.092 NA
ATOM     29  N   UNL     1      32.852  39.886   6.013  1.00  0.00     0.001 N 
ATOM     30  N   UNL     1      33.412  39.732   4.908  1.00  0.00    -0.003 NA
ENDBRANCH  27  28
ENDBRANCH  26  27
ENDBRANCH  25  26
ENDBRANCH  19  25
BRANCH  20  31
ATOM     31  O   UNL     1      28.623  35.825   5.697  1.00  0.00    -0.387 OA
ATOM     32  H   UNL     1      28.196  36.379   4.986  1.00  0.00     0.211 HD
ENDBRANCH  20  31
BRANCH  21  33
ATOM     33  O   UNL     1      26.129  37.262   7.736  1.00  0.00    -0.385 OA
ATOM     34  H   UNL     1      26.131  38.032   8.351  1.00  0.00     0.211 HD
ENDBRANCH  21  33
ENDBRANCH  15  16
ENDBRANCH  10  15
BRANCH  12  35
ATOM     35  O   UNL     1      25.070  35.932  10.157  1.00  0.00    -0.385 OA
ATOM     36  H   UNL     1      25.538  36.351   9.399  1.00  0.00     0.211 HD
ENDBRANCH  12  35
BRANCH  13  37
ATOM     37  O   UNL     1      25.542  34.222  12.887  1.00  0.00    -0.387 OA
ATOM     38  H   UNL     1      26.199  33.509  13.017  1.00  0.00     0.211 HD
ENDBRANCH  13  37
BRANCH  14  39
ATOM     39  O   UNL     1      27.424  35.279  14.028  1.00  0.00    -0.387 OA
ATOM     40  H   UNL     1      26.562  35.059  14.409  1.00  0.00     0.211 HD
ENDBRANCH  14  39
ENDBRANCH   8   9
ENDBRANCH   7   8
ENDBRANCH   1   7
BRANCH   1  41
ATOM     41  C   UNL     1      31.780  34.078  15.431  1.00  0.00     0.364 C 
ATOM     42  O   UNL     1      32.116  34.741  16.438  1.00  0.00    -0.246 OA
BRANCH  41  43
ATOM     43  O   UNL     1      32.825  33.466  14.758  1.00  0.00    -0.477 OA
ATOM     44  H   UNL     1      32.759  33.220  13.770  1.00  0.00     0.296 HD
ENDBRANCH  41  43
ENDBRANCH   1  41
BRANCH   3  45
ATOM     45  O   UNL     1      29.550  30.473  15.829  1.00  0.00    -0.391 OA
ATOM     46  H   UNL     1      28.636  30.576  16.159  1.00  0.00     0.211 HD
ENDBRANCH   3  45
BRANCH   5  47
ATOM     47  C   UNL     1      28.849  34.405  18.204  1.00  0.00     0.176 C 
BRANCH  47  48
ATOM     48  O   UNL     1      27.773  33.530  18.236  1.00  0.00    -0.388 OA
ATOM     49  H   UNL     1      26.912  33.962  18.097  1.00  0.00     0.211 HD
ENDBRANCH  47  48
BRANCH  47  50
ATOM     50  C   UNL     1      28.372  35.766  17.835  1.00  0.00     0.165 C 
BRANCH  50  51
ATOM     51  O   UNL     1      29.426  36.693  17.767  1.00  0.00    -0.388 OA
ATOM     52  H   UNL     1      29.948  36.679  18.609  1.00  0.00     0.211 HD
ENDBRANCH  50  51
BRANCH  50  53
ATOM     53  C   UNL     1      27.431  36.301  18.883  1.00  0.00     0.154 C 
BRANCH  53  54
ATOM     54  N   UNL     1      26.138  35.733  18.737  1.00  0.00    -0.319 N 
ATOM     55  C   UNL     1      25.096  36.312  17.983  1.00  0.00     0.407 C 
ATOM     56  H   UNL     1      25.948  34.812  19.231  1.00  0.00     0.167 HD
ATOM     57  O   UNL     1      25.255  37.399  17.373  1.00  0.00    -0.225 OA
BRANCH  55  58
ATOM     58  O   UNL     1      23.840  35.700  17.883  1.00  0.00    -0.443 OA
BRANCH  58  59
ATOM     59  C   UNL     1      23.460  34.976  16.743  1.00  0.00     0.294 C 
BRANCH  59  60
ATOM     60  C   UNL     1      24.461  33.984  16.290  1.00  0.00     0.120 A 
ATOM     61  C   UNL     1      24.184  32.618  16.117  1.00  0.00     0.138 A 
ATOM     62  N   UNL     1      25.749  34.132  15.968  1.00  0.00    -0.132 NA
ATOM     63  N   UNL     1      25.298  32.021  15.707  1.00  0.00    -0.248 N 
ATOM     64  N   UNL     1      26.243  32.962  15.622  1.00  0.00    -0.067 NA
BRANCH  63  65
ATOM     65  C   UNL     1      25.527  30.615  15.375  1.00  0.00     0.182 C 
BRANCH  65  66
ATOM     66  C   UNL     1      24.410  29.995  14.632  1.00  0.00    -0.012 A 
ATOM     67  C   UNL     1      24.271  30.341  13.277  1.00  0.00     0.007 A 
ATOM     68  C   UNL     1      23.498  29.135  15.181  1.00  0.00     0.023 A 
ATOM     69  C   UNL     1      23.238  29.816  12.563  1.00  0.00     0.000 A 
ATOM     70  C   UNL     1      22.451  28.610  14.441  1.00  0.00     0.016 A 
ATOM     71  Br  UNL     1      23.664  28.580  16.990  1.00  0.00    -0.050 Br
ATOM     72  C   UNL     1      22.329  28.959  13.122  1.00  0.00     0.001 A 
ENDBRANCH  65  66
ENDBRANCH  63  65
ENDBRANCH  59  60
ENDBRANCH  58  59
ENDBRANCH  55  58
ENDBRANCH  53  54
ENDBRANCH  50  53
ENDBRANCH  47  50
ENDBRANCH   5  47
BRANCH   4  73
ATOM     73  N   UNL     1      30.603  31.865  18.341  1.00  0.00    -0.348 N 
ATOM     74  C   UNL     1      30.174  30.805  19.196  1.00  0.00     0.217 C 
ATOM     75  H   UNL     1      31.537  32.262  18.575  1.00  0.00     0.163 HD
ATOM     76  C   UNL     1      31.042  30.340  20.323  1.00  0.00     0.114 C 
ATOM     77  O   UNL     1      29.071  30.287  18.977  1.00  0.00    -0.275 OA
ENDBRANCH   4  73
TORSDOF 31
BEGIN_RES LYS A 131
REMARK  4 active torsions:
REMARK  status: ('A' for Active; 'I' for Inactive)
REMARK    1  A    between atoms: CA   and  CB  
REMARK    2  A    between atoms: CB   and  CG  
REMARK    3  A    between atoms: CG   and  CD  
REMARK    4  A    between atoms: CD   and  CE  
ROOT
ATOM      1  CA  LYS A 131      29.867  25.555  16.977  1.00 20.52     0.186 C 
ENDROOT
BRANCH   1   2
ATOM      2  CB  LYS A 131      28.345  25.722  17.026  1.00 20.94     0.034 C 
BRANCH   2   3
ATOM      3  CG  LYS A 131      27.601  24.400  16.908  1.00 22.96     0.005 C 
BRANCH   3   4
ATOM      4  CD  LYS A 131      26.647  24.184  18.049  1.00 24.33     0.041 C 
BRANCH   4   5
ATOM      5  CE  LYS A 131      25.533  25.224  17.985  1.00 26.91     0.338 C 
ATOM      6  NZ  LYS A 131      25.564  26.091  19.187  1.00 27.40     0.618 N 
ENDBRANCH   4   5
ENDBRANCH   3   4
ENDBRANCH   2   3
ENDBRANCH   1   2
END_RES LYS A 131
BEGIN_RES LYS A 135
REMARK  4 active torsions:
REMARK  status: ('A' for Active; 'I' for Inactive)
REMARK    5  A    between atoms: CA   and  CB  
REMARK    6  A    between atoms: CB   and  CG  
REMARK    7  A    between atoms: CG   and  CD  
REMARK    8  A    between atoms: CD   and  CE  
ROOT
ATOM      7  CA  LYS A 135      33.193  34.663   9.290  1.00 25.02     0.186 C 
ENDROOT
BRANCH   7   8
ATOM      8  CB  LYS A 135      32.060  35.360  10.034  1.00 26.63     0.034 C 
BRANCH   8   9
ATOM      9  CG  LYS A 135      32.508  36.069  11.286  1.00 29.45     0.005 C 
BRANCH   9  10
ATOM     10  CD  LYS A 135      31.739  37.368  11.472  1.00 32.00     0.041 C 
BRANCH  10  11
ATOM     11  CE  LYS A 135      31.796  38.205  10.209  1.00 34.25     0.338 C 
ATOM     12  NZ  LYS A 135      31.429  39.621  10.487  1.00 35.99     0.618 N 
ENDBRANCH  10  11
ENDBRANCH   9  10
ENDBRANCH   8   9
ENDBRANCH   7   8
END_RES LYS A 135
