REMARK VINA RESULT:    -5.648      0.000      0.000
REMARK INTER + INTRA:         -23.331
REMARK INTER:                 -12.522
REMARK INTRA:                 -10.809
REMARK UNBOUND:                -9.428
REMARK SMILES CC(=O)N[C@@H]1[C@@H](O)C[C@](OC[C@H]2O[C@@H](O[C@H]3[C@H](O)[C@@H](O)[C@H](OCCN=[N+]=[N-])O[C@@H]3CO)[C@H](O)[C@@H](O)[C@H]2O)(C(=O)O)O[C@H]1C(O)[C@H](O)CNC(=O)OCc1cn(-c2ccc(C)cc2)nn1
REMARK SMILES IDX 9 1 8 2 6 3 5 4 42 5 41 6 10 7 11 8 12 9 14 10 13 11 32 12
REMARK SMILES IDX 34 13 36 14 15 15 16 16 29 17 28 18 21 19 17 20 19 21 30 22
REMARK SMILES IDX 31 23 22 25 23 26 24 27 25 28 26 29 27 30 18 31 20 33 33 35
REMARK SMILES IDX 35 37 37 39 38 41 39 42 40 43 7 45 43 47 44 48 45 50 46 51
REMARK SMILES IDX 47 53 48 54 49 55 50 57 51 58 52 59 53 60 54 61 64 62 55 63
REMARK SMILES IDX 63 64 56 65 57 66 62 67 58 68 61 69 59 70 60 71 4 72 2 73
REMARK SMILES IDX 1 75 3 76
REMARK H PARENT 31 24 18 32 20 34 33 36 35 38 37 40 40 44 7 46 44 49 46 52
REMARK H PARENT 48 56 4 74
REMARK Flexibility Score: inf
ROOT
ATOM      1  C   UNL     1      27.119  39.315   7.189  1.00  0.00     0.272 C 
ATOM      2  C   UNL     1      27.383  38.179   6.207  1.00  0.00     0.113 C 
ATOM      3  C   UNL     1      28.683  38.338   5.514  1.00  0.00     0.145 C 
ATOM      4  C   UNL     1      29.757  38.994   6.305  1.00  0.00     0.142 C 
ATOM      5  C   UNL     1      29.435  39.271   7.770  1.00  0.00     0.178 C 
ATOM      6  O   UNL     1      28.145  39.646   7.937  1.00  0.00    -0.332 OA
ENDROOT
BRANCH   1   7
ATOM      7  O   UNL     1      26.112  38.783   8.053  1.00  0.00    -0.338 OA
BRANCH   7   8
ATOM      8  C   UNL     1      25.848  37.471   7.656  1.00  0.00     0.199 C 
BRANCH   8   9
ATOM      9  C   UNL     1      24.743  36.855   8.429  1.00  0.00     0.179 C 
ATOM     10  C   UNL     1      23.973  36.388  10.536  1.00  0.00     0.282 C 
ATOM     11  O   UNL     1      24.865  37.150   9.788  1.00  0.00    -0.341 OA
ATOM     12  C   UNL     1      22.582  36.839  10.295  1.00  0.00     0.202 C 
ATOM     13  C   UNL     1      22.515  37.716   9.076  1.00  0.00     0.179 C 
ATOM     14  C   UNL     1      23.372  37.220   7.931  1.00  0.00     0.177 C 
BRANCH  10  15
ATOM     15  O   UNL     1      24.278  36.522  11.889  1.00  0.00    -0.341 OA
BRANCH  15  16
ATOM     16  C   UNL     1      25.655  36.608  12.096  1.00  0.00     0.184 C 
ATOM     17  C   UNL     1      26.248  35.434  12.824  1.00  0.00     0.178 C 
ATOM     18  O   UNL     1      26.789  35.844  14.047  1.00  0.00    -0.341 OA
ATOM     19  C   UNL     1      25.771  36.304  14.863  1.00  0.00     0.281 C 
ATOM     20  C   UNL     1      25.863  37.838  12.954  1.00  0.00     0.180 C 
ATOM     21  C   UNL     1      25.132  37.547  14.274  1.00  0.00     0.202 C 
BRANCH  17  22
ATOM     22  C   UNL     1      27.452  34.880  12.043  1.00  0.00     0.191 C 
BRANCH  22  23
ATOM     23  O   UNL     1      28.598  35.619  12.325  1.00  0.00    -0.394 OA
ATOM     24  H   UNL     1      28.867  35.383  13.263  1.00  0.00     0.210 HD
ENDBRANCH  22  23
ENDBRANCH  17  22
BRANCH  19  25
ATOM     25  O   UNL     1      26.196  36.558  16.158  1.00  0.00    -0.350 OA
BRANCH  25  26
ATOM     26  C   UNL     1      26.179  35.454  16.972  1.00  0.00     0.169 C 
BRANCH  26  27
ATOM     27  C   UNL     1      27.426  34.616  16.942  1.00  0.00     0.119 C 
BRANCH  27  28
ATOM     28  N   UNL     1      27.133  33.218  16.740  1.00  0.00    -0.092 NA
ATOM     29  N   UNL     1      26.400  32.872  15.829  1.00  0.00     0.001 N 
ATOM     30  N   UNL     1      25.737  32.500  14.860  1.00  0.00    -0.003 NA
ENDBRANCH  27  28
ENDBRANCH  26  27
ENDBRANCH  25  26
ENDBRANCH  19  25
BRANCH  20  31
ATOM     31  O   UNL     1      27.201  38.102  13.205  1.00  0.00    -0.387 OA
ATOM     32  H   UNL     1      27.479  38.812  12.576  1.00  0.00     0.211 HD
ENDBRANCH  20  31
BRANCH  21  33
ATOM     33  O   UNL     1      23.825  37.189  13.887  1.00  0.00    -0.385 OA
ATOM     34  H   UNL     1      23.787  36.836  12.968  1.00  0.00     0.211 HD
ENDBRANCH  21  33
ENDBRANCH  15  16
ENDBRANCH  10  15
BRANCH  12  35
ATOM     35  O   UNL     1      21.688  35.759  10.178  1.00  0.00    -0.385 OA
ATOM     36  H   UNL     1      22.160  35.111   9.559  1.00  0.00     0.211 HD
ENDBRANCH  12  35
BRANCH  13  37
ATOM     37  O   UNL     1      22.758  39.018   9.439  1.00  0.00    -0.387 OA
ATOM     38  H   UNL     1      22.449  39.251  10.371  1.00  0.00     0.211 HD
ENDBRANCH  13  37
BRANCH  14  39
ATOM     39  O   UNL     1      23.507  38.232   7.000  1.00  0.00    -0.387 OA
ATOM     40  H   UNL     1      24.171  38.915   7.227  1.00  0.00     0.211 HD
ENDBRANCH  14  39
ENDBRANCH   8   9
ENDBRANCH   7   8
ENDBRANCH   1   7
BRANCH   1  41
ATOM     41  C   UNL     1      26.553  40.407   6.372  1.00  0.00     0.364 C 
ATOM     42  O   UNL     1      27.103  41.523   6.230  1.00  0.00    -0.246 OA
BRANCH  41  43
ATOM     43  O   UNL     1      25.331  40.164   5.718  1.00  0.00    -0.477 OA
ATOM     44  H   UNL     1      24.477  40.549   6.124  1.00  0.00     0.296 HD
ENDBRANCH  41  43
ENDBRANCH   1  41
BRANCH   3  45
ATOM     45  O   UNL     1      29.097  37.113   4.944  1.00  0.00    -0.391 OA
ATOM     46  H   UNL     1      29.848  37.363   4.316  1.00  0.00     0.211 HD
ENDBRANCH   3  45
BRANCH   5  47
ATOM     47  C   UNL     1      29.829  38.061   8.592  1.00  0.00     0.176 C 
BRANCH  47  48
ATOM     48  O   UNL     1      31.138  37.646   8.399  1.00  0.00    -0.388 OA
ATOM     49  H   UNL     1      31.553  38.330   7.810  1.00  0.00     0.211 HD
ENDBRANCH  47  48
BRANCH  47  50
ATOM     50  C   UNL     1      29.388  37.940   9.973  1.00  0.00     0.165 C 
BRANCH  50  51
ATOM     51  O   UNL     1      28.001  37.774  10.171  1.00  0.00    -0.388 OA
ATOM     52  H   UNL     1      27.693  36.939   9.730  1.00  0.00     0.211 HD
ENDBRANCH  50  51
BRANCH  50  53
ATOM     53  C   UNL     1      29.877  38.856  11.040  1.00  0.00     0.154 C 
BRANCH  53  54
ATOM     54  N   UNL     1      30.373  38.195  12.218  1.00  0.00    -0.319 N 
ATOM     55  C   UNL     1      31.634  37.531  12.216  1.00  0.00     0.407 C 
ATOM     56  H   UNL     1      29.807  38.193  13.098  1.00  0.00     0.167 HD
ATOM     57  O   UNL     1      32.325  37.543  11.167  1.00  0.00    -0.225 OA
BRANCH  55  58
ATOM     58  O   UNL     1      32.072  36.887  13.353  1.00  0.00    -0.443 OA
BRANCH  58  59
ATOM     59  C   UNL     1      32.581  35.597  13.361  1.00  0.00     0.294 C 
BRANCH  59  60
ATOM     60  C   UNL     1      31.721  34.681  14.113  1.00  0.00     0.121 A 
ATOM     61  C   UNL     1      31.913  34.262  15.442  1.00  0.00     0.144 A 
ATOM     62  N   UNL     1      30.615  34.064  13.723  1.00  0.00    -0.131 NA
ATOM     63  N   UNL     1      30.924  33.430  15.765  1.00  0.00    -0.220 N 
ATOM     64  N   UNL     1      30.147  33.322  14.708  1.00  0.00    -0.062 NA
BRANCH  63  65
ATOM     65  C   UNL     1      30.794  32.795  17.050  1.00  0.00     0.066 A 
ATOM     66  C   UNL     1      31.120  33.487  18.196  1.00  0.00     0.029 A 
ATOM     67  C   UNL     1      30.332  31.503  17.185  1.00  0.00     0.029 A 
ATOM     68  C   UNL     1      30.982  32.885  19.450  1.00  0.00     0.005 A 
ATOM     69  C   UNL     1      30.194  30.899  18.440  1.00  0.00     0.005 A 
ATOM     70  C   UNL     1      30.521  31.594  19.581  1.00  0.00    -0.051 A 
ATOM     71  C   UNL     1      30.362  30.953  20.925  1.00  0.00     0.044 C 
ENDBRANCH  63  65
ENDBRANCH  59  60
ENDBRANCH  58  59
ENDBRANCH  55  58
ENDBRANCH  53  54
ENDBRANCH  50  53
ENDBRANCH  47  50
ENDBRANCH   5  47
BRANCH   4  72
ATOM     72  N   UNL     1      30.325  40.148   5.635  1.00  0.00    -0.348 N 
ATOM     73  C   UNL     1      31.712  40.484   5.673  1.00  0.00     0.217 C 
ATOM     74  H   UNL     1      29.723  40.797   5.092  1.00  0.00     0.163 HD
ATOM     75  C   UNL     1      32.244  41.693   4.972  1.00  0.00     0.114 C 
ATOM     76  O   UNL     1      32.438  39.697   6.330  1.00  0.00    -0.275 OA
ENDBRANCH   4  72
TORSDOF 30
BEGIN_RES LYS A 131
REMARK  4 active torsions:
REMARK  status: ('A' for Active; 'I' for Inactive)
REMARK    1  A    between atoms: CA   and  CB  
REMARK    2  A    between atoms: CB   and  CG  
REMARK    3  A    between atoms: CG   and  CD  
REMARK    4  A    between atoms: CD   and  CE  
ROOT
ATOM      1  CA  LYS A 131      29.867  25.555  16.977  1.00 20.52     0.186 C 
ENDROOT
BRANCH   1   2
ATOM      2  CB  LYS A 131      28.345  25.722  17.026  1.00 20.94     0.034 C 
BRANCH   2   3
ATOM      3  CG  LYS A 131      27.599  24.434  16.712  1.00 22.96     0.005 C 
BRANCH   3   4
ATOM      4  CD  LYS A 131      26.999  23.813  17.943  1.00 24.33     0.041 C 
BRANCH   4   5
ATOM      5  CE  LYS A 131      25.613  23.267  17.614  1.00 26.91     0.338 C 
ATOM      6  NZ  LYS A 131      24.807  24.290  16.906  1.00 27.40     0.618 N 
ENDBRANCH   4   5
ENDBRANCH   3   4
ENDBRANCH   2   3
ENDBRANCH   1   2
END_RES LYS A 131
BEGIN_RES LYS A 135
REMARK  4 active torsions:
REMARK  status: ('A' for Active; 'I' for Inactive)
REMARK    5  A    between atoms: CA   and  CB  
REMARK    6  A    between atoms: CB   and  CG  
REMARK    7  A    between atoms: CG   and  CD  
REMARK    8  A    between atoms: CD   and  CE  
ROOT
ATOM      7  CA  LYS A 135      33.193  34.663   9.290  1.00 25.02     0.186 C 
ENDROOT
BRANCH   7   8
ATOM      8  CB  LYS A 135      32.060  35.360  10.034  1.00 26.63     0.034 C 
BRANCH   8   9
ATOM      9  CG  LYS A 135      30.803  34.534  10.128  1.00 29.45     0.005 C 
BRANCH   9  10
ATOM     10  CD  LYS A 135      30.292  34.175   8.741  1.00 32.00     0.041 C 
BRANCH  10  11
ATOM     11  CE  LYS A 135      28.778  34.251   8.694  1.00 34.25     0.338 C 
ATOM     12  NZ  LYS A 135      28.317  35.041   7.520  1.00 35.99     0.618 N 
ENDBRANCH  10  11
ENDBRANCH   9  10
ENDBRANCH   8   9
ENDBRANCH   7   8
END_RES LYS A 135
