REMARK VINA RESULT:    -4.699      2.996      6.628
REMARK INTER + INTRA:         -22.737
REMARK INTER:                 -11.357
REMARK INTRA:                 -11.381
REMARK UNBOUND:               -10.485
REMARK SMILES CC(=O)N[C@@H]1[C@@H](O)C[C@](OC[C@H]2O[C@@H](O[C@H]3[C@H](O)[C@@H](O)[C@H](OCCN=[N+]=[N-])O[C@@H]3CO)[C@H](O)[C@@H](O)[C@H]2O)(C(=O)O)O[C@H]1C(O)[C@H](O)CNC(=O)OCc1cn(CC(O)c2ccccc2)nn1
REMARK SMILES IDX 9 1 8 2 6 3 5 4 42 5 41 6 10 7 11 8 12 9 14 10 13 11 32 12
REMARK SMILES IDX 34 13 36 14 15 15 16 16 29 17 28 18 21 19 17 20 19 21 30 22
REMARK SMILES IDX 31 23 22 25 23 26 24 27 25 28 26 29 27 30 18 31 20 33 33 35
REMARK SMILES IDX 35 37 37 39 38 41 39 42 40 43 7 45 43 47 44 48 45 50 46 51
REMARK SMILES IDX 47 53 48 54 49 55 50 57 51 58 52 59 53 60 54 61 66 62 55 63
REMARK SMILES IDX 65 64 56 65 57 66 58 67 59 69 60 70 64 71 61 72 63 73 62 74
REMARK SMILES IDX 4 75 2 76 1 78 3 79
REMARK H PARENT 31 24 18 32 20 34 33 36 35 38 37 40 40 44 7 46 44 49 46 52
REMARK H PARENT 48 56 58 68 4 77
REMARK Flexibility Score: inf
ROOT
ATOM      1  C   UNL     1      23.580  36.056  12.949  1.00  0.00     0.272 C 
ATOM      2  C   UNL     1      23.301  36.809  14.195  1.00  0.00     0.113 C 
ATOM      3  C   UNL     1      24.206  37.946  14.511  1.00  0.00     0.145 C 
ATOM      4  C   UNL     1      25.430  37.852  13.656  1.00  0.00     0.142 C 
ATOM      5  C   UNL     1      25.810  36.385  13.560  1.00  0.00     0.178 C 
ATOM      6  O   UNL     1      24.900  35.593  12.929  1.00  0.00    -0.332 OA
ENDROOT
BRANCH   1   7
ATOM      7  O   UNL     1      23.367  36.692  11.763  1.00  0.00    -0.338 OA
BRANCH   7   8
ATOM      8  C   UNL     1      22.159  37.283  11.556  1.00  0.00     0.199 C 
BRANCH   8   9
ATOM      9  C   UNL     1      22.076  37.900  10.179  1.00  0.00     0.179 C 
ATOM     10  C   UNL     1      23.299  37.904   8.231  1.00  0.00     0.282 C 
ATOM     11  O   UNL     1      23.327  37.969   9.598  1.00  0.00    -0.341 OA
ATOM     12  C   UNL     1      22.782  36.601   7.664  1.00  0.00     0.202 C 
ATOM     13  C   UNL     1      21.716  36.076   8.601  1.00  0.00     0.179 C 
ATOM     14  C   UNL     1      21.075  37.278   9.263  1.00  0.00     0.177 C 
BRANCH  10  15
ATOM     15  O   UNL     1      24.564  38.070   7.676  1.00  0.00    -0.341 OA
BRANCH  15  16
ATOM     16  C   UNL     1      25.587  38.224   8.572  1.00  0.00     0.184 C 
ATOM     17  C   UNL     1      25.986  39.694   8.531  1.00  0.00     0.178 C 
ATOM     18  O   UNL     1      27.110  39.885   7.754  1.00  0.00    -0.341 OA
ATOM     19  C   UNL     1      26.894  39.243   6.521  1.00  0.00     0.281 C 
ATOM     20  C   UNL     1      26.723  37.326   8.100  1.00  0.00     0.180 C 
ATOM     21  C   UNL     1      27.222  37.769   6.735  1.00  0.00     0.202 C 
BRANCH  17  22
ATOM     22  C   UNL     1      26.170  40.242   9.935  1.00  0.00     0.191 C 
BRANCH  22  23
ATOM     23  O   UNL     1      24.975  40.218  10.649  1.00  0.00    -0.394 OA
ATOM     24  H   UNL     1      24.210  40.545  10.106  1.00  0.00     0.210 HD
ENDBRANCH  22  23
ENDBRANCH  17  22
BRANCH  19  25
ATOM     25  O   UNL     1      27.722  39.849   5.608  1.00  0.00    -0.350 OA
BRANCH  25  26
ATOM     26  C   UNL     1      28.863  40.412   6.126  1.00  0.00     0.169 C 
BRANCH  26  27
ATOM     27  C   UNL     1      30.127  39.666   5.799  1.00  0.00     0.119 C 
BRANCH  27  28
ATOM     28  N   UNL     1      31.005  39.636   6.974  1.00  0.00    -0.092 NA
ATOM     29  N   UNL     1      30.436  39.338   8.036  1.00  0.00     0.001 N 
ATOM     30  N   UNL     1      30.134  38.917   9.152  1.00  0.00    -0.003 NA
ENDBRANCH  27  28
ENDBRANCH  26  27
ENDBRANCH  25  26
ENDBRANCH  19  25
BRANCH  20  31
ATOM     31  O   UNL     1      27.761  37.340   9.022  1.00  0.00    -0.387 OA
ATOM     32  H   UNL     1      28.465  36.688   8.745  1.00  0.00     0.211 HD
ENDBRANCH  20  31
BRANCH  21  33
ATOM     33  O   UNL     1      26.715  36.962   5.733  1.00  0.00    -0.385 OA
ATOM     34  H   UNL     1      25.871  36.564   6.063  1.00  0.00     0.211 HD
ENDBRANCH  21  33
ENDBRANCH  15  16
ENDBRANCH  10  15
BRANCH  12  35
ATOM     35  O   UNL     1      22.210  36.855   6.414  1.00  0.00    -0.385 OA
ATOM     36  H   UNL     1      21.224  36.758   6.517  1.00  0.00     0.211 HD
ENDBRANCH  12  35
BRANCH  13  37
ATOM     37  O   UNL     1      22.377  35.282   9.535  1.00  0.00    -0.387 OA
ATOM     38  H   UNL     1      21.786  34.821  10.156  1.00  0.00     0.211 HD
ENDBRANCH  13  37
BRANCH  14  39
ATOM     39  O   UNL     1      19.861  37.015   9.852  1.00  0.00    -0.387 OA
ATOM     40  H   UNL     1      19.910  36.366  10.601  1.00  0.00     0.211 HD
ENDBRANCH  14  39
ENDBRANCH   8   9
ENDBRANCH   7   8
ENDBRANCH   1   7
BRANCH   1  41
ATOM     41  C   UNL     1      22.755  34.782  13.051  1.00  0.00     0.364 C 
ATOM     42  O   UNL     1      22.001  34.619  13.996  1.00  0.00    -0.246 OA
BRANCH  41  43
ATOM     43  O   UNL     1      22.927  33.865  12.029  1.00  0.00    -0.477 OA
ATOM     44  H   UNL     1      22.821  34.206  11.097  1.00  0.00     0.296 HD
ENDBRANCH  41  43
ENDBRANCH   1  41
BRANCH   3  45
ATOM     45  O   UNL     1      23.554  39.177  14.416  1.00  0.00    -0.391 OA
ATOM     46  H   UNL     1      22.962  39.233  15.217  1.00  0.00     0.211 HD
ENDBRANCH   3  45
BRANCH   5  47
ATOM     47  C   UNL     1      27.196  36.354  12.969  1.00  0.00     0.176 C 
BRANCH  47  48
ATOM     48  O   UNL     1      27.104  36.661  11.603  1.00  0.00    -0.388 OA
ATOM     49  H   UNL     1      27.086  37.656  11.537  1.00  0.00     0.211 HD
ENDBRANCH  47  48
BRANCH  47  50
ATOM     50  C   UNL     1      27.894  35.058  13.212  1.00  0.00     0.165 C 
BRANCH  50  51
ATOM     51  O   UNL     1      27.106  34.143  13.858  1.00  0.00    -0.388 OA
ATOM     52  H   UNL     1      26.957  33.313  13.379  1.00  0.00     0.211 HD
ENDBRANCH  50  51
BRANCH  50  53
ATOM     53  C   UNL     1      29.301  35.190  13.734  1.00  0.00     0.154 C 
BRANCH  53  54
ATOM     54  N   UNL     1      29.497  34.802  15.100  1.00  0.00    -0.319 N 
ATOM     55  C   UNL     1      30.214  33.644  15.519  1.00  0.00     0.407 C 
ATOM     56  H   UNL     1      29.091  35.413  15.879  1.00  0.00     0.167 HD
ATOM     57  O   UNL     1      30.737  32.884  14.686  1.00  0.00    -0.225 OA
BRANCH  55  58
ATOM     58  O   UNL     1      30.350  33.333  16.854  1.00  0.00    -0.443 OA
BRANCH  58  59
ATOM     59  C   UNL     1      29.633  32.275  17.490  1.00  0.00     0.294 C 
BRANCH  59  60
ATOM     60  C   UNL     1      28.278  32.147  16.866  1.00  0.00     0.120 A 
ATOM     61  C   UNL     1      27.725  31.101  16.173  1.00  0.00     0.138 A 
ATOM     62  N   UNL     1      27.337  33.114  16.916  1.00  0.00    -0.132 NA
ATOM     63  N   UNL     1      26.452  31.443  15.811  1.00  0.00    -0.249 N 
ATOM     64  N   UNL     1      26.284  32.656  16.286  1.00  0.00    -0.067 NA
BRANCH  63  65
ATOM     65  C   UNL     1      25.525  30.605  15.066  1.00  0.00     0.182 C 
BRANCH  65  66
ATOM     66  C   UNL     1      24.371  31.443  14.547  1.00  0.00     0.166 C 
BRANCH  66  67
ATOM     67  O   UNL     1      24.981  32.434  13.741  1.00  0.00    -0.386 OA
ATOM     68  H   UNL     1      25.181  32.057  12.840  1.00  0.00     0.211 HD
ENDBRANCH  66  67
BRANCH  66  69
ATOM     69  C   UNL     1      23.385  30.691  13.766  1.00  0.00    -0.018 A 
ATOM     70  C   UNL     1      23.715  29.640  12.965  1.00  0.00     0.006 A 
ATOM     71  C   UNL     1      22.059  31.134  13.880  1.00  0.00     0.006 A 
ATOM     72  C   UNL     1      22.705  29.009  12.256  1.00  0.00     0.000 A 
ATOM     73  C   UNL     1      21.081  30.494  13.168  1.00  0.00     0.000 A 
ATOM     74  C   UNL     1      21.398  29.427  12.352  1.00  0.00     0.000 A 
ENDBRANCH  66  69
ENDBRANCH  65  66
ENDBRANCH  63  65
ENDBRANCH  59  60
ENDBRANCH  58  59
ENDBRANCH  55  58
ENDBRANCH  53  54
ENDBRANCH  50  53
ENDBRANCH  47  50
ENDBRANCH   5  47
BRANCH   4  75
ATOM     75  N   UNL     1      26.571  38.492  14.331  1.00  0.00    -0.348 N 
ATOM     76  C   UNL     1      26.877  39.866  14.166  1.00  0.00     0.217 C 
ATOM     77  H   UNL     1      27.190  37.932  14.955  1.00  0.00     0.163 HD
ATOM     78  C   UNL     1      28.018  40.546  14.830  1.00  0.00     0.114 C 
ATOM     79  O   UNL     1      26.131  40.549  13.411  1.00  0.00    -0.275 OA
ENDBRANCH   4  75
TORSDOF 33
BEGIN_RES LYS A 131
REMARK  4 active torsions:
REMARK  status: ('A' for Active; 'I' for Inactive)
REMARK    1  A    between atoms: CA   and  CB  
REMARK    2  A    between atoms: CB   and  CG  
REMARK    3  A    between atoms: CG   and  CD  
REMARK    4  A    between atoms: CD   and  CE  
ROOT
ATOM      1  CA  LYS A 131      29.867  25.555  16.977  1.00 20.52     0.186 C 
ENDROOT
BRANCH   1   2
ATOM      2  CB  LYS A 131      28.345  25.722  17.026  1.00 20.94     0.034 C 
BRANCH   2   3
ATOM      3  CG  LYS A 131      27.602  24.400  16.909  1.00 22.96     0.005 C 
BRANCH   3   4
ATOM      4  CD  LYS A 131      26.618  24.202  18.029  1.00 24.33     0.041 C 
BRANCH   4   5
ATOM      5  CE  LYS A 131      26.433  25.516  18.782  1.00 26.91     0.338 C 
ATOM      6  NZ  LYS A 131      25.492  25.338  19.913  1.00 27.40     0.618 N 
ENDBRANCH   4   5
ENDBRANCH   3   4
ENDBRANCH   2   3
ENDBRANCH   1   2
END_RES LYS A 131
BEGIN_RES LYS A 135
REMARK  4 active torsions:
REMARK  status: ('A' for Active; 'I' for Inactive)
REMARK    5  A    between atoms: CA   and  CB  
REMARK    6  A    between atoms: CB   and  CG  
REMARK    7  A    between atoms: CG   and  CD  
REMARK    8  A    between atoms: CD   and  CE  
ROOT
ATOM      7  CA  LYS A 135      33.193  34.663   9.290  1.00 25.02     0.186 C 
ENDROOT
BRANCH   7   8
ATOM      8  CB  LYS A 135      32.060  35.360  10.034  1.00 26.63     0.034 C 
BRANCH   8   9
ATOM      9  CG  LYS A 135      30.755  35.362   9.280  1.00 29.45     0.005 C 
BRANCH   9  10
ATOM     10  CD  LYS A 135      29.709  34.538  10.014  1.00 32.00     0.041 C 
BRANCH  10  11
ATOM     11  CE  LYS A 135      28.643  34.051   9.052  1.00 34.25     0.338 C 
ATOM     12  NZ  LYS A 135      27.361  33.786   9.761  1.00 35.99     0.618 N 
ENDBRANCH  10  11
ENDBRANCH   9  10
ENDBRANCH   8   9
ENDBRANCH   7   8
END_RES LYS A 135
