REMARK VINA RESULT:    -5.694      2.766      3.986
REMARK INTER + INTRA:         -24.097
REMARK INTER:                 -13.263
REMARK INTRA:                 -10.834
REMARK UNBOUND:                -9.416
REMARK SMILES CC(=O)N[C@@H]1[C@@H](O)C[C@](OC[C@H]2O[C@@H](O[C@H]3[C@H](O)[C@@H](O)[C@H](OCCN=[N+]=[N-])O[C@@H]3CO)[C@H](O)[C@@H](O)[C@H]2O)(C(=O)O)O[C@H]1C(O)[C@H](O)CNC(=O)OCc1cn(C(C)(C)C(=O)c2c[nH]c3ccccc23)nn1
REMARK SMILES IDX 9 1 8 2 6 3 5 4 42 5 41 6 10 7 11 8 12 9 14 10 13 11 32 12
REMARK SMILES IDX 34 13 36 14 15 15 16 16 29 17 28 18 21 19 17 20 19 21 30 22
REMARK SMILES IDX 31 23 22 25 23 26 24 27 25 28 26 29 27 30 18 31 20 33 33 35
REMARK SMILES IDX 35 37 37 39 38 41 39 42 40 43 7 45 43 47 44 48 45 50 46 51
REMARK SMILES IDX 47 53 48 54 49 55 50 57 51 58 52 59 53 60 54 61 71 62 55 63
REMARK SMILES IDX 70 64 56 65 57 66 58 67 59 68 60 69 61 70 62 71 69 72 63 73
REMARK SMILES IDX 64 74 68 75 65 77 67 78 66 79 4 80 2 81 1 83 3 84
REMARK H PARENT 31 24 18 32 20 34 33 36 35 38 37 40 40 44 7 46 44 49 46 52
REMARK H PARENT 48 56 63 76 4 82
REMARK Flexibility Score: inf
ROOT
ATOM      1  C   UNL     1      23.311  36.602   9.582  1.00  0.00     0.272 C 
ATOM      2  C   UNL     1      22.337  35.626   8.944  1.00  0.00     0.113 C 
ATOM      3  C   UNL     1      21.674  36.214   7.724  1.00  0.00     0.145 C 
ATOM      4  C   UNL     1      20.729  37.376   8.189  1.00  0.00     0.142 C 
ATOM      5  C   UNL     1      21.448  38.024   9.327  1.00  0.00     0.178 C 
ATOM      6  O   UNL     1      22.812  37.854   9.213  1.00  0.00    -0.332 OA
ENDROOT
BRANCH   1   7
ATOM      7  O   UNL     1      24.605  36.462   9.282  1.00  0.00    -0.338 OA
BRANCH   7   8
ATOM      8  C   UNL     1      25.579  35.734   9.715  1.00  0.00     0.199 C 
BRANCH   8   9
ATOM      9  C   UNL     1      26.291  34.902   8.645  1.00  0.00     0.179 C 
ATOM     10  C   UNL     1      27.780  36.521   7.758  1.00  0.00     0.282 C 
ATOM     11  O   UNL     1      26.731  35.681   7.630  1.00  0.00    -0.341 OA
ATOM     12  C   UNL     1      28.957  35.931   8.484  1.00  0.00     0.202 C 
ATOM     13  C   UNL     1      28.737  34.438   8.698  1.00  0.00     0.179 C 
ATOM     14  C   UNL     1      27.414  34.143   9.295  1.00  0.00     0.177 C 
BRANCH  10  15
ATOM     15  O   UNL     1      27.397  37.685   8.400  1.00  0.00    -0.341 OA
BRANCH  15  16
ATOM     16  C   UNL     1      27.297  38.765   7.571  1.00  0.00     0.184 C 
ATOM     17  C   UNL     1      28.095  39.971   7.908  1.00  0.00     0.178 C 
ATOM     18  O   UNL     1      28.184  40.735   6.727  1.00  0.00    -0.341 OA
ATOM     19  C   UNL     1      26.979  41.179   6.265  1.00  0.00     0.281 C 
ATOM     20  C   UNL     1      25.867  39.218   7.353  1.00  0.00     0.180 C 
ATOM     21  C   UNL     1      25.910  40.116   6.135  1.00  0.00     0.202 C 
BRANCH  17  22
ATOM     22  C   UNL     1      29.528  39.686   8.310  1.00  0.00     0.191 C 
BRANCH  22  23
ATOM     23  O   UNL     1      29.504  39.226   9.632  1.00  0.00    -0.394 OA
ATOM     24  H   UNL     1      29.031  39.840  10.240  1.00  0.00     0.210 HD
ENDBRANCH  22  23
ENDBRANCH  17  22
BRANCH  19  25
ATOM     25  O   UNL     1      27.177  41.680   4.975  1.00  0.00    -0.350 OA
BRANCH  25  26
ATOM     26  C   UNL     1      27.126  43.061   5.029  1.00  0.00     0.169 C 
BRANCH  26  27
ATOM     27  C   UNL     1      26.019  43.632   4.184  1.00  0.00     0.119 C 
BRANCH  27  28
ATOM     28  N   UNL     1      24.736  43.652   4.854  1.00  0.00    -0.092 NA
ATOM     29  N   UNL     1      24.605  44.189   5.972  1.00  0.00     0.001 N 
ATOM     30  N   UNL     1      24.434  45.108   6.777  1.00  0.00    -0.003 NA
ENDBRANCH  27  28
ENDBRANCH  26  27
ENDBRANCH  25  26
ENDBRANCH  19  25
BRANCH  20  31
ATOM     31  O   UNL     1      24.998  38.176   7.133  1.00  0.00    -0.387 OA
ATOM     32  H   UNL     1      24.107  38.549   6.960  1.00  0.00     0.211 HD
ENDBRANCH  20  31
BRANCH  21  33
ATOM     33  O   UNL     1      24.684  40.774   6.049  1.00  0.00    -0.385 OA
ATOM     34  H   UNL     1      24.678  41.621   6.572  1.00  0.00     0.211 HD
ENDBRANCH  21  33
ENDBRANCH  15  16
ENDBRANCH  10  15
BRANCH  12  35
ATOM     35  O   UNL     1      30.180  36.157   7.852  1.00  0.00    -0.385 OA
ATOM     36  H   UNL     1      30.565  35.300   7.574  1.00  0.00     0.211 HD
ENDBRANCH  12  35
BRANCH  13  37
ATOM     37  O   UNL     1      29.789  34.037   9.555  1.00  0.00    -0.387 OA
ATOM     38  H   UNL     1      29.671  33.098   9.841  1.00  0.00     0.211 HD
ENDBRANCH  13  37
BRANCH  14  39
ATOM     39  O   UNL     1      27.403  34.489  10.670  1.00  0.00    -0.387 OA
ATOM     40  H   UNL     1      26.662  34.005  11.121  1.00  0.00     0.211 HD
ENDBRANCH  14  39
ENDBRANCH   8   9
ENDBRANCH   7   8
ENDBRANCH   1   7
BRANCH   1  41
ATOM     41  C   UNL     1      23.198  36.450  11.049  1.00  0.00     0.364 C 
ATOM     42  O   UNL     1      22.772  35.361  11.513  1.00  0.00    -0.246 OA
BRANCH  41  43
ATOM     43  O   UNL     1      23.522  37.423  11.940  1.00  0.00    -0.477 OA
ATOM     44  H   UNL     1      23.917  37.296  12.869  1.00  0.00     0.296 HD
ENDBRANCH  41  43
ENDBRANCH   1  41
BRANCH   3  45
ATOM     45  O   UNL     1      22.515  36.829   6.827  1.00  0.00    -0.391 OA
ATOM     46  H   UNL     1      22.639  36.312   5.980  1.00  0.00     0.211 HD
ENDBRANCH   3  45
BRANCH   5  47
ATOM     47  C   UNL     1      21.217  39.473   9.548  1.00  0.00     0.176 C 
BRANCH  47  48
ATOM     48  O   UNL     1      21.343  39.859  10.863  1.00  0.00    -0.388 OA
ATOM     49  H   UNL     1      20.969  40.761  11.073  1.00  0.00     0.211 HD
ENDBRANCH  47  48
BRANCH  47  50
ATOM     50  C   UNL     1      21.854  40.425   8.559  1.00  0.00     0.165 C 
BRANCH  50  51
ATOM     51  O   UNL     1      22.317  39.815   7.440  1.00  0.00    -0.388 OA
ATOM     52  H   UNL     1      21.691  39.843   6.703  1.00  0.00     0.211 HD
ENDBRANCH  50  51
BRANCH  50  53
ATOM     53  C   UNL     1      22.803  41.308   9.301  1.00  0.00     0.154 C 
BRANCH  53  54
ATOM     54  N   UNL     1      24.148  40.885   9.406  1.00  0.00    -0.319 N 
ATOM     55  C   UNL     1      24.741  40.394  10.621  1.00  0.00     0.407 C 
ATOM     56  H   UNL     1      24.789  40.916   8.557  1.00  0.00     0.167 HD
ATOM     57  O   UNL     1      24.093  40.332  11.685  1.00  0.00    -0.225 OA
BRANCH  55  58
ATOM     58  O   UNL     1      26.058  39.975  10.646  1.00  0.00    -0.443 OA
BRANCH  58  59
ATOM     59  C   UNL     1      26.837  40.033  11.806  1.00  0.00     0.294 C 
BRANCH  59  60
ATOM     60  C   UNL     1      27.061  38.634  12.287  1.00  0.00     0.120 A 
ATOM     61  C   UNL     1      26.469  38.067  13.431  1.00  0.00     0.139 A 
ATOM     62  N   UNL     1      27.838  37.656  11.804  1.00  0.00    -0.132 NA
ATOM     63  N   UNL     1      26.903  36.810  13.585  1.00  0.00    -0.239 N 
ATOM     64  N   UNL     1      27.730  36.573  12.595  1.00  0.00    -0.066 NA
BRANCH  63  65
ATOM     65  C   UNL     1      26.506  35.919  14.655  1.00  0.00     0.122 C 
ATOM     66  C   UNL     1      24.957  36.100  14.820  1.00  0.00     0.046 C 
ATOM     67  C   UNL     1      27.049  36.317  16.007  1.00  0.00     0.046 C 
BRANCH  65  68
ATOM     68  C   UNL     1      26.723  34.524  14.322  1.00  0.00     0.192 C 
ATOM     69  O   UNL     1      26.039  34.108  13.289  1.00  0.00    -0.291 OA
BRANCH  68  70
ATOM     70  C   UNL     1      27.553  33.531  14.931  1.00  0.00     0.045 A 
ATOM     71  C   UNL     1      27.052  32.422  15.626  1.00  0.00     0.095 A 
ATOM     72  C   UNL     1      28.929  33.443  14.999  1.00  0.00     0.010 A 
ATOM     73  N   UNL     1      28.079  31.728  16.075  1.00  0.00    -0.360 N 
ATOM     74  C   UNL     1      29.236  32.292  15.730  1.00  0.00     0.046 A 
ATOM     75  C   UNL     1      29.969  34.198  14.532  1.00  0.00     0.011 A 
ATOM     76  H   UNL     1      27.967  30.837  16.638  1.00  0.00     0.166 HD
ATOM     77  C   UNL     1      30.548  31.926  15.975  1.00  0.00     0.027 A 
ATOM     78  C   UNL     1      31.289  33.826  14.782  1.00  0.00     0.001 A 
ATOM     79  C   UNL     1      31.566  32.699  15.498  1.00  0.00     0.002 A 
ENDBRANCH  68  70
ENDBRANCH  65  68
ENDBRANCH  63  65
ENDBRANCH  59  60
ENDBRANCH  58  59
ENDBRANCH  55  58
ENDBRANCH  53  54
ENDBRANCH  50  53
ENDBRANCH  47  50
ENDBRANCH   5  47
BRANCH   4  80
ATOM     80  N   UNL     1      19.552  36.653   8.663  1.00  0.00    -0.348 N 
ATOM     81  C   UNL     1      18.232  36.908   8.214  1.00  0.00     0.217 C 
ATOM     82  H   UNL     1      19.680  35.895   9.387  1.00  0.00     0.163 HD
ATOM     83  C   UNL     1      17.035  36.171   8.702  1.00  0.00     0.114 C 
ATOM     84  O   UNL     1      18.101  37.830   7.338  1.00  0.00    -0.275 OA
ENDBRANCH   4  80
TORSDOF 32
BEGIN_RES LYS A 131
REMARK  4 active torsions:
REMARK  status: ('A' for Active; 'I' for Inactive)
REMARK    1  A    between atoms: CA   and  CB  
REMARK    2  A    between atoms: CB   and  CG  
REMARK    3  A    between atoms: CG   and  CD  
REMARK    4  A    between atoms: CD   and  CE  
ROOT
ATOM      1  CA  LYS A 131      29.867  25.555  16.977  1.00 20.52     0.186 C 
ENDROOT
BRANCH   1   2
ATOM      2  CB  LYS A 131      28.345  25.722  17.026  1.00 20.94     0.034 C 
BRANCH   2   3
ATOM      3  CG  LYS A 131      27.798  25.739  18.445  1.00 22.96     0.005 C 
BRANCH   3   4
ATOM      4  CD  LYS A 131      26.763  26.812  18.640  1.00 24.33     0.041 C 
BRANCH   4   5
ATOM      5  CE  LYS A 131      27.010  27.944  17.649  1.00 26.91     0.338 C 
ATOM      6  NZ  LYS A 131      27.576  29.126  18.341  1.00 27.40     0.618 N 
ENDBRANCH   4   5
ENDBRANCH   3   4
ENDBRANCH   2   3
ENDBRANCH   1   2
END_RES LYS A 131
BEGIN_RES LYS A 135
REMARK  4 active torsions:
REMARK  status: ('A' for Active; 'I' for Inactive)
REMARK    5  A    between atoms: CA   and  CB  
REMARK    6  A    between atoms: CB   and  CG  
REMARK    7  A    between atoms: CG   and  CD  
REMARK    8  A    between atoms: CD   and  CE  
ROOT
ATOM      7  CA  LYS A 135      33.193  34.663   9.290  1.00 25.02     0.186 C 
ENDROOT
BRANCH   7   8
ATOM      8  CB  LYS A 135      32.060  35.360  10.034  1.00 26.63     0.034 C 
BRANCH   8   9
ATOM      9  CG  LYS A 135      32.428  35.783  11.433  1.00 29.45     0.005 C 
BRANCH   9  10
ATOM     10  CD  LYS A 135      31.273  36.521  12.092  1.00 32.00     0.041 C 
BRANCH  10  11
ATOM     11  CE  LYS A 135      31.557  38.010  12.151  1.00 34.25     0.338 C 
ATOM     12  NZ  LYS A 135      30.871  38.641  13.312  1.00 35.99     0.618 N 
ENDBRANCH  10  11
ENDBRANCH   9  10
ENDBRANCH   8   9
ENDBRANCH   7   8
END_RES LYS A 135
