REMARK VINA RESULT:    -4.125      5.165      9.410
REMARK INTER + INTRA:         -21.641
REMARK INTER:                  -9.982
REMARK INTRA:                 -11.659
REMARK UNBOUND:               -11.125
REMARK SMILES CC(=O)N[C@@H]1[C@@H](O)C[C@](OC[C@H]2O[C@@H](O[C@H]3[C@H](O)[C@@H](O)[C@H](OCCN=[N+]=[N-])O[C@@H]3CO)[C@H](O)[C@@H](O)[C@H]2O)(C(=O)O)O[C@H]1C(O)[C@H](O)CNC(=O)OCc1cn([C@@H](C)C(=O)O)nn1
REMARK SMILES IDX 9 1 8 2 6 3 5 4 42 5 41 6 10 7 11 8 12 9 14 10 13 11 32 12
REMARK SMILES IDX 34 13 36 14 15 15 16 16 29 17 28 18 21 19 17 20 19 21 30 22
REMARK SMILES IDX 31 23 22 25 23 26 24 27 25 28 26 29 27 30 18 31 20 33 33 35
REMARK SMILES IDX 35 37 37 39 38 41 39 42 40 43 7 45 43 47 44 48 45 50 46 51
REMARK SMILES IDX 47 53 48 54 49 55 50 57 51 58 52 59 53 60 54 61 62 62 55 63
REMARK SMILES IDX 61 64 56 65 57 66 58 67 59 68 60 69 4 71 2 72 1 74 3 75
REMARK H PARENT 31 24 18 32 20 34 33 36 35 38 37 40 40 44 7 46 44 49 46 52
REMARK H PARENT 48 56 60 70 4 73
REMARK Flexibility Score: inf
ROOT
ATOM      1  C   UNL     1      29.101  36.589   8.223  1.00  0.00     0.272 C 
ATOM      2  C   UNL     1      30.228  37.052   9.062  1.00  0.00     0.113 C 
ATOM      3  C   UNL     1      30.018  38.527   9.315  1.00  0.00     0.145 C 
ATOM      4  C   UNL     1      30.363  39.165   7.922  1.00  0.00     0.142 C 
ATOM      5  C   UNL     1      29.773  38.392   6.843  1.00  0.00     0.178 C 
ATOM      6  O   UNL     1      28.822  37.460   7.165  1.00  0.00    -0.332 OA
ENDROOT
BRANCH   1   7
ATOM      7  O   UNL     1      27.979  36.322   8.945  1.00  0.00    -0.338 OA
BRANCH   7   8
ATOM      8  C   UNL     1      27.751  35.069   9.377  1.00  0.00     0.199 C 
BRANCH   8   9
ATOM      9  C   UNL     1      26.552  35.028  10.357  1.00  0.00     0.179 C 
ATOM     10  C   UNL     1      25.854  36.014  12.324  1.00  0.00     0.282 C 
ATOM     11  O   UNL     1      26.762  36.028  11.270  1.00  0.00    -0.341 OA
ATOM     12  C   UNL     1      24.721  35.057  12.102  1.00  0.00     0.202 C 
ATOM     13  C   UNL     1      24.164  35.199  10.698  1.00  0.00     0.179 C 
ATOM     14  C   UNL     1      25.257  35.208   9.643  1.00  0.00     0.177 C 
BRANCH  10  15
ATOM     15  O   UNL     1      25.288  37.273  12.570  1.00  0.00    -0.341 OA
BRANCH  15  16
ATOM     16  C   UNL     1      26.160  38.301  12.242  1.00  0.00     0.184 C 
ATOM     17  C   UNL     1      26.480  39.113  13.457  1.00  0.00     0.178 C 
ATOM     18  O   UNL     1      25.921  40.391  13.403  1.00  0.00    -0.341 OA
ATOM     19  C   UNL     1      24.553  40.333  13.120  1.00  0.00     0.281 C 
ATOM     20  C   UNL     1      25.490  39.156  11.193  1.00  0.00     0.180 C 
ATOM     21  C   UNL     1      24.292  39.909  11.702  1.00  0.00     0.202 C 
BRANCH  17  22
ATOM     22  C   UNL     1      27.969  39.271  13.658  1.00  0.00     0.191 C 
BRANCH  22  23
ATOM     23  O   UNL     1      28.633  39.540  12.463  1.00  0.00    -0.394 OA
ATOM     24  H   UNL     1      29.089  38.734  12.148  1.00  0.00     0.210 HD
ENDBRANCH  22  23
ENDBRANCH  17  22
BRANCH  19  25
ATOM     25  O   UNL     1      24.065  41.615  13.299  1.00  0.00    -0.350 OA
BRANCH  25  26
ATOM     26  C   UNL     1      24.428  42.397  12.222  1.00  0.00     0.169 C 
BRANCH  26  27
ATOM     27  C   UNL     1      25.115  43.663  12.690  1.00  0.00     0.119 C 
BRANCH  27  28
ATOM     28  N   UNL     1      26.223  43.948  11.780  1.00  0.00    -0.092 NA
ATOM     29  N   UNL     1      27.207  43.213  11.694  1.00  0.00     0.001 N 
ATOM     30  N   UNL     1      28.007  42.315  11.504  1.00  0.00    -0.003 NA
ENDBRANCH  27  28
ENDBRANCH  26  27
ENDBRANCH  25  26
ENDBRANCH  19  25
BRANCH  20  31
ATOM     31  O   UNL     1      26.380  40.050  10.599  1.00  0.00    -0.387 OA
ATOM     32  H   UNL     1      26.837  40.638  11.239  1.00  0.00     0.211 HD
ENDBRANCH  20  31
BRANCH  21  33
ATOM     33  O   UNL     1      23.167  39.087  11.690  1.00  0.00    -0.385 OA
ATOM     34  H   UNL     1      22.339  39.613  11.609  1.00  0.00     0.211 HD
ENDBRANCH  21  33
ENDBRANCH  15  16
ENDBRANCH  10  15
BRANCH  12  35
ATOM     35  O   UNL     1      24.999  33.755  12.446  1.00  0.00    -0.385 OA
ATOM     36  H   UNL     1      24.944  33.645  13.446  1.00  0.00     0.211 HD
ENDBRANCH  12  35
BRANCH  13  37
ATOM     37  O   UNL     1      23.486  36.437  10.657  1.00  0.00    -0.387 OA
ATOM     38  H   UNL     1      23.878  37.031   9.965  1.00  0.00     0.211 HD
ENDBRANCH  13  37
BRANCH  14  39
ATOM     39  O   UNL     1      25.236  36.397   8.915  1.00  0.00    -0.387 OA
ATOM     40  H   UNL     1      26.005  36.416   8.288  1.00  0.00     0.211 HD
ENDBRANCH  14  39
ENDBRANCH   8   9
ENDBRANCH   7   8
ENDBRANCH   1   7
BRANCH   1  41
ATOM     41  C   UNL     1      29.541  35.352   7.526  1.00  0.00     0.364 C 
ATOM     42  O   UNL     1      30.244  34.521   8.118  1.00  0.00    -0.246 OA
BRANCH  41  43
ATOM     43  O   UNL     1      29.180  35.099   6.210  1.00  0.00    -0.477 OA
ATOM     44  H   UNL     1      29.869  35.184   5.448  1.00  0.00     0.296 HD
ENDBRANCH  41  43
ENDBRANCH   1  41
BRANCH   3  45
ATOM     45  O   UNL     1      28.655  38.743   9.475  1.00  0.00    -0.391 OA
ATOM     46  H   UNL     1      28.429  39.219  10.292  1.00  0.00     0.211 HD
ENDBRANCH   3  45
BRANCH   5  47
ATOM     47  C   UNL     1      29.230  39.178   5.661  1.00  0.00     0.176 C 
BRANCH  47  48
ATOM     48  O   UNL     1      29.102  40.544   6.105  1.00  0.00    -0.388 OA
ATOM     49  H   UNL     1      28.375  40.969   5.622  1.00  0.00     0.211 HD
ENDBRANCH  47  48
BRANCH  47  50
ATOM     50  C   UNL     1      27.807  38.817   5.284  1.00  0.00     0.165 C 
BRANCH  50  51
ATOM     51  O   UNL     1      27.670  37.862   4.326  1.00  0.00    -0.388 OA
ATOM     52  H   UNL     1      28.325  37.859   3.594  1.00  0.00     0.211 HD
ENDBRANCH  50  51
BRANCH  50  53
ATOM     53  C   UNL     1      26.935  40.019   5.143  1.00  0.00     0.154 C 
BRANCH  53  54
ATOM     54  N   UNL     1      25.869  40.162   6.061  1.00  0.00    -0.319 N 
ATOM     55  C   UNL     1      25.949  40.575   7.417  1.00  0.00     0.407 C 
ATOM     56  H   UNL     1      24.894  39.933   5.691  1.00  0.00     0.167 HD
ATOM     57  O   UNL     1      27.052  40.862   7.897  1.00  0.00    -0.225 OA
BRANCH  55  58
ATOM     58  O   UNL     1      24.780  40.650   8.193  1.00  0.00    -0.443 OA
BRANCH  58  59
ATOM     59  C   UNL     1      23.515  40.571   7.593  1.00  0.00     0.294 C 
BRANCH  59  60
ATOM     60  C   UNL     1      22.844  39.284   7.812  1.00  0.00     0.120 A 
ATOM     61  C   UNL     1      21.619  39.024   8.386  1.00  0.00     0.139 A 
ATOM     62  N   UNL     1      23.383  38.091   7.446  1.00  0.00    -0.132 NA
ATOM     63  N   UNL     1      21.450  37.701   8.353  1.00  0.00    -0.238 N 
ATOM     64  N   UNL     1      22.509  37.134   7.789  1.00  0.00    -0.066 NA
BRANCH  63  65
ATOM     65  C   UNL     1      20.296  36.984   8.855  1.00  0.00     0.215 C 
ATOM     66  C   UNL     1      19.120  37.232   7.964  1.00  0.00     0.046 C 
BRANCH  65  67
ATOM     67  C   UNL     1      20.566  35.530   8.953  1.00  0.00     0.328 C 
ATOM     68  O   UNL     1      20.718  35.024  10.092  1.00  0.00    -0.250 OA
BRANCH  67  69
ATOM     69  O   UNL     1      20.656  34.713   7.836  1.00  0.00    -0.480 OA
ATOM     70  H   UNL     1      21.205  34.975   7.026  1.00  0.00     0.296 HD
ENDBRANCH  67  69
ENDBRANCH  65  67
ENDBRANCH  63  65
ENDBRANCH  59  60
ENDBRANCH  58  59
ENDBRANCH  55  58
ENDBRANCH  53  54
ENDBRANCH  50  53
ENDBRANCH  47  50
ENDBRANCH   5  47
BRANCH   4  71
ATOM     71  N   UNL     1      31.802  39.342   7.877  1.00  0.00    -0.348 N 
ATOM     72  C   UNL     1      32.500  40.406   7.308  1.00  0.00     0.217 C 
ATOM     73  H   UNL     1      32.372  38.570   8.330  1.00  0.00     0.163 HD
ATOM     74  C   UNL     1      33.982  40.470   7.324  1.00  0.00     0.114 C 
ATOM     75  O   UNL     1      31.863  41.330   6.769  1.00  0.00    -0.275 OA
ENDBRANCH   4  71
TORSDOF 32
BEGIN_RES LYS A 131
REMARK  4 active torsions:
REMARK  status: ('A' for Active; 'I' for Inactive)
REMARK    1  A    between atoms: CA   and  CB  
REMARK    2  A    between atoms: CB   and  CG  
REMARK    3  A    between atoms: CG   and  CD  
REMARK    4  A    between atoms: CD   and  CE  
ROOT
ATOM      1  CA  LYS A 131      29.867  25.555  16.977  1.00 20.52     0.186 C 
ENDROOT
BRANCH   1   2
ATOM      2  CB  LYS A 131      28.345  25.722  17.026  1.00 20.94     0.034 C 
BRANCH   2   3
ATOM      3  CG  LYS A 131      27.599  24.476  16.573  1.00 22.96     0.005 C 
BRANCH   3   4
ATOM      4  CD  LYS A 131      27.173  23.618  17.732  1.00 24.33     0.041 C 
BRANCH   4   5
ATOM      5  CE  LYS A 131      25.704  23.880  18.046  1.00 26.91     0.338 C 
ATOM      6  NZ  LYS A 131      25.434  23.663  19.487  1.00 27.40     0.618 N 
ENDBRANCH   4   5
ENDBRANCH   3   4
ENDBRANCH   2   3
ENDBRANCH   1   2
END_RES LYS A 131
BEGIN_RES LYS A 135
REMARK  4 active torsions:
REMARK  status: ('A' for Active; 'I' for Inactive)
REMARK    5  A    between atoms: CA   and  CB  
REMARK    6  A    between atoms: CB   and  CG  
REMARK    7  A    between atoms: CG   and  CD  
REMARK    8  A    between atoms: CD   and  CE  
ROOT
ATOM      7  CA  LYS A 135      33.193  34.663   9.290  1.00 25.02     0.186 C 
ENDROOT
BRANCH   7   8
ATOM      8  CB  LYS A 135      32.060  35.360  10.034  1.00 26.63     0.034 C 
BRANCH   8   9
ATOM      9  CG  LYS A 135      32.227  35.351  11.532  1.00 29.45     0.005 C 
BRANCH   9  10
ATOM     10  CD  LYS A 135      32.282  36.771  12.074  1.00 32.00     0.041 C 
BRANCH  10  11
ATOM     11  CE  LYS A 135      31.092  37.043  12.974  1.00 34.25     0.338 C 
ATOM     12  NZ  LYS A 135      31.530  37.553  14.303  1.00 35.99     0.618 N 
ENDBRANCH  10  11
ENDBRANCH   9  10
ENDBRANCH   8   9
ENDBRANCH   7   8
END_RES LYS A 135
