REMARK VINA RESULT:    -4.317      3.291      6.417
REMARK INTER + INTRA:         -22.373
REMARK INTER:                 -10.277
REMARK INTRA:                 -12.095
REMARK UNBOUND:               -11.494
REMARK SMILES CC(=O)N[C@@H]1[C@@H](O)C[C@](OC[C@H]2O[C@@H](O[C@H]3[C@H](O)[C@@H](O)[C@H](OCCN=[N+]=[N-])O[C@@H]3CO)[C@H](O)[C@@H](O)[C@H]2O)(C(=O)O)O[C@H]1C(O)[C@H](O)CNC(=O)OCc1cn(-c2ccccc2C(C)=O)nn1
REMARK SMILES IDX 9 1 8 2 6 3 5 4 42 5 41 6 10 7 11 8 12 9 14 10 13 11 32 12
REMARK SMILES IDX 34 13 36 14 15 15 16 16 29 17 28 18 21 19 17 20 19 21 30 22
REMARK SMILES IDX 31 23 22 25 23 26 24 27 25 28 26 29 27 30 18 31 20 33 33 35
REMARK SMILES IDX 35 37 37 39 38 41 39 42 40 43 7 45 43 47 44 48 45 50 46 51
REMARK SMILES IDX 47 53 48 54 49 55 50 57 51 58 52 59 53 60 54 61 66 62 55 63
REMARK SMILES IDX 65 64 56 65 61 66 57 67 60 68 58 69 59 70 62 71 64 72 63 73
REMARK SMILES IDX 4 74 2 75 1 77 3 78
REMARK H PARENT 31 24 18 32 20 34 33 36 35 38 37 40 40 44 7 46 44 49 46 52
REMARK H PARENT 48 56 4 76
REMARK Flexibility Score: inf
ROOT
ATOM      1  C   UNL     1      23.402  41.977   8.742  1.00  0.00     0.272 C 
ATOM      2  C   UNL     1      23.578  40.496   8.576  1.00  0.00     0.113 C 
ATOM      3  C   UNL     1      23.793  40.211   7.113  1.00  0.00     0.145 C 
ATOM      4  C   UNL     1      25.140  40.837   6.795  1.00  0.00     0.142 C 
ATOM      5  C   UNL     1      24.934  42.319   6.954  1.00  0.00     0.178 C 
ATOM      6  O   UNL     1      23.842  42.726   7.626  1.00  0.00    -0.332 OA
ENDROOT
BRANCH   1   7
ATOM      7  O   UNL     1      23.922  42.546   9.800  1.00  0.00    -0.338 OA
BRANCH   7   8
ATOM      8  C   UNL     1      23.870  42.329  11.076  1.00  0.00     0.199 C 
BRANCH   8   9
ATOM      9  C   UNL     1      24.962  41.790  11.920  1.00  0.00     0.179 C 
ATOM     10  C   UNL     1      25.631  39.803  12.899  1.00  0.00     0.282 C 
ATOM     11  O   UNL     1      24.759  40.377  11.991  1.00  0.00    -0.341 OA
ATOM     12  C   UNL     1      26.768  40.643  13.342  1.00  0.00     0.202 C 
ATOM     13  C   UNL     1      27.336  41.581  12.322  1.00  0.00     0.179 C 
ATOM     14  C   UNL     1      26.342  41.880  11.227  1.00  0.00     0.177 C 
BRANCH  10  15
ATOM     15  O   UNL     1      26.112  38.603  12.378  1.00  0.00    -0.341 OA
BRANCH  15  16
ATOM     16  C   UNL     1      25.087  37.686  12.156  1.00  0.00     0.184 C 
ATOM     17  C   UNL     1      25.287  36.527  13.102  1.00  0.00     0.178 C 
ATOM     18  O   UNL     1      25.496  35.321  12.486  1.00  0.00    -0.341 OA
ATOM     19  C   UNL     1      24.567  34.953  11.545  1.00  0.00     0.281 C 
ATOM     20  C   UNL     1      25.317  37.147  10.737  1.00  0.00     0.180 C 
ATOM     21  C   UNL     1      24.329  36.046  10.514  1.00  0.00     0.202 C 
BRANCH  17  22
ATOM     22  C   UNL     1      24.113  36.496  14.064  1.00  0.00     0.191 C 
BRANCH  22  23
ATOM     23  O   UNL     1      23.106  37.303  13.538  1.00  0.00    -0.394 OA
ATOM     24  H   UNL     1      23.381  37.856  12.785  1.00  0.00     0.210 HD
ENDBRANCH  22  23
ENDBRANCH  17  22
BRANCH  19  25
ATOM     25  O   UNL     1      23.379  34.472  12.060  1.00  0.00    -0.350 OA
BRANCH  25  26
ATOM     26  C   UNL     1      23.595  33.216  12.605  1.00  0.00     0.169 C 
BRANCH  26  27
ATOM     27  C   UNL     1      22.273  32.652  13.103  1.00  0.00     0.119 C 
BRANCH  27  28
ATOM     28  N   UNL     1      22.079  31.292  12.585  1.00  0.00    -0.092 NA
ATOM     29  N   UNL     1      23.015  30.512  12.753  1.00  0.00     0.001 N 
ATOM     30  N   UNL     1      23.893  29.667  12.743  1.00  0.00    -0.003 NA
ENDBRANCH  27  28
ENDBRANCH  26  27
ENDBRANCH  25  26
ENDBRANCH  19  25
BRANCH  20  31
ATOM     31  O   UNL     1      25.209  38.177   9.833  1.00  0.00    -0.387 OA
ATOM     32  H   UNL     1      25.659  39.016  10.163  1.00  0.00     0.211 HD
ENDBRANCH  20  31
BRANCH  21  33
ATOM     33  O   UNL     1      24.370  35.554   9.208  1.00  0.00    -0.385 OA
ATOM     34  H   UNL     1      25.330  35.478   8.919  1.00  0.00     0.211 HD
ENDBRANCH  21  33
ENDBRANCH  15  16
ENDBRANCH  10  15
BRANCH  12  35
ATOM     35  O   UNL     1      26.503  41.286  14.561  1.00  0.00    -0.385 OA
ATOM     36  H   UNL     1      26.310  40.632  15.279  1.00  0.00     0.211 HD
ENDBRANCH  12  35
BRANCH  13  37
ATOM     37  O   UNL     1      28.483  41.053  11.705  1.00  0.00    -0.387 OA
ATOM     38  H   UNL     1      28.946  41.822  11.279  1.00  0.00     0.211 HD
ENDBRANCH  13  37
BRANCH  14  39
ATOM     39  O   UNL     1      26.407  40.927  10.204  1.00  0.00    -0.387 OA
ATOM     40  H   UNL     1      25.615  40.331  10.188  1.00  0.00     0.211 HD
ENDBRANCH  14  39
ENDBRANCH   8   9
ENDBRANCH   7   8
ENDBRANCH   1   7
BRANCH   1  41
ATOM     41  C   UNL     1      21.930  42.188   8.643  1.00  0.00     0.364 C 
ATOM     42  O   UNL     1      21.121  41.316   9.114  1.00  0.00    -0.246 OA
BRANCH  41  43
ATOM     43  O   UNL     1      21.309  43.267   8.067  1.00  0.00    -0.477 OA
ATOM     44  H   UNL     1      20.706  43.187   7.260  1.00  0.00     0.296 HD
ENDBRANCH  41  43
ENDBRANCH   1  41
BRANCH   3  45
ATOM     45  O   UNL     1      23.829  38.825   6.977  1.00  0.00    -0.391 OA
ATOM     46  H   UNL     1      23.132  38.505   6.345  1.00  0.00     0.211 HD
ENDBRANCH   3  45
BRANCH   5  47
ATOM     47  C   UNL     1      26.259  42.974   7.466  1.00  0.00     0.176 C 
BRANCH  47  48
ATOM     48  O   UNL     1      25.779  44.076   8.270  1.00  0.00    -0.388 OA
ATOM     49  H   UNL     1      24.996  44.398   7.727  1.00  0.00     0.211 HD
ENDBRANCH  47  48
BRANCH  47  50
ATOM     50  C   UNL     1      27.026  43.567   6.361  1.00  0.00     0.165 C 
BRANCH  50  51
ATOM     51  O   UNL     1      26.286  43.587   5.153  1.00  0.00    -0.388 OA
ATOM     52  H   UNL     1      26.400  44.439   4.680  1.00  0.00     0.211 HD
ENDBRANCH  50  51
BRANCH  50  53
ATOM     53  C   UNL     1      28.474  43.419   6.225  1.00  0.00     0.154 C 
BRANCH  53  54
ATOM     54  N   UNL     1      29.129  42.581   7.160  1.00  0.00    -0.319 N 
ATOM     55  C   UNL     1      30.505  42.527   7.478  1.00  0.00     0.407 C 
ATOM     56  H   UNL     1      28.536  41.886   7.721  1.00  0.00     0.167 HD
ATOM     57  O   UNL     1      31.289  43.287   6.865  1.00  0.00    -0.225 OA
BRANCH  55  58
ATOM     58  O   UNL     1      31.050  41.680   8.432  1.00  0.00    -0.443 OA
BRANCH  58  59
ATOM     59  C   UNL     1      31.354  40.346   8.117  1.00  0.00     0.294 C 
BRANCH  59  60
ATOM     60  C   UNL     1      30.218  39.499   8.619  1.00  0.00     0.121 A 
ATOM     61  C   UNL     1      30.114  38.129   8.563  1.00  0.00     0.144 A 
ATOM     62  N   UNL     1      29.087  39.903   9.214  1.00  0.00    -0.131 NA
ATOM     63  N   UNL     1      28.917  37.763   9.127  1.00  0.00    -0.220 N 
ATOM     64  N   UNL     1      28.325  38.874   9.510  1.00  0.00    -0.062 NA
BRANCH  63  65
ATOM     65  C   UNL     1      28.455  36.420   9.206  1.00  0.00     0.077 A 
ATOM     66  C   UNL     1      27.685  35.789   8.297  1.00  0.00     0.043 A 
ATOM     67  C   UNL     1      28.870  35.715  10.353  1.00  0.00     0.029 A 
ATOM     68  C   UNL     1      27.333  34.446   8.550  1.00  0.00     0.014 A 
ATOM     69  C   UNL     1      28.511  34.404  10.574  1.00  0.00     0.002 A 
ATOM     70  C   UNL     1      27.726  33.749   9.656  1.00  0.00     0.001 A 
BRANCH  66  71
ATOM     71  C   UNL     1      27.210  36.433   7.095  1.00  0.00     0.161 C 
ATOM     72  O   UNL     1      26.099  37.077   7.226  1.00  0.00    -0.294 OA
ATOM     73  C   UNL     1      27.813  36.457   5.761  1.00  0.00     0.093 C 
ENDBRANCH  66  71
ENDBRANCH  63  65
ENDBRANCH  59  60
ENDBRANCH  58  59
ENDBRANCH  55  58
ENDBRANCH  53  54
ENDBRANCH  50  53
ENDBRANCH  47  50
ENDBRANCH   5  47
BRANCH   4  74
ATOM     74  N   UNL     1      25.621  40.468   5.498  1.00  0.00    -0.348 N 
ATOM     75  C   UNL     1      26.946  40.036   5.245  1.00  0.00     0.217 C 
ATOM     76  H   UNL     1      24.933  40.529   4.702  1.00  0.00     0.163 HD
ATOM     77  C   UNL     1      27.345  39.670   3.841  1.00  0.00     0.114 C 
ATOM     78  O   UNL     1      27.733  39.976   6.212  1.00  0.00    -0.275 OA
ENDBRANCH   4  74
TORSDOF 31
BEGIN_RES LYS A 131
REMARK  4 active torsions:
REMARK  status: ('A' for Active; 'I' for Inactive)
REMARK    1  A    between atoms: CA   and  CB  
REMARK    2  A    between atoms: CB   and  CG  
REMARK    3  A    between atoms: CG   and  CD  
REMARK    4  A    between atoms: CD   and  CE  
ROOT
ATOM      1  CA  LYS A 131      29.867  25.555  16.977  1.00 20.52     0.186 C 
ENDROOT
BRANCH   1   2
ATOM      2  CB  LYS A 131      28.345  25.722  17.026  1.00 20.94     0.034 C 
BRANCH   2   3
ATOM      3  CG  LYS A 131      27.602  24.399  16.919  1.00 22.96     0.005 C 
BRANCH   3   4
ATOM      4  CD  LYS A 131      26.160  24.525  17.327  1.00 24.33     0.041 C 
BRANCH   4   5
ATOM      5  CE  LYS A 131      26.079  25.069  18.749  1.00 26.91     0.338 C 
ATOM      6  NZ  LYS A 131      24.788  24.699  19.375  1.00 27.40     0.618 N 
ENDBRANCH   4   5
ENDBRANCH   3   4
ENDBRANCH   2   3
ENDBRANCH   1   2
END_RES LYS A 131
BEGIN_RES LYS A 135
REMARK  4 active torsions:
REMARK  status: ('A' for Active; 'I' for Inactive)
REMARK    5  A    between atoms: CA   and  CB  
REMARK    6  A    between atoms: CB   and  CG  
REMARK    7  A    between atoms: CG   and  CD  
REMARK    8  A    between atoms: CD   and  CE  
ROOT
ATOM      7  CA  LYS A 135      33.193  34.663   9.290  1.00 25.02     0.186 C 
ENDROOT
BRANCH   7   8
ATOM      8  CB  LYS A 135      32.060  35.360  10.034  1.00 26.63     0.034 C 
BRANCH   8   9
ATOM      9  CG  LYS A 135      32.535  36.374  11.043  1.00 29.45     0.005 C 
BRANCH   9  10
ATOM     10  CD  LYS A 135      31.963  36.070  12.419  1.00 32.00     0.041 C 
BRANCH  10  11
ATOM     11  CE  LYS A 135      31.507  37.347  13.100  1.00 34.25     0.338 C 
ATOM     12  NZ  LYS A 135      30.917  38.297  12.117  1.00 35.99     0.618 N 
ENDBRANCH  10  11
ENDBRANCH   9  10
ENDBRANCH   8   9
ENDBRANCH   7   8
END_RES LYS A 135
