REMARK VINA RESULT:    -4.955      0.000      0.000
REMARK INTER + INTRA:         -25.921
REMARK INTER:                 -13.563
REMARK INTRA:                 -12.358
REMARK UNBOUND:               -12.132
REMARK SMILES CCOCCc1c(-c2ccccc2)nc(N)nc1-n1cc(COC(=O)NC[C@@H](O)C(O)[C@@H]2O[C@@](OC[C@H]3O[C@@H](O[C@H]4[C@H](O)[C@@H](O)[C@H](OCCN=[N+]=[N-])O[C@@H]4CO)[C@H](O)[C@@H](O)[C@H]3O)(C(=O)O)C[C@H](O)[C@H]2NC(C)=O)nn1
REMARK SMILES IDX 30 1 32 2 34 3 66 4 33 5 67 6 69 7 35 8 36 9 37 10 39 11
REMARK SMILES IDX 38 12 57 13 59 14 61 15 40 16 41 17 54 18 53 19 46 20 42 21
REMARK SMILES IDX 44 22 55 23 56 24 47 26 48 27 49 28 50 29 51 30 52 31 43 32
REMARK SMILES IDX 45 34 58 36 60 38 62 40 63 42 64 43 65 44 68 46 70 48 71 49
REMARK SMILES IDX 72 51 73 52 31 53 28 55 29 56 27 58 26 59 24 60 25 62 23 63
REMARK SMILES IDX 22 64 21 65 20 66 74 67 19 68 75 69 18 70 17 71 6 72 15 73
REMARK SMILES IDX 7 74 14 75 5 76 4 77 3 78 2 79 1 80 16 81 8 84 9 85 13 86
REMARK SMILES IDX 10 87 12 88 11 89
REMARK H PARENT 56 25 43 33 45 35 58 37 60 39 62 41 65 45 68 47 70 50 31 54
REMARK H PARENT 29 57 26 61 16 82 16 83
REMARK Flexibility Score: inf
ROOT
ATOM      1  C   UNL     1      28.909  28.188  21.288  1.00  0.00     0.176 C 
ENDROOT
BRANCH   1   2
ATOM      2  C   UNL     1      29.007  29.457  22.080  1.00  0.00     0.178 C 
ATOM      3  C   UNL     1      28.986  31.747  21.599  1.00  0.00     0.272 C 
ATOM      4  C   UNL     1      29.099  31.831  23.123  1.00  0.00     0.113 C 
ATOM      5  O   UNL     1      28.704  30.505  21.159  1.00  0.00    -0.332 OA
ATOM      6  C   UNL     1      30.140  30.904  23.672  1.00  0.00     0.145 C 
ATOM      7  C   UNL     1      30.337  29.786  22.665  1.00  0.00     0.142 C 
BRANCH   3   8
ATOM      8  O   UNL     1      30.132  32.308  21.080  1.00  0.00    -0.338 OA
BRANCH   8   9
ATOM      9  C   UNL     1      30.605  31.748  19.923  1.00  0.00     0.199 C 
BRANCH   9  10
ATOM     10  C   UNL     1      30.083  32.456  18.682  1.00  0.00     0.179 C 
ATOM     11  C   UNL     1      31.108  33.419  16.820  1.00  0.00     0.282 C 
ATOM     12  O   UNL     1      31.095  33.215  18.171  1.00  0.00    -0.341 OA
ATOM     13  C   UNL     1      31.170  32.028  16.176  1.00  0.00     0.202 C 
ATOM     14  C   UNL     1      29.761  31.469  16.369  1.00  0.00     0.179 C 
ATOM     15  C   UNL     1      29.280  31.623  17.769  1.00  0.00     0.177 C 
BRANCH  11  16
ATOM     16  O   UNL     1      32.177  34.209  16.469  1.00  0.00    -0.341 OA
BRANCH  16  17
ATOM     17  C   UNL     1      32.067  35.499  16.964  1.00  0.00     0.184 C 
ATOM     18  C   UNL     1      30.807  36.151  16.507  1.00  0.00     0.178 C 
ATOM     19  O   UNL     1      30.932  37.173  15.619  1.00  0.00    -0.341 OA
ATOM     20  C   UNL     1      31.899  38.106  15.821  1.00  0.00     0.281 C 
ATOM     21  C   UNL     1      33.301  36.303  16.687  1.00  0.00     0.180 C 
ATOM     22  C   UNL     1      32.977  37.770  16.796  1.00  0.00     0.202 C 
BRANCH  18  23
ATOM     23  C   UNL     1      29.897  36.509  17.683  1.00  0.00     0.191 C 
BRANCH  23  24
ATOM     24  O   UNL     1      28.870  35.592  17.825  1.00  0.00    -0.394 OA
ATOM     25  H   UNL     1      29.236  34.701  17.590  1.00  0.00     0.210 HD
ENDBRANCH  23  24
ENDBRANCH  18  23
BRANCH  20  26
ATOM     26  O   UNL     1      31.275  39.283  16.223  1.00  0.00    -0.350 OA
BRANCH  26  27
ATOM     27  C   UNL     1      30.872  40.091  15.188  1.00  0.00     0.169 C 
BRANCH  27  28
ATOM     28  C   UNL     1      29.400  40.425  15.202  1.00  0.00     0.119 C 
BRANCH  28  29
ATOM     29  N   UNL     1      28.720  39.592  14.212  1.00  0.00    -0.092 NA
ATOM     30  N   UNL     1      28.069  38.595  14.545  1.00  0.00     0.001 N 
ATOM     31  N   UNL     1      27.573  37.572  15.015  1.00  0.00    -0.003 NA
ENDBRANCH  28  29
ENDBRANCH  27  28
ENDBRANCH  26  27
ENDBRANCH  20  26
BRANCH  21  32
ATOM     32  O   UNL     1      34.334  36.021  17.586  1.00  0.00    -0.387 OA
ATOM     33  H   UNL     1      35.114  36.625  17.452  1.00  0.00     0.211 HD
ENDBRANCH  21  32
BRANCH  22  34
ATOM     34  O   UNL     1      34.125  38.481  16.448  1.00  0.00    -0.385 OA
ATOM     35  H   UNL     1      33.979  39.460  16.462  1.00  0.00     0.211 HD
ENDBRANCH  22  34
ENDBRANCH  16  17
ENDBRANCH  11  16
BRANCH  13  36
ATOM     36  O   UNL     1      31.474  32.076  14.837  1.00  0.00    -0.385 OA
ATOM     37  H   UNL     1      31.013  31.357  14.326  1.00  0.00     0.211 HD
ENDBRANCH  13  36
BRANCH  14  38
ATOM     38  O   UNL     1      29.598  30.214  15.828  1.00  0.00    -0.387 OA
ATOM     39  H   UNL     1      30.406  29.635  15.978  1.00  0.00     0.211 HD
ENDBRANCH  14  38
BRANCH  15  40
ATOM     40  O   UNL     1      29.163  30.329  18.320  1.00  0.00    -0.387 OA
ATOM     41  H   UNL     1      30.070  29.953  18.459  1.00  0.00     0.211 HD
ENDBRANCH  15  40
ENDBRANCH   9  10
ENDBRANCH   8   9
ENDBRANCH   3   8
BRANCH   3  42
ATOM     42  C   UNL     1      27.823  32.639  21.292  1.00  0.00     0.364 C 
ATOM     43  O   UNL     1      27.734  33.678  22.037  1.00  0.00    -0.246 OA
BRANCH  42  44
ATOM     44  O   UNL     1      26.894  32.427  20.314  1.00  0.00    -0.477 OA
ATOM     45  H   UNL     1      25.952  32.146  20.572  1.00  0.00     0.296 HD
ENDBRANCH  42  44
ENDBRANCH   3  42
BRANCH   6  46
ATOM     46  O   UNL     1      31.311  31.659  23.843  1.00  0.00    -0.391 OA
ATOM     47  H   UNL     1      31.118  32.610  23.958  1.00  0.00     0.211 HD
ENDBRANCH   6  46
BRANCH   7  48
ATOM     48  N   UNL     1      31.087  28.703  23.221  1.00  0.00    -0.348 N 
ATOM     49  C   UNL     1      32.290  28.204  22.657  1.00  0.00     0.217 C 
ATOM     50  H   UNL     1      30.721  28.281  24.101  1.00  0.00     0.163 HD
ATOM     51  C   UNL     1      32.985  27.081  23.318  1.00  0.00     0.114 C 
ATOM     52  O   UNL     1      32.750  28.715  21.614  1.00  0.00    -0.275 OA
ENDBRANCH   7  48
ENDBRANCH   1   2
BRANCH   1  53
ATOM     53  O   UNL     1      29.851  28.343  20.215  1.00  0.00    -0.388 OA
ATOM     54  H   UNL     1      30.115  27.432  19.966  1.00  0.00     0.211 HD
ENDBRANCH   1  53
BRANCH   1  55
ATOM     55  C   UNL     1      27.618  27.832  20.669  1.00  0.00     0.165 C 
BRANCH  55  56
ATOM     56  O   UNL     1      27.248  26.594  21.270  1.00  0.00    -0.388 OA
ATOM     57  H   UNL     1      26.829  26.790  22.131  1.00  0.00     0.211 HD
ENDBRANCH  55  56
BRANCH  55  58
ATOM     58  C   UNL     1      27.572  27.670  19.207  1.00  0.00     0.154 C 
BRANCH  58  59
ATOM     59  N   UNL     1      26.624  28.457  18.519  1.00  0.00    -0.319 N 
ATOM     60  C   UNL     1      26.677  28.820  17.160  1.00  0.00     0.407 C 
ATOM     61  H   UNL     1      25.748  28.853  19.026  1.00  0.00     0.167 HD
ATOM     62  O   UNL     1      27.611  28.465  16.407  1.00  0.00    -0.225 OA
BRANCH  60  63
ATOM     63  O   UNL     1      25.687  29.600  16.555  1.00  0.00    -0.443 OA
BRANCH  63  64
ATOM     64  C   UNL     1      25.106  30.711  17.206  1.00  0.00     0.294 C 
BRANCH  64  65
ATOM     65  C   UNL     1      25.744  31.983  16.790  1.00  0.00     0.121 A 
ATOM     66  C   UNL     1      26.317  32.264  15.578  1.00  0.00     0.146 A 
ATOM     67  N   UNL     1      25.909  33.105  17.527  1.00  0.00    -0.131 NA
ATOM     68  N   UNL     1      26.824  33.554  15.599  1.00  0.00    -0.202 N 
ATOM     69  N   UNL     1      26.545  33.995  16.789  1.00  0.00    -0.060 NA
BRANCH  68  70
ATOM     70  C   UNL     1      27.479  34.046  14.457  1.00  0.00     0.164 A 
ATOM     71  N   UNL     1      28.833  34.134  14.474  1.00  0.00    -0.193 NA
ATOM     72  C   UNL     1      26.835  34.384  13.258  1.00  0.00     0.026 A 
ATOM     73  C   UNL     1      29.561  34.515  13.424  1.00  0.00     0.222 A 
ATOM     74  C   UNL     1      27.558  34.772  12.171  1.00  0.00     0.081 A 
ATOM     75  N   UNL     1      28.927  34.828  12.292  1.00  0.00    -0.213 NA
BRANCH  72  76
ATOM     76  C   UNL     1      25.368  34.400  13.306  1.00  0.00     0.070 C 
BRANCH  76  77
ATOM     77  C   UNL     1      24.779  35.649  13.925  1.00  0.00     0.165 C 
BRANCH  77  78
ATOM     78  O   UNL     1      23.558  35.531  14.517  1.00  0.00    -0.381 OA
BRANCH  78  79
ATOM     79  C   UNL     1      23.219  34.328  15.058  1.00  0.00     0.156 C 
ATOM     80  C   UNL     1      22.743  34.485  16.513  1.00  0.00     0.035 C 
ENDBRANCH  78  79
ENDBRANCH  77  78
ENDBRANCH  76  77
ENDBRANCH  72  76
BRANCH  73  81
ATOM     81  N   UNL     1      30.988  34.594  13.493  1.00  0.00    -0.368 N 
ATOM     82  H   UNL     1      31.568  34.326  12.673  1.00  0.00     0.159 HD
ATOM     83  H   UNL     1      31.491  34.914  14.338  1.00  0.00     0.159 HD
ENDBRANCH  73  81
BRANCH  74  84
ATOM     84  C   UNL     1      26.973  35.113  10.893  1.00  0.00     0.001 A 
ATOM     85  C   UNL     1      27.022  34.159   9.879  1.00  0.00     0.010 A 
ATOM     86  C   UNL     1      26.352  36.326  10.658  1.00  0.00     0.010 A 
ATOM     87  C   UNL     1      26.458  34.401   8.633  1.00  0.00     0.001 A 
ATOM     88  C   UNL     1      25.801  36.545   9.419  1.00  0.00     0.001 A 
ATOM     89  C   UNL     1      25.843  35.611   8.413  1.00  0.00     0.000 A 
ENDBRANCH  74  84
ENDBRANCH  68  70
ENDBRANCH  64  65
ENDBRANCH  63  64
ENDBRANCH  60  63
ENDBRANCH  58  59
ENDBRANCH  55  58
ENDBRANCH   1  55
TORSDOF 36
BEGIN_RES LYS A 131
REMARK  4 active torsions:
REMARK  status: ('A' for Active; 'I' for Inactive)
REMARK    1  A    between atoms: CA   and  CB  
REMARK    2  A    between atoms: CB   and  CG  
REMARK    3  A    between atoms: CG   and  CD  
REMARK    4  A    between atoms: CD   and  CE  
ROOT
ATOM      1  CA  LYS A 131      29.867  25.555  16.977  1.00 20.52     0.186 C 
ENDROOT
BRANCH   1   2
ATOM      2  CB  LYS A 131      28.345  25.722  17.026  1.00 20.94     0.034 C 
BRANCH   2   3
ATOM      3  CG  LYS A 131      27.599  24.475  16.577  1.00 22.96     0.005 C 
BRANCH   3   4
ATOM      4  CD  LYS A 131      27.019  23.714  17.737  1.00 24.33     0.041 C 
BRANCH   4   5
ATOM      5  CE  LYS A 131      25.916  24.541  18.388  1.00 26.91     0.338 C 
ATOM      6  NZ  LYS A 131      25.559  23.980  19.713  1.00 27.40     0.618 N 
ENDBRANCH   4   5
ENDBRANCH   3   4
ENDBRANCH   2   3
ENDBRANCH   1   2
END_RES LYS A 131
BEGIN_RES LYS A 135
REMARK  4 active torsions:
REMARK  status: ('A' for Active; 'I' for Inactive)
REMARK    5  A    between atoms: CA   and  CB  
REMARK    6  A    between atoms: CB   and  CG  
REMARK    7  A    between atoms: CG   and  CD  
REMARK    8  A    between atoms: CD   and  CE  
ROOT
ATOM      7  CA  LYS A 135      33.193  34.663   9.290  1.00 25.02     0.186 C 
ENDROOT
BRANCH   7   8
ATOM      8  CB  LYS A 135      32.060  35.360  10.034  1.00 26.63     0.034 C 
BRANCH   8   9
ATOM      9  CG  LYS A 135      30.703  34.767   9.757  1.00 29.45     0.005 C 
BRANCH   9  10
ATOM     10  CD  LYS A 135      30.494  34.579   8.262  1.00 32.00     0.041 C 
BRANCH  10  11
ATOM     11  CE  LYS A 135      29.658  35.710   7.695  1.00 34.25     0.338 C 
ATOM     12  NZ  LYS A 135      29.384  36.745   8.729  1.00 35.99     0.618 N 
ENDBRANCH  10  11
ENDBRANCH   9  10
ENDBRANCH   8   9
ENDBRANCH   7   8
END_RES LYS A 135
