REMARK VINA RESULT:    -6.816      3.532      7.749
REMARK INTER + INTRA:         -20.190
REMARK INTER:                 -11.858
REMARK INTRA:                  -8.332
REMARK UNBOUND:                -1.022
REMARK SMILES CC(=O)N[C@@H]1[C@@H](O)C[C@](OC[C@H]2O[C@@H](O[C@H]3[C@H](O)[C@@H](O)[C@H](OCCN=[N+]=[N-])O[C@@H]3CO)[C@H](O)[C@@H](O)[C@H]2O)(C(=O)O)O[C@H]1C(O)[C@H](O)CNC(=O)OCc1cn(C2CC(O)C=C[C@@H](O)C2)nn1
REMARK SMILES IDX 43 1 42 2 9 3 8 4 41 5 6 6 5 7 10 8 11 9 12 10 14 11 13 12
REMARK SMILES IDX 32 13 34 14 36 15 15 16 16 17 29 18 28 19 21 20 17 21 19 22
REMARK SMILES IDX 30 23 31 24 22 26 23 27 24 28 25 29 26 30 27 31 18 32 20 34
REMARK SMILES IDX 33 36 35 38 37 40 38 42 39 43 40 44 7 46 4 48 2 49 1 51 3 52
REMARK SMILES IDX 44 53 45 55 46 56 47 58 48 59 49 60 50 62 51 63 52 64 53 65
REMARK SMILES IDX 54 66 66 67 55 68 65 69 56 70 57 71 58 72 59 74 64 76 62 77
REMARK SMILES IDX 61 78 60 79 63 81
REMARK H PARENT 31 25 18 33 20 35 33 37 35 39 37 41 40 45 7 47 4 50 44 54
REMARK H PARENT 46 57 48 61 59 75 63 82
REMARK Flexibility Score: 90.00
ROOT
ATOM      1  C   UNL     1      24.105  37.903   7.834  1.00  0.00     0.176 C 
ENDROOT
BRANCH   1   2
ATOM      2  C   UNL     1      25.079  38.472   8.851  1.00  0.00     0.178 C 
ATOM      3  C   UNL     1      26.228  40.503   9.156  1.00  0.00     0.272 C 
ATOM      4  C   UNL     1      27.192  39.866  10.088  1.00  0.00     0.113 C 
ATOM      5  O   UNL     1      25.495  39.732   8.334  1.00  0.00    -0.332 OA
ATOM      6  C   UNL     1      26.937  38.429  10.367  1.00  0.00     0.145 C 
ATOM      7  C   UNL     1      26.320  37.736   9.112  1.00  0.00     0.142 C 
BRANCH   3   8
ATOM      8  O   UNL     1      26.912  41.513   8.449  1.00  0.00    -0.338 OA
BRANCH   8   9
ATOM      9  C   UNL     1      26.500  41.691   7.160  1.00  0.00     0.199 C 
BRANCH   9  10
ATOM     10  C   UNL     1      27.648  41.446   6.180  1.00  0.00     0.179 C 
ATOM     11  C   UNL     1      29.583  40.194   6.339  1.00  0.00     0.282 C 
ATOM     12  O   UNL     1      28.765  41.173   6.905  1.00  0.00    -0.341 OA
ATOM     13  C   UNL     1      28.751  38.926   6.399  1.00  0.00     0.202 C 
ATOM     14  C   UNL     1      27.691  39.071   5.331  1.00  0.00     0.179 C 
ATOM     15  C   UNL     1      27.275  40.489   5.102  1.00  0.00     0.177 C 
BRANCH  11  16
ATOM     16  O   UNL     1      30.757  40.125   7.049  1.00  0.00    -0.341 OA
BRANCH  16  17
ATOM     17  C   UNL     1      31.842  40.209   6.172  1.00  0.00     0.184 C 
ATOM     18  C   UNL     1      33.111  39.791   6.871  1.00  0.00     0.178 C 
ATOM     19  O   UNL     1      33.622  40.724   7.736  1.00  0.00    -0.341 OA
ATOM     20  C   UNL     1      32.963  41.951   7.707  1.00  0.00     0.281 C 
ATOM     21  C   UNL     1      31.960  41.559   5.519  1.00  0.00     0.180 C 
ATOM     22  C   UNL     1      32.895  42.465   6.273  1.00  0.00     0.202 C 
BRANCH  18  23
ATOM     23  C   UNL     1      34.173  39.382   5.860  1.00  0.00     0.191 C 
BRANCH  23  24
ATOM     24  O   UNL     1      35.175  38.621   6.434  1.00  0.00    -0.394 OA
ATOM     25  H   UNL     1      34.862  37.765   6.767  1.00  0.00     0.210 HD
ENDBRANCH  23  24
ENDBRANCH  18  23
BRANCH  20  26
ATOM     26  O   UNL     1      33.721  42.815   8.491  1.00  0.00    -0.350 OA
BRANCH  26  27
ATOM     27  C   UNL     1      33.004  43.109   9.645  1.00  0.00     0.169 C 
BRANCH  27  28
ATOM     28  C   UNL     1      33.796  42.753  10.892  1.00  0.00     0.119 C 
BRANCH  28  29
ATOM     29  N   UNL     1      32.914  42.563  12.026  1.00  0.00    -0.092 NA
ATOM     30  N   UNL     1      31.701  42.398  11.821  1.00  0.00     0.001 N 
ATOM     31  N   UNL     1      30.508  42.348  11.490  1.00  0.00    -0.003 NA
ENDBRANCH  28  29
ENDBRANCH  27  28
ENDBRANCH  26  27
ENDBRANCH  20  26
BRANCH  21  32
ATOM     32  O   UNL     1      32.395  41.422   4.200  1.00  0.00    -0.387 OA
ATOM     33  H   UNL     1      32.812  40.543   4.038  1.00  0.00     0.211 HD
ENDBRANCH  21  32
BRANCH  22  34
ATOM     34  O   UNL     1      32.432  43.776   6.272  1.00  0.00    -0.385 OA
ATOM     35  H   UNL     1      32.454  44.156   5.355  1.00  0.00     0.211 HD
ENDBRANCH  22  34
ENDBRANCH  16  17
ENDBRANCH  11  16
BRANCH  13  36
ATOM     36  O   UNL     1      29.464  37.773   6.211  1.00  0.00    -0.385 OA
ATOM     37  H   UNL     1      29.788  37.625   5.308  1.00  0.00     0.211 HD
ENDBRANCH  13  36
BRANCH  14  38
ATOM     38  O   UNL     1      26.630  38.248   5.706  1.00  0.00    -0.387 OA
ATOM     39  H   UNL     1      26.754  37.323   5.352  1.00  0.00     0.211 HD
ENDBRANCH  14  38
BRANCH  15  40
ATOM     40  O   UNL     1      25.875  40.560   4.956  1.00  0.00    -0.387 OA
ATOM     41  H   UNL     1      25.406  39.802   5.333  1.00  0.00     0.211 HD
ENDBRANCH  15  40
ENDBRANCH   9  10
ENDBRANCH   8   9
ENDBRANCH   3   8
BRANCH   3  42
ATOM     42  C   UNL     1      25.241  41.246  10.030  1.00  0.00     0.364 C 
ATOM     43  O   UNL     1      23.997  41.190   9.843  1.00  0.00    -0.246 OA
BRANCH  42  44
ATOM     44  O   UNL     1      25.752  42.007  11.069  1.00  0.00    -0.477 OA
ATOM     45  H   UNL     1      25.322  41.994  11.993  1.00  0.00     0.296 HD
ENDBRANCH  42  44
ENDBRANCH   3  42
BRANCH   6  46
ATOM     46  O   UNL     1      28.078  37.773  10.754  1.00  0.00    -0.391 OA
ATOM     47  H   UNL     1      28.872  38.267  10.455  1.00  0.00     0.211 HD
ENDBRANCH   6  46
BRANCH   7  48
ATOM     48  N   UNL     1      26.324  36.340   9.320  1.00  0.00    -0.348 N 
ATOM     49  C   UNL     1      26.806  35.469   8.310  1.00  0.00     0.217 C 
ATOM     50  H   UNL     1      26.008  35.929  10.217  1.00  0.00     0.163 HD
ATOM     51  C   UNL     1      26.821  33.996   8.507  1.00  0.00     0.114 C 
ATOM     52  O   UNL     1      27.229  35.946   7.230  1.00  0.00    -0.275 OA
ENDBRANCH   7  48
ENDBRANCH   1   2
BRANCH   1  53
ATOM     53  O   UNL     1      24.168  38.939   6.802  1.00  0.00    -0.388 OA
ATOM     54  H   UNL     1      23.371  38.805   6.200  1.00  0.00     0.211 HD
ENDBRANCH   1  53
BRANCH   1  55
ATOM     55  C   UNL     1      22.663  37.989   8.246  1.00  0.00     0.165 C 
BRANCH  55  56
ATOM     56  O   UNL     1      22.472  38.851   9.299  1.00  0.00    -0.388 OA
ATOM     57  H   UNL     1      22.973  38.611  10.110  1.00  0.00     0.211 HD
ENDBRANCH  55  56
BRANCH  55  58
ATOM     58  C   UNL     1      22.149  36.628   8.703  1.00  0.00     0.154 C 
BRANCH  58  59
ATOM     59  N   UNL     1      23.113  35.845   9.406  1.00  0.00    -0.319 N 
ATOM     60  C   UNL     1      23.300  35.927  10.814  1.00  0.00     0.407 C 
ATOM     61  H   UNL     1      23.731  35.164   8.870  1.00  0.00     0.167 HD
ATOM     62  O   UNL     1      22.563  36.742  11.440  1.00  0.00    -0.225 OA
BRANCH  60  63
ATOM     63  O   UNL     1      24.244  35.145  11.439  1.00  0.00    -0.443 OA
BRANCH  63  64
ATOM     64  C   UNL     1      24.737  35.494  12.729  1.00  0.00     0.294 C 
BRANCH  64  65
ATOM     65  C   UNL     1      26.209  35.342  12.708  1.00  0.00     0.120 A 
ATOM     66  C   UNL     1      27.111  35.650  13.693  1.00  0.00     0.138 A 
ATOM     67  N   UNL     1      26.926  34.863  11.677  1.00  0.00    -0.132 NA
ATOM     68  N   UNL     1      28.347  35.350  13.223  1.00  0.00    -0.249 N 
ATOM     69  N   UNL     1      28.201  34.876  12.003  1.00  0.00    -0.067 NA
BRANCH  68  70
ATOM     70  C   UNL     1      29.620  35.523  13.937  1.00  0.00     0.115 C 
BRANCH  70  71
ATOM     71  C   UNL     1      30.423  34.274  13.789  1.00  0.00     0.063 C 
BRANCH  71  72
ATOM     72  C   UNL     1      31.375  34.151  14.982  1.00  0.00     0.139 CG0
ATOM     73  G   UNL     1      32.457  35.139  14.838  1.00  0.00     0.000 G0
BRANCH  72  74
ATOM     74  O   UNL     1      31.878  32.854  15.056  1.00  0.00    -0.389 OA
ATOM     75  H   UNL     1      31.417  32.308  14.356  1.00  0.00     0.211 HD
ENDBRANCH  72  74
ENDBRANCH  71  72
ENDBRANCH  70  71
BRANCH  70  76
ATOM     76  C   UNL     1      30.333  36.703  13.356  1.00  0.00     0.063 C 
BRANCH  76  77
ATOM     77  C   UNL     1      31.203  37.285  14.476  1.00  0.00     0.139 C 
BRANCH  77  78
ATOM     78  C   UNL     1      32.435  36.465  14.626  1.00  0.00     0.002 C 
ATOM     79  C   UNL     1      32.483  35.158  14.839  1.00  0.00     0.002 CG0
ATOM     80  G   UNL     1      31.386  34.187  14.981  1.00  0.00     0.000 G0
ENDBRANCH  77  78
BRANCH  77  81
ATOM     81  O   UNL     1      31.504  38.619  14.251  1.00  0.00    -0.389 OA
ATOM     82  H   UNL     1      30.640  39.107  14.151  1.00  0.00     0.211 HD
ENDBRANCH  77  81
ENDBRANCH  76  77
ENDBRANCH  70  76
ENDBRANCH  68  70
ENDBRANCH  64  65
ENDBRANCH  63  64
ENDBRANCH  60  63
ENDBRANCH  58  59
ENDBRANCH  55  58
ENDBRANCH   1  55
TORSDOF 32
BEGIN_RES LYS A 131
REMARK  4 active torsions:
REMARK  status: ('A' for Active; 'I' for Inactive)
REMARK    1  A    between atoms: CA   and  CB  
REMARK    2  A    between atoms: CB   and  CG  
REMARK    3  A    between atoms: CG   and  CD  
REMARK    4  A    between atoms: CD   and  CE  
ROOT
ATOM      1  CA  LYS A 131      29.867  25.555  16.977  1.00 20.52     0.186 C 
ENDROOT
BRANCH   1   2
ATOM      2  CB  LYS A 131      28.345  25.722  17.026  1.00 20.94     0.034 C 
BRANCH   2   3
ATOM      3  CG  LYS A 131      27.601  24.403  16.884  1.00 22.96     0.005 C 
BRANCH   3   4
ATOM      4  CD  LYS A 131      26.706  24.128  18.061  1.00 24.33     0.041 C 
BRANCH   4   5
ATOM      5  CE  LYS A 131      25.777  25.317  18.283  1.00 26.91     0.338 C 
ATOM      6  NZ  LYS A 131      25.868  25.793  19.683  1.00 27.40     0.618 N 
ENDBRANCH   4   5
ENDBRANCH   3   4
ENDBRANCH   2   3
ENDBRANCH   1   2
END_RES LYS A 131
BEGIN_RES LYS A 135
REMARK  4 active torsions:
REMARK  status: ('A' for Active; 'I' for Inactive)
REMARK    5  A    between atoms: CA   and  CB  
REMARK    6  A    between atoms: CB   and  CG  
REMARK    7  A    between atoms: CG   and  CD  
REMARK    8  A    between atoms: CD   and  CE  
ROOT
ATOM      7  CA  LYS A 135      33.193  34.663   9.290  1.00 25.02     0.186 C 
ENDROOT
BRANCH   7   8
ATOM      8  CB  LYS A 135      32.060  35.360  10.034  1.00 26.63     0.034 C 
BRANCH   8   9
ATOM      9  CG  LYS A 135      30.826  35.567   9.195  1.00 29.45     0.005 C 
BRANCH   9  10
ATOM     10  CD  LYS A 135      30.330  37.000   9.313  1.00 32.00     0.041 C 
BRANCH  10  11
ATOM     11  CE  LYS A 135      31.487  37.942   9.589  1.00 34.25     0.338 C 
ATOM     12  NZ  LYS A 135      31.108  38.978  10.589  1.00 35.99     0.618 N 
ENDBRANCH  10  11
ENDBRANCH   9  10
ENDBRANCH   8   9
ENDBRANCH   7   8
END_RES LYS A 135
