REMARK VINA RESULT:    -4.662      2.489      6.378
REMARK INTER + INTRA:         -23.598
REMARK INTER:                 -11.034
REMARK INTRA:                 -12.564
REMARK UNBOUND:               -11.851
REMARK SMILES CC(=O)N[C@@H]1[C@@H](O)C[C@](OC[C@H]2O[C@@H](O[C@H]3[C@H](O)[C@@H](O)[C@H](OCCN=[N+]=[N-])O[C@@H]3CO)[C@H](O)[C@@H](O)[C@H]2O)(C(=O)O)O[C@H]1C(O)[C@H](O)CNC(=O)OCc1cn(Cc2ccccc2)nn1
REMARK SMILES IDX 9 1 8 2 6 3 5 4 42 5 41 6 10 7 11 8 12 9 14 10 13 11 32 12
REMARK SMILES IDX 34 13 36 14 15 15 16 16 29 17 28 18 21 19 17 20 19 21 30 22
REMARK SMILES IDX 31 23 22 25 23 26 24 27 25 28 26 29 27 30 18 31 20 33 33 35
REMARK SMILES IDX 35 37 37 39 38 41 39 42 40 43 7 45 43 47 44 48 45 50 46 51
REMARK SMILES IDX 47 53 48 54 49 55 50 57 51 58 52 59 53 60 54 61 64 62 55 63
REMARK SMILES IDX 63 64 56 65 57 66 58 67 62 68 59 69 61 70 60 71 4 72 2 73
REMARK SMILES IDX 1 75 3 76
REMARK H PARENT 31 24 18 32 20 34 33 36 35 38 37 40 40 44 7 46 44 49 46 52
REMARK H PARENT 48 56 4 74
REMARK Flexibility Score: inf
ROOT
ATOM      1  C   UNL     1      30.202  33.625  18.248  1.00  0.00     0.272 C 
ATOM      2  C   UNL     1      30.556  32.231  18.615  1.00  0.00     0.113 C 
ATOM      3  C   UNL     1      29.543  31.302  18.063  1.00  0.00     0.145 C 
ATOM      4  C   UNL     1      28.358  32.000  17.378  1.00  0.00     0.142 C 
ATOM      5  C   UNL     1      27.910  33.169  18.148  1.00  0.00     0.178 C 
ATOM      6  O   UNL     1      28.933  33.881  18.800  1.00  0.00    -0.332 OA
ENDROOT
BRANCH   1   7
ATOM      7  O   UNL     1      30.238  33.930  16.903  1.00  0.00    -0.338 OA
BRANCH   7   8
ATOM      8  C   UNL     1      31.511  33.716  16.400  1.00  0.00     0.199 C 
BRANCH   8   9
ATOM      9  C   UNL     1      31.788  34.545  15.166  1.00  0.00     0.179 C 
ATOM     10  C   UNL     1      30.765  35.122  13.149  1.00  0.00     0.282 C 
ATOM     11  O   UNL     1      31.077  34.116  14.068  1.00  0.00    -0.341 OA
ATOM     12  C   UNL     1      31.862  36.103  12.964  1.00  0.00     0.202 C 
ATOM     13  C   UNL     1      32.147  36.819  14.246  1.00  0.00     0.179 C 
ATOM     14  C   UNL     1      31.637  36.021  15.423  1.00  0.00     0.177 C 
BRANCH  10  15
ATOM     15  O   UNL     1      29.583  35.759  13.487  1.00  0.00    -0.341 OA
BRANCH  15  16
ATOM     16  C   UNL     1      28.470  35.266  12.818  1.00  0.00     0.184 C 
ATOM     17  C   UNL     1      27.676  36.376  12.236  1.00  0.00     0.178 C 
ATOM     18  O   UNL     1      26.544  35.804  11.619  1.00  0.00    -0.341 OA
ATOM     19  C   UNL     1      25.664  35.503  12.678  1.00  0.00     0.281 C 
ATOM     20  C   UNL     1      27.620  34.599  13.912  1.00  0.00     0.180 C 
ATOM     21  C   UNL     1      26.220  34.329  13.472  1.00  0.00     0.202 C 
BRANCH  17  22
ATOM     22  C   UNL     1      28.463  37.175  11.202  1.00  0.00     0.191 C 
BRANCH  22  23
ATOM     23  O   UNL     1      29.248  38.104  11.919  1.00  0.00    -0.394 OA
ATOM     24  H   UNL     1      29.261  38.954  11.419  1.00  0.00     0.210 HD
ENDBRANCH  22  23
ENDBRANCH  17  22
BRANCH  19  25
ATOM     25  O   UNL     1      24.432  35.184  12.164  1.00  0.00    -0.350 OA
BRANCH  25  26
ATOM     26  C   UNL     1      24.153  35.986  11.075  1.00  0.00     0.169 C 
BRANCH  26  27
ATOM     27  C   UNL     1      22.896  35.637  10.337  1.00  0.00     0.119 C 
BRANCH  27  28
ATOM     28  N   UNL     1      23.010  36.262   9.010  1.00  0.00    -0.092 NA
ATOM     29  N   UNL     1      23.121  37.486   8.982  1.00  0.00     0.001 N 
ATOM     30  N   UNL     1      23.403  38.638   8.622  1.00  0.00    -0.003 NA
ENDBRANCH  27  28
ENDBRANCH  26  27
ENDBRANCH  25  26
ENDBRANCH  19  25
BRANCH  20  31
ATOM     31  O   UNL     1      28.260  33.366  14.154  1.00  0.00    -0.387 OA
ATOM     32  H   UNL     1      27.649  32.706  14.578  1.00  0.00     0.211 HD
ENDBRANCH  20  31
BRANCH  21  33
ATOM     33  O   UNL     1      25.407  34.161  14.592  1.00  0.00    -0.385 OA
ATOM     34  H   UNL     1      25.045  33.237  14.667  1.00  0.00     0.211 HD
ENDBRANCH  21  33
ENDBRANCH  15  16
ENDBRANCH  10  15
BRANCH  12  35
ATOM     35  O   UNL     1      33.021  35.514  12.430  1.00  0.00    -0.385 OA
ATOM     36  H   UNL     1      33.431  36.201  11.847  1.00  0.00     0.211 HD
ENDBRANCH  12  35
BRANCH  13  37
ATOM     37  O   UNL     1      31.541  38.069  14.207  1.00  0.00    -0.387 OA
ATOM     38  H   UNL     1      30.971  38.239  15.005  1.00  0.00     0.211 HD
ENDBRANCH  13  37
BRANCH  14  39
ATOM     39  O   UNL     1      30.406  36.413  15.872  1.00  0.00    -0.387 OA
ATOM     40  H   UNL     1      30.355  37.259  16.359  1.00  0.00     0.211 HD
ENDBRANCH  14  39
ENDBRANCH   8   9
ENDBRANCH   7   8
ENDBRANCH   1   7
BRANCH   1  41
ATOM     41  C   UNL     1      31.065  34.634  18.953  1.00  0.00     0.364 C 
ATOM     42  O   UNL     1      32.022  34.249  19.626  1.00  0.00    -0.246 OA
BRANCH  41  43
ATOM     43  O   UNL     1      30.782  35.977  18.842  1.00  0.00    -0.477 OA
ATOM     44  H   UNL     1      31.468  36.702  19.058  1.00  0.00     0.296 HD
ENDBRANCH  41  43
ENDBRANCH   1  41
BRANCH   3  45
ATOM     45  O   UNL     1      30.049  30.401  17.107  1.00  0.00    -0.391 OA
ATOM     46  H   UNL     1      29.968  29.473  17.373  1.00  0.00     0.211 HD
ENDBRANCH   3  45
BRANCH   5  47
ATOM     47  C   UNL     1      27.065  34.191  17.510  1.00  0.00     0.176 C 
BRANCH  47  48
ATOM     48  O   UNL     1      25.744  33.844  17.329  1.00  0.00    -0.388 OA
ATOM     49  H   UNL     1      25.544  32.888  17.440  1.00  0.00     0.211 HD
ENDBRANCH  47  48
BRANCH  47  50
ATOM     50  C   UNL     1      27.142  35.600  18.023  1.00  0.00     0.165 C 
BRANCH  50  51
ATOM     51  O   UNL     1      26.526  35.793  19.221  1.00  0.00    -0.388 OA
ATOM     52  H   UNL     1      25.550  35.820  19.181  1.00  0.00     0.211 HD
ENDBRANCH  50  51
BRANCH  50  53
ATOM     53  C   UNL     1      26.911  36.621  16.948  1.00  0.00     0.154 C 
BRANCH  53  54
ATOM     54  N   UNL     1      25.612  36.558  16.332  1.00  0.00    -0.319 N 
ATOM     55  C   UNL     1      24.425  37.157  16.865  1.00  0.00     0.407 C 
ATOM     56  H   UNL     1      25.448  36.047  15.413  1.00  0.00     0.167 HD
ATOM     57  O   UNL     1      24.486  37.784  17.947  1.00  0.00    -0.225 OA
BRANCH  55  58
ATOM     58  O   UNL     1      23.209  37.058  16.214  1.00  0.00    -0.443 OA
BRANCH  58  59
ATOM     59  C   UNL     1      22.264  36.113  16.654  1.00  0.00     0.294 C 
BRANCH  59  60
ATOM     60  C   UNL     1      22.361  34.856  15.881  1.00  0.00     0.120 A 
ATOM     61  C   UNL     1      21.916  34.715  14.560  1.00  0.00     0.138 A 
ATOM     62  N   UNL     1      22.852  33.656  16.210  1.00  0.00    -0.132 NA
ATOM     63  N   UNL     1      22.157  33.456  14.163  1.00  0.00    -0.248 N 
ATOM     64  N   UNL     1      22.716  32.834  15.159  1.00  0.00    -0.067 NA
BRANCH  63  65
ATOM     65  C   UNL     1      21.846  32.919  12.857  1.00  0.00     0.181 C 
BRANCH  65  66
ATOM     66  C   UNL     1      22.343  31.524  12.767  1.00  0.00    -0.026 A 
ATOM     67  C   UNL     1      21.506  30.466  12.460  1.00  0.00     0.005 A 
ATOM     68  C   UNL     1      23.689  31.281  12.999  1.00  0.00     0.005 A 
ATOM     69  C   UNL     1      22.019  29.181  12.388  1.00  0.00     0.000 A 
ATOM     70  C   UNL     1      24.189  29.995  12.924  1.00  0.00     0.000 A 
ATOM     71  C   UNL     1      23.352  28.952  12.620  1.00  0.00     0.000 A 
ENDBRANCH  65  66
ENDBRANCH  63  65
ENDBRANCH  59  60
ENDBRANCH  58  59
ENDBRANCH  55  58
ENDBRANCH  53  54
ENDBRANCH  50  53
ENDBRANCH  47  50
ENDBRANCH   5  47
BRANCH   4  72
ATOM     72  N   UNL     1      27.339  30.933  17.433  1.00  0.00    -0.348 N 
ATOM     73  C   UNL     1      26.403  30.703  16.399  1.00  0.00     0.217 C 
ATOM     74  H   UNL     1      27.299  30.317  18.274  1.00  0.00     0.163 HD
ATOM     75  C   UNL     1      25.380  29.618  16.486  1.00  0.00     0.114 C 
ATOM     76  O   UNL     1      26.443  31.437  15.382  1.00  0.00    -0.275 OA
ENDBRANCH   4  72
TORSDOF 31
BEGIN_RES LYS A 131
REMARK  4 active torsions:
REMARK  status: ('A' for Active; 'I' for Inactive)
REMARK    1  A    between atoms: CA   and  CB  
REMARK    2  A    between atoms: CB   and  CG  
REMARK    3  A    between atoms: CG   and  CD  
REMARK    4  A    between atoms: CD   and  CE  
ROOT
ATOM      1  CA  LYS A 131      29.867  25.555  16.977  1.00 20.52     0.186 C 
ENDROOT
BRANCH   1   2
ATOM      2  CB  LYS A 131      28.345  25.722  17.026  1.00 20.94     0.034 C 
BRANCH   2   3
ATOM      3  CG  LYS A 131      27.599  24.421  16.769  1.00 22.96     0.005 C 
BRANCH   3   4
ATOM      4  CD  LYS A 131      26.926  23.900  18.009  1.00 24.33     0.041 C 
BRANCH   4   5
ATOM      5  CE  LYS A 131      25.577  23.293  17.638  1.00 26.91     0.338 C 
ATOM      6  NZ  LYS A 131      24.751  24.277  16.900  1.00 27.40     0.618 N 
ENDBRANCH   4   5
ENDBRANCH   3   4
ENDBRANCH   2   3
ENDBRANCH   1   2
END_RES LYS A 131
BEGIN_RES LYS A 135
REMARK  4 active torsions:
REMARK  status: ('A' for Active; 'I' for Inactive)
REMARK    5  A    between atoms: CA   and  CB  
REMARK    6  A    between atoms: CB   and  CG  
REMARK    7  A    between atoms: CG   and  CD  
REMARK    8  A    between atoms: CD   and  CE  
ROOT
ATOM      7  CA  LYS A 135      33.193  34.663   9.290  1.00 25.02     0.186 C 
ENDROOT
BRANCH   7   8
ATOM      8  CB  LYS A 135      32.060  35.360  10.034  1.00 26.63     0.034 C 
BRANCH   8   9
ATOM      9  CG  LYS A 135      30.788  35.466   9.233  1.00 29.45     0.005 C 
BRANCH   9  10
ATOM     10  CD  LYS A 135      30.212  34.086   8.956  1.00 32.00     0.041 C 
BRANCH  10  11
ATOM     11  CE  LYS A 135      28.721  34.066   9.233  1.00 34.25     0.338 C 
ATOM     12  NZ  LYS A 135      27.973  34.833   8.199  1.00 35.99     0.618 N 
ENDBRANCH  10  11
ENDBRANCH   9  10
ENDBRANCH   8   9
ENDBRANCH   7   8
END_RES LYS A 135
