REMARK VINA RESULT:    -3.669      5.024     10.636
REMARK INTER + INTRA:         -22.183
REMARK INTER:                 -11.440
REMARK INTRA:                 -10.743
REMARK UNBOUND:               -13.046
REMARK SMILES CC(=O)N[C@@H]1[C@@H](O)C[C@](OC[C@H]2O[C@@H](O[C@H]3[C@H](O)[C@@H](O)[C@H](OCCN=[N+]=[N-])O[C@@H]3CO)[C@H](O)[C@@H](O)[C@H]2O)(C(=O)O)O[C@H]1C(O)[C@H](O)CNC(=O)OCc1cn(-c2nc(C)nc(N)n2)nn1
REMARK SMILES IDX 9 1 8 2 6 3 5 4 42 5 41 6 10 7 11 8 12 9 14 10 13 11 32 12
REMARK SMILES IDX 34 13 36 14 15 15 16 16 29 17 28 18 21 19 17 20 19 21 30 22
REMARK SMILES IDX 31 23 22 25 23 26 24 27 25 28 26 29 27 30 18 31 20 33 33 35
REMARK SMILES IDX 35 37 37 39 38 41 39 42 40 43 7 45 43 47 44 48 45 50 46 51
REMARK SMILES IDX 47 53 48 54 49 55 50 57 51 58 52 59 53 60 54 61 65 62 55 63
REMARK SMILES IDX 64 64 56 65 63 66 57 67 61 68 58 69 60 70 59 71 62 72 4 75
REMARK SMILES IDX 2 76 1 78 3 79
REMARK H PARENT 31 24 18 32 20 34 33 36 35 38 37 40 40 44 7 46 44 49 46 52
REMARK H PARENT 48 56 62 73 62 74 4 77
REMARK Flexibility Score: inf
ROOT
ATOM      1  C   UNL     1      23.478  36.406   9.678  1.00  0.00     0.272 C 
ATOM      2  C   UNL     1      22.814  36.465   8.345  1.00  0.00     0.113 C 
ATOM      3  C   UNL     1      23.275  37.650   7.553  1.00  0.00     0.145 C 
ATOM      4  C   UNL     1      23.024  38.896   8.361  1.00  0.00     0.142 C 
ATOM      5  C   UNL     1      23.454  38.763   9.803  1.00  0.00     0.178 C 
ATOM      6  O   UNL     1      23.137  37.593  10.381  1.00  0.00    -0.332 OA
ENDROOT
BRANCH   1   7
ATOM      7  O   UNL     1      24.719  36.077   9.756  1.00  0.00    -0.338 OA
BRANCH   7   8
ATOM      8  C   UNL     1      25.618  35.303   9.283  1.00  0.00     0.199 C 
BRANCH   8   9
ATOM      9  C   UNL     1      26.941  35.658   8.697  1.00  0.00     0.179 C 
ATOM     10  C   UNL     1      28.518  37.189   8.367  1.00  0.00     0.282 C 
ATOM     11  O   UNL     1      27.411  36.834   9.184  1.00  0.00    -0.341 OA
ATOM     12  C   UNL     1      29.645  36.341   8.900  1.00  0.00     0.202 C 
ATOM     13  C   UNL     1      29.344  34.888   8.623  1.00  0.00     0.179 C 
ATOM     14  C   UNL     1      27.912  34.538   8.512  1.00  0.00     0.177 C 
BRANCH  10  15
ATOM     15  O   UNL     1      28.804  38.523   8.464  1.00  0.00    -0.341 OA
BRANCH  15  16
ATOM     16  C   UNL     1      28.580  39.234   7.297  1.00  0.00     0.184 C 
ATOM     17  C   UNL     1      29.259  38.695   6.083  1.00  0.00     0.178 C 
ATOM     18  O   UNL     1      30.040  39.637   5.426  1.00  0.00    -0.341 OA
ATOM     19  C   UNL     1      29.382  40.826   5.141  1.00  0.00     0.281 C 
ATOM     20  C   UNL     1      29.125  40.647   7.582  1.00  0.00     0.180 C 
ATOM     21  C   UNL     1      28.817  41.485   6.364  1.00  0.00     0.202 C 
BRANCH  17  22
ATOM     22  C   UNL     1      28.355  37.968   5.124  1.00  0.00     0.191 C 
BRANCH  22  23
ATOM     23  O   UNL     1      27.030  38.273   5.507  1.00  0.00    -0.394 OA
ATOM     24  H   UNL     1      26.990  38.962   6.204  1.00  0.00     0.210 HD
ENDBRANCH  22  23
ENDBRANCH  17  22
BRANCH  19  25
ATOM     25  O   UNL     1      28.393  40.693   4.207  1.00  0.00    -0.350 OA
BRANCH  25  26
ATOM     26  C   UNL     1      28.013  41.812   3.527  1.00  0.00     0.169 C 
BRANCH  26  27
ATOM     27  C   UNL     1      26.532  42.069   3.567  1.00  0.00     0.119 C 
BRANCH  27  28
ATOM     28  N   UNL     1      25.879  40.879   4.131  1.00  0.00    -0.092 NA
ATOM     29  N   UNL     1      25.392  40.996   5.253  1.00  0.00     0.001 N 
ATOM     30  N   UNL     1      25.216  40.680   6.449  1.00  0.00    -0.003 NA
ENDBRANCH  27  28
ENDBRANCH  26  27
ENDBRANCH  25  26
ENDBRANCH  19  25
BRANCH  20  31
ATOM     31  O   UNL     1      28.557  41.143   8.735  1.00  0.00    -0.387 OA
ATOM     32  H   UNL     1      28.342  40.412   9.377  1.00  0.00     0.211 HD
ENDBRANCH  20  31
BRANCH  21  33
ATOM     33  O   UNL     1      29.374  42.745   6.584  1.00  0.00    -0.385 OA
ATOM     34  H   UNL     1      29.354  43.295   5.761  1.00  0.00     0.211 HD
ENDBRANCH  21  33
ENDBRANCH  15  16
ENDBRANCH  10  15
BRANCH  12  35
ATOM     35  O   UNL     1      30.886  36.701   8.380  1.00  0.00    -0.385 OA
ATOM     36  H   UNL     1      30.866  37.674   8.198  1.00  0.00     0.211 HD
ENDBRANCH  12  35
BRANCH  13  37
ATOM     37  O   UNL     1      30.035  34.142   9.581  1.00  0.00    -0.387 OA
ATOM     38  H   UNL     1      29.732  34.327  10.505  1.00  0.00     0.211 HD
ENDBRANCH  13  37
BRANCH  14  39
ATOM     39  O   UNL     1      27.643  33.394   9.254  1.00  0.00    -0.387 OA
ATOM     40  H   UNL     1      26.643  33.353   9.340  1.00  0.00     0.211 HD
ENDBRANCH  14  39
ENDBRANCH   8   9
ENDBRANCH   7   8
ENDBRANCH   1   7
BRANCH   1  41
ATOM     41  C   UNL     1      22.583  35.396  10.451  1.00  0.00     0.364 C 
ATOM     42  O   UNL     1      21.425  35.293  10.065  1.00  0.00    -0.246 OA
BRANCH  41  43
ATOM     43  O   UNL     1      23.090  34.687  11.494  1.00  0.00    -0.477 OA
ATOM     44  H   UNL     1      23.419  33.714  11.416  1.00  0.00     0.296 HD
ENDBRANCH  41  43
ENDBRANCH   1  41
BRANCH   3  45
ATOM     45  O   UNL     1      24.615  37.637   7.239  1.00  0.00    -0.391 OA
ATOM     46  H   UNL     1      24.897  36.812   6.808  1.00  0.00     0.211 HD
ENDBRANCH   3  45
BRANCH   5  47
ATOM     47  C   UNL     1      24.866  39.232  10.055  1.00  0.00     0.176 C 
BRANCH  47  48
ATOM     48  O   UNL     1      25.664  39.006   8.946  1.00  0.00    -0.388 OA
ATOM     49  H   UNL     1      25.185  38.859   8.111  1.00  0.00     0.211 HD
ENDBRANCH  47  48
BRANCH  47  50
ATOM     50  C   UNL     1      24.846  40.682  10.422  1.00  0.00     0.165 C 
BRANCH  50  51
ATOM     51  O   UNL     1      24.960  41.445   9.245  1.00  0.00    -0.388 OA
ATOM     52  H   UNL     1      25.512  42.224   9.435  1.00  0.00     0.211 HD
ENDBRANCH  50  51
BRANCH  50  53
ATOM     53  C   UNL     1      25.919  41.120  11.360  1.00  0.00     0.154 C 
BRANCH  53  54
ATOM     54  N   UNL     1      26.518  40.013  12.071  1.00  0.00    -0.319 N 
ATOM     55  C   UNL     1      27.895  39.715  12.062  1.00  0.00     0.407 C 
ATOM     56  H   UNL     1      25.910  39.361  12.648  1.00  0.00     0.167 HD
ATOM     57  O   UNL     1      28.684  40.416  11.422  1.00  0.00    -0.225 OA
BRANCH  55  58
ATOM     58  O   UNL     1      28.419  38.633  12.761  1.00  0.00    -0.443 OA
BRANCH  58  59
ATOM     59  C   UNL     1      28.475  37.324  12.254  1.00  0.00     0.294 C 
BRANCH  59  60
ATOM     60  C   UNL     1      27.288  36.517  12.668  1.00  0.00     0.121 A 
ATOM     61  C   UNL     1      27.300  35.209  13.102  1.00  0.00     0.148 A 
ATOM     62  N   UNL     1      26.000  36.914  12.692  1.00  0.00    -0.131 NA
ATOM     63  N   UNL     1      26.033  34.851  13.375  1.00  0.00    -0.185 N 
ATOM     64  N   UNL     1      25.274  35.896  13.119  1.00  0.00    -0.059 NA
BRANCH  63  65
ATOM     65  C   UNL     1      25.654  33.566  13.849  1.00  0.00     0.257 A 
ATOM     66  N   UNL     1      24.749  32.847  13.158  1.00  0.00    -0.175 NA
ATOM     67  N   UNL     1      26.149  33.002  14.965  1.00  0.00    -0.196 NA
ATOM     68  C   UNL     1      24.351  31.613  13.563  1.00  0.00     0.225 A 
ATOM     69  C   UNL     1      25.782  31.790  15.395  1.00  0.00     0.133 A 
ATOM     70  N   UNL     1      24.886  31.102  14.694  1.00  0.00    -0.198 NA
ATOM     71  C   UNL     1      26.362  31.197  16.650  1.00  0.00     0.090 C 
BRANCH  68  72
ATOM     72  N   UNL     1      23.398  30.900  12.801  1.00  0.00    -0.368 N 
ATOM     73  H   UNL     1      23.384  30.952  11.764  1.00  0.00     0.159 HD
ATOM     74  H   UNL     1      22.688  30.304  13.268  1.00  0.00     0.159 HD
ENDBRANCH  68  72
ENDBRANCH  63  65
ENDBRANCH  59  60
ENDBRANCH  58  59
ENDBRANCH  55  58
ENDBRANCH  53  54
ENDBRANCH  50  53
ENDBRANCH  47  50
ENDBRANCH   5  47
BRANCH   4  75
ATOM     75  N   UNL     1      21.615  39.219   8.289  1.00  0.00    -0.348 N 
ATOM     76  C   UNL     1      21.175  40.573   8.276  1.00  0.00     0.217 C 
ATOM     77  H   UNL     1      20.868  38.480   8.244  1.00  0.00     0.163 HD
ATOM     78  C   UNL     1      19.742  40.882   8.204  1.00  0.00     0.114 C 
ATOM     79  O   UNL     1      22.018  41.495   8.327  1.00  0.00    -0.275 OA
ENDBRANCH   4  75
TORSDOF 31
BEGIN_RES LYS A 131
REMARK  4 active torsions:
REMARK  status: ('A' for Active; 'I' for Inactive)
REMARK    1  A    between atoms: CA   and  CB  
REMARK    2  A    between atoms: CB   and  CG  
REMARK    3  A    between atoms: CG   and  CD  
REMARK    4  A    between atoms: CD   and  CE  
ROOT
ATOM      1  CA  LYS A 131      29.867  25.555  16.977  1.00 20.52     0.186 C 
ENDROOT
BRANCH   1   2
ATOM      2  CB  LYS A 131      28.345  25.722  17.026  1.00 20.94     0.034 C 
BRANCH   2   3
ATOM      3  CG  LYS A 131      27.601  24.402  16.892  1.00 22.96     0.005 C 
BRANCH   3   4
ATOM      4  CD  LYS A 131      26.162  24.517  17.314  1.00 24.33     0.041 C 
BRANCH   4   5
ATOM      5  CE  LYS A 131      26.092  24.832  18.804  1.00 26.91     0.338 C 
ATOM      6  NZ  LYS A 131      25.415  23.734  19.535  1.00 27.40     0.618 N 
ENDBRANCH   4   5
ENDBRANCH   3   4
ENDBRANCH   2   3
ENDBRANCH   1   2
END_RES LYS A 131
BEGIN_RES LYS A 135
REMARK  4 active torsions:
REMARK  status: ('A' for Active; 'I' for Inactive)
REMARK    5  A    between atoms: CA   and  CB  
REMARK    6  A    between atoms: CB   and  CG  
REMARK    7  A    between atoms: CG   and  CD  
REMARK    8  A    between atoms: CD   and  CE  
ROOT
ATOM      7  CA  LYS A 135      33.193  34.663   9.290  1.00 25.02     0.186 C 
ENDROOT
BRANCH   7   8
ATOM      8  CB  LYS A 135      32.060  35.360  10.034  1.00 26.63     0.034 C 
BRANCH   8   9
ATOM      9  CG  LYS A 135      32.469  35.909  11.376  1.00 29.45     0.005 C 
BRANCH   9  10
ATOM     10  CD  LYS A 135      31.588  35.342  12.479  1.00 32.00     0.041 C 
BRANCH  10  11
ATOM     11  CE  LYS A 135      32.266  35.483  13.828  1.00 34.25     0.338 C 
ATOM     12  NZ  LYS A 135      32.169  36.881  14.334  1.00 35.99     0.618 N 
ENDBRANCH  10  11
ENDBRANCH   9  10
ENDBRANCH   8   9
ENDBRANCH   7   8
END_RES LYS A 135
