REMARK VINA RESULT:    -4.161      4.565      9.886
REMARK INTER + INTRA:         -21.187
REMARK INTER:                 -10.790
REMARK INTRA:                 -10.396
REMARK UNBOUND:               -10.943
REMARK SMILES CC(=O)N[C@@H]1[C@@H](O)C[C@](OC[C@H]2O[C@@H](O[C@H]3[C@H](O)[C@@H](O)[C@H](OCCN=[N+]=[N-])O[C@@H]3CO)[C@H](O)[C@@H](O)[C@H]2O)(C(=O)O)O[C@H]1C(O)[C@H](O)CNC(=O)OCc1cn([C@@H]2C[C@H]3CC[C@@H](C2)N3C)nn1
REMARK SMILES IDX 9 1 8 2 6 3 5 4 42 5 41 6 10 7 11 8 12 9 14 10 13 11 32 12
REMARK SMILES IDX 34 13 36 14 15 15 16 16 29 17 28 18 21 19 17 20 19 21 30 22
REMARK SMILES IDX 31 23 22 25 23 26 24 27 25 28 26 29 27 30 18 31 20 33 33 35
REMARK SMILES IDX 35 37 37 39 38 41 39 42 40 43 7 45 43 47 44 48 45 50 46 51
REMARK SMILES IDX 47 53 48 54 49 55 50 57 51 58 52 59 53 60 54 61 66 62 55 63
REMARK SMILES IDX 65 64 56 65 62 66 57 67 61 68 58 69 63 70 60 71 59 72 64 73
REMARK SMILES IDX 4 74 2 75 1 77 3 78
REMARK H PARENT 31 24 18 32 20 34 33 36 35 38 37 40 40 44 7 46 44 49 46 52
REMARK H PARENT 48 56 4 76
REMARK Flexibility Score: inf
ROOT
ATOM      1  C   UNL     1      25.317  41.280   7.630  1.00  0.00     0.272 C 
ATOM      2  C   UNL     1      24.816  42.657   7.456  1.00  0.00     0.113 C 
ATOM      3  C   UNL     1      23.494  42.876   8.179  1.00  0.00     0.145 C 
ATOM      4  C   UNL     1      22.488  41.788   7.735  1.00  0.00     0.142 C 
ATOM      5  C   UNL     1      23.129  40.461   7.650  1.00  0.00     0.178 C 
ATOM      6  O   UNL     1      24.336  40.512   8.316  1.00  0.00    -0.332 OA
ENDROOT
BRANCH   1   7
ATOM      7  O   UNL     1      26.522  41.019   8.177  1.00  0.00    -0.338 OA
BRANCH   7   8
ATOM      8  C   UNL     1      27.608  41.719   8.232  1.00  0.00     0.199 C 
BRANCH   8   9
ATOM      9  C   UNL     1      28.896  40.991   8.585  1.00  0.00     0.179 C 
ATOM     10  C   UNL     1      28.866  38.681   9.017  1.00  0.00     0.282 C 
ATOM     11  O   UNL     1      28.550  39.937   9.443  1.00  0.00    -0.341 OA
ATOM     12  C   UNL     1      30.306  38.497   8.671  1.00  0.00     0.202 C 
ATOM     13  C   UNL     1      30.694  39.552   7.695  1.00  0.00     0.179 C 
ATOM     14  C   UNL     1      29.601  40.506   7.359  1.00  0.00     0.177 C 
BRANCH  10  15
ATOM     15  O   UNL     1      27.988  38.175   8.075  1.00  0.00    -0.341 OA
BRANCH  15  16
ATOM     16  C   UNL     1      27.291  37.057   8.485  1.00  0.00     0.184 C 
ATOM     17  C   UNL     1      27.263  36.003   7.452  1.00  0.00     0.178 C 
ATOM     18  O   UNL     1      26.702  34.812   7.925  1.00  0.00    -0.341 OA
ATOM     19  C   UNL     1      26.000  34.971   9.121  1.00  0.00     0.281 C 
ATOM     20  C   UNL     1      25.787  37.456   8.666  1.00  0.00     0.180 C 
ATOM     21  C   UNL     1      25.128  36.209   9.158  1.00  0.00     0.202 C 
BRANCH  17  22
ATOM     22  C   UNL     1      28.532  35.711   6.731  1.00  0.00     0.191 C 
BRANCH  22  23
ATOM     23  O   UNL     1      28.916  36.803   5.957  1.00  0.00    -0.394 OA
ATOM     24  H   UNL     1      29.811  36.625   5.574  1.00  0.00     0.210 HD
ENDBRANCH  22  23
ENDBRANCH  17  22
BRANCH  19  25
ATOM     25  O   UNL     1      26.795  34.801  10.220  1.00  0.00    -0.350 OA
BRANCH  25  26
ATOM     26  C   UNL     1      26.244  34.487  11.412  1.00  0.00     0.169 C 
BRANCH  26  27
ATOM     27  C   UNL     1      26.574  35.400  12.533  1.00  0.00     0.119 C 
BRANCH  27  28
ATOM     28  N   UNL     1      25.489  36.160  13.051  1.00  0.00    -0.092 NA
ATOM     29  N   UNL     1      25.124  37.244  12.586  1.00  0.00     0.001 N 
ATOM     30  N   UNL     1      24.855  38.449  12.623  1.00  0.00    -0.003 NA
ENDBRANCH  27  28
ENDBRANCH  26  27
ENDBRANCH  25  26
ENDBRANCH  19  25
BRANCH  20  31
ATOM     31  O   UNL     1      25.651  38.457   9.594  1.00  0.00    -0.387 OA
ATOM     32  H   UNL     1      25.019  38.185  10.313  1.00  0.00     0.211 HD
ENDBRANCH  20  31
BRANCH  21  33
ATOM     33  O   UNL     1      23.960  35.949   8.433  1.00  0.00    -0.385 OA
ATOM     34  H   UNL     1      23.731  36.742   7.927  1.00  0.00     0.211 HD
ENDBRANCH  21  33
ENDBRANCH  15  16
ENDBRANCH  10  15
BRANCH  12  35
ATOM     35  O   UNL     1      31.084  38.619   9.841  1.00  0.00    -0.385 OA
ATOM     36  H   UNL     1      30.455  38.730  10.602  1.00  0.00     0.211 HD
ENDBRANCH  12  35
BRANCH  13  37
ATOM     37  O   UNL     1      31.164  38.976   6.491  1.00  0.00    -0.387 OA
ATOM     38  H   UNL     1      31.684  39.640   5.977  1.00  0.00     0.211 HD
ENDBRANCH  13  37
BRANCH  14  39
ATOM     39  O   UNL     1      28.751  39.942   6.400  1.00  0.00    -0.387 OA
ATOM     40  H   UNL     1      28.038  39.467   6.918  1.00  0.00     0.211 HD
ENDBRANCH  14  39
ENDBRANCH   8   9
ENDBRANCH   7   8
ENDBRANCH   1   7
BRANCH   1  41
ATOM     41  C   UNL     1      25.413  40.664   6.249  1.00  0.00     0.364 C 
ATOM     42  O   UNL     1      25.061  41.223   5.197  1.00  0.00    -0.246 OA
BRANCH  41  43
ATOM     43  O   UNL     1      25.932  39.374   6.105  1.00  0.00    -0.477 OA
ATOM     44  H   UNL     1      26.269  38.860   6.928  1.00  0.00     0.296 HD
ENDBRANCH  41  43
ENDBRANCH   1  41
BRANCH   3  45
ATOM     45  O   UNL     1      23.601  42.951   9.549  1.00  0.00    -0.391 OA
ATOM     46  H   UNL     1      23.017  43.705   9.867  1.00  0.00     0.211 HD
ENDBRANCH   3  45
BRANCH   5  47
ATOM     47  C   UNL     1      22.349  39.408   8.523  1.00  0.00     0.176 C 
BRANCH  47  48
ATOM     48  O   UNL     1      21.046  39.357   7.863  1.00  0.00    -0.388 OA
ATOM     49  H   UNL     1      20.592  38.555   8.264  1.00  0.00     0.211 HD
ENDBRANCH  47  48
BRANCH  47  50
ATOM     50  C   UNL     1      21.994  39.939   9.871  1.00  0.00     0.165 C 
BRANCH  50  51
ATOM     51  O   UNL     1      23.091  39.929  10.702  1.00  0.00    -0.388 OA
ATOM     52  H   UNL     1      22.906  39.863  11.653  1.00  0.00     0.211 HD
ENDBRANCH  50  51
BRANCH  50  53
ATOM     53  C   UNL     1      20.756  39.396  10.478  1.00  0.00     0.154 C 
BRANCH  53  54
ATOM     54  N   UNL     1      20.741  37.935  10.403  1.00  0.00    -0.319 N 
ATOM     55  C   UNL     1      21.172  37.150  11.477  1.00  0.00     0.407 C 
ATOM     56  H   UNL     1      20.401  37.501   9.532  1.00  0.00     0.167 HD
ATOM     57  O   UNL     1      21.579  37.730  12.527  1.00  0.00    -0.225 OA
BRANCH  55  58
ATOM     58  O   UNL     1      21.174  35.760  11.448  1.00  0.00    -0.443 OA
BRANCH  58  59
ATOM     59  C   UNL     1      22.398  35.036  11.429  1.00  0.00     0.294 C 
BRANCH  59  60
ATOM     60  C   UNL     1      22.472  34.146  12.630  1.00  0.00     0.120 A 
ATOM     61  C   UNL     1      23.340  33.095  12.838  1.00  0.00     0.138 A 
ATOM     62  N   UNL     1      21.712  34.202  13.718  1.00  0.00    -0.132 NA
ATOM     63  N   UNL     1      23.090  32.543  14.033  1.00  0.00    -0.249 N 
ATOM     64  N   UNL     1      22.072  33.257  14.548  1.00  0.00    -0.067 NA
BRANCH  63  65
ATOM     65  C   UNL     1      23.717  31.429  14.704  1.00  0.00     0.112 C 
ATOM     66  C   UNL     1      22.749  30.526  15.409  1.00  0.00     0.046 C 
ATOM     67  C   UNL     1      24.408  30.569  13.634  1.00  0.00     0.046 C 
ATOM     68  C   UNL     1      21.922  29.750  14.418  1.00  0.00     0.058 C 
ATOM     69  C   UNL     1      23.369  30.003  12.686  1.00  0.00     0.058 C 
ATOM     70  N   UNL     1      22.052  30.424  13.132  1.00  0.00    -0.300 NA
ATOM     71  C   UNL     1      22.488  28.380  14.152  1.00  0.00     0.021 C 
ATOM     72  C   UNL     1      23.269  28.501  12.873  1.00  0.00     0.021 C 
ATOM     73  C   UNL     1      21.006  29.950  12.278  1.00  0.00     0.105 C 
ENDBRANCH  63  65
ENDBRANCH  59  60
ENDBRANCH  58  59
ENDBRANCH  55  58
ENDBRANCH  53  54
ENDBRANCH  50  53
ENDBRANCH  47  50
ENDBRANCH   5  47
BRANCH   4  74
ATOM     74  N   UNL     1      21.860  42.271   6.499  1.00  0.00    -0.348 N 
ATOM     75  C   UNL     1      20.420  42.346   6.384  1.00  0.00     0.217 C 
ATOM     76  H   UNL     1      22.382  42.579   5.657  1.00  0.00     0.163 HD
ATOM     77  C   UNL     1      19.717  42.816   5.187  1.00  0.00     0.114 C 
ATOM     78  O   UNL     1      19.766  41.982   7.384  1.00  0.00    -0.275 OA
ENDBRANCH   4  74
TORSDOF 30
BEGIN_RES LYS A 131
REMARK  4 active torsions:
REMARK  status: ('A' for Active; 'I' for Inactive)
REMARK    1  A    between atoms: CA   and  CB  
REMARK    2  A    between atoms: CB   and  CG  
REMARK    3  A    between atoms: CG   and  CD  
REMARK    4  A    between atoms: CD   and  CE  
ROOT
ATOM      1  CA  LYS A 131      29.867  25.555  16.977  1.00 20.52     0.186 C 
ENDROOT
BRANCH   1   2
ATOM      2  CB  LYS A 131      28.345  25.722  17.026  1.00 20.94     0.034 C 
BRANCH   2   3
ATOM      3  CG  LYS A 131      27.601  24.401  16.906  1.00 22.96     0.005 C 
BRANCH   3   4
ATOM      4  CD  LYS A 131      26.584  24.222  17.998  1.00 24.33     0.041 C 
BRANCH   4   5
ATOM      5  CE  LYS A 131      26.415  25.534  18.756  1.00 26.91     0.338 C 
ATOM      6  NZ  LYS A 131      25.340  25.413  19.770  1.00 27.40     0.618 N 
ENDBRANCH   4   5
ENDBRANCH   3   4
ENDBRANCH   2   3
ENDBRANCH   1   2
END_RES LYS A 131
BEGIN_RES LYS A 135
REMARK  4 active torsions:
REMARK  status: ('A' for Active; 'I' for Inactive)
REMARK    5  A    between atoms: CA   and  CB  
REMARK    6  A    between atoms: CB   and  CG  
REMARK    7  A    between atoms: CG   and  CD  
REMARK    8  A    between atoms: CD   and  CE  
ROOT
ATOM      7  CA  LYS A 135      33.193  34.663   9.290  1.00 25.02     0.186 C 
ENDROOT
BRANCH   7   8
ATOM      8  CB  LYS A 135      32.060  35.360  10.034  1.00 26.63     0.034 C 
BRANCH   8   9
ATOM      9  CG  LYS A 135      30.695  34.815   9.701  1.00 29.45     0.005 C 
BRANCH   9  10
ATOM     10  CD  LYS A 135      29.916  34.506  10.970  1.00 32.00     0.041 C 
BRANCH  10  11
ATOM     11  CE  LYS A 135      30.743  34.841  12.197  1.00 34.25     0.338 C 
ATOM     12  NZ  LYS A 135      29.935  34.708  13.441  1.00 35.99     0.618 N 
ENDBRANCH  10  11
ENDBRANCH   9  10
ENDBRANCH   8   9
ENDBRANCH   7   8
END_RES LYS A 135
