REMARK VINA RESULT:    -3.236      3.410      7.530
REMARK INTER + INTRA:         -22.006
REMARK INTER:                  -6.876
REMARK INTRA:                 -15.130
REMARK UNBOUND:               -13.473
REMARK SMILES CC(=O)N[C@@H]1[C@@H](O)C[C@](OC[C@H]2O[C@@H](O[C@H]3[C@H](O)[C@@H](O)[C@H](OCCN=[N+]=[N-])O[C@@H]3CO)[C@H](O)[C@@H](O)[C@H]2O)(C(=O)O)O[C@H]1C(O)[C@H](O)CNC(=O)OCc1cn(CCOC(C)=O)nn1
REMARK SMILES IDX 43 1 42 2 9 3 8 4 41 5 6 6 5 7 10 8 11 9 12 10 14 11 13 12
REMARK SMILES IDX 32 13 34 14 36 15 15 16 16 17 29 18 28 19 21 20 17 21 19 22
REMARK SMILES IDX 30 23 31 24 22 26 23 27 24 28 25 29 26 30 27 31 18 32 20 34
REMARK SMILES IDX 33 36 35 38 37 40 38 42 39 43 40 44 7 46 4 48 2 49 1 51 3 52
REMARK SMILES IDX 44 53 45 55 46 56 47 58 48 59 49 60 50 62 51 63 52 64 53 65
REMARK SMILES IDX 54 66 63 67 55 68 62 69 56 70 57 71 58 72 59 73 61 74 60 75
REMARK H PARENT 31 25 18 33 20 35 33 37 35 39 37 41 40 45 7 47 4 50 44 54
REMARK H PARENT 46 57 48 61
REMARK Flexibility Score: inf
ROOT
ATOM      1  C   UNL     1      28.865  34.682  18.057  1.00  0.00     0.176 C 
ENDROOT
BRANCH   1   2
ATOM      2  C   UNL     1      29.662  33.707  17.230  1.00  0.00     0.178 C 
ATOM      3  C   UNL     1      30.790  33.668  15.160  1.00  0.00     0.272 C 
ATOM      4  C   UNL     1      31.145  32.301  15.692  1.00  0.00     0.113 C 
ATOM      5  O   UNL     1      30.154  34.468  16.149  1.00  0.00    -0.332 OA
ATOM      6  C   UNL     1      29.972  31.551  16.213  1.00  0.00     0.145 C 
ATOM      7  C   UNL     1      28.884  32.592  16.604  1.00  0.00     0.142 C 
BRANCH   3   8
ATOM      8  O   UNL     1      30.027  33.728  14.096  1.00  0.00    -0.338 OA
BRANCH   8   9
ATOM      9  C   UNL     1      30.175  34.298  12.934  1.00  0.00     0.199 C 
BRANCH   9  10
ATOM     10  C   UNL     1      29.541  35.542  12.476  1.00  0.00     0.179 C 
ATOM     11  C   UNL     1      27.441  36.467  12.262  1.00  0.00     0.282 C 
ATOM     12  O   UNL     1      28.206  35.582  13.035  1.00  0.00    -0.341 OA
ATOM     13  C   UNL     1      28.140  37.705  11.882  1.00  0.00     0.202 C 
ATOM     14  C   UNL     1      29.477  37.959  12.486  1.00  0.00     0.179 C 
ATOM     15  C   UNL     1      30.141  36.798  13.139  1.00  0.00     0.177 C 
BRANCH  11  16
ATOM     16  O   UNL     1      26.229  36.618  12.915  1.00  0.00    -0.341 OA
BRANCH  16  17
ATOM     17  C   UNL     1      26.321  36.483  14.276  1.00  0.00     0.184 C 
ATOM     18  C   UNL     1      25.147  35.684  14.793  1.00  0.00     0.178 C 
ATOM     19  O   UNL     1      25.349  35.572  16.176  1.00  0.00    -0.341 OA
ATOM     20  C   UNL     1      25.020  36.746  16.784  1.00  0.00     0.281 C 
ATOM     21  C   UNL     1      26.375  37.830  14.980  1.00  0.00     0.180 C 
ATOM     22  C   UNL     1      25.269  37.994  15.970  1.00  0.00     0.202 C 
BRANCH  18  23
ATOM     23  C   UNL     1      25.162  34.291  14.191  1.00  0.00     0.191 C 
BRANCH  23  24
ATOM     24  O   UNL     1      26.446  33.779  14.226  1.00  0.00    -0.394 OA
ATOM     25  H   UNL     1      26.498  33.225  15.061  1.00  0.00     0.210 HD
ENDBRANCH  23  24
ENDBRANCH  18  23
BRANCH  20  26
ATOM     26  O   UNL     1      25.709  36.797  18.003  1.00  0.00    -0.350 OA
BRANCH  26  27
ATOM     27  C   UNL     1      25.123  37.703  18.879  1.00  0.00     0.169 C 
BRANCH  27  28
ATOM     28  C   UNL     1      23.782  37.078  19.280  1.00  0.00     0.119 C 
BRANCH  28  29
ATOM     29  N   UNL     1      23.002  38.091  19.969  1.00  0.00    -0.092 NA
ATOM     30  N   UNL     1      23.405  38.657  20.993  1.00  0.00     0.001 N 
ATOM     31  N   UNL     1      23.615  38.929  22.189  1.00  0.00    -0.003 NA
ENDBRANCH  28  29
ENDBRANCH  27  28
ENDBRANCH  26  27
ENDBRANCH  20  26
BRANCH  21  32
ATOM     32  O   UNL     1      27.611  38.094  15.555  1.00  0.00    -0.387 OA
ATOM     33  H   UNL     1      27.735  39.038  15.821  1.00  0.00     0.211 HD
ENDBRANCH  21  32
BRANCH  22  34
ATOM     34  O   UNL     1      24.132  38.490  15.364  1.00  0.00    -0.385 OA
ATOM     35  H   UNL     1      24.001  39.435  15.668  1.00  0.00     0.211 HD
ENDBRANCH  22  34
ENDBRANCH  16  17
ENDBRANCH  11  16
BRANCH  13  36
ATOM     36  O   UNL     1      28.175  37.877  10.473  1.00  0.00    -0.385 OA
ATOM     37  H   UNL     1      27.950  38.795  10.213  1.00  0.00     0.211 HD
ENDBRANCH  13  36
BRANCH  14  38
ATOM     38  O   UNL     1      29.431  39.006  13.420  1.00  0.00    -0.387 OA
ATOM     39  H   UNL     1      28.659  38.834  14.036  1.00  0.00     0.211 HD
ENDBRANCH  14  38
BRANCH  15  40
ATOM     40  O   UNL     1      29.718  36.794  14.497  1.00  0.00    -0.387 OA
ATOM     41  H   UNL     1      30.385  36.358  15.064  1.00  0.00     0.211 HD
ENDBRANCH  15  40
ENDBRANCH   9  10
ENDBRANCH   8   9
ENDBRANCH   3   8
BRANCH   3  42
ATOM     42  C   UNL     1      32.091  34.380  15.026  1.00  0.00     0.364 C 
ATOM     43  O   UNL     1      32.361  35.511  15.471  1.00  0.00    -0.246 OA
BRANCH  42  44
ATOM     44  O   UNL     1      33.156  33.760  14.336  1.00  0.00    -0.477 OA
ATOM     45  H   UNL     1      33.773  33.149  14.849  1.00  0.00     0.296 HD
ENDBRANCH  42  44
ENDBRANCH   3  42
BRANCH   6  46
ATOM     46  O   UNL     1      29.453  30.597  15.369  1.00  0.00    -0.391 OA
ATOM     47  H   UNL     1      28.491  30.726  15.169  1.00  0.00     0.211 HD
ENDBRANCH   6  46
BRANCH   7  48
ATOM     48  N   UNL     1      27.889  31.950  17.396  1.00  0.00    -0.348 N 
ATOM     49  C   UNL     1      26.745  31.338  16.821  1.00  0.00     0.217 C 
ATOM     50  H   UNL     1      28.008  31.904  18.420  1.00  0.00     0.163 HD
ATOM     51  C   UNL     1      25.704  30.667  17.660  1.00  0.00     0.114 C 
ATOM     52  O   UNL     1      26.552  31.330  15.568  1.00  0.00    -0.275 OA
ENDBRANCH   7  48
ENDBRANCH   1   2
BRANCH   1  53
ATOM     53  O   UNL     1      27.946  35.265  17.128  1.00  0.00    -0.388 OA
ATOM     54  H   UNL     1      27.729  34.622  16.422  1.00  0.00     0.211 HD
ENDBRANCH   1  53
BRANCH   1  55
ATOM     55  C   UNL     1      29.734  35.842  18.479  1.00  0.00     0.165 C 
BRANCH  55  56
ATOM     56  O   UNL     1      29.747  36.802  17.454  1.00  0.00    -0.388 OA
ATOM     57  H   UNL     1      28.864  36.811  17.033  1.00  0.00     0.211 HD
ENDBRANCH  55  56
BRANCH  55  58
ATOM     58  C   UNL     1      31.120  35.432  18.870  1.00  0.00     0.154 C 
BRANCH  58  59
ATOM     59  N   UNL     1      32.180  36.121  18.203  1.00  0.00    -0.319 N 
ATOM     60  C   UNL     1      32.958  37.126  18.808  1.00  0.00     0.407 C 
ATOM     61  H   UNL     1      32.441  35.900  17.192  1.00  0.00     0.167 HD
ATOM     62  O   UNL     1      32.789  37.493  19.990  1.00  0.00    -0.225 OA
BRANCH  60  63
ATOM     63  O   UNL     1      33.982  37.789  18.113  1.00  0.00    -0.443 OA
BRANCH  63  64
ATOM     64  C   UNL     1      33.816  39.065  17.564  1.00  0.00     0.294 C 
BRANCH  64  65
ATOM     65  C   UNL     1      32.430  39.279  17.063  1.00  0.00     0.120 A 
ATOM     66  C   UNL     1      31.580  40.257  17.549  1.00  0.00     0.138 A 
ATOM     67  N   UNL     1      31.748  38.647  16.113  1.00  0.00    -0.132 NA
ATOM     68  N   UNL     1      30.431  40.166  16.872  1.00  0.00    -0.249 N 
ATOM     69  N   UNL     1      30.556  39.180  16.003  1.00  0.00    -0.067 NA
BRANCH  68  70
ATOM     70  C   UNL     1      29.226  40.989  17.050  1.00  0.00     0.187 C 
BRANCH  70  71
ATOM     71  C   UNL     1      28.896  41.699  15.756  1.00  0.00     0.256 C 
BRANCH  71  72
ATOM     72  O   UNL     1      27.825  41.005  15.125  1.00  0.00    -0.464 OA
BRANCH  72  73
ATOM     73  C   UNL     1      27.197  41.544  14.006  1.00  0.00     0.302 C 
ATOM     74  O   UNL     1      26.950  40.778  13.044  1.00  0.00    -0.253 OA
ATOM     75  C   UNL     1      26.814  42.992  13.921  1.00  0.00     0.139 C 
ENDBRANCH  72  73
ENDBRANCH  71  72
ENDBRANCH  70  71
ENDBRANCH  68  70
ENDBRANCH  64  65
ENDBRANCH  63  64
ENDBRANCH  60  63
ENDBRANCH  58  59
ENDBRANCH  55  58
ENDBRANCH   1  55
TORSDOF 33
BEGIN_RES LYS A 131
REMARK  4 active torsions:
REMARK  status: ('A' for Active; 'I' for Inactive)
REMARK    1  A    between atoms: CA   and  CB  
REMARK    2  A    between atoms: CB   and  CG  
REMARK    3  A    between atoms: CG   and  CD  
REMARK    4  A    between atoms: CD   and  CE  
ROOT
ATOM      1  CA  LYS A 131      29.867  25.555  16.977  1.00 20.52     0.186 C 
ENDROOT
BRANCH   1   2
ATOM      2  CB  LYS A 131      28.345  25.722  17.026  1.00 20.94     0.034 C 
BRANCH   2   3
ATOM      3  CG  LYS A 131      27.601  24.403  16.888  1.00 22.96     0.005 C 
BRANCH   3   4
ATOM      4  CD  LYS A 131      26.522  24.250  17.924  1.00 24.33     0.041 C 
BRANCH   4   5
ATOM      5  CE  LYS A 131      25.162  24.182  17.237  1.00 26.91     0.338 C 
ATOM      6  NZ  LYS A 131      24.072  24.359  18.224  1.00 27.40     0.618 N 
ENDBRANCH   4   5
ENDBRANCH   3   4
ENDBRANCH   2   3
ENDBRANCH   1   2
END_RES LYS A 131
BEGIN_RES LYS A 135
REMARK  4 active torsions:
REMARK  status: ('A' for Active; 'I' for Inactive)
REMARK    5  A    between atoms: CA   and  CB  
REMARK    6  A    between atoms: CB   and  CG  
REMARK    7  A    between atoms: CG   and  CD  
REMARK    8  A    between atoms: CD   and  CE  
ROOT
ATOM      7  CA  LYS A 135      33.193  34.663   9.290  1.00 25.02     0.186 C 
ENDROOT
BRANCH   7   8
ATOM      8  CB  LYS A 135      32.060  35.360  10.034  1.00 26.63     0.034 C 
BRANCH   8   9
ATOM      9  CG  LYS A 135      30.813  35.535   9.206  1.00 29.45     0.005 C 
BRANCH   9  10
ATOM     10  CD  LYS A 135      30.122  34.198   8.988  1.00 32.00     0.041 C 
BRANCH  10  11
ATOM     11  CE  LYS A 135      28.646  34.402   8.703  1.00 34.25     0.338 C 
ATOM     12  NZ  LYS A 135      27.803  33.706   9.714  1.00 35.99     0.618 N 
ENDBRANCH  10  11
ENDBRANCH   9  10
ENDBRANCH   8   9
ENDBRANCH   7   8
END_RES LYS A 135
