REMARK VINA RESULT:    -4.111      5.553     10.493
REMARK INTER + INTRA:         -22.193
REMARK INTER:                  -9.621
REMARK INTRA:                 -12.572
REMARK UNBOUND:               -11.833
REMARK SMILES CC(=O)N[C@@H]1[C@@H](O)C[C@](OC[C@H]2O[C@@H](O[C@H]3[C@H](O)[C@@H](O)[C@H](OCCN=[N+]=[N-])O[C@@H]3CO)[C@H](O)[C@@H](O)[C@H]2O)(C(=O)O)O[C@H]1C(O)[C@H](O)CNC(=O)OCc1cn(-c2ccccc2C(N)=O)nn1
REMARK SMILES IDX 9 1 8 2 6 3 5 4 42 5 41 6 10 7 11 8 12 9 14 10 13 11 32 12
REMARK SMILES IDX 34 13 36 14 15 15 16 16 29 17 28 18 21 19 17 20 19 21 30 22
REMARK SMILES IDX 31 23 22 25 23 26 24 27 25 28 26 29 27 30 18 31 20 33 33 35
REMARK SMILES IDX 35 37 37 39 38 41 39 42 40 43 7 45 43 47 44 48 45 50 46 51
REMARK SMILES IDX 47 53 48 54 49 55 50 57 51 58 52 59 53 60 54 61 66 62 55 63
REMARK SMILES IDX 65 64 56 65 61 66 57 67 60 68 58 69 59 70 62 71 64 72 63 73
REMARK SMILES IDX 4 76 2 77 1 79 3 80
REMARK H PARENT 31 24 18 32 20 34 33 36 35 38 37 40 40 44 7 46 44 49 46 52
REMARK H PARENT 48 56 63 74 63 75 4 78
REMARK Flexibility Score: inf
ROOT
ATOM      1  C   UNL     1      30.303  28.695  20.864  1.00  0.00     0.272 C 
ATOM      2  C   UNL     1      31.669  28.100  20.418  1.00  0.00     0.113 C 
ATOM      3  C   UNL     1      31.927  26.955  21.356  1.00  0.00     0.145 C 
ATOM      4  C   UNL     1      32.257  27.476  22.697  1.00  0.00     0.142 C 
ATOM      5  C   UNL     1      31.442  28.770  22.875  1.00  0.00     0.178 C 
ATOM      6  O   UNL     1      30.217  28.658  22.246  1.00  0.00    -0.332 OA
ENDROOT
BRANCH   1   7
ATOM      7  O   UNL     1      29.375  27.839  20.301  1.00  0.00    -0.338 OA
BRANCH   7   8
ATOM      8  C   UNL     1      28.160  27.823  20.918  1.00  0.00     0.199 C 
BRANCH   8   9
ATOM      9  C   UNL     1      27.015  28.131  19.969  1.00  0.00     0.179 C 
ATOM     10  C   UNL     1      25.494  29.852  19.570  1.00  0.00     0.282 C 
ATOM     11  O   UNL     1      26.613  29.430  20.273  1.00  0.00    -0.341 OA
ATOM     12  C   UNL     1      25.013  28.928  18.514  1.00  0.00     0.202 C 
ATOM     13  C   UNL     1      26.079  28.207  17.742  1.00  0.00     0.179 C 
ATOM     14  C   UNL     1      27.394  28.097  18.525  1.00  0.00     0.177 C 
BRANCH  10  15
ATOM     15  O   UNL     1      25.802  31.085  19.025  1.00  0.00    -0.341 OA
BRANCH  15  16
ATOM     16  C   UNL     1      26.666  31.832  19.807  1.00  0.00     0.184 C 
ATOM     17  C   UNL     1      25.835  32.692  20.736  1.00  0.00     0.178 C 
ATOM     18  O   UNL     1      25.653  33.948  20.270  1.00  0.00    -0.341 OA
ATOM     19  C   UNL     1      26.779  34.682  20.182  1.00  0.00     0.281 C 
ATOM     20  C   UNL     1      27.445  32.728  18.851  1.00  0.00     0.180 C 
ATOM     21  C   UNL     1      27.893  33.982  19.513  1.00  0.00     0.202 C 
BRANCH  17  22
ATOM     22  C   UNL     1      26.454  32.713  22.107  1.00  0.00     0.191 C 
BRANCH  22  23
ATOM     23  O   UNL     1      27.240  31.579  22.335  1.00  0.00    -0.394 OA
ATOM     24  H   UNL     1      26.623  30.794  22.223  1.00  0.00     0.210 HD
ENDBRANCH  22  23
ENDBRANCH  17  22
BRANCH  19  25
ATOM     25  O   UNL     1      27.158  35.291  21.388  1.00  0.00    -0.350 OA
BRANCH  25  26
ATOM     26  C   UNL     1      26.444  36.423  21.690  1.00  0.00     0.169 C 
BRANCH  26  27
ATOM     27  C   UNL     1      26.353  37.312  20.496  1.00  0.00     0.119 C 
BRANCH  27  28
ATOM     28  N   UNL     1      27.460  38.235  20.497  1.00  0.00    -0.092 NA
ATOM     29  N   UNL     1      28.566  37.951  20.021  1.00  0.00     0.001 N 
ATOM     30  N   UNL     1      29.491  37.529  19.323  1.00  0.00    -0.003 NA
ENDBRANCH  27  28
ENDBRANCH  26  27
ENDBRANCH  25  26
ENDBRANCH  19  25
BRANCH  20  31
ATOM     31  O   UNL     1      28.556  32.048  18.362  1.00  0.00    -0.387 OA
ATOM     32  H   UNL     1      29.261  31.967  19.078  1.00  0.00     0.211 HD
ENDBRANCH  20  31
BRANCH  21  33
ATOM     33  O   UNL     1      28.422  34.827  18.506  1.00  0.00    -0.385 OA
ATOM     34  H   UNL     1      29.370  35.038  18.749  1.00  0.00     0.211 HD
ENDBRANCH  21  33
ENDBRANCH  15  16
ENDBRANCH  10  15
BRANCH  12  35
ATOM     35  O   UNL     1      24.031  28.034  18.989  1.00  0.00    -0.385 OA
ATOM     36  H   UNL     1      23.163  28.399  18.711  1.00  0.00     0.211 HD
ENDBRANCH  12  35
BRANCH  13  37
ATOM     37  O   UNL     1      26.374  28.883  16.557  1.00  0.00    -0.387 OA
ATOM     38  H   UNL     1      25.740  29.648  16.401  1.00  0.00     0.211 HD
ENDBRANCH  13  37
BRANCH  14  39
ATOM     39  O   UNL     1      28.174  29.236  18.252  1.00  0.00    -0.387 OA
ATOM     40  H   UNL     1      28.767  29.491  18.975  1.00  0.00     0.211 HD
ENDBRANCH  14  39
ENDBRANCH   8   9
ENDBRANCH   7   8
ENDBRANCH   1   7
BRANCH   1  41
ATOM     41  C   UNL     1      30.201  30.078  20.391  1.00  0.00     0.364 C 
ATOM     42  O   UNL     1      29.638  30.971  21.113  1.00  0.00    -0.246 OA
BRANCH  41  43
ATOM     43  O   UNL     1      30.719  30.435  19.143  1.00  0.00    -0.477 OA
ATOM     44  H   UNL     1      31.503  31.083  19.152  1.00  0.00     0.296 HD
ENDBRANCH  41  43
ENDBRANCH   1  41
BRANCH   3  45
ATOM     45  O   UNL     1      30.690  26.271  21.484  1.00  0.00    -0.391 OA
ATOM     46  H   UNL     1      30.729  25.441  20.941  1.00  0.00     0.211 HD
ENDBRANCH   3  45
BRANCH   5  47
ATOM     47  C   UNL     1      31.379  29.152  24.327  1.00  0.00     0.176 C 
BRANCH  47  48
ATOM     48  O   UNL     1      32.705  29.144  24.800  1.00  0.00    -0.388 OA
ATOM     49  H   UNL     1      33.189  28.355  24.432  1.00  0.00     0.211 HD
ENDBRANCH  47  48
BRANCH  47  50
ATOM     50  C   UNL     1      30.915  30.602  24.497  1.00  0.00     0.165 C 
BRANCH  50  51
ATOM     51  O   UNL     1      29.675  30.751  23.855  1.00  0.00    -0.388 OA
ATOM     52  H   UNL     1      29.867  31.238  23.011  1.00  0.00     0.211 HD
ENDBRANCH  50  51
BRANCH  50  53
ATOM     53  C   UNL     1      31.882  31.577  23.917  1.00  0.00     0.154 C 
BRANCH  53  54
ATOM     54  N   UNL     1      31.246  32.447  22.964  1.00  0.00    -0.319 N 
ATOM     55  C   UNL     1      31.935  33.407  22.183  1.00  0.00     0.407 C 
ATOM     56  H   UNL     1      30.195  32.355  22.849  1.00  0.00     0.167 HD
ATOM     57  O   UNL     1      33.149  33.614  22.197  1.00  0.00    -0.225 OA
BRANCH  55  58
ATOM     58  O   UNL     1      31.196  34.222  21.292  1.00  0.00    -0.443 OA
BRANCH  58  59
ATOM     59  C   UNL     1      31.890  35.027  20.336  1.00  0.00     0.294 C 
BRANCH  59  60
ATOM     60  C   UNL     1      31.676  34.520  18.968  1.00  0.00     0.121 A 
ATOM     61  C   UNL     1      31.879  35.167  17.773  1.00  0.00     0.144 A 
ATOM     62  N   UNL     1      31.228  33.298  18.634  1.00  0.00    -0.131 NA
ATOM     63  N   UNL     1      31.556  34.343  16.752  1.00  0.00    -0.220 N 
ATOM     64  N   UNL     1      31.159  33.201  17.322  1.00  0.00    -0.062 NA
BRANCH  63  65
ATOM     65  C   UNL     1      31.602  34.586  15.358  1.00  0.00     0.079 A 
ATOM     66  C   UNL     1      30.477  34.351  14.610  1.00  0.00     0.065 A 
ATOM     67  C   UNL     1      32.751  35.050  14.748  1.00  0.00     0.029 A 
ATOM     68  C   UNL     1      30.466  34.571  13.236  1.00  0.00     0.016 A 
ATOM     69  C   UNL     1      32.760  35.277  13.370  1.00  0.00     0.002 A 
ATOM     70  C   UNL     1      31.620  35.034  12.637  1.00  0.00     0.001 A 
BRANCH  66  71
ATOM     71  C   UNL     1      29.276  33.863  15.257  1.00  0.00     0.250 C 
ATOM     72  O   UNL     1      28.445  34.696  15.697  1.00  0.00    -0.269 OA
ATOM     73  N   UNL     1      28.974  32.496  15.428  1.00  0.00    -0.366 N 
ATOM     74  H   UNL     1      28.110  32.107  15.023  1.00  0.00     0.159 HD
ATOM     75  H   UNL     1      29.618  31.892  15.958  1.00  0.00     0.159 HD
ENDBRANCH  66  71
ENDBRANCH  63  65
ENDBRANCH  59  60
ENDBRANCH  58  59
ENDBRANCH  55  58
ENDBRANCH  53  54
ENDBRANCH  50  53
ENDBRANCH  47  50
ENDBRANCH   5  47
BRANCH   4  76
ATOM     76  N   UNL     1      33.607  27.784  22.964  1.00  0.00    -0.348 N 
ATOM     77  C   UNL     1      34.458  26.948  23.731  1.00  0.00     0.217 C 
ATOM     78  H   UNL     1      34.009  28.672  22.580  1.00  0.00     0.163 HD
ATOM     79  C   UNL     1      35.877  27.237  24.031  1.00  0.00     0.114 C 
ATOM     80  O   UNL     1      33.903  25.887  24.164  1.00  0.00    -0.275 OA
ENDBRANCH   4  76
TORSDOF 31
BEGIN_RES LYS A 131
REMARK  4 active torsions:
REMARK  status: ('A' for Active; 'I' for Inactive)
REMARK    1  A    between atoms: CA   and  CB  
REMARK    2  A    between atoms: CB   and  CG  
REMARK    3  A    between atoms: CG   and  CD  
REMARK    4  A    between atoms: CD   and  CE  
ROOT
ATOM      1  CA  LYS A 131      29.867  25.555  16.977  1.00 20.52     0.186 C 
ENDROOT
BRANCH   1   2
ATOM      2  CB  LYS A 131      28.345  25.722  17.026  1.00 20.94     0.034 C 
BRANCH   2   3
ATOM      3  CG  LYS A 131      27.599  24.426  16.747  1.00 22.96     0.005 C 
BRANCH   3   4
ATOM      4  CD  LYS A 131      26.981  23.849  17.990  1.00 24.33     0.041 C 
BRANCH   4   5
ATOM      5  CE  LYS A 131      25.648  24.538  18.262  1.00 26.91     0.338 C 
ATOM      6  NZ  LYS A 131      25.491  24.812  19.710  1.00 27.40     0.618 N 
ENDBRANCH   4   5
ENDBRANCH   3   4
ENDBRANCH   2   3
ENDBRANCH   1   2
END_RES LYS A 131
BEGIN_RES LYS A 135
REMARK  4 active torsions:
REMARK  status: ('A' for Active; 'I' for Inactive)
REMARK    5  A    between atoms: CA   and  CB  
REMARK    6  A    between atoms: CB   and  CG  
REMARK    7  A    between atoms: CG   and  CD  
REMARK    8  A    between atoms: CD   and  CE  
ROOT
ATOM      7  CA  LYS A 135      33.193  34.663   9.290  1.00 25.02     0.186 C 
ENDROOT
BRANCH   7   8
ATOM      8  CB  LYS A 135      32.060  35.360  10.034  1.00 26.63     0.034 C 
BRANCH   8   9
ATOM      9  CG  LYS A 135      30.793  35.480   9.227  1.00 29.45     0.005 C 
BRANCH   9  10
ATOM     10  CD  LYS A 135      30.188  34.108   8.972  1.00 32.00     0.041 C 
BRANCH  10  11
ATOM     11  CE  LYS A 135      28.734  34.078   9.405  1.00 34.25     0.338 C 
ATOM     12  NZ  LYS A 135      27.843  34.588   8.326  1.00 35.99     0.618 N 
ENDBRANCH  10  11
ENDBRANCH   9  10
ENDBRANCH   8   9
ENDBRANCH   7   8
END_RES LYS A 135
