REMARK VINA RESULT:    -5.341      3.043      5.077
REMARK INTER + INTRA:         -22.574
REMARK INTER:                 -13.979
REMARK INTRA:                  -8.596
REMARK UNBOUND:                -9.428
REMARK SMILES CC(=O)N[C@@H]1[C@@H](O)C[C@](OC[C@H]2O[C@@H](O[C@H]3[C@H](O)[C@@H](O)[C@H](OCCN=[N+]=[N-])O[C@@H]3CO)[C@H](O)[C@@H](O)[C@H]2O)(C(=O)O)O[C@H]1C(O)[C@H](O)CNC(=O)OCc1cn(-c2ccc(C)cc2)nn1
REMARK SMILES IDX 9 1 8 2 6 3 5 4 42 5 41 6 10 7 11 8 12 9 14 10 13 11 32 12
REMARK SMILES IDX 34 13 36 14 15 15 16 16 29 17 28 18 21 19 17 20 19 21 30 22
REMARK SMILES IDX 31 23 22 25 23 26 24 27 25 28 26 29 27 30 18 31 20 33 33 35
REMARK SMILES IDX 35 37 37 39 38 41 39 42 40 43 7 45 43 47 44 48 45 50 46 51
REMARK SMILES IDX 47 53 48 54 49 55 50 57 51 58 52 59 53 60 54 61 64 62 55 63
REMARK SMILES IDX 63 64 56 65 57 66 62 67 58 68 61 69 59 70 60 71 4 72 2 73
REMARK SMILES IDX 1 75 3 76
REMARK H PARENT 31 24 18 32 20 34 33 36 35 38 37 40 40 44 7 46 44 49 46 52
REMARK H PARENT 48 56 4 74
REMARK Flexibility Score: inf
ROOT
ATOM      1  C   UNL     1      26.575  38.262   7.877  1.00  0.00     0.272 C 
ATOM      2  C   UNL     1      26.922  37.466   6.623  1.00  0.00     0.113 C 
ATOM      3  C   UNL     1      27.407  38.339   5.530  1.00  0.00     0.145 C 
ATOM      4  C   UNL     1      28.160  39.547   5.959  1.00  0.00     0.142 C 
ATOM      5  C   UNL     1      28.472  39.648   7.448  1.00  0.00     0.178 C 
ATOM      6  O   UNL     1      27.453  39.179   8.206  1.00  0.00    -0.332 OA
ENDROOT
BRANCH   1   7
ATOM      7  O   UNL     1      26.577  37.276   8.911  1.00  0.00    -0.338 OA
BRANCH   7   8
ATOM      8  C   UNL     1      26.594  37.936  10.141  1.00  0.00     0.199 C 
BRANCH   8   9
ATOM      9  C   UNL     1      25.597  37.392  11.093  1.00  0.00     0.179 C 
ATOM     10  C   UNL     1      23.542  36.395  11.277  1.00  0.00     0.282 C 
ATOM     11  O   UNL     1      24.591  36.702  10.416  1.00  0.00    -0.341 OA
ATOM     12  C   UNL     1      23.961  35.357  12.248  1.00  0.00     0.202 C 
ATOM     13  C   UNL     1      25.457  35.209  12.251  1.00  0.00     0.179 C 
ATOM     14  C   UNL     1      26.192  36.531  12.174  1.00  0.00     0.177 C 
BRANCH  10  15
ATOM     15  O   UNL     1      22.461  35.927  10.534  1.00  0.00    -0.341 OA
BRANCH  15  16
ATOM     16  C   UNL     1      22.204  36.746   9.434  1.00  0.00     0.184 C 
ATOM     17  C   UNL     1      21.155  37.795   9.672  1.00  0.00     0.178 C 
ATOM     18  O   UNL     1      20.057  37.585   8.831  1.00  0.00    -0.341 OA
ATOM     19  C   UNL     1      19.455  36.384   9.163  1.00  0.00     0.281 C 
ATOM     20  C   UNL     1      21.696  35.823   8.347  1.00  0.00     0.180 C 
ATOM     21  C   UNL     1      20.392  35.223   8.893  1.00  0.00     0.202 C 
BRANCH  17  22
ATOM     22  C   UNL     1      21.687  39.179   9.261  1.00  0.00     0.191 C 
BRANCH  22  23
ATOM     23  O   UNL     1      21.813  39.262   7.877  1.00  0.00    -0.394 OA
ATOM     24  H   UNL     1      22.493  38.573   7.610  1.00  0.00     0.210 HD
ENDBRANCH  22  23
ENDBRANCH  17  22
BRANCH  19  25
ATOM     25  O   UNL     1      18.253  36.187   8.500  1.00  0.00    -0.350 OA
BRANCH  25  26
ATOM     26  C   UNL     1      17.624  35.014   8.834  1.00  0.00     0.169 C 
BRANCH  26  27
ATOM     27  C   UNL     1      16.532  34.583   7.895  1.00  0.00     0.119 C 
BRANCH  27  28
ATOM     28  N   UNL     1      16.877  33.376   7.185  1.00  0.00    -0.092 NA
ATOM     29  N   UNL     1      17.051  32.335   7.794  1.00  0.00     0.001 N 
ATOM     30  N   UNL     1      17.138  31.257   8.385  1.00  0.00    -0.003 NA
ENDBRANCH  27  28
ENDBRANCH  26  27
ENDBRANCH  25  26
ENDBRANCH  19  25
BRANCH  20  31
ATOM     31  O   UNL     1      21.448  36.480   7.151  1.00  0.00    -0.387 OA
ATOM     32  H   UNL     1      20.607  36.112   6.787  1.00  0.00     0.211 HD
ENDBRANCH  20  31
BRANCH  21  33
ATOM     33  O   UNL     1      20.744  34.684  10.147  1.00  0.00    -0.385 OA
ATOM     34  H   UNL     1      20.078  34.041  10.481  1.00  0.00     0.211 HD
ENDBRANCH  21  33
ENDBRANCH  15  16
ENDBRANCH  10  15
BRANCH  12  35
ATOM     35  O   UNL     1      23.487  35.624  13.546  1.00  0.00    -0.385 OA
ATOM     36  H   UNL     1      24.194  35.231  14.154  1.00  0.00     0.211 HD
ENDBRANCH  12  35
BRANCH  13  37
ATOM     37  O   UNL     1      25.827  34.302  11.289  1.00  0.00    -0.387 OA
ATOM     38  H   UNL     1      26.670  33.791  11.507  1.00  0.00     0.211 HD
ENDBRANCH  13  37
BRANCH  14  39
ATOM     39  O   UNL     1      27.514  36.291  11.855  1.00  0.00    -0.387 OA
ATOM     40  H   UNL     1      27.653  35.696  11.089  1.00  0.00     0.211 HD
ENDBRANCH  14  39
ENDBRANCH   8   9
ENDBRANCH   7   8
ENDBRANCH   1   7
BRANCH   1  41
ATOM     41  C   UNL     1      25.200  38.752   7.653  1.00  0.00     0.364 C 
ATOM     42  O   UNL     1      24.833  39.923   7.903  1.00  0.00    -0.246 OA
BRANCH  41  43
ATOM     43  O   UNL     1      24.264  37.844   7.124  1.00  0.00    -0.477 OA
ATOM     44  H   UNL     1      24.600  37.104   6.507  1.00  0.00     0.296 HD
ENDBRANCH  41  43
ENDBRANCH   1  41
BRANCH   3  45
ATOM     45  O   UNL     1      28.100  37.582   4.558  1.00  0.00    -0.391 OA
ATOM     46  H   UNL     1      28.842  38.191   4.239  1.00  0.00     0.211 HD
ENDBRANCH   3  45
BRANCH   5  47
ATOM     47  C   UNL     1      29.795  38.960   7.716  1.00  0.00     0.176 C 
BRANCH  47  48
ATOM     48  O   UNL     1      30.291  38.246   6.636  1.00  0.00    -0.388 OA
ATOM     49  H   UNL     1      30.238  38.862   5.858  1.00  0.00     0.211 HD
ENDBRANCH  47  48
BRANCH  47  50
ATOM     50  C   UNL     1      30.832  39.639   8.477  1.00  0.00     0.165 C 
BRANCH  50  51
ATOM     51  O   UNL     1      32.138  39.122   8.349  1.00  0.00    -0.388 OA
ATOM     52  H   UNL     1      32.531  39.404   7.481  1.00  0.00     0.211 HD
ENDBRANCH  50  51
BRANCH  50  53
ATOM     53  C   UNL     1      30.645  40.010   9.906  1.00  0.00     0.154 C 
BRANCH  53  54
ATOM     54  N   UNL     1      31.487  39.293  10.828  1.00  0.00    -0.319 N 
ATOM     55  C   UNL     1      30.934  38.383  11.777  1.00  0.00     0.407 C 
ATOM     56  H   UNL     1      32.523  39.433  10.813  1.00  0.00     0.167 HD
ATOM     57  O   UNL     1      29.693  38.199  11.789  1.00  0.00    -0.225 OA
BRANCH  55  58
ATOM     58  O   UNL     1      31.763  37.729  12.662  1.00  0.00    -0.443 OA
BRANCH  58  59
ATOM     59  C   UNL     1      32.255  36.449  12.456  1.00  0.00     0.294 C 
BRANCH  59  60
ATOM     60  C   UNL     1      31.420  35.438  13.107  1.00  0.00     0.121 A 
ATOM     61  C   UNL     1      31.669  34.828  14.351  1.00  0.00     0.144 A 
ATOM     62  N   UNL     1      30.289  34.890  12.686  1.00  0.00    -0.131 NA
ATOM     63  N   UNL     1      30.686  33.963  14.596  1.00  0.00    -0.220 N 
ATOM     64  N   UNL     1      29.859  34.015  13.574  1.00  0.00    -0.062 NA
BRANCH  63  65
ATOM     65  C   UNL     1      30.609  33.148  15.780  1.00  0.00     0.066 A 
ATOM     66  C   UNL     1      30.860  33.702  17.015  1.00  0.00     0.029 A 
ATOM     67  C   UNL     1      30.271  31.812  15.728  1.00  0.00     0.029 A 
ATOM     68  C   UNL     1      30.773  32.923  18.173  1.00  0.00     0.005 A 
ATOM     69  C   UNL     1      30.183  31.031  16.886  1.00  0.00     0.005 A 
ATOM     70  C   UNL     1      30.435  31.590  18.117  1.00  0.00    -0.051 A 
ATOM     71  C   UNL     1      30.330  30.757  19.358  1.00  0.00     0.044 C 
ENDBRANCH  63  65
ENDBRANCH  59  60
ENDBRANCH  58  59
ENDBRANCH  55  58
ENDBRANCH  53  54
ENDBRANCH  50  53
ENDBRANCH  47  50
ENDBRANCH   5  47
BRANCH   4  72
ATOM     72  N   UNL     1      27.604  40.776   5.426  1.00  0.00    -0.348 N 
ATOM     73  C   UNL     1      28.319  41.663   4.565  1.00  0.00     0.217 C 
ATOM     74  H   UNL     1      26.636  41.069   5.663  1.00  0.00     0.163 HD
ATOM     75  C   UNL     1      27.701  42.924   4.051  1.00  0.00     0.114 C 
ATOM     76  O   UNL     1      29.490  41.306   4.279  1.00  0.00    -0.275 OA
ENDBRANCH   4  72
TORSDOF 30
BEGIN_RES LYS A 131
REMARK  4 active torsions:
REMARK  status: ('A' for Active; 'I' for Inactive)
REMARK    1  A    between atoms: CA   and  CB  
REMARK    2  A    between atoms: CB   and  CG  
REMARK    3  A    between atoms: CG   and  CD  
REMARK    4  A    between atoms: CD   and  CE  
ROOT
ATOM      1  CA  LYS A 131      29.867  25.555  16.977  1.00 20.52     0.186 C 
ENDROOT
BRANCH   1   2
ATOM      2  CB  LYS A 131      28.345  25.722  17.026  1.00 20.94     0.034 C 
BRANCH   2   3
ATOM      3  CG  LYS A 131      27.601  24.401  16.904  1.00 22.96     0.005 C 
BRANCH   3   4
ATOM      4  CD  LYS A 131      26.466  24.297  17.884  1.00 24.33     0.041 C 
BRANCH   4   5
ATOM      5  CE  LYS A 131      26.439  25.541  18.765  1.00 26.91     0.338 C 
ATOM      6  NZ  LYS A 131      25.566  25.324  19.943  1.00 27.40     0.618 N 
ENDBRANCH   4   5
ENDBRANCH   3   4
ENDBRANCH   2   3
ENDBRANCH   1   2
END_RES LYS A 131
BEGIN_RES LYS A 135
REMARK  4 active torsions:
REMARK  status: ('A' for Active; 'I' for Inactive)
REMARK    5  A    between atoms: CA   and  CB  
REMARK    6  A    between atoms: CB   and  CG  
REMARK    7  A    between atoms: CG   and  CD  
REMARK    8  A    between atoms: CD   and  CE  
ROOT
ATOM      7  CA  LYS A 135      33.193  34.663   9.290  1.00 25.02     0.186 C 
ENDROOT
BRANCH   7   8
ATOM      8  CB  LYS A 135      32.060  35.360  10.034  1.00 26.63     0.034 C 
BRANCH   8   9
ATOM      9  CG  LYS A 135      30.900  35.737   9.149  1.00 29.45     0.005 C 
BRANCH   9  10
ATOM     10  CD  LYS A 135      30.419  34.534   8.353  1.00 32.00     0.041 C 
BRANCH  10  11
ATOM     11  CE  LYS A 135      28.903  34.484   8.328  1.00 34.25     0.338 C 
ATOM     12  NZ  LYS A 135      28.372  33.735   9.500  1.00 35.99     0.618 N 
ENDBRANCH  10  11
ENDBRANCH   9  10
ENDBRANCH   8   9
ENDBRANCH   7   8
END_RES LYS A 135
