REMARK VINA RESULT:    -4.430      2.205      3.159
REMARK INTER + INTRA:         -22.831
REMARK INTER:                 -12.451
REMARK INTRA:                 -10.380
REMARK UNBOUND:               -11.408
REMARK SMILES CC(=O)N[C@@H]1[C@@H](O)C[C@](OC[C@H]2O[C@@H](O[C@H]3[C@H](O)[C@@H](O)[C@H](OCCN=[N+]=[N-])O[C@@H]3CO)[C@H](O)[C@@H](O)[C@H]2O)(C(=O)O)O[C@H]1C(O)[C@H](O)CNC(=O)OCc1cn(CS(=O)(=O)c2ccccc2)nn1
REMARK SMILES IDX 9 1 8 2 6 3 5 4 42 5 41 6 10 7 11 8 12 9 14 10 13 11 32 12
REMARK SMILES IDX 34 13 36 14 15 15 16 16 29 17 28 18 21 19 17 20 19 21 30 22
REMARK SMILES IDX 31 23 22 25 23 26 24 27 25 28 26 29 27 30 18 31 20 33 33 35
REMARK SMILES IDX 35 37 37 39 38 41 39 42 40 43 7 45 43 47 44 48 45 50 46 51
REMARK SMILES IDX 47 53 48 54 49 55 50 57 51 58 52 59 53 60 54 61 67 62 55 63
REMARK SMILES IDX 66 64 56 65 57 66 58 67 59 68 60 69 61 70 65 71 62 72 64 73
REMARK SMILES IDX 63 74 4 75 2 76 1 78 3 79
REMARK H PARENT 31 24 18 32 20 34 33 36 35 38 37 40 40 44 7 46 44 49 46 52
REMARK H PARENT 48 56 4 77
REMARK Flexibility Score: inf
ROOT
ATOM      1  C   UNL     1      29.938  31.790  21.337  1.00  0.00     0.272 C 
ATOM      2  C   UNL     1      31.235  31.146  21.059  1.00  0.00     0.113 C 
ATOM      3  C   UNL     1      31.159  29.672  20.717  1.00  0.00     0.145 C 
ATOM      4  C   UNL     1      30.333  29.029  21.776  1.00  0.00     0.142 C 
ATOM      5  C   UNL     1      29.030  29.734  22.027  1.00  0.00     0.178 C 
ATOM      6  O   UNL     1      29.059  31.077  22.137  1.00  0.00    -0.332 OA
ENDROOT
BRANCH   1   7
ATOM      7  O   UNL     1      29.330  32.317  20.218  1.00  0.00    -0.338 OA
BRANCH   7   8
ATOM      8  C   UNL     1      30.128  32.907  19.293  1.00  0.00     0.199 C 
BRANCH   8   9
ATOM      9  C   UNL     1      29.335  33.225  18.008  1.00  0.00     0.179 C 
ATOM     10  C   UNL     1      30.604  34.060  16.194  1.00  0.00     0.282 C 
ATOM     11  O   UNL     1      29.962  34.232  17.387  1.00  0.00    -0.341 OA
ATOM     12  C   UNL     1      31.156  32.693  16.050  1.00  0.00     0.202 C 
ATOM     13  C   UNL     1      30.123  31.638  16.306  1.00  0.00     0.179 C 
ATOM     14  C   UNL     1      29.012  32.047  17.184  1.00  0.00     0.177 C 
BRANCH  10  15
ATOM     15  O   UNL     1      31.600  35.051  16.174  1.00  0.00    -0.341 OA
BRANCH  15  16
ATOM     16  C   UNL     1      31.268  36.231  15.601  1.00  0.00     0.184 C 
ATOM     17  C   UNL     1      32.219  36.638  14.514  1.00  0.00     0.178 C 
ATOM     18  O   UNL     1      31.566  37.585  13.730  1.00  0.00    -0.341 OA
ATOM     19  C   UNL     1      30.940  38.584  14.422  1.00  0.00     0.281 C 
ATOM     20  C   UNL     1      31.372  37.397  16.615  1.00  0.00     0.180 C 
ATOM     21  C   UNL     1      31.244  38.666  15.868  1.00  0.00     0.202 C 
BRANCH  17  22
ATOM     22  C   UNL     1      32.713  35.545  13.635  1.00  0.00     0.191 C 
BRANCH  22  23
ATOM     23  O   UNL     1      33.601  34.747  14.347  1.00  0.00    -0.394 OA
ATOM     24  H   UNL     1      33.138  33.944  14.679  1.00  0.00     0.210 HD
ENDBRANCH  22  23
ENDBRANCH  17  22
BRANCH  19  25
ATOM     25  O   UNL     1      29.572  38.388  14.257  1.00  0.00    -0.350 OA
BRANCH  25  26
ATOM     26  C   UNL     1      29.257  38.051  12.920  1.00  0.00     0.169 C 
BRANCH  26  27
ATOM     27  C   UNL     1      27.904  37.373  12.887  1.00  0.00     0.119 C 
BRANCH  27  28
ATOM     28  N   UNL     1      28.043  36.147  12.107  1.00  0.00    -0.092 NA
ATOM     29  N   UNL     1      28.594  35.172  12.658  1.00  0.00     0.001 N 
ATOM     30  N   UNL     1      29.373  34.341  13.161  1.00  0.00    -0.003 NA
ENDBRANCH  27  28
ENDBRANCH  26  27
ENDBRANCH  25  26
ENDBRANCH  19  25
BRANCH  20  31
ATOM     31  O   UNL     1      30.377  37.290  17.572  1.00  0.00    -0.387 OA
ATOM     32  H   UNL     1      29.591  36.859  17.149  1.00  0.00     0.211 HD
ENDBRANCH  20  31
BRANCH  21  33
ATOM     33  O   UNL     1      32.473  39.362  15.991  1.00  0.00    -0.385 OA
ATOM     34  H   UNL     1      32.957  39.124  16.809  1.00  0.00     0.211 HD
ENDBRANCH  21  33
ENDBRANCH  15  16
ENDBRANCH  10  15
BRANCH  12  35
ATOM     35  O   UNL     1      31.574  32.449  14.703  1.00  0.00    -0.385 OA
ATOM     36  H   UNL     1      31.407  31.487  14.558  1.00  0.00     0.211 HD
ENDBRANCH  12  35
BRANCH  13  37
ATOM     37  O   UNL     1      30.732  30.448  16.777  1.00  0.00    -0.387 OA
ATOM     38  H   UNL     1      30.226  30.112  17.571  1.00  0.00     0.211 HD
ENDBRANCH  13  37
BRANCH  14  39
ATOM     39  O   UNL     1      28.600  30.944  17.956  1.00  0.00    -0.387 OA
ATOM     40  H   UNL     1      27.849  31.244  18.530  1.00  0.00     0.211 HD
ENDBRANCH  14  39
ENDBRANCH   8   9
ENDBRANCH   7   8
ENDBRANCH   1   7
BRANCH   1  41
ATOM     41  C   UNL     1      30.269  32.973  22.234  1.00  0.00     0.364 C 
ATOM     42  O   UNL     1      31.446  33.111  22.603  1.00  0.00    -0.246 OA
BRANCH  41  43
ATOM     43  O   UNL     1      29.277  33.861  22.617  1.00  0.00    -0.477 OA
ATOM     44  H   UNL     1      28.929  33.860  23.588  1.00  0.00     0.296 HD
ENDBRANCH  41  43
ENDBRANCH   1  41
BRANCH   3  45
ATOM     45  O   UNL     1      30.684  29.533  19.443  1.00  0.00    -0.391 OA
ATOM     46  H   UNL     1      30.346  28.600  19.345  1.00  0.00     0.211 HD
ENDBRANCH   3  45
BRANCH   5  47
ATOM     47  C   UNL     1      27.908  29.214  21.160  1.00  0.00     0.176 C 
BRANCH  47  48
ATOM     48  O   UNL     1      27.705  29.960  20.001  1.00  0.00    -0.388 OA
ATOM     49  H   UNL     1      27.835  29.471  19.175  1.00  0.00     0.211 HD
ENDBRANCH  47  48
BRANCH  47  50
ATOM     50  C   UNL     1      28.080  27.748  20.790  1.00  0.00     0.165 C 
BRANCH  50  51
ATOM     51  O   UNL     1      28.641  27.571  19.546  1.00  0.00    -0.388 OA
ATOM     52  H   UNL     1      29.103  28.341  19.179  1.00  0.00     0.211 HD
ENDBRANCH  50  51
BRANCH  50  53
ATOM     53  C   UNL     1      26.866  26.920  20.980  1.00  0.00     0.154 C 
BRANCH  53  54
ATOM     54  N   UNL     1      25.746  27.185  20.129  1.00  0.00    -0.319 N 
ATOM     55  C   UNL     1      24.544  27.828  20.500  1.00  0.00     0.407 C 
ATOM     56  H   UNL     1      25.820  26.866  19.114  1.00  0.00     0.167 HD
ATOM     57  O   UNL     1      24.368  28.246  21.659  1.00  0.00    -0.225 OA
BRANCH  55  58
ATOM     58  O   UNL     1      23.554  27.989  19.544  1.00  0.00    -0.443 OA
BRANCH  58  59
ATOM     59  C   UNL     1      23.020  29.219  19.153  1.00  0.00     0.294 C 
BRANCH  59  60
ATOM     60  C   UNL     1      24.057  30.018  18.473  1.00  0.00     0.120 A 
ATOM     61  C   UNL     1      24.310  29.960  17.113  1.00  0.00     0.139 A 
ATOM     62  N   UNL     1      24.926  30.918  18.957  1.00  0.00    -0.132 NA
ATOM     63  N   UNL     1      25.307  30.812  16.813  1.00  0.00    -0.237 N 
ATOM     64  N   UNL     1      25.658  31.378  17.964  1.00  0.00    -0.066 NA
BRANCH  63  65
ATOM     65  C   UNL     1      25.870  31.062  15.516  1.00  0.00     0.287 C 
BRANCH  65  66
ATOM     66  S   UNL     1      24.709  32.115  14.646  1.00  0.00     0.198 S 
ATOM     67  O   UNL     1      25.422  33.069  13.765  1.00  0.00    -0.222 OA
ATOM     68  O   UNL     1      23.894  32.836  15.708  1.00  0.00    -0.222 OA
BRANCH  66  69
ATOM     69  C   UNL     1      23.658  31.075  13.720  1.00  0.00     0.069 A 
ATOM     70  C   UNL     1      22.436  31.503  13.247  1.00  0.00     0.020 A 
ATOM     71  C   UNL     1      24.022  29.779  13.429  1.00  0.00     0.020 A 
ATOM     72  C   UNL     1      21.609  30.687  12.520  1.00  0.00     0.001 A 
ATOM     73  C   UNL     1      23.206  28.950  12.703  1.00  0.00     0.001 A 
ATOM     74  C   UNL     1      21.995  29.409  12.249  1.00  0.00     0.000 A 
ENDBRANCH  66  69
ENDBRANCH  65  66
ENDBRANCH  63  65
ENDBRANCH  59  60
ENDBRANCH  58  59
ENDBRANCH  55  58
ENDBRANCH  53  54
ENDBRANCH  50  53
ENDBRANCH  47  50
ENDBRANCH   5  47
BRANCH   4  75
ATOM     75  N   UNL     1      31.081  29.057  23.027  1.00  0.00    -0.348 N 
ATOM     76  C   UNL     1      32.004  28.030  23.370  1.00  0.00     0.217 C 
ATOM     77  H   UNL     1      30.968  29.842  23.738  1.00  0.00     0.163 HD
ATOM     78  C   UNL     1      32.750  28.107  24.677  1.00  0.00     0.114 C 
ATOM     79  O   UNL     1      32.205  27.054  22.592  1.00  0.00    -0.275 OA
ENDBRANCH   4  75
TORSDOF 32
BEGIN_RES LYS A 131
REMARK  4 active torsions:
REMARK  status: ('A' for Active; 'I' for Inactive)
REMARK    1  A    between atoms: CA   and  CB  
REMARK    2  A    between atoms: CB   and  CG  
REMARK    3  A    between atoms: CG   and  CD  
REMARK    4  A    between atoms: CD   and  CE  
ROOT
ATOM      1  CA  LYS A 131      29.867  25.555  16.977  1.00 20.52     0.186 C 
ENDROOT
BRANCH   1   2
ATOM      2  CB  LYS A 131      28.345  25.722  17.026  1.00 20.94     0.034 C 
BRANCH   2   3
ATOM      3  CG  LYS A 131      27.602  24.400  16.914  1.00 22.96     0.005 C 
BRANCH   3   4
ATOM      4  CD  LYS A 131      26.160  24.524  17.323  1.00 24.33     0.041 C 
BRANCH   4   5
ATOM      5  CE  LYS A 131      25.741  23.279  18.097  1.00 26.91     0.338 C 
ATOM      6  NZ  LYS A 131      25.522  23.605  19.526  1.00 27.40     0.618 N 
ENDBRANCH   4   5
ENDBRANCH   3   4
ENDBRANCH   2   3
ENDBRANCH   1   2
END_RES LYS A 131
BEGIN_RES LYS A 135
REMARK  4 active torsions:
REMARK  status: ('A' for Active; 'I' for Inactive)
REMARK    5  A    between atoms: CA   and  CB  
REMARK    6  A    between atoms: CB   and  CG  
REMARK    7  A    between atoms: CG   and  CD  
REMARK    8  A    between atoms: CD   and  CE  
ROOT
ATOM      7  CA  LYS A 135      33.193  34.663   9.290  1.00 25.02     0.186 C 
ENDROOT
BRANCH   7   8
ATOM      8  CB  LYS A 135      32.060  35.360  10.034  1.00 26.63     0.034 C 
BRANCH   8   9
ATOM      9  CG  LYS A 135      30.718  34.702   9.841  1.00 29.45     0.005 C 
BRANCH   9  10
ATOM     10  CD  LYS A 135      30.213  34.919   8.422  1.00 32.00     0.041 C 
BRANCH  10  11
ATOM     11  CE  LYS A 135      28.746  34.550   8.317  1.00 34.25     0.338 C 
ATOM     12  NZ  LYS A 135      28.301  33.773   9.507  1.00 35.99     0.618 N 
ENDBRANCH  10  11
ENDBRANCH   9  10
ENDBRANCH   8   9
ENDBRANCH   7   8
END_RES LYS A 135
