REMARK VINA RESULT:    -5.701      2.825      6.576
REMARK INTER + INTRA:         -24.117
REMARK INTER:                 -12.235
REMARK INTRA:                 -11.882
REMARK UNBOUND:                -9.416
REMARK SMILES CC(=O)N[C@@H]1[C@@H](O)C[C@](OC[C@H]2O[C@@H](O[C@H]3[C@H](O)[C@@H](O)[C@H](OCCN=[N+]=[N-])O[C@@H]3CO)[C@H](O)[C@@H](O)[C@H]2O)(C(=O)O)O[C@H]1C(O)[C@H](O)CNC(=O)OCc1cn(C(C)(C)C(=O)c2c[nH]c3ccccc23)nn1
REMARK SMILES IDX 9 1 8 2 6 3 5 4 42 5 41 6 10 7 11 8 12 9 14 10 13 11 32 12
REMARK SMILES IDX 34 13 36 14 15 15 16 16 29 17 28 18 21 19 17 20 19 21 30 22
REMARK SMILES IDX 31 23 22 25 23 26 24 27 25 28 26 29 27 30 18 31 20 33 33 35
REMARK SMILES IDX 35 37 37 39 38 41 39 42 40 43 7 45 43 47 44 48 45 50 46 51
REMARK SMILES IDX 47 53 48 54 49 55 50 57 51 58 52 59 53 60 54 61 71 62 55 63
REMARK SMILES IDX 70 64 56 65 57 66 58 67 59 68 60 69 61 70 62 71 69 72 63 73
REMARK SMILES IDX 64 74 68 75 65 77 67 78 66 79 4 80 2 81 1 83 3 84
REMARK H PARENT 31 24 18 32 20 34 33 36 35 38 37 40 40 44 7 46 44 49 46 52
REMARK H PARENT 48 56 63 76 4 82
REMARK Flexibility Score: inf
ROOT
ATOM      1  C   UNL     1      24.146  36.657   9.495  1.00  0.00     0.272 C 
ATOM      2  C   UNL     1      24.005  36.876  10.992  1.00  0.00     0.113 C 
ATOM      3  C   UNL     1      23.385  35.684  11.676  1.00  0.00     0.145 C 
ATOM      4  C   UNL     1      21.892  35.571  11.211  1.00  0.00     0.142 C 
ATOM      5  C   UNL     1      21.904  35.986   9.775  1.00  0.00     0.178 C 
ATOM      6  O   UNL     1      23.133  35.742   9.200  1.00  0.00    -0.332 OA
ENDROOT
BRANCH   1   7
ATOM      7  O   UNL     1      25.338  36.260   9.043  1.00  0.00    -0.338 OA
BRANCH   7   8
ATOM      8  C   UNL     1      26.385  35.710   9.560  1.00  0.00     0.199 C 
BRANCH   8   9
ATOM      9  C   UNL     1      27.098  34.699   8.659  1.00  0.00     0.179 C 
ATOM     10  C   UNL     1      28.778  36.077   7.706  1.00  0.00     0.282 C 
ATOM     11  O   UNL     1      27.674  35.308   7.596  1.00  0.00    -0.341 OA
ATOM     12  C   UNL     1      29.847  35.497   8.591  1.00  0.00     0.202 C 
ATOM     13  C   UNL     1      29.488  34.063   8.964  1.00  0.00     0.179 C 
ATOM     14  C   UNL     1      28.105  33.946   9.484  1.00  0.00     0.177 C 
BRANCH  10  15
ATOM     15  O   UNL     1      28.450  37.338   8.172  1.00  0.00    -0.341 OA
BRANCH  15  16
ATOM     16  C   UNL     1      28.490  38.307   7.211  1.00  0.00     0.184 C 
ATOM     17  C   UNL     1      29.202  39.570   7.534  1.00  0.00     0.178 C 
ATOM     18  O   UNL     1      29.495  40.190   6.302  1.00  0.00    -0.341 OA
ATOM     19  C   UNL     1      28.388  40.537   5.583  1.00  0.00     0.281 C 
ATOM     20  C   UNL     1      27.118  38.686   6.689  1.00  0.00     0.180 C 
ATOM     21  C   UNL     1      27.371  39.432   5.397  1.00  0.00     0.202 C 
BRANCH  17  22
ATOM     22  C   UNL     1      30.542  39.381   8.215  1.00  0.00     0.191 C 
BRANCH  22  23
ATOM     23  O   UNL     1      31.299  38.522   7.410  1.00  0.00    -0.394 OA
ATOM     24  H   UNL     1      30.834  38.273   6.577  1.00  0.00     0.210 HD
ENDBRANCH  22  23
ENDBRANCH  17  22
BRANCH  19  25
ATOM     25  O   UNL     1      28.809  40.887   4.296  1.00  0.00    -0.350 OA
BRANCH  25  26
ATOM     26  C   UNL     1      29.588  42.026   4.385  1.00  0.00     0.169 C 
BRANCH  26  27
ATOM     27  C   UNL     1      30.809  41.961   3.507  1.00  0.00     0.119 C 
BRANCH  27  28
ATOM     28  N   UNL     1      32.051  41.962   4.248  1.00  0.00    -0.092 NA
ATOM     29  N   UNL     1      32.380  40.984   4.950  1.00  0.00     0.001 N 
ATOM     30  N   UNL     1      32.858  39.874   5.198  1.00  0.00    -0.003 NA
ENDBRANCH  27  28
ENDBRANCH  26  27
ENDBRANCH  25  26
ENDBRANCH  19  25
BRANCH  20  31
ATOM     31  O   UNL     1      26.313  37.597   6.449  1.00  0.00    -0.387 OA
ATOM     32  H   UNL     1      26.629  36.852   7.003  1.00  0.00     0.211 HD
ENDBRANCH  20  31
BRANCH  21  33
ATOM     33  O   UNL     1      26.174  40.036   5.014  1.00  0.00    -0.385 OA
ATOM     34  H   UNL     1      25.770  39.593   4.219  1.00  0.00     0.211 HD
ENDBRANCH  21  33
ENDBRANCH  15  16
ENDBRANCH  10  15
BRANCH  12  35
ATOM     35  O   UNL     1      31.126  35.549   8.037  1.00  0.00    -0.385 OA
ATOM     36  H   UNL     1      31.790  35.368   8.735  1.00  0.00     0.211 HD
ENDBRANCH  12  35
BRANCH  13  37
ATOM     37  O   UNL     1      30.439  33.696   9.945  1.00  0.00    -0.387 OA
ATOM     38  H   UNL     1      31.237  33.291   9.526  1.00  0.00     0.211 HD
ENDBRANCH  13  37
BRANCH  14  39
ATOM     39  O   UNL     1      28.026  34.462  10.802  1.00  0.00    -0.387 OA
ATOM     40  H   UNL     1      28.771  35.102  10.947  1.00  0.00     0.211 HD
ENDBRANCH  14  39
ENDBRANCH   8   9
ENDBRANCH   7   8
ENDBRANCH   1   7
BRANCH   1  41
ATOM     41  C   UNL     1      23.847  37.942   8.827  1.00  0.00     0.364 C 
ATOM     42  O   UNL     1      23.812  38.991   9.520  1.00  0.00    -0.246 OA
BRANCH  41  43
ATOM     43  O   UNL     1      23.598  38.066   7.497  1.00  0.00    -0.477 OA
ATOM     44  H   UNL     1      24.144  38.592   6.817  1.00  0.00     0.296 HD
ENDBRANCH  41  43
ENDBRANCH   1  41
BRANCH   3  45
ATOM     45  O   UNL     1      23.917  34.461  11.339  1.00  0.00    -0.391 OA
ATOM     46  H   UNL     1      23.376  33.966  10.660  1.00  0.00     0.211 HD
ENDBRANCH   3  45
BRANCH   5  47
ATOM     47  C   UNL     1      20.887  35.383   8.879  1.00  0.00     0.176 C 
BRANCH  47  48
ATOM     48  O   UNL     1      19.867  34.746   9.548  1.00  0.00    -0.388 OA
ATOM     49  H   UNL     1      19.436  35.287  10.268  1.00  0.00     0.211 HD
ENDBRANCH  47  48
BRANCH  47  50
ATOM     50  C   UNL     1      20.429  36.221   7.705  1.00  0.00     0.165 C 
BRANCH  50  51
ATOM     51  O   UNL     1      21.401  36.447   6.787  1.00  0.00    -0.388 OA
ATOM     52  H   UNL     1      21.848  35.638   6.496  1.00  0.00     0.211 HD
ENDBRANCH  50  51
BRANCH  50  53
ATOM     53  C   UNL     1      19.696  37.410   8.233  1.00  0.00     0.154 C 
BRANCH  53  54
ATOM     54  N   UNL     1      20.307  38.677   8.082  1.00  0.00    -0.319 N 
ATOM     55  C   UNL     1      20.438  39.635   9.147  1.00  0.00     0.407 C 
ATOM     56  H   UNL     1      20.705  38.974   7.140  1.00  0.00     0.167 HD
ATOM     57  O   UNL     1      19.990  39.408  10.289  1.00  0.00    -0.225 OA
BRANCH  55  58
ATOM     58  O   UNL     1      21.068  40.847   8.935  1.00  0.00    -0.443 OA
BRANCH  58  59
ATOM     59  C   UNL     1      21.404  41.299   7.654  1.00  0.00     0.294 C 
BRANCH  59  60
ATOM     60  C   UNL     1      22.876  41.562   7.626  1.00  0.00     0.120 A 
ATOM     61  C   UNL     1      23.565  42.405   8.518  1.00  0.00     0.139 A 
ATOM     62  N   UNL     1      23.829  41.119   6.795  1.00  0.00    -0.132 NA
ATOM     63  N   UNL     1      24.864  42.434   8.195  1.00  0.00    -0.239 N 
ATOM     64  N   UNL     1      25.011  41.653   7.153  1.00  0.00    -0.066 NA
BRANCH  63  65
ATOM     65  C   UNL     1      25.877  43.197   8.895  1.00  0.00     0.122 C 
ATOM     66  C   UNL     1      25.323  43.428  10.344  1.00  0.00     0.046 C 
ATOM     67  C   UNL     1      26.054  44.599   8.364  1.00  0.00     0.046 C 
BRANCH  65  68
ATOM     68  C   UNL     1      27.119  42.463   9.042  1.00  0.00     0.192 C 
ATOM     69  O   UNL     1      28.055  42.822   8.204  1.00  0.00    -0.291 OA
BRANCH  68  70
ATOM     70  C   UNL     1      27.491  41.416   9.943  1.00  0.00     0.045 A 
ATOM     71  C   UNL     1      26.785  40.212  10.066  1.00  0.00     0.095 A 
ATOM     72  C   UNL     1      28.529  41.353  10.851  1.00  0.00     0.010 A 
ATOM     73  N   UNL     1      27.379  39.488  10.994  1.00  0.00    -0.360 N 
ATOM     74  C   UNL     1      28.435  40.121  11.505  1.00  0.00     0.046 A 
ATOM     75  C   UNL     1      29.550  42.189  11.211  1.00  0.00     0.011 A 
ATOM     76  H   UNL     1      27.035  38.526  11.278  1.00  0.00     0.166 HD
ATOM     77  C   UNL     1      29.342  39.757  12.484  1.00  0.00     0.027 A 
ATOM     78  C   UNL     1      30.461  41.818  12.199  1.00  0.00     0.001 A 
ATOM     79  C   UNL     1      30.350  40.611  12.824  1.00  0.00     0.002 A 
ENDBRANCH  68  70
ENDBRANCH  65  68
ENDBRANCH  63  65
ENDBRANCH  59  60
ENDBRANCH  58  59
ENDBRANCH  55  58
ENDBRANCH  53  54
ENDBRANCH  50  53
ENDBRANCH  47  50
ENDBRANCH   5  47
BRANCH   4  80
ATOM     80  N   UNL     1      21.228  36.576  12.036  1.00  0.00    -0.348 N 
ATOM     81  C   UNL     1      19.934  36.416  12.593  1.00  0.00     0.217 C 
ATOM     82  H   UNL     1      21.733  37.482  12.234  1.00  0.00     0.163 HD
ATOM     83  C   UNL     1      19.261  37.444  13.430  1.00  0.00     0.114 C 
ATOM     84  O   UNL     1      19.343  35.311  12.338  1.00  0.00    -0.275 OA
ENDBRANCH   4  80
TORSDOF 32
BEGIN_RES LYS A 131
REMARK  4 active torsions:
REMARK  status: ('A' for Active; 'I' for Inactive)
REMARK    1  A    between atoms: CA   and  CB  
REMARK    2  A    between atoms: CB   and  CG  
REMARK    3  A    between atoms: CG   and  CD  
REMARK    4  A    between atoms: CD   and  CE  
ROOT
ATOM      1  CA  LYS A 131      29.867  25.555  16.977  1.00 20.52     0.186 C 
ENDROOT
BRANCH   1   2
ATOM      2  CB  LYS A 131      28.345  25.722  17.026  1.00 20.94     0.034 C 
BRANCH   2   3
ATOM      3  CG  LYS A 131      27.604  24.394  17.004  1.00 22.96     0.005 C 
BRANCH   3   4
ATOM      4  CD  LYS A 131      26.404  24.400  17.910  1.00 24.33     0.041 C 
BRANCH   4   5
ATOM      5  CE  LYS A 131      25.443  23.293  17.489  1.00 26.91     0.338 C 
ATOM      6  NZ  LYS A 131      24.952  22.553  18.676  1.00 27.40     0.618 N 
ENDBRANCH   4   5
ENDBRANCH   3   4
ENDBRANCH   2   3
ENDBRANCH   1   2
END_RES LYS A 131
BEGIN_RES LYS A 135
REMARK  4 active torsions:
REMARK  status: ('A' for Active; 'I' for Inactive)
REMARK    5  A    between atoms: CA   and  CB  
REMARK    6  A    between atoms: CB   and  CG  
REMARK    7  A    between atoms: CG   and  CD  
REMARK    8  A    between atoms: CD   and  CE  
ROOT
ATOM      7  CA  LYS A 135      33.193  34.663   9.290  1.00 25.02     0.186 C 
ENDROOT
BRANCH   7   8
ATOM      8  CB  LYS A 135      32.060  35.360  10.034  1.00 26.63     0.034 C 
BRANCH   8   9
ATOM      9  CG  LYS A 135      32.514  36.102  11.265  1.00 29.45     0.005 C 
BRANCH   9  10
ATOM     10  CD  LYS A 135      31.337  36.786  11.943  1.00 32.00     0.041 C 
BRANCH  10  11
ATOM     11  CE  LYS A 135      31.591  36.929  13.432  1.00 34.25     0.338 C 
ATOM     12  NZ  LYS A 135      30.434  36.426  14.223  1.00 35.99     0.618 N 
ENDBRANCH  10  11
ENDBRANCH   9  10
ENDBRANCH   8   9
ENDBRANCH   7   8
END_RES LYS A 135
