REMARK VINA RESULT:    -3.672      5.364     10.883
REMARK INTER + INTRA:         -21.109
REMARK INTER:                  -8.209
REMARK INTRA:                 -12.900
REMARK UNBOUND:               -12.070
REMARK SMILES CC(=O)N[C@@H]1[C@@H](O)C[C@](OC[C@H]2O[C@@H](O[C@H]3[C@H](O)[C@@H](O)[C@H](OCCN=[N+]=[N-])O[C@@H]3CO)[C@H](O)[C@@H](O)[C@H]2O)(C(=O)O)O[C@H]1C(O)[C@H](O)CNC(=O)OCc1cn(-c2ccccc2I)nn1
REMARK SMILES IDX 9 1 8 2 6 3 5 4 42 5 41 6 10 7 11 8 12 9 14 10 13 11 32 12
REMARK SMILES IDX 34 13 36 14 15 15 16 16 29 17 28 18 21 19 17 20 19 21 30 22
REMARK SMILES IDX 31 23 22 25 23 26 24 27 25 28 26 29 27 30 18 31 20 33 33 35
REMARK SMILES IDX 35 37 37 39 38 41 39 42 40 43 7 45 43 47 44 48 45 50 46 51
REMARK SMILES IDX 47 53 48 54 49 55 50 57 51 58 52 59 53 60 54 61 64 62 55 63
REMARK SMILES IDX 63 64 56 65 57 66 61 67 58 68 60 69 62 70 59 71 4 72 2 73
REMARK SMILES IDX 1 75 3 76
REMARK H PARENT 31 24 18 32 20 34 33 36 35 38 37 40 40 44 7 46 44 49 46 52
REMARK H PARENT 48 56 4 74
REMARK Flexibility Score: inf
ROOT
ATOM      1  C   UNL     1      31.386  34.867  14.454  1.00  0.00     0.272 C 
ATOM      2  C   UNL     1      31.838  35.874  15.474  1.00  0.00     0.113 C 
ATOM      3  C   UNL     1      30.656  36.384  16.316  1.00  0.00     0.145 C 
ATOM      4  C   UNL     1      29.743  37.131  15.301  1.00  0.00     0.142 C 
ATOM      5  C   UNL     1      29.483  36.219  14.135  1.00  0.00     0.178 C 
ATOM      6  O   UNL     1      29.952  34.944  14.473  1.00  0.00    -0.332 OA
ENDROOT
BRANCH   1   7
ATOM      7  O   UNL     1      31.622  33.552  14.706  1.00  0.00    -0.338 OA
BRANCH   7   8
ATOM      8  C   UNL     1      31.483  32.898  15.820  1.00  0.00     0.199 C 
BRANCH   8   9
ATOM      9  C   UNL     1      30.743  31.622  15.889  1.00  0.00     0.179 C 
ATOM     10  C   UNL     1      29.821  31.319  17.957  1.00  0.00     0.282 C 
ATOM     11  O   UNL     1      30.765  30.923  17.049  1.00  0.00    -0.341 OA
ATOM     12  C   UNL     1      28.443  30.804  17.562  1.00  0.00     0.202 C 
ATOM     13  C   UNL     1      28.395  30.723  16.018  1.00  0.00     0.179 C 
ATOM     14  C   UNL     1      29.256  31.847  15.476  1.00  0.00     0.177 C 
BRANCH  10  15
ATOM     15  O   UNL     1      29.868  32.593  18.426  1.00  0.00    -0.341 OA
BRANCH  15  16
ATOM     16  C   UNL     1      30.163  32.736  19.763  1.00  0.00     0.184 C 
ATOM     17  C   UNL     1      28.999  33.068  20.659  1.00  0.00     0.178 C 
ATOM     18  O   UNL     1      29.445  33.700  21.817  1.00  0.00    -0.341 OA
ATOM     19  C   UNL     1      30.743  33.334  22.195  1.00  0.00     0.281 C 
ATOM     20  C   UNL     1      31.059  33.988  19.872  1.00  0.00     0.180 C 
ATOM     21  C   UNL     1      31.770  33.830  21.210  1.00  0.00     0.202 C 
BRANCH  17  22
ATOM     22  C   UNL     1      28.073  31.931  20.945  1.00  0.00     0.191 C 
BRANCH  22  23
ATOM     23  O   UNL     1      26.892  32.179  20.236  1.00  0.00    -0.394 OA
ATOM     24  H   UNL     1      26.283  32.693  20.832  1.00  0.00     0.210 HD
ENDBRANCH  22  23
ENDBRANCH  17  22
BRANCH  19  25
ATOM     25  O   UNL     1      30.853  32.013  22.502  1.00  0.00    -0.350 OA
BRANCH  25  26
ATOM     26  C   UNL     1      32.128  31.640  22.796  1.00  0.00     0.169 C 
BRANCH  26  27
ATOM     27  C   UNL     1      32.632  30.377  22.173  1.00  0.00     0.119 C 
BRANCH  27  28
ATOM     28  N   UNL     1      31.887  29.876  21.053  1.00  0.00    -0.092 NA
ATOM     29  N   UNL     1      31.811  28.638  20.945  1.00  0.00     0.001 N 
ATOM     30  N   UNL     1      31.672  27.462  20.605  1.00  0.00    -0.003 NA
ENDBRANCH  27  28
ENDBRANCH  26  27
ENDBRANCH  25  26
ENDBRANCH  19  25
BRANCH  20  31
ATOM     31  O   UNL     1      31.958  34.040  18.824  1.00  0.00    -0.387 OA
ATOM     32  H   UNL     1      32.612  33.306  18.969  1.00  0.00     0.211 HD
ENDBRANCH  20  31
BRANCH  21  33
ATOM     33  O   UNL     1      32.375  35.023  21.599  1.00  0.00    -0.385 OA
ATOM     34  H   UNL     1      31.998  35.282  22.502  1.00  0.00     0.211 HD
ENDBRANCH  21  33
ENDBRANCH  15  16
ENDBRANCH  10  15
BRANCH  12  35
ATOM     35  O   UNL     1      28.203  29.511  18.006  1.00  0.00    -0.385 OA
ATOM     36  H   UNL     1      27.341  29.227  17.603  1.00  0.00     0.211 HD
ENDBRANCH  12  35
BRANCH  13  37
ATOM     37  O   UNL     1      27.136  30.748  15.507  1.00  0.00    -0.387 OA
ATOM     38  H   UNL     1      26.430  30.300  16.065  1.00  0.00     0.211 HD
ENDBRANCH  13  37
BRANCH  14  39
ATOM     39  O   UNL     1      28.875  33.036  16.075  1.00  0.00    -0.387 OA
ATOM     40  H   UNL     1      29.315  33.809  15.600  1.00  0.00     0.211 HD
ENDBRANCH  14  39
ENDBRANCH   8   9
ENDBRANCH   7   8
ENDBRANCH   1   7
BRANCH   1  41
ATOM     41  C   UNL     1      31.836  35.271  13.110  1.00  0.00     0.364 C 
ATOM     42  O   UNL     1      32.519  36.279  12.859  1.00  0.00    -0.246 OA
BRANCH  41  43
ATOM     43  O   UNL     1      31.495  34.498  11.979  1.00  0.00    -0.477 OA
ATOM     44  H   UNL     1      30.594  34.671  11.510  1.00  0.00     0.296 HD
ENDBRANCH  41  43
ENDBRANCH   1  41
BRANCH   3  45
ATOM     45  O   UNL     1      29.968  35.360  16.930  1.00  0.00    -0.391 OA
ATOM     46  H   UNL     1      29.228  35.721  17.474  1.00  0.00     0.211 HD
ENDBRANCH   3  45
BRANCH   5  47
ATOM     47  C   UNL     1      27.954  35.991  13.995  1.00  0.00     0.176 C 
BRANCH  47  48
ATOM     48  O   UNL     1      27.531  35.497  15.289  1.00  0.00    -0.388 OA
ATOM     49  H   UNL     1      26.558  35.276  15.169  1.00  0.00     0.211 HD
ENDBRANCH  47  48
BRANCH  47  50
ATOM     50  C   UNL     1      27.642  34.829  13.101  1.00  0.00     0.165 C 
BRANCH  50  51
ATOM     51  O   UNL     1      28.458  34.908  11.942  1.00  0.00    -0.388 OA
ATOM     52  H   UNL     1      27.958  35.306  11.185  1.00  0.00     0.211 HD
ENDBRANCH  50  51
BRANCH  50  53
ATOM     53  C   UNL     1      26.253  34.615  12.675  1.00  0.00     0.154 C 
BRANCH  53  54
ATOM     54  N   UNL     1      25.250  34.721  13.719  1.00  0.00    -0.319 N 
ATOM     55  C   UNL     1      24.747  33.526  14.316  1.00  0.00     0.407 C 
ATOM     56  H   UNL     1      24.864  35.620  14.067  1.00  0.00     0.167 HD
ATOM     57  O   UNL     1      25.185  32.399  13.911  1.00  0.00    -0.225 OA
BRANCH  55  58
ATOM     58  O   UNL     1      23.803  33.482  15.322  1.00  0.00    -0.443 OA
BRANCH  58  59
ATOM     59  C   UNL     1      24.061  32.800  16.540  1.00  0.00     0.294 C 
BRANCH  59  60
ATOM     60  C   UNL     1      25.043  33.625  17.332  1.00  0.00     0.121 A 
ATOM     61  C   UNL     1      24.778  34.609  18.255  1.00  0.00     0.144 A 
ATOM     62  N   UNL     1      26.382  33.532  17.254  1.00  0.00    -0.131 NA
ATOM     63  N   UNL     1      25.979  35.049  18.678  1.00  0.00    -0.219 N 
ATOM     64  N   UNL     1      26.946  34.392  18.068  1.00  0.00    -0.062 NA
BRANCH  63  65
ATOM     65  C   UNL     1      26.217  36.077  19.633  1.00  0.00     0.080 A 
ATOM     66  C   UNL     1      26.532  35.765  20.950  1.00  0.00     0.029 A 
ATOM     67  C   UNL     1      26.135  37.404  19.282  1.00  0.00     0.039 A 
ATOM     68  C   UNL     1      26.752  36.808  21.857  1.00  0.00     0.002 A 
ATOM     69  C   UNL     1      26.358  38.436  20.203  1.00  0.00     0.017 A 
ATOM     70  I   UNL     1      25.655  37.911  17.286  1.00  0.00    -0.042 I 
ATOM     71  C   UNL     1      26.671  38.134  21.505  1.00  0.00     0.001 A 
ENDBRANCH  63  65
ENDBRANCH  59  60
ENDBRANCH  58  59
ENDBRANCH  55  58
ENDBRANCH  53  54
ENDBRANCH  50  53
ENDBRANCH  47  50
ENDBRANCH   5  47
BRANCH   4  72
ATOM     72  N   UNL     1      30.411  38.348  15.012  1.00  0.00    -0.348 N 
ATOM     73  C   UNL     1      30.029  39.606  15.599  1.00  0.00     0.217 C 
ATOM     74  H   UNL     1      31.215  38.410  14.363  1.00  0.00     0.163 HD
ATOM     75  C   UNL     1      30.718  40.878  15.305  1.00  0.00     0.114 C 
ATOM     76  O   UNL     1      29.054  39.573  16.396  1.00  0.00    -0.275 OA
ENDBRANCH   4  72
TORSDOF 30
BEGIN_RES LYS A 131
REMARK  4 active torsions:
REMARK  status: ('A' for Active; 'I' for Inactive)
REMARK    1  A    between atoms: CA   and  CB  
REMARK    2  A    between atoms: CB   and  CG  
REMARK    3  A    between atoms: CG   and  CD  
REMARK    4  A    between atoms: CD   and  CE  
ROOT
ATOM      1  CA  LYS A 131      29.867  25.555  16.977  1.00 20.52     0.186 C 
ENDROOT
BRANCH   1   2
ATOM      2  CB  LYS A 131      28.345  25.722  17.026  1.00 20.94     0.034 C 
BRANCH   2   3
ATOM      3  CG  LYS A 131      27.601  24.401  16.904  1.00 22.96     0.005 C 
BRANCH   3   4
ATOM      4  CD  LYS A 131      26.511  24.268  17.930  1.00 24.33     0.041 C 
BRANCH   4   5
ATOM      5  CE  LYS A 131      26.441  25.541  18.767  1.00 26.91     0.338 C 
ATOM      6  NZ  LYS A 131      25.576  25.336  19.953  1.00 27.40     0.618 N 
ENDBRANCH   4   5
ENDBRANCH   3   4
ENDBRANCH   2   3
ENDBRANCH   1   2
END_RES LYS A 131
BEGIN_RES LYS A 135
REMARK  4 active torsions:
REMARK  status: ('A' for Active; 'I' for Inactive)
REMARK    5  A    between atoms: CA   and  CB  
REMARK    6  A    between atoms: CB   and  CG  
REMARK    7  A    between atoms: CG   and  CD  
REMARK    8  A    between atoms: CD   and  CE  
ROOT
ATOM      7  CA  LYS A 135      33.193  34.663   9.290  1.00 25.02     0.186 C 
ENDROOT
BRANCH   7   8
ATOM      8  CB  LYS A 135      32.060  35.360  10.034  1.00 26.63     0.034 C 
BRANCH   8   9
ATOM      9  CG  LYS A 135      30.884  35.702   9.157  1.00 29.45     0.005 C 
BRANCH   9  10
ATOM     10  CD  LYS A 135      30.364  34.461   8.448  1.00 32.00     0.041 C 
BRANCH  10  11
ATOM     11  CE  LYS A 135      28.848  34.476   8.390  1.00 34.25     0.338 C 
ATOM     12  NZ  LYS A 135      28.364  35.280   7.234  1.00 35.99     0.618 N 
ENDBRANCH  10  11
ENDBRANCH   9  10
ENDBRANCH   8   9
ENDBRANCH   7   8
END_RES LYS A 135
