REMARK VINA RESULT:    -5.268      3.463      8.911
REMARK INTER + INTRA:         -22.719
REMARK INTER:                 -10.760
REMARK INTRA:                 -11.958
REMARK UNBOUND:                -9.445
REMARK SMILES CC(=O)N[C@@H]1[C@@H](O)C[C@](OC[C@H]2O[C@@H](O[C@H]3[C@H](O)[C@@H](O)[C@H](OCCN=[N+]=[N-])O[C@@H]3CO)[C@H](O)[C@@H](O)[C@H]2O)(C(=O)O)O[C@H]1C(O)[C@H](O)CNC(=O)OCc1cn(Cc2cccc(Br)c2)nn1
REMARK SMILES IDX 9 1 8 2 6 3 5 4 42 5 41 6 10 7 11 8 12 9 14 10 13 11 32 12
REMARK SMILES IDX 34 13 36 14 15 15 16 16 29 17 28 18 21 19 17 20 19 21 30 22
REMARK SMILES IDX 31 23 22 25 23 26 24 27 25 28 26 29 27 30 18 31 20 33 33 35
REMARK SMILES IDX 35 37 37 39 38 41 39 42 40 43 7 45 43 47 44 48 45 50 46 51
REMARK SMILES IDX 47 53 48 54 49 55 50 57 51 58 52 59 53 60 54 61 65 62 55 63
REMARK SMILES IDX 64 64 56 65 57 66 58 67 63 68 59 69 61 70 60 71 62 72 4 73
REMARK SMILES IDX 2 74 1 76 3 77
REMARK H PARENT 31 24 18 32 20 34 33 36 35 38 37 40 40 44 7 46 44 49 46 52
REMARK H PARENT 48 56 4 75
REMARK Flexibility Score: inf
ROOT
ATOM      1  C   UNL     1      27.742  38.254   8.329  1.00  0.00     0.272 C 
ATOM      2  C   UNL     1      27.580  38.412   6.864  1.00  0.00     0.113 C 
ATOM      3  C   UNL     1      28.845  38.325   6.074  1.00  0.00     0.145 C 
ATOM      4  C   UNL     1      30.046  38.860   6.821  1.00  0.00     0.142 C 
ATOM      5  C   UNL     1      29.968  38.733   8.277  1.00  0.00     0.178 C 
ATOM      6  O   UNL     1      28.992  37.931   8.780  1.00  0.00    -0.332 OA
ENDROOT
BRANCH   1   7
ATOM      7  O   UNL     1      26.805  37.278   8.792  1.00  0.00    -0.338 OA
BRANCH   7   8
ATOM      8  C   UNL     1      25.580  37.404   8.203  1.00  0.00     0.199 C 
BRANCH   8   9
ATOM      9  C   UNL     1      24.504  36.671   9.030  1.00  0.00     0.179 C 
ATOM     10  C   UNL     1      24.447  35.334  10.953  1.00  0.00     0.282 C 
ATOM     11  O   UNL     1      25.178  35.820   9.844  1.00  0.00    -0.341 OA
ATOM     12  C   UNL     1      22.998  35.595  10.827  1.00  0.00     0.202 C 
ATOM     13  C   UNL     1      22.674  37.058  10.583  1.00  0.00     0.179 C 
ATOM     14  C   UNL     1      23.823  37.738   9.860  1.00  0.00     0.177 C 
BRANCH  10  15
ATOM     15  O   UNL     1      25.101  35.863  12.039  1.00  0.00    -0.341 OA
BRANCH  15  16
ATOM     16  C   UNL     1      26.255  35.276  12.414  1.00  0.00     0.184 C 
ATOM     17  C   UNL     1      26.116  34.770  13.826  1.00  0.00     0.178 C 
ATOM     18  O   UNL     1      27.243  34.015  14.144  1.00  0.00    -0.341 OA
ATOM     19  C   UNL     1      28.419  34.767  14.184  1.00  0.00     0.281 C 
ATOM     20  C   UNL     1      27.445  36.229  12.477  1.00  0.00     0.180 C 
ATOM     21  C   UNL     1      28.642  35.321  12.797  1.00  0.00     0.202 C 
BRANCH  17  22
ATOM     22  C   UNL     1      24.926  33.875  13.917  1.00  0.00     0.191 C 
BRANCH  22  23
ATOM     23  O   UNL     1      25.297  32.589  14.263  1.00  0.00    -0.394 OA
ATOM     24  H   UNL     1      24.525  31.993  14.079  1.00  0.00     0.210 HD
ENDBRANCH  22  23
ENDBRANCH  17  22
BRANCH  19  25
ATOM     25  O   UNL     1      29.413  33.901  14.588  1.00  0.00    -0.350 OA
BRANCH  25  26
ATOM     26  C   UNL     1      30.426  34.466  15.311  1.00  0.00     0.169 C 
BRANCH  26  27
ATOM     27  C   UNL     1      31.761  33.770  15.168  1.00  0.00     0.119 C 
BRANCH  27  28
ATOM     28  N   UNL     1      32.731  34.779  14.804  1.00  0.00    -0.092 NA
ATOM     29  N   UNL     1      32.788  35.315  13.707  1.00  0.00     0.001 N 
ATOM     30  N   UNL     1      32.676  35.890  12.626  1.00  0.00    -0.003 NA
ENDBRANCH  27  28
ENDBRANCH  26  27
ENDBRANCH  25  26
ENDBRANCH  19  25
BRANCH  20  31
ATOM     31  O   UNL     1      27.713  36.863  11.297  1.00  0.00    -0.387 OA
ATOM     32  H   UNL     1      26.985  36.848  10.637  1.00  0.00     0.211 HD
ENDBRANCH  20  31
BRANCH  21  33
ATOM     33  O   UNL     1      29.771  36.085  12.666  1.00  0.00    -0.385 OA
ATOM     34  H   UNL     1      30.559  35.702  13.170  1.00  0.00     0.211 HD
ENDBRANCH  21  33
ENDBRANCH  15  16
ENDBRANCH  10  15
BRANCH  12  35
ATOM     35  O   UNL     1      22.533  34.855   9.709  1.00  0.00    -0.385 OA
ATOM     36  H   UNL     1      21.954  35.438   9.153  1.00  0.00     0.211 HD
ENDBRANCH  12  35
BRANCH  13  37
ATOM     37  O   UNL     1      22.303  37.722  11.748  1.00  0.00    -0.387 OA
ATOM     38  H   UNL     1      22.635  37.185  12.539  1.00  0.00     0.211 HD
ENDBRANCH  13  37
BRANCH  14  39
ATOM     39  O   UNL     1      24.757  38.296  10.702  1.00  0.00    -0.387 OA
ATOM     40  H   UNL     1      25.675  38.238  10.296  1.00  0.00     0.211 HD
ENDBRANCH  14  39
ENDBRANCH   8   9
ENDBRANCH   7   8
ENDBRANCH   1   7
BRANCH   1  41
ATOM     41  C   UNL     1      27.298  39.509   9.005  1.00  0.00     0.364 C 
ATOM     42  O   UNL     1      26.905  40.495   8.287  1.00  0.00    -0.246 OA
BRANCH  41  43
ATOM     43  O   UNL     1      27.268  39.727  10.354  1.00  0.00    -0.477 OA
ATOM     44  H   UNL     1      27.896  40.446  10.737  1.00  0.00     0.296 HD
ENDBRANCH  41  43
ENDBRANCH   1  41
BRANCH   3  45
ATOM     45  O   UNL     1      29.046  37.050   5.565  1.00  0.00    -0.391 OA
ATOM     46  H   UNL     1      29.900  36.644   5.830  1.00  0.00     0.211 HD
ENDBRANCH   3  45
BRANCH   5  47
ATOM     47  C   UNL     1      31.313  38.344   8.911  1.00  0.00     0.176 C 
BRANCH  47  48
ATOM     48  O   UNL     1      32.312  38.740   7.933  1.00  0.00    -0.388 OA
ATOM     49  H   UNL     1      32.624  39.638   8.214  1.00  0.00     0.211 HD
ENDBRANCH  47  48
BRANCH  47  50
ATOM     50  C   UNL     1      31.651  39.065  10.164  1.00  0.00     0.165 C 
BRANCH  50  51
ATOM     51  O   UNL     1      31.015  38.292  11.206  1.00  0.00    -0.388 OA
ATOM     52  H   UNL     1      30.598  38.944  11.846  1.00  0.00     0.211 HD
ENDBRANCH  50  51
BRANCH  50  53
ATOM     53  C   UNL     1      31.088  40.433  10.357  1.00  0.00     0.154 C 
BRANCH  53  54
ATOM     54  N   UNL     1      30.079  40.513  11.402  1.00  0.00    -0.319 N 
ATOM     55  C   UNL     1      30.191  41.522  12.390  1.00  0.00     0.407 C 
ATOM     56  H   UNL     1      29.282  39.853  11.442  1.00  0.00     0.167 HD
ATOM     57  O   UNL     1      31.157  42.334  12.362  1.00  0.00    -0.225 OA
BRANCH  55  58
ATOM     58  O   UNL     1      29.245  41.644  13.408  1.00  0.00    -0.443 OA
BRANCH  58  59
ATOM     59  C   UNL     1      28.513  40.473  13.797  1.00  0.00     0.294 C 
BRANCH  59  60
ATOM     60  C   UNL     1      29.434  39.573  14.529  1.00  0.00     0.120 A 
ATOM     61  C   UNL     1      29.790  39.608  15.855  1.00  0.00     0.138 A 
ATOM     62  N   UNL     1      30.085  38.542  13.975  1.00  0.00    -0.132 NA
ATOM     63  N   UNL     1      30.649  38.592  16.061  1.00  0.00    -0.248 N 
ATOM     64  N   UNL     1      30.813  37.961  14.907  1.00  0.00    -0.067 NA
BRANCH  63  65
ATOM     65  C   UNL     1      31.273  38.269  17.341  1.00  0.00     0.181 C 
BRANCH  65  66
ATOM     66  C   UNL     1      32.748  38.439  17.280  1.00  0.00    -0.025 A 
ATOM     67  C   UNL     1      33.317  39.688  17.427  1.00  0.00     0.006 A 
ATOM     68  C   UNL     1      33.610  37.390  17.076  1.00  0.00     0.021 A 
ATOM     69  C   UNL     1      34.675  39.912  17.378  1.00  0.00     0.002 A 
ATOM     70  C   UNL     1      34.972  37.579  17.022  1.00  0.00     0.018 A 
ATOM     71  C   UNL     1      35.531  38.822  17.168  1.00  0.00     0.016 A 
ATOM     72  Br  UNL     1      36.178  36.120  16.738  1.00  0.00    -0.051 Br
ENDBRANCH  65  66
ENDBRANCH  63  65
ENDBRANCH  59  60
ENDBRANCH  58  59
ENDBRANCH  55  58
ENDBRANCH  53  54
ENDBRANCH  50  53
ENDBRANCH  47  50
ENDBRANCH   5  47
BRANCH   4  73
ATOM     73  N   UNL     1      30.264  40.278   6.435  1.00  0.00    -0.348 N 
ATOM     74  C   UNL     1      31.307  40.628   5.543  1.00  0.00     0.217 C 
ATOM     75  H   UNL     1      29.651  41.043   6.816  1.00  0.00     0.163 HD
ATOM     76  C   UNL     1      31.548  42.057   5.138  1.00  0.00     0.114 C 
ATOM     77  O   UNL     1      32.042  39.713   5.086  1.00  0.00    -0.275 OA
ENDBRANCH   4  73
TORSDOF 31
BEGIN_RES LYS A 131
REMARK  4 active torsions:
REMARK  status: ('A' for Active; 'I' for Inactive)
REMARK    1  A    between atoms: CA   and  CB  
REMARK    2  A    between atoms: CB   and  CG  
REMARK    3  A    between atoms: CG   and  CD  
REMARK    4  A    between atoms: CD   and  CE  
ROOT
ATOM      1  CA  LYS A 131      29.867  25.555  16.977  1.00 20.52     0.186 C 
ENDROOT
BRANCH   1   2
ATOM      2  CB  LYS A 131      28.345  25.722  17.026  1.00 20.94     0.034 C 
BRANCH   2   3
ATOM      3  CG  LYS A 131      27.600  24.413  16.812  1.00 22.96     0.005 C 
BRANCH   3   4
ATOM      4  CD  LYS A 131      26.197  24.466  17.351  1.00 24.33     0.041 C 
BRANCH   4   5
ATOM      5  CE  LYS A 131      26.069  25.634  18.323  1.00 26.91     0.338 C 
ATOM      6  NZ  LYS A 131      25.581  25.162  19.640  1.00 27.40     0.618 N 
ENDBRANCH   4   5
ENDBRANCH   3   4
ENDBRANCH   2   3
ENDBRANCH   1   2
END_RES LYS A 131
BEGIN_RES LYS A 135
REMARK  4 active torsions:
REMARK  status: ('A' for Active; 'I' for Inactive)
REMARK    5  A    between atoms: CA   and  CB  
REMARK    6  A    between atoms: CB   and  CG  
REMARK    7  A    between atoms: CG   and  CD  
REMARK    8  A    between atoms: CD   and  CE  
ROOT
ATOM      7  CA  LYS A 135      33.193  34.663   9.290  1.00 25.02     0.186 C 
ENDROOT
BRANCH   7   8
ATOM      8  CB  LYS A 135      32.060  35.360  10.034  1.00 26.63     0.034 C 
BRANCH   8   9
ATOM      9  CG  LYS A 135      30.719  34.700   9.844  1.00 29.45     0.005 C 
BRANCH   9  10
ATOM     10  CD  LYS A 135      30.385  34.577   8.365  1.00 32.00     0.041 C 
BRANCH  10  11
ATOM     11  CE  LYS A 135      28.883  34.579   8.156  1.00 34.25     0.338 C 
ATOM     12  NZ  LYS A 135      28.181  33.941   9.303  1.00 35.99     0.618 N 
ENDBRANCH  10  11
ENDBRANCH   9  10
ENDBRANCH   8   9
ENDBRANCH   7   8
END_RES LYS A 135
