REMARK VINA RESULT:    -4.969      6.507     13.204
REMARK INTER + INTRA:         -22.299
REMARK INTER:                 -10.561
REMARK INTRA:                 -11.738
REMARK UNBOUND:               -10.068
REMARK SMILES CC(=O)N[C@@H]1[C@@H](O)C[C@](OC[C@H]2O[C@@H](O[C@H]3[C@H](O)[C@@H](O)[C@H](OCCN=[N+]=[N-])O[C@@H]3CO)[C@H](O)[C@@H](O)[C@H]2O)(C(=O)O)O[C@H]1C(O)[C@H](O)CNC(=O)OCc1cn(-c2cnc3ccccc3c2)nn1
REMARK SMILES IDX 9 1 8 2 6 3 5 4 42 5 41 6 10 7 11 8 12 9 14 10 13 11 32 12
REMARK SMILES IDX 34 13 36 14 15 15 16 16 29 17 28 18 21 19 17 20 19 21 30 22
REMARK SMILES IDX 31 23 22 25 23 26 24 27 25 28 26 29 27 30 18 31 20 33 33 35
REMARK SMILES IDX 35 37 37 39 38 41 39 42 40 43 7 45 43 47 44 48 45 50 46 51
REMARK SMILES IDX 47 53 48 54 49 55 50 57 51 58 52 59 53 60 54 61 67 62 55 63
REMARK SMILES IDX 66 64 56 65 57 66 65 67 58 68 64 69 59 70 63 71 60 72 62 73
REMARK SMILES IDX 61 74 4 75 2 76 1 78 3 79
REMARK H PARENT 31 24 18 32 20 34 33 36 35 38 37 40 40 44 7 46 44 49 46 52
REMARK H PARENT 48 56 4 77
REMARK Flexibility Score: inf
ROOT
ATOM      1  C   UNL     1      24.271  40.308   9.443  1.00  0.00     0.272 C 
ATOM      2  C   UNL     1      25.623  40.059  10.007  1.00  0.00     0.113 C 
ATOM      3  C   UNL     1      25.825  38.609  10.401  1.00  0.00     0.145 C 
ATOM      4  C   UNL     1      25.368  37.798   9.187  1.00  0.00     0.142 C 
ATOM      5  C   UNL     1      23.850  38.014   9.089  1.00  0.00     0.178 C 
ATOM      6  O   UNL     1      23.760  39.343   8.624  1.00  0.00    -0.332 OA
ENDROOT
BRANCH   1   7
ATOM      7  O   UNL     1      24.252  41.487   8.667  1.00  0.00    -0.338 OA
BRANCH   7   8
ATOM      8  C   UNL     1      24.067  41.281   7.328  1.00  0.00     0.199 C 
BRANCH   8   9
ATOM      9  C   UNL     1      25.360  41.600   6.609  1.00  0.00     0.179 C 
ATOM     10  C   UNL     1      27.303  42.821   6.681  1.00  0.00     0.282 C 
ATOM     11  O   UNL     1      26.312  42.190   7.416  1.00  0.00    -0.341 OA
ATOM     12  C   UNL     1      27.488  42.214   5.321  1.00  0.00     0.202 C 
ATOM     13  C   UNL     1      27.194  40.757   5.259  1.00  0.00     0.179 C 
ATOM     14  C   UNL     1      25.796  40.495   5.742  1.00  0.00     0.177 C 
BRANCH  10  15
ATOM     15  O   UNL     1      28.466  42.855   7.420  1.00  0.00    -0.341 OA
BRANCH  15  16
ATOM     16  C   UNL     1      28.250  42.652   8.783  1.00  0.00     0.184 C 
ATOM     17  C   UNL     1      28.370  43.920   9.594  1.00  0.00     0.178 C 
ATOM     18  O   UNL     1      29.142  43.837  10.710  1.00  0.00    -0.341 OA
ATOM     19  C   UNL     1      28.990  42.741  11.514  1.00  0.00     0.281 C 
ATOM     20  C   UNL     1      29.058  41.507   9.326  1.00  0.00     0.180 C 
ATOM     21  C   UNL     1      28.883  41.424  10.809  1.00  0.00     0.202 C 
BRANCH  17  22
ATOM     22  C   UNL     1      26.991  44.538   9.835  1.00  0.00     0.191 C 
BRANCH  22  23
ATOM     23  O   UNL     1      26.007  43.570  10.011  1.00  0.00    -0.394 OA
ATOM     24  H   UNL     1      25.576  43.618  10.889  1.00  0.00     0.210 HD
ENDBRANCH  22  23
ENDBRANCH  17  22
BRANCH  19  25
ATOM     25  O   UNL     1      27.985  42.897  12.472  1.00  0.00    -0.350 OA
BRANCH  25  26
ATOM     26  C   UNL     1      28.397  42.536  13.737  1.00  0.00     0.169 C 
BRANCH  26  27
ATOM     27  C   UNL     1      27.241  42.094  14.604  1.00  0.00     0.119 C 
BRANCH  27  28
ATOM     28  N   UNL     1      26.233  41.417  13.814  1.00  0.00    -0.092 NA
ATOM     29  N   UNL     1      26.262  40.204  13.609  1.00  0.00     0.001 N 
ATOM     30  N   UNL     1      26.069  38.995  13.741  1.00  0.00    -0.003 NA
ENDBRANCH  27  28
ENDBRANCH  26  27
ENDBRANCH  25  26
ENDBRANCH  19  25
BRANCH  20  31
ATOM     31  O   UNL     1      28.544  40.314   8.770  1.00  0.00    -0.387 OA
ATOM     32  H   UNL     1      29.277  39.794   8.345  1.00  0.00     0.211 HD
ENDBRANCH  20  31
BRANCH  21  33
ATOM     33  O   UNL     1      29.836  40.490  11.281  1.00  0.00    -0.385 OA
ATOM     34  H   UNL     1      30.759  40.847  11.121  1.00  0.00     0.211 HD
ENDBRANCH  21  33
ENDBRANCH  15  16
ENDBRANCH  10  15
BRANCH  12  35
ATOM     35  O   UNL     1      26.768  42.860   4.320  1.00  0.00    -0.385 OA
ATOM     36  H   UNL     1      27.349  43.413   3.745  1.00  0.00     0.211 HD
ENDBRANCH  12  35
BRANCH  13  37
ATOM     37  O   UNL     1      28.138  40.027   5.985  1.00  0.00    -0.387 OA
ATOM     38  H   UNL     1      28.128  40.307   6.915  1.00  0.00     0.211 HD
ENDBRANCH  13  37
BRANCH  14  39
ATOM     39  O   UNL     1      25.805  39.247   6.356  1.00  0.00    -0.387 OA
ATOM     40  H   UNL     1      26.294  39.233   7.199  1.00  0.00     0.211 HD
ENDBRANCH  14  39
ENDBRANCH   8   9
ENDBRANCH   7   8
ENDBRANCH   1   7
BRANCH   1  41
ATOM     41  C   UNL     1      23.305  40.464  10.585  1.00  0.00     0.364 C 
ATOM     42  O   UNL     1      22.048  40.463  10.377  1.00  0.00    -0.246 OA
BRANCH  41  43
ATOM     43  O   UNL     1      23.677  40.617  11.899  1.00  0.00    -0.477 OA
ATOM     44  H   UNL     1      24.622  40.916  12.185  1.00  0.00     0.296 HD
ENDBRANCH  41  43
ENDBRANCH   1  41
BRANCH   3  45
ATOM     45  O   UNL     1      27.127  38.332  10.742  1.00  0.00    -0.391 OA
ATOM     46  H   UNL     1      27.626  39.175  10.758  1.00  0.00     0.211 HD
ENDBRANCH   3  45
BRANCH   5  47
ATOM     47  C   UNL     1      23.244  37.170   8.002  1.00  0.00     0.176 C 
BRANCH  47  48
ATOM     48  O   UNL     1      23.215  37.965   6.826  1.00  0.00    -0.388 OA
ATOM     49  H   UNL     1      24.128  38.101   6.469  1.00  0.00     0.211 HD
ENDBRANCH  47  48
BRANCH  47  50
ATOM     50  C   UNL     1      21.798  36.760   8.250  1.00  0.00     0.165 C 
BRANCH  50  51
ATOM     51  O   UNL     1      21.412  37.642   9.321  1.00  0.00    -0.388 OA
ATOM     52  H   UNL     1      20.431  37.719   9.285  1.00  0.00     0.211 HD
ENDBRANCH  50  51
BRANCH  50  53
ATOM     53  C   UNL     1      21.744  35.400   8.912  1.00  0.00     0.154 C 
BRANCH  53  54
ATOM     54  N   UNL     1      22.417  35.270  10.148  1.00  0.00    -0.319 N 
ATOM     55  C   UNL     1      21.805  34.892  11.362  1.00  0.00     0.407 C 
ATOM     56  H   UNL     1      23.466  35.477  10.152  1.00  0.00     0.167 HD
ATOM     57  O   UNL     1      20.580  34.662  11.377  1.00  0.00    -0.225 OA
BRANCH  55  58
ATOM     58  O   UNL     1      22.594  34.796  12.485  1.00  0.00    -0.443 OA
BRANCH  58  59
ATOM     59  C   UNL     1      23.497  33.744  12.690  1.00  0.00     0.294 C 
BRANCH  59  60
ATOM     60  C   UNL     1      24.900  34.267  12.676  1.00  0.00     0.121 A 
ATOM     61  C   UNL     1      25.956  33.871  13.427  1.00  0.00     0.144 A 
ATOM     62  N   UNL     1      25.323  35.268  11.868  1.00  0.00    -0.131 NA
ATOM     63  N   UNL     1      26.995  34.643  13.056  1.00  0.00    -0.219 N 
ATOM     64  N   UNL     1      26.599  35.491  12.104  1.00  0.00    -0.062 NA
BRANCH  63  65
ATOM     65  C   UNL     1      28.305  34.549  13.610  1.00  0.00     0.085 A 
ATOM     66  C   UNL     1      28.483  33.986  14.833  1.00  0.00     0.140 A 
ATOM     67  C   UNL     1      29.374  35.034  12.875  1.00  0.00     0.040 A 
ATOM     68  N   UNL     1      29.729  33.899  15.341  1.00  0.00    -0.254 NA
ATOM     69  C   UNL     1      30.628  34.936  13.406  1.00  0.00     0.002 A 
ATOM     70  C   UNL     1      30.767  34.365  14.638  1.00  0.00     0.070 A 
ATOM     71  C   UNL     1      31.710  35.412  12.693  1.00  0.00     0.010 A 
ATOM     72  C   UNL     1      32.053  34.268  15.173  1.00  0.00     0.029 A 
ATOM     73  C   UNL     1      32.976  35.306  13.244  1.00  0.00     0.001 A 
ATOM     74  C   UNL     1      33.150  34.726  14.502  1.00  0.00     0.002 A 
ENDBRANCH  63  65
ENDBRANCH  59  60
ENDBRANCH  58  59
ENDBRANCH  55  58
ENDBRANCH  53  54
ENDBRANCH  50  53
ENDBRANCH  47  50
ENDBRANCH   5  47
BRANCH   4  75
ATOM     75  N   UNL     1      25.788  36.451   9.259  1.00  0.00    -0.348 N 
ATOM     76  C   UNL     1      26.651  35.894   8.242  1.00  0.00     0.217 C 
ATOM     77  H   UNL     1      25.534  35.790  10.022  1.00  0.00     0.163 HD
ATOM     78  C   UNL     1      27.095  34.500   8.301  1.00  0.00     0.114 C 
ATOM     79  O   UNL     1      26.999  36.673   7.304  1.00  0.00    -0.275 OA
ENDBRANCH   4  75
TORSDOF 30
BEGIN_RES LYS A 131
REMARK  4 active torsions:
REMARK  status: ('A' for Active; 'I' for Inactive)
REMARK    1  A    between atoms: CA   and  CB  
REMARK    2  A    between atoms: CB   and  CG  
REMARK    3  A    between atoms: CG   and  CD  
REMARK    4  A    between atoms: CD   and  CE  
ROOT
ATOM      1  CA  LYS A 131      29.867  25.555  16.977  1.00 20.52     0.186 C 
ENDROOT
BRANCH   1   2
ATOM      2  CB  LYS A 131      28.345  25.722  17.026  1.00 20.94     0.034 C 
BRANCH   2   3
ATOM      3  CG  LYS A 131      27.599  24.457  16.631  1.00 22.96     0.005 C 
BRANCH   3   4
ATOM      4  CD  LYS A 131      27.017  23.747  17.823  1.00 24.33     0.041 C 
BRANCH   4   5
ATOM      5  CE  LYS A 131      25.515  24.004  17.884  1.00 26.91     0.338 C 
ATOM      6  NZ  LYS A 131      24.764  22.790  17.487  1.00 27.40     0.618 N 
ENDBRANCH   4   5
ENDBRANCH   3   4
ENDBRANCH   2   3
ENDBRANCH   1   2
END_RES LYS A 131
BEGIN_RES LYS A 135
REMARK  4 active torsions:
REMARK  status: ('A' for Active; 'I' for Inactive)
REMARK    5  A    between atoms: CA   and  CB  
REMARK    6  A    between atoms: CB   and  CG  
REMARK    7  A    between atoms: CG   and  CD  
REMARK    8  A    between atoms: CD   and  CE  
ROOT
ATOM      7  CA  LYS A 135      33.193  34.663   9.290  1.00 25.02     0.186 C 
ENDROOT
BRANCH   7   8
ATOM      8  CB  LYS A 135      32.060  35.360  10.034  1.00 26.63     0.034 C 
BRANCH   8   9
ATOM      9  CG  LYS A 135      30.743  35.319   9.302  1.00 29.45     0.005 C 
BRANCH   9  10
ATOM     10  CD  LYS A 135      30.278  36.725   8.955  1.00 32.00     0.041 C 
BRANCH  10  11
ATOM     11  CE  LYS A 135      31.107  37.758   9.694  1.00 34.25     0.338 C 
ATOM     12  NZ  LYS A 135      31.600  38.814   8.767  1.00 35.99     0.618 N 
ENDBRANCH  10  11
ENDBRANCH   9  10
ENDBRANCH   8   9
ENDBRANCH   7   8
END_RES LYS A 135
