REMARK VINA RESULT:    -5.123      6.208     12.408
REMARK INTER + INTRA:         -25.028
REMARK INTER:                 -13.217
REMARK INTRA:                 -11.812
REMARK UNBOUND:               -11.071
REMARK SMILES CC(=O)N[C@@H]1[C@@H](O)C[C@](OC[C@H]2O[C@@H](O[C@H]3[C@H](O)[C@@H](O)[C@H](OCCN=[N+]=[N-])O[C@@H]3CO)[C@H](O)[C@@H](O)[C@H]2O)(C(=O)O)O[C@H]1C(O)[C@H](O)CNC(=O)OCc1cn(CC(O)CCc2ccccc2)nn1
REMARK SMILES IDX 43 1 42 2 9 3 8 4 41 5 6 6 5 7 10 8 11 9 12 10 14 11 13 12
REMARK SMILES IDX 32 13 34 14 36 15 15 16 16 17 29 18 28 19 21 20 17 21 19 22
REMARK SMILES IDX 30 23 31 24 22 26 23 27 24 28 25 29 26 30 27 31 18 32 20 34
REMARK SMILES IDX 33 36 35 38 37 40 38 42 39 43 40 44 7 46 4 48 2 49 1 51 3 52
REMARK SMILES IDX 44 53 45 55 46 56 47 58 48 59 49 60 50 62 51 63 52 64 53 65
REMARK SMILES IDX 54 66 68 67 55 68 67 69 56 70 57 71 58 72 59 74 60 75 61 76
REMARK SMILES IDX 62 77 66 78 63 79 65 80 64 81
REMARK H PARENT 31 25 18 33 20 35 33 37 35 39 37 41 40 45 7 47 4 50 44 54
REMARK H PARENT 46 57 48 61 58 73
REMARK Flexibility Score: inf
ROOT
ATOM      1  C   UNL     1      31.183  33.337  16.759  1.00  0.00     0.176 C 
ENDROOT
BRANCH   1   2
ATOM      2  C   UNL     1      30.777  32.688  18.096  1.00  0.00     0.178 C 
ATOM      3  C   UNL     1      29.087  31.059  18.438  1.00  0.00     0.272 C 
ATOM      4  C   UNL     1      28.122  32.196  18.519  1.00  0.00     0.113 C 
ATOM      5  O   UNL     1      30.244  31.491  17.847  1.00  0.00    -0.332 OA
ATOM      6  C   UNL     1      28.678  33.320  19.316  1.00  0.00     0.145 C 
ATOM      7  C   UNL     1      30.070  33.702  18.912  1.00  0.00     0.142 C 
BRANCH   3   8
ATOM      8  O   UNL     1      28.520  29.972  17.744  1.00  0.00    -0.338 OA
BRANCH   8   9
ATOM      9  C   UNL     1      28.097  30.209  16.486  1.00  0.00     0.199 C 
BRANCH   9  10
ATOM     10  C   UNL     1      26.673  29.648  16.257  1.00  0.00     0.179 C 
ATOM     11  C   UNL     1      24.783  28.882  17.252  1.00  0.00     0.282 C 
ATOM     12  O   UNL     1      26.109  29.200  17.398  1.00  0.00    -0.341 OA
ATOM     13  C   UNL     1      24.095  30.221  16.864  1.00  0.00     0.202 C 
ATOM     14  C   UNL     1      24.478  30.360  15.387  1.00  0.00     0.179 C 
ATOM     15  C   UNL     1      25.956  30.638  15.415  1.00  0.00     0.177 C 
BRANCH  11  16
ATOM     16  O   UNL     1      24.240  28.472  18.418  1.00  0.00    -0.341 OA
BRANCH  16  17
ATOM     17  C   UNL     1      25.053  28.246  19.504  1.00  0.00     0.184 C 
ATOM     18  C   UNL     1      25.293  26.799  19.782  1.00  0.00     0.178 C 
ATOM     19  O   UNL     1      24.969  26.338  21.018  1.00  0.00    -0.341 OA
ATOM     20  C   UNL     1      25.070  27.192  22.076  1.00  0.00     0.281 C 
ATOM     21  C   UNL     1      24.507  29.062  20.640  1.00  0.00     0.180 C 
ATOM     22  C   UNL     1      24.085  28.314  21.852  1.00  0.00     0.202 C 
BRANCH  18  23
ATOM     23  C   UNL     1      26.754  26.483  19.546  1.00  0.00     0.191 C 
BRANCH  23  24
ATOM     24  O   UNL     1      27.497  27.641  19.324  1.00  0.00    -0.394 OA
ATOM     25  H   UNL     1      27.710  28.007  20.235  1.00  0.00     0.210 HD
ENDBRANCH  23  24
ENDBRANCH  18  23
BRANCH  20  26
ATOM     26  O   UNL     1      26.355  27.649  22.316  1.00  0.00    -0.350 OA
BRANCH  26  27
ATOM     27  C   UNL     1      26.863  27.033  23.462  1.00  0.00     0.169 C 
BRANCH  27  28
ATOM     28  C   UNL     1      28.359  26.834  23.226  1.00  0.00     0.119 C 
BRANCH  28  29
ATOM     29  N   UNL     1      28.821  27.615  22.111  1.00  0.00    -0.092 NA
ATOM     30  N   UNL     1      29.869  27.275  21.523  1.00  0.00     0.001 N 
ATOM     31  N   UNL     1      31.040  27.103  21.137  1.00  0.00    -0.003 NA
ENDBRANCH  28  29
ENDBRANCH  27  28
ENDBRANCH  26  27
ENDBRANCH  20  26
BRANCH  21  32
ATOM     32  O   UNL     1      25.460  30.017  21.087  1.00  0.00    -0.387 OA
ATOM     33  H   UNL     1      25.202  30.935  20.846  1.00  0.00     0.211 HD
ENDBRANCH  21  32
BRANCH  22  34
ATOM     34  O   UNL     1      22.823  27.740  21.673  1.00  0.00    -0.385 OA
ATOM     35  H   UNL     1      22.467  27.894  20.774  1.00  0.00     0.211 HD
ENDBRANCH  22  34
ENDBRANCH  16  17
ENDBRANCH  11  16
BRANCH  13  36
ATOM     36  O   UNL     1      22.758  30.231  17.087  1.00  0.00    -0.385 OA
ATOM     37  H   UNL     1      22.232  30.939  16.682  1.00  0.00     0.211 HD
ENDBRANCH  13  36
BRANCH  14  38
ATOM     38  O   UNL     1      23.758  31.384  14.779  1.00  0.00    -0.387 OA
ATOM     39  H   UNL     1      23.241  31.886  15.449  1.00  0.00     0.211 HD
ENDBRANCH  14  38
BRANCH  15  40
ATOM     40  O   UNL     1      26.104  31.921  15.952  1.00  0.00    -0.387 OA
ATOM     41  H   UNL     1      26.825  31.947  16.623  1.00  0.00     0.211 HD
ENDBRANCH  15  40
ENDBRANCH   9  10
ENDBRANCH   8   9
ENDBRANCH   3   8
BRANCH   3  42
ATOM     42  C   UNL     1      29.307  30.515  19.801  1.00  0.00     0.364 C 
ATOM     43  O   UNL     1      28.301  30.247  20.519  1.00  0.00    -0.246 OA
BRANCH  42  44
ATOM     44  O   UNL     1      30.545  30.284  20.332  1.00  0.00    -0.477 OA
ATOM     45  H   UNL     1      31.094  31.058  20.676  1.00  0.00     0.296 HD
ENDBRANCH  42  44
ENDBRANCH   3  42
BRANCH   6  46
ATOM     46  O   UNL     1      27.770  34.400  19.140  1.00  0.00    -0.391 OA
ATOM     47  H   UNL     1      27.916  35.112  19.794  1.00  0.00     0.211 HD
ENDBRANCH   6  46
BRANCH   7  48
ATOM     48  N   UNL     1      30.869  34.177  20.013  1.00  0.00    -0.348 N 
ATOM     49  C   UNL     1      30.861  35.523  20.472  1.00  0.00     0.217 C 
ATOM     50  H   UNL     1      31.519  33.514  20.533  1.00  0.00     0.163 HD
ATOM     51  C   UNL     1      31.723  35.886  21.617  1.00  0.00     0.114 C 
ATOM     52  O   UNL     1      30.148  36.373  19.929  1.00  0.00    -0.275 OA
ENDBRANCH   7  48
ENDBRANCH   1   2
BRANCH   1  53
ATOM     53  O   UNL     1      31.083  34.711  16.852  1.00  0.00    -0.388 OA
ATOM     54  H   UNL     1      31.959  35.158  16.944  1.00  0.00     0.211 HD
ENDBRANCH   1  53
BRANCH   1  55
ATOM     55  C   UNL     1      30.584  32.715  15.554  1.00  0.00     0.165 C 
BRANCH  55  56
ATOM     56  O   UNL     1      31.569  32.213  14.741  1.00  0.00    -0.388 OA
ATOM     57  H   UNL     1      31.262  31.503  14.144  1.00  0.00     0.211 HD
ENDBRANCH  55  56
BRANCH  55  58
ATOM     58  C   UNL     1      29.778  33.782  14.850  1.00  0.00     0.154 C 
BRANCH  58  59
ATOM     59  N   UNL     1      28.417  33.901  15.215  1.00  0.00    -0.319 N 
ATOM     60  C   UNL     1      27.817  34.912  16.012  1.00  0.00     0.407 C 
ATOM     61  H   UNL     1      27.707  33.164  14.873  1.00  0.00     0.167 HD
ATOM     62  O   UNL     1      28.499  35.840  16.462  1.00  0.00    -0.225 OA
BRANCH  60  63
ATOM     63  O   UNL     1      26.462  34.882  16.303  1.00  0.00    -0.443 OA
BRANCH  63  64
ATOM     64  C   UNL     1      25.440  35.532  15.644  1.00  0.00     0.294 C 
BRANCH  64  65
ATOM     65  C   UNL     1      24.957  34.932  14.390  1.00  0.00     0.120 A 
ATOM     66  C   UNL     1      23.970  35.428  13.547  1.00  0.00     0.138 A 
ATOM     67  N   UNL     1      25.368  33.765  13.854  1.00  0.00    -0.132 NA
ATOM     68  N   UNL     1      23.836  34.546  12.560  1.00  0.00    -0.250 N 
ATOM     69  N   UNL     1      24.675  33.560  12.753  1.00  0.00    -0.067 NA
BRANCH  68  70
ATOM     70  C   UNL     1      22.854  34.706  11.456  1.00  0.00     0.177 C 
BRANCH  70  71
ATOM     71  C   UNL     1      23.299  35.894  10.671  1.00  0.00     0.136 C 
BRANCH  71  72
ATOM     72  O   UNL     1      22.236  36.777  10.416  1.00  0.00    -0.391 OA
ATOM     73  H   UNL     1      21.363  36.334  10.477  1.00  0.00     0.211 HD
ENDBRANCH  71  72
BRANCH  71  74
ATOM     74  C   UNL     1      24.035  35.589   9.427  1.00  0.00     0.038 C 
BRANCH  74  75
ATOM     75  C   UNL     1      25.466  35.303   9.416  1.00  0.00     0.038 C 
BRANCH  75  76
ATOM     76  C   UNL     1      26.287  35.725   8.302  1.00  0.00    -0.048 A 
ATOM     77  C   UNL     1      27.287  34.897   7.797  1.00  0.00     0.004 A 
ATOM     78  C   UNL     1      26.165  36.998   7.744  1.00  0.00     0.004 A 
ATOM     79  C   UNL     1      28.108  35.327   6.797  1.00  0.00     0.000 A 
ATOM     80  C   UNL     1      27.009  37.399   6.737  1.00  0.00     0.000 A 
ATOM     81  C   UNL     1      28.007  36.576   6.234  1.00  0.00     0.000 A 
ENDBRANCH  75  76
ENDBRANCH  74  75
ENDBRANCH  71  74
ENDBRANCH  70  71
ENDBRANCH  68  70
ENDBRANCH  64  65
ENDBRANCH  63  64
ENDBRANCH  60  63
ENDBRANCH  58  59
ENDBRANCH  55  58
ENDBRANCH   1  55
TORSDOF 35
BEGIN_RES LYS A 131
REMARK  4 active torsions:
REMARK  status: ('A' for Active; 'I' for Inactive)
REMARK    1  A    between atoms: CA   and  CB  
REMARK    2  A    between atoms: CB   and  CG  
REMARK    3  A    between atoms: CG   and  CD  
REMARK    4  A    between atoms: CD   and  CE  
ROOT
ATOM      1  CA  LYS A 131      29.867  25.555  16.977  1.00 20.52     0.186 C 
ENDROOT
BRANCH   1   2
ATOM      2  CB  LYS A 131      28.345  25.722  17.026  1.00 20.94     0.034 C 
BRANCH   2   3
ATOM      3  CG  LYS A 131      27.600  24.501  16.509  1.00 22.96     0.005 C 
BRANCH   3   4
ATOM      4  CD  LYS A 131      27.149  23.599  17.624  1.00 24.33     0.041 C 
BRANCH   4   5
ATOM      5  CE  LYS A 131      25.633  23.442  17.571  1.00 26.91     0.338 C 
ATOM      6  NZ  LYS A 131      25.086  23.218  18.930  1.00 27.40     0.618 N 
ENDBRANCH   4   5
ENDBRANCH   3   4
ENDBRANCH   2   3
ENDBRANCH   1   2
END_RES LYS A 131
BEGIN_RES LYS A 135
REMARK  4 active torsions:
REMARK  status: ('A' for Active; 'I' for Inactive)
REMARK    5  A    between atoms: CA   and  CB  
REMARK    6  A    between atoms: CB   and  CG  
REMARK    7  A    between atoms: CG   and  CD  
REMARK    8  A    between atoms: CD   and  CE  
ROOT
ATOM      7  CA  LYS A 135      33.193  34.663   9.290  1.00 25.02     0.186 C 
ENDROOT
BRANCH   7   8
ATOM      8  CB  LYS A 135      32.060  35.360  10.034  1.00 26.63     0.034 C 
BRANCH   8   9
ATOM      9  CG  LYS A 135      30.711  35.173   9.389  1.00 29.45     0.005 C 
BRANCH   9  10
ATOM     10  CD  LYS A 135      29.625  35.851  10.210  1.00 32.00     0.041 C 
BRANCH  10  11
ATOM     11  CE  LYS A 135      29.432  35.135  11.533  1.00 34.25     0.338 C 
ATOM     12  NZ  LYS A 135      27.991  34.866  11.793  1.00 35.99     0.618 N 
ENDBRANCH  10  11
ENDBRANCH   9  10
ENDBRANCH   8   9
ENDBRANCH   7   8
END_RES LYS A 135
