REMARK VINA RESULT:    -5.145      3.365      8.482
REMARK INTER + INTRA:         -22.092
REMARK INTER:                 -12.179
REMARK INTRA:                  -9.913
REMARK UNBOUND:                -9.428
REMARK SMILES CC(=O)N[C@@H]1[C@@H](O)C[C@](OC[C@H]2O[C@@H](O[C@H]3[C@H](O)[C@@H](O)[C@H](OCCN=[N+]=[N-])O[C@@H]3CO)[C@H](O)[C@@H](O)[C@H]2O)(C(=O)O)O[C@H]1C(O)[C@H](O)CNC(=O)OCc1cn(-c2ccc(C)cc2)nn1
REMARK SMILES IDX 9 1 8 2 6 3 5 4 42 5 41 6 10 7 11 8 12 9 14 10 13 11 32 12
REMARK SMILES IDX 34 13 36 14 15 15 16 16 29 17 28 18 21 19 17 20 19 21 30 22
REMARK SMILES IDX 31 23 22 25 23 26 24 27 25 28 26 29 27 30 18 31 20 33 33 35
REMARK SMILES IDX 35 37 37 39 38 41 39 42 40 43 7 45 43 47 44 48 45 50 46 51
REMARK SMILES IDX 47 53 48 54 49 55 50 57 51 58 52 59 53 60 54 61 64 62 55 63
REMARK SMILES IDX 63 64 56 65 57 66 62 67 58 68 61 69 59 70 60 71 4 72 2 73
REMARK SMILES IDX 1 75 3 76
REMARK H PARENT 31 24 18 32 20 34 33 36 35 38 37 40 40 44 7 46 44 49 46 52
REMARK H PARENT 48 56 4 74
REMARK Flexibility Score: inf
ROOT
ATOM      1  C   UNL     1      31.238  35.633  14.332  1.00  0.00     0.272 C 
ATOM      2  C   UNL     1      31.537  36.937  15.063  1.00  0.00     0.113 C 
ATOM      3  C   UNL     1      31.480  38.106  14.155  1.00  0.00     0.145 C 
ATOM      4  C   UNL     1      30.502  38.006  13.039  1.00  0.00     0.142 C 
ATOM      5  C   UNL     1      29.578  36.793  13.065  1.00  0.00     0.178 C 
ATOM      6  O   UNL     1      30.219  35.685  13.508  1.00  0.00    -0.332 OA
ENDROOT
BRANCH   1   7
ATOM      7  O   UNL     1      30.892  34.730  15.385  1.00  0.00    -0.338 OA
BRANCH   7   8
ATOM      8  C   UNL     1      30.962  35.426  16.594  1.00  0.00     0.199 C 
BRANCH   8   9
ATOM      9  C   UNL     1      29.986  34.930  17.593  1.00  0.00     0.179 C 
ATOM     10  C   UNL     1      27.988  33.842  17.871  1.00  0.00     0.282 C 
ATOM     11  O   UNL     1      29.028  34.116  16.987  1.00  0.00    -0.341 OA
ATOM     12  C   UNL     1      28.453  32.939  18.949  1.00  0.00     0.202 C 
ATOM     13  C   UNL     1      29.955  32.877  18.976  1.00  0.00     0.179 C 
ATOM     14  C   UNL     1      30.616  34.223  18.762  1.00  0.00     0.177 C 
BRANCH  10  15
ATOM     15  O   UNL     1      26.943  33.238  17.176  1.00  0.00    -0.341 OA
BRANCH  15  16
ATOM     16  C   UNL     1      27.116  31.855  17.095  1.00  0.00     0.184 C 
ATOM     17  C   UNL     1      27.375  31.342  15.706  1.00  0.00     0.178 C 
ATOM     18  O   UNL     1      26.343  30.489  15.303  1.00  0.00    -0.341 OA
ATOM     19  C   UNL     1      25.166  31.210  15.213  1.00  0.00     0.281 C 
ATOM     20  C   UNL     1      25.814  31.252  17.575  1.00  0.00     0.180 C 
ATOM     21  C   UNL     1      24.748  31.725  16.576  1.00  0.00     0.202 C 
BRANCH  17  22
ATOM     22  C   UNL     1      28.629  30.452  15.696  1.00  0.00     0.191 C 
BRANCH  22  23
ATOM     23  O   UNL     1      28.869  29.932  16.965  1.00  0.00    -0.394 OA
ATOM     24  H   UNL     1      28.033  29.449  17.239  1.00  0.00     0.210 HD
ENDBRANCH  22  23
ENDBRANCH  17  22
BRANCH  19  25
ATOM     25  O   UNL     1      24.134  30.481  14.644  1.00  0.00    -0.350 OA
BRANCH  25  26
ATOM     26  C   UNL     1      24.203  30.398  13.276  1.00  0.00     0.169 C 
BRANCH  26  27
ATOM     27  C   UNL     1      23.396  29.292  12.658  1.00  0.00     0.119 C 
BRANCH  27  28
ATOM     28  N   UNL     1      22.027  29.304  13.113  1.00  0.00    -0.092 NA
ATOM     29  N   UNL     1      21.133  28.933  12.373  1.00  0.00     0.001 N 
ATOM     30  N   UNL     1      20.230  28.476  11.670  1.00  0.00    -0.003 NA
ENDBRANCH  27  28
ENDBRANCH  26  27
ENDBRANCH  25  26
ENDBRANCH  19  25
BRANCH  20  31
ATOM     31  O   UNL     1      25.842  29.865  17.613  1.00  0.00    -0.387 OA
ATOM     32  H   UNL     1      24.909  29.560  17.728  1.00  0.00     0.211 HD
ENDBRANCH  20  31
BRANCH  21  33
ATOM     33  O   UNL     1      24.887  33.127  16.543  1.00  0.00    -0.385 OA
ATOM     34  H   UNL     1      25.477  33.430  15.815  1.00  0.00     0.211 HD
ENDBRANCH  21  33
ENDBRANCH  15  16
ENDBRANCH  10  15
BRANCH  12  35
ATOM     35  O   UNL     1      27.951  33.314  20.209  1.00  0.00    -0.385 OA
ATOM     36  H   UNL     1      27.256  34.020  19.999  1.00  0.00     0.211 HD
ENDBRANCH  12  35
BRANCH  13  37
ATOM     37  O   UNL     1      30.386  31.896  18.118  1.00  0.00    -0.387 OA
ATOM     38  H   UNL     1      29.972  30.991  18.285  1.00  0.00     0.211 HD
ENDBRANCH  13  37
BRANCH  14  39
ATOM     39  O   UNL     1      31.953  34.027  18.478  1.00  0.00    -0.387 OA
ATOM     40  H   UNL     1      32.289  33.128  18.675  1.00  0.00     0.211 HD
ENDBRANCH  14  39
ENDBRANCH   8   9
ENDBRANCH   7   8
ENDBRANCH   1   7
BRANCH   1  41
ATOM     41  C   UNL     1      32.522  35.228  13.726  1.00  0.00     0.364 C 
ATOM     42  O   UNL     1      32.915  35.627  12.606  1.00  0.00    -0.246 OA
BRANCH  41  43
ATOM     43  O   UNL     1      33.340  34.350  14.461  1.00  0.00    -0.477 OA
ATOM     44  H   UNL     1      34.349  34.505  14.455  1.00  0.00     0.296 HD
ENDBRANCH  41  43
ENDBRANCH   1  41
BRANCH   3  45
ATOM     45  O   UNL     1      31.345  39.304  14.892  1.00  0.00    -0.391 OA
ATOM     46  H   UNL     1      32.287  39.543  15.169  1.00  0.00     0.211 HD
ENDBRANCH   3  45
BRANCH   5  47
ATOM     47  C   UNL     1      28.341  37.142  13.868  1.00  0.00     0.176 C 
BRANCH  47  48
ATOM     48  O   UNL     1      27.302  37.661  13.110  1.00  0.00    -0.388 OA
ATOM     49  H   UNL     1      26.865  38.344  13.684  1.00  0.00     0.211 HD
ENDBRANCH  47  48
BRANCH  47  50
ATOM     50  C   UNL     1      27.888  36.262  14.933  1.00  0.00     0.165 C 
BRANCH  50  51
ATOM     51  O   UNL     1      27.750  34.898  14.597  1.00  0.00    -0.388 OA
ATOM     52  H   UNL     1      27.347  34.401  15.357  1.00  0.00     0.211 HD
ENDBRANCH  50  51
BRANCH  50  53
ATOM     53  C   UNL     1      26.740  36.615  15.813  1.00  0.00     0.154 C 
BRANCH  53  54
ATOM     54  N   UNL     1      25.575  35.789  15.641  1.00  0.00    -0.319 N 
ATOM     55  C   UNL     1      24.434  36.262  14.929  1.00  0.00     0.407 C 
ATOM     56  H   UNL     1      25.550  34.823  16.042  1.00  0.00     0.167 HD
ATOM     57  O   UNL     1      24.463  37.414  14.432  1.00  0.00    -0.225 OA
BRANCH  55  58
ATOM     58  O   UNL     1      23.323  35.456  14.801  1.00  0.00    -0.443 OA
BRANCH  58  59
ATOM     59  C   UNL     1      23.175  34.497  13.810  1.00  0.00     0.294 C 
BRANCH  59  60
ATOM     60  C   UNL     1      24.314  34.491  12.890  1.00  0.00     0.121 A 
ATOM     61  C   UNL     1      24.354  35.079  11.612  1.00  0.00     0.144 A 
ATOM     62  N   UNL     1      25.513  33.948  13.047  1.00  0.00    -0.131 NA
ATOM     63  N   UNL     1      25.559  34.857  11.088  1.00  0.00    -0.220 N 
ATOM     64  N   UNL     1      26.246  34.168  11.973  1.00  0.00    -0.062 NA
BRANCH  63  65
ATOM     65  C   UNL     1      25.964  35.309   9.783  1.00  0.00     0.066 A 
ATOM     66  C   UNL     1      25.600  36.564   9.346  1.00  0.00     0.029 A 
ATOM     67  C   UNL     1      26.729  34.528   8.942  1.00  0.00     0.029 A 
ATOM     68  C   UNL     1      26.002  37.019   8.086  1.00  0.00     0.005 A 
ATOM     69  C   UNL     1      27.131  34.983   7.681  1.00  0.00     0.005 A 
ATOM     70  C   UNL     1      26.765  36.237   7.250  1.00  0.00    -0.051 A 
ATOM     71  C   UNL     1      27.205  36.729   5.905  1.00  0.00     0.044 C 
ENDBRANCH  63  65
ENDBRANCH  59  60
ENDBRANCH  58  59
ENDBRANCH  55  58
ENDBRANCH  53  54
ENDBRANCH  50  53
ENDBRANCH  47  50
ENDBRANCH   5  47
BRANCH   4  72
ATOM     72  N   UNL     1      31.110  38.210  11.738  1.00  0.00    -0.348 N 
ATOM     73  C   UNL     1      31.402  39.496  11.192  1.00  0.00     0.217 C 
ATOM     74  H   UNL     1      31.357  37.402  11.133  1.00  0.00     0.163 HD
ATOM     75  C   UNL     1      32.020  39.651   9.839  1.00  0.00     0.114 C 
ATOM     76  O   UNL     1      31.103  40.472  11.925  1.00  0.00    -0.275 OA
ENDBRANCH   4  72
TORSDOF 30
BEGIN_RES LYS A 131
REMARK  4 active torsions:
REMARK  status: ('A' for Active; 'I' for Inactive)
REMARK    1  A    between atoms: CA   and  CB  
REMARK    2  A    between atoms: CB   and  CG  
REMARK    3  A    between atoms: CG   and  CD  
REMARK    4  A    between atoms: CD   and  CE  
ROOT
ATOM      1  CA  LYS A 131      29.867  25.555  16.977  1.00 20.52     0.186 C 
ENDROOT
BRANCH   1   2
ATOM      2  CB  LYS A 131      28.345  25.722  17.026  1.00 20.94     0.034 C 
BRANCH   2   3
ATOM      3  CG  LYS A 131      27.601  24.400  16.907  1.00 22.96     0.005 C 
BRANCH   3   4
ATOM      4  CD  LYS A 131      26.640  24.187  18.043  1.00 24.33     0.041 C 
BRANCH   4   5
ATOM      5  CE  LYS A 131      25.893  25.486  18.329  1.00 26.91     0.338 C 
ATOM      6  NZ  LYS A 131      25.918  25.791  19.779  1.00 27.40     0.618 N 
ENDBRANCH   4   5
ENDBRANCH   3   4
ENDBRANCH   2   3
ENDBRANCH   1   2
END_RES LYS A 131
BEGIN_RES LYS A 135
REMARK  4 active torsions:
REMARK  status: ('A' for Active; 'I' for Inactive)
REMARK    5  A    between atoms: CA   and  CB  
REMARK    6  A    between atoms: CB   and  CG  
REMARK    7  A    between atoms: CG   and  CD  
REMARK    8  A    between atoms: CD   and  CE  
ROOT
ATOM      7  CA  LYS A 135      33.193  34.663   9.290  1.00 25.02     0.186 C 
ENDROOT
BRANCH   7   8
ATOM      8  CB  LYS A 135      32.060  35.360  10.034  1.00 26.63     0.034 C 
BRANCH   8   9
ATOM      9  CG  LYS A 135      30.689  34.892   9.619  1.00 29.45     0.005 C 
BRANCH   9  10
ATOM     10  CD  LYS A 135      30.321  35.454   8.254  1.00 32.00     0.041 C 
BRANCH  10  11
ATOM     11  CE  LYS A 135      30.149  36.959   8.327  1.00 34.25     0.338 C 
ATOM     12  NZ  LYS A 135      29.191  37.339   9.403  1.00 35.99     0.618 N 
ENDBRANCH  10  11
ENDBRANCH   9  10
ENDBRANCH   8   9
ENDBRANCH   7   8
END_RES LYS A 135
