REMARK VINA RESULT:    -4.869      4.346     10.907
REMARK INTER + INTRA:         -23.860
REMARK INTER:                 -12.683
REMARK INTRA:                 -11.177
REMARK UNBOUND:               -10.737
REMARK SMILES CC(=O)N[C@@H]1[C@@H](O)C[C@](OC[C@H]2O[C@@H](O[C@H]3[C@H](O)[C@@H](O)[C@H](OCCN=[N+]=[N-])O[C@@H]3CO)[C@H](O)[C@@H](O)[C@H]2O)(C(=O)O)O[C@H]1C(O)[C@H](O)CNC(=O)OCc1cn(CCNC(=O)NCc2ccco2)nn1
REMARK SMILES IDX 43 1 42 2 9 3 8 4 41 5 6 6 5 7 10 8 11 9 12 10 14 11 13 12
REMARK SMILES IDX 32 13 34 14 36 15 15 16 16 17 29 18 28 19 21 20 17 21 19 22
REMARK SMILES IDX 30 23 31 24 22 26 23 27 24 28 25 29 26 30 27 31 18 32 20 34
REMARK SMILES IDX 33 36 35 38 37 40 38 42 39 43 40 44 7 46 4 48 2 49 1 51 3 52
REMARK SMILES IDX 44 53 45 55 46 56 47 58 48 59 49 60 50 62 51 63 52 64 53 65
REMARK SMILES IDX 54 66 69 67 55 68 68 69 56 70 57 71 58 72 59 73 60 75 61 76
REMARK SMILES IDX 62 78 63 79 64 80 67 81 65 82 66 83
REMARK H PARENT 31 25 18 33 20 35 33 37 35 39 37 41 40 45 7 47 4 50 44 54
REMARK H PARENT 46 57 48 61 58 74 61 77
REMARK Flexibility Score: inf
ROOT
ATOM      1  C   UNL     1      30.110  32.531  16.228  1.00  0.00     0.176 C 
ENDROOT
BRANCH   1   2
ATOM      2  C   UNL     1      29.937  31.217  16.921  1.00  0.00     0.178 C 
ATOM      3  C   UNL     1      27.694  30.514  16.566  1.00  0.00     0.272 C 
ATOM      4  C   UNL     1      27.428  31.533  17.722  1.00  0.00     0.113 C 
ATOM      5  O   UNL     1      29.018  30.399  16.339  1.00  0.00    -0.332 OA
ATOM      6  C   UNL     1      28.406  31.416  18.822  1.00  0.00     0.145 C 
ATOM      7  C   UNL     1      29.849  31.268  18.402  1.00  0.00     0.142 C 
BRANCH   3   8
ATOM      8  O   UNL     1      27.115  31.118  15.471  1.00  0.00    -0.338 OA
BRANCH   8   9
ATOM      9  C   UNL     1      26.617  32.349  15.547  1.00  0.00     0.199 C 
BRANCH   9  10
ATOM     10  C   UNL     1      26.733  33.409  14.563  1.00  0.00     0.179 C 
ATOM     11  C   UNL     1      25.891  34.546  12.758  1.00  0.00     0.282 C 
ATOM     12  O   UNL     1      25.596  33.705  13.832  1.00  0.00    -0.341 OA
ATOM     13  C   UNL     1      27.142  35.332  12.897  1.00  0.00     0.202 C 
ATOM     14  C   UNL     1      27.532  35.706  14.298  1.00  0.00     0.179 C 
ATOM     15  C   UNL     1      27.056  34.714  15.317  1.00  0.00     0.177 C 
BRANCH  11  16
ATOM     16  O   UNL     1      24.842  35.399  12.457  1.00  0.00    -0.341 OA
BRANCH  16  17
ATOM     17  C   UNL     1      25.142  36.275  11.395  1.00  0.00     0.184 C 
ATOM     18  C   UNL     1      24.319  37.515  11.593  1.00  0.00     0.178 C 
ATOM     19  O   UNL     1      23.924  38.086  10.385  1.00  0.00    -0.341 OA
ATOM     20  C   UNL     1      23.037  37.192   9.798  1.00  0.00     0.281 C 
ATOM     21  C   UNL     1      24.899  35.540  10.119  1.00  0.00     0.180 C 
ATOM     22  C   UNL     1      23.793  36.024   9.260  1.00  0.00     0.202 C 
BRANCH  18  23
ATOM     23  C   UNL     1      25.196  38.558  12.286  1.00  0.00     0.191 C 
BRANCH  23  24
ATOM     24  O   UNL     1      26.516  38.355  11.827  1.00  0.00    -0.394 OA
ATOM     25  H   UNL     1      26.444  37.573  11.205  1.00  0.00     0.210 HD
ENDBRANCH  23  24
ENDBRANCH  18  23
BRANCH  20  26
ATOM     26  O   UNL     1      22.469  37.863   8.712  1.00  0.00    -0.350 OA
BRANCH  26  27
ATOM     27  C   UNL     1      21.892  39.072   9.102  1.00  0.00     0.169 C 
BRANCH  27  28
ATOM     28  C   UNL     1      22.272  40.098   8.032  1.00  0.00     0.119 C 
BRANCH  28  29
ATOM     29  N   UNL     1      21.477  41.284   8.298  1.00  0.00    -0.092 NA
ATOM     30  N   UNL     1      20.279  41.332   7.983  1.00  0.00     0.001 N 
ATOM     31  N   UNL     1      19.041  41.239   7.946  1.00  0.00    -0.003 NA
ENDBRANCH  28  29
ENDBRANCH  27  28
ENDBRANCH  26  27
ENDBRANCH  20  26
BRANCH  21  32
ATOM     32  O   UNL     1      26.109  35.547   9.398  1.00  0.00    -0.387 OA
ATOM     33  H   UNL     1      26.712  34.835   9.680  1.00  0.00     0.211 HD
ENDBRANCH  21  32
BRANCH  22  34
ATOM     34  O   UNL     1      22.847  34.975   9.125  1.00  0.00    -0.385 OA
ATOM     35  H   UNL     1      22.721  34.620  10.057  1.00  0.00     0.211 HD
ENDBRANCH  22  34
ENDBRANCH  16  17
ENDBRANCH  11  16
BRANCH  13  36
ATOM     36  O   UNL     1      28.215  34.781  12.183  1.00  0.00    -0.385 OA
ATOM     37  H   UNL     1      28.970  35.407  12.111  1.00  0.00     0.211 HD
ENDBRANCH  13  36
BRANCH  14  38
ATOM     38  O   UNL     1      27.106  36.999  14.630  1.00  0.00    -0.387 OA
ATOM     39  H   UNL     1      26.334  36.867  15.248  1.00  0.00     0.211 HD
ENDBRANCH  14  38
BRANCH  15  40
ATOM     40  O   UNL     1      25.978  35.142  16.056  1.00  0.00    -0.387 OA
ATOM     41  H   UNL     1      26.310  35.697  16.785  1.00  0.00     0.211 HD
ENDBRANCH  15  40
ENDBRANCH   9  10
ENDBRANCH   8   9
ENDBRANCH   3   8
BRANCH   3  42
ATOM     42  C   UNL     1      26.954  29.327  16.987  1.00  0.00     0.364 C 
ATOM     43  O   UNL     1      25.725  29.245  16.847  1.00  0.00    -0.246 OA
BRANCH  42  44
ATOM     44  O   UNL     1      27.560  28.210  17.571  1.00  0.00    -0.477 OA
ATOM     45  H   UNL     1      27.300  27.947  18.523  1.00  0.00     0.296 HD
ENDBRANCH  42  44
ENDBRANCH   3  42
BRANCH   6  46
ATOM     46  O   UNL     1      28.288  32.572  19.616  1.00  0.00    -0.391 OA
ATOM     47  H   UNL     1      27.491  33.083  19.325  1.00  0.00     0.211 HD
ENDBRANCH   6  46
BRANCH   7  48
ATOM     48  N   UNL     1      30.388  30.054  19.016  1.00  0.00    -0.348 N 
ATOM     49  C   UNL     1      30.993  30.083  20.280  1.00  0.00     0.217 C 
ATOM     50  H   UNL     1      30.308  29.161  18.484  1.00  0.00     0.163 HD
ATOM     51  C   UNL     1      31.560  28.872  20.947  1.00  0.00     0.114 C 
ATOM     52  O   UNL     1      31.056  31.207  20.872  1.00  0.00    -0.275 OA
ENDBRANCH   7  48
ENDBRANCH   1   2
BRANCH   1  53
ATOM     53  O   UNL     1      30.143  32.276  14.811  1.00  0.00    -0.388 OA
ATOM     54  H   UNL     1      31.077  32.348  14.560  1.00  0.00     0.211 HD
ENDBRANCH   1  53
BRANCH   1  55
ATOM     55  C   UNL     1      31.410  33.243  16.461  1.00  0.00     0.165 C 
BRANCH  55  56
ATOM     56  O   UNL     1      31.350  34.444  17.127  1.00  0.00    -0.388 OA
ATOM     57  H   UNL     1      30.919  35.167  16.605  1.00  0.00     0.211 HD
ENDBRANCH  55  56
BRANCH  55  58
ATOM     58  C   UNL     1      32.203  33.389  15.159  1.00  0.00     0.154 C 
BRANCH  58  59
ATOM     59  N   UNL     1      32.441  34.779  14.852  1.00  0.00    -0.319 N 
ATOM     60  C   UNL     1      31.725  35.488  13.860  1.00  0.00     0.407 C 
ATOM     61  H   UNL     1      33.173  35.283  15.389  1.00  0.00     0.167 HD
ATOM     62  O   UNL     1      30.831  34.894  13.202  1.00  0.00    -0.225 OA
BRANCH  60  63
ATOM     63  O   UNL     1      31.977  36.828  13.585  1.00  0.00    -0.443 OA
BRANCH  63  64
ATOM     64  C   UNL     1      31.684  37.327  12.283  1.00  0.00     0.294 C 
BRANCH  64  65
ATOM     65  C   UNL     1      30.615  38.352  12.488  1.00  0.00     0.120 A 
ATOM     66  C   UNL     1      30.643  39.632  12.004  1.00  0.00     0.138 A 
ATOM     67  N   UNL     1      29.455  38.192  13.172  1.00  0.00    -0.132 NA
ATOM     68  N   UNL     1      29.518  40.206  12.403  1.00  0.00    -0.250 N 
ATOM     69  N   UNL     1      28.803  39.330  13.109  1.00  0.00    -0.067 NA
BRANCH  68  70
ATOM     70  C   UNL     1      29.140  41.589  12.114  1.00  0.00     0.167 C 
BRANCH  70  71
ATOM     71  C   UNL     1      28.819  41.661  10.620  1.00  0.00     0.141 C 
BRANCH  71  72
ATOM     72  N   UNL     1      27.883  40.611  10.341  1.00  0.00    -0.336 N 
ATOM     73  C   UNL     1      27.306  40.388   9.075  1.00  0.00     0.315 C 
ATOM     74  H   UNL     1      27.626  39.985  11.151  1.00  0.00     0.165 HD
ATOM     75  O   UNL     1      27.573  41.125   8.101  1.00  0.00    -0.249 OA
ATOM     76  N   UNL     1      26.400  39.286   8.915  1.00  0.00    -0.331 N 
ATOM     77  H   UNL     1      26.205  38.692   9.761  1.00  0.00     0.165 HD
BRANCH  76  78
ATOM     78  C   UNL     1      25.794  39.023   7.639  1.00  0.00     0.193 C 
BRANCH  78  79
ATOM     79  C   UNL     1      26.616  38.056   6.865  1.00  0.00     0.122 A 
ATOM     80  C   UNL     1      27.548  38.416   5.899  1.00  0.00     0.047 A 
ATOM     81  O   UNL     1      26.599  36.769   6.960  1.00  0.00    -0.467 OA
ATOM     82  C   UNL     1      28.077  37.248   5.434  1.00  0.00     0.042 A 
ATOM     83  C   UNL     1      27.460  36.237   6.120  1.00  0.00     0.195 A 
ENDBRANCH  78  79
ENDBRANCH  76  78
ENDBRANCH  71  72
ENDBRANCH  70  71
ENDBRANCH  68  70
ENDBRANCH  64  65
ENDBRANCH  63  64
ENDBRANCH  60  63
ENDBRANCH  58  59
ENDBRANCH  55  58
ENDBRANCH   1  55
TORSDOF 34
BEGIN_RES LYS A 131
REMARK  4 active torsions:
REMARK  status: ('A' for Active; 'I' for Inactive)
REMARK    1  A    between atoms: CA   and  CB  
REMARK    2  A    between atoms: CB   and  CG  
REMARK    3  A    between atoms: CG   and  CD  
REMARK    4  A    between atoms: CD   and  CE  
ROOT
ATOM      1  CA  LYS A 131      29.867  25.555  16.977  1.00 20.52     0.186 C 
ENDROOT
BRANCH   1   2
ATOM      2  CB  LYS A 131      28.345  25.722  17.026  1.00 20.94     0.034 C 
BRANCH   2   3
ATOM      3  CG  LYS A 131      27.599  24.476  16.575  1.00 22.96     0.005 C 
BRANCH   3   4
ATOM      4  CD  LYS A 131      26.979  23.738  17.729  1.00 24.33     0.041 C 
BRANCH   4   5
ATOM      5  CE  LYS A 131      26.101  24.692  18.531  1.00 26.91     0.338 C 
ATOM      6  NZ  LYS A 131      25.536  24.005  19.717  1.00 27.40     0.618 N 
ENDBRANCH   4   5
ENDBRANCH   3   4
ENDBRANCH   2   3
ENDBRANCH   1   2
END_RES LYS A 131
BEGIN_RES LYS A 135
REMARK  4 active torsions:
REMARK  status: ('A' for Active; 'I' for Inactive)
REMARK    5  A    between atoms: CA   and  CB  
REMARK    6  A    between atoms: CB   and  CG  
REMARK    7  A    between atoms: CG   and  CD  
REMARK    8  A    between atoms: CD   and  CE  
ROOT
ATOM      7  CA  LYS A 135      33.193  34.663   9.290  1.00 25.02     0.186 C 
ENDROOT
BRANCH   7   8
ATOM      8  CB  LYS A 135      32.060  35.360  10.034  1.00 26.63     0.034 C 
BRANCH   8   9
ATOM      9  CG  LYS A 135      30.698  34.796   9.723  1.00 29.45     0.005 C 
BRANCH   9  10
ATOM     10  CD  LYS A 135      30.135  35.420   8.455  1.00 32.00     0.041 C 
BRANCH  10  11
ATOM     11  CE  LYS A 135      29.979  36.919   8.624  1.00 34.25     0.338 C 
ATOM     12  NZ  LYS A 135      28.971  37.239   9.673  1.00 35.99     0.618 N 
ENDBRANCH  10  11
ENDBRANCH   9  10
ENDBRANCH   8   9
ENDBRANCH   7   8
END_RES LYS A 135
