REMARK VINA RESULT:    -4.353      3.858      9.251
REMARK INTER + INTRA:         -21.659
REMARK INTER:                 -11.159
REMARK INTRA:                 -10.500
REMARK UNBOUND:               -10.943
REMARK SMILES CC(=O)N[C@@H]1[C@@H](O)C[C@](OC[C@H]2O[C@@H](O[C@H]3[C@H](O)[C@@H](O)[C@H](OCCN=[N+]=[N-])O[C@@H]3CO)[C@H](O)[C@@H](O)[C@H]2O)(C(=O)O)O[C@H]1C(O)[C@H](O)CNC(=O)OCc1cn([C@@H]2C[C@H]3CC[C@@H](C2)N3C)nn1
REMARK SMILES IDX 9 1 8 2 6 3 5 4 42 5 41 6 10 7 11 8 12 9 14 10 13 11 32 12
REMARK SMILES IDX 34 13 36 14 15 15 16 16 29 17 28 18 21 19 17 20 19 21 30 22
REMARK SMILES IDX 31 23 22 25 23 26 24 27 25 28 26 29 27 30 18 31 20 33 33 35
REMARK SMILES IDX 35 37 37 39 38 41 39 42 40 43 7 45 43 47 44 48 45 50 46 51
REMARK SMILES IDX 47 53 48 54 49 55 50 57 51 58 52 59 53 60 54 61 66 62 55 63
REMARK SMILES IDX 65 64 56 65 62 66 57 67 61 68 58 69 63 70 60 71 59 72 64 73
REMARK SMILES IDX 4 74 2 75 1 77 3 78
REMARK H PARENT 31 24 18 32 20 34 33 36 35 38 37 40 40 44 7 46 44 49 46 52
REMARK H PARENT 48 56 4 76
REMARK Flexibility Score: inf
ROOT
ATOM      1  C   UNL     1      20.529  37.461   9.048  1.00  0.00     0.272 C 
ATOM      2  C   UNL     1      19.187  37.169   9.587  1.00  0.00     0.113 C 
ATOM      3  C   UNL     1      19.257  36.516  10.960  1.00  0.00     0.145 C 
ATOM      4  C   UNL     1      20.179  35.277  10.886  1.00  0.00     0.142 C 
ATOM      5  C   UNL     1      21.387  35.549  10.081  1.00  0.00     0.178 C 
ATOM      6  O   UNL     1      21.509  36.914   9.921  1.00  0.00    -0.332 OA
ENDROOT
BRANCH   1   7
ATOM      7  O   UNL     1      20.910  38.710   8.709  1.00  0.00    -0.338 OA
BRANCH   7   8
ATOM      8  C   UNL     1      21.468  39.652   9.397  1.00  0.00     0.199 C 
BRANCH   8   9
ATOM      9  C   UNL     1      22.464  40.550   8.679  1.00  0.00     0.179 C 
ATOM     10  C   UNL     1      24.689  40.683   9.427  1.00  0.00     0.282 C 
ATOM     11  O   UNL     1      23.380  41.001   9.641  1.00  0.00    -0.341 OA
ATOM     12  C   UNL     1      25.214  41.116   8.100  1.00  0.00     0.202 C 
ATOM     13  C   UNL     1      24.311  40.588   7.041  1.00  0.00     0.179 C 
ATOM     14  C   UNL     1      23.141  39.827   7.558  1.00  0.00     0.177 C 
BRANCH  10  15
ATOM     15  O   UNL     1      25.007  39.378   9.764  1.00  0.00    -0.341 OA
BRANCH  15  16
ATOM     16  C   UNL     1      26.354  39.152   9.961  1.00  0.00     0.184 C 
ATOM     17  C   UNL     1      26.706  37.723   9.837  1.00  0.00     0.178 C 
ATOM     18  O   UNL     1      28.089  37.514   9.872  1.00  0.00    -0.341 OA
ATOM     19  C   UNL     1      28.801  38.617  10.345  1.00  0.00     0.281 C 
ATOM     20  C   UNL     1      26.697  39.503  11.449  1.00  0.00     0.180 C 
ATOM     21  C   UNL     1      28.171  39.280  11.553  1.00  0.00     0.202 C 
BRANCH  17  22
ATOM     22  C   UNL     1      26.110  36.963   8.705  1.00  0.00     0.191 C 
BRANCH  22  23
ATOM     23  O   UNL     1      26.237  37.677   7.516  1.00  0.00    -0.394 OA
ATOM     24  H   UNL     1      25.648  38.470   7.553  1.00  0.00     0.210 HD
ENDBRANCH  22  23
ENDBRANCH  17  22
BRANCH  19  25
ATOM     25  O   UNL     1      29.157  39.478   9.344  1.00  0.00    -0.350 OA
BRANCH  25  26
ATOM     26  C   UNL     1      30.072  39.104   8.425  1.00  0.00     0.169 C 
BRANCH  26  27
ATOM     27  C   UNL     1      29.561  38.939   7.041  1.00  0.00     0.119 C 
BRANCH  27  28
ATOM     28  N   UNL     1      28.285  39.511   6.781  1.00  0.00    -0.092 NA
ATOM     29  N   UNL     1      28.115  40.548   6.133  1.00  0.00     0.001 N 
ATOM     30  N   UNL     1      27.709  41.699   5.941  1.00  0.00    -0.003 NA
ENDBRANCH  27  28
ENDBRANCH  26  27
ENDBRANCH  25  26
ENDBRANCH  19  25
BRANCH  20  31
ATOM     31  O   UNL     1      26.399  40.812  11.728  1.00  0.00    -0.387 OA
ATOM     32  H   UNL     1      25.663  40.869  12.394  1.00  0.00     0.211 HD
ENDBRANCH  20  31
BRANCH  21  33
ATOM     33  O   UNL     1      28.475  38.517  12.685  1.00  0.00    -0.385 OA
ATOM     34  H   UNL     1      28.797  37.651  12.394  1.00  0.00     0.211 HD
ENDBRANCH  21  33
ENDBRANCH  15  16
ENDBRANCH  10  15
BRANCH  12  35
ATOM     35  O   UNL     1      25.238  42.525   8.048  1.00  0.00    -0.385 OA
ATOM     36  H   UNL     1      24.487  42.853   8.610  1.00  0.00     0.211 HD
ENDBRANCH  12  35
BRANCH  13  37
ATOM     37  O   UNL     1      25.020  39.752   6.145  1.00  0.00    -0.387 OA
ATOM     38  H   UNL     1      25.758  39.296   6.617  1.00  0.00     0.211 HD
ENDBRANCH  13  37
BRANCH  14  39
ATOM     39  O   UNL     1      23.523  38.517   7.876  1.00  0.00    -0.387 OA
ATOM     40  H   UNL     1      24.517  38.548   7.994  1.00  0.00     0.211 HD
ENDBRANCH  14  39
ENDBRANCH   8   9
ENDBRANCH   7   8
ENDBRANCH   1   7
BRANCH   1  41
ATOM     41  C   UNL     1      20.667  36.684   7.754  1.00  0.00     0.364 C 
ATOM     42  O   UNL     1      21.734  36.504   7.145  1.00  0.00    -0.246 OA
BRANCH  41  43
ATOM     43  O   UNL     1      19.533  36.111   7.171  1.00  0.00    -0.477 OA
ATOM     44  H   UNL     1      19.629  35.306   6.541  1.00  0.00     0.296 HD
ENDBRANCH  41  43
ENDBRANCH   1  41
BRANCH   3  45
ATOM     45  O   UNL     1      19.619  37.370  11.977  1.00  0.00    -0.391 OA
ATOM     46  H   UNL     1      20.541  37.114  12.285  1.00  0.00     0.211 HD
ENDBRANCH   3  45
BRANCH   5  47
ATOM     47  C   UNL     1      22.690  35.225  10.904  1.00  0.00     0.176 C 
BRANCH  47  48
ATOM     48  O   UNL     1      22.270  34.089  11.722  1.00  0.00    -0.388 OA
ATOM     49  H   UNL     1      22.677  33.289  11.268  1.00  0.00     0.211 HD
ENDBRANCH  47  48
BRANCH  47  50
ATOM     50  C   UNL     1      22.981  36.261  11.938  1.00  0.00     0.165 C 
BRANCH  50  51
ATOM     51  O   UNL     1      23.731  37.283  11.404  1.00  0.00    -0.388 OA
ATOM     52  H   UNL     1      23.833  38.073  11.958  1.00  0.00     0.211 HD
ENDBRANCH  50  51
BRANCH  50  53
ATOM     53  C   UNL     1      23.467  35.756  13.244  1.00  0.00     0.154 C 
BRANCH  53  54
ATOM     54  N   UNL     1      24.610  34.862  13.059  1.00  0.00    -0.319 N 
ATOM     55  C   UNL     1      25.922  35.347  13.095  1.00  0.00     0.407 C 
ATOM     56  H   UNL     1      24.418  33.861  12.904  1.00  0.00     0.167 HD
ATOM     57  O   UNL     1      26.105  36.585  13.291  1.00  0.00    -0.225 OA
BRANCH  55  58
ATOM     58  O   UNL     1      27.036  34.533  12.925  1.00  0.00    -0.443 OA
BRANCH  58  59
ATOM     59  C   UNL     1      28.069  34.895  12.017  1.00  0.00     0.294 C 
BRANCH  59  60
ATOM     60  C   UNL     1      29.353  35.070  12.763  1.00  0.00     0.120 A 
ATOM     61  C   UNL     1      30.017  34.125  13.517  1.00  0.00     0.138 A 
ATOM     62  N   UNL     1      30.092  36.172  12.841  1.00  0.00    -0.132 NA
ATOM     63  N   UNL     1      31.130  34.667  14.030  1.00  0.00    -0.249 N 
ATOM     64  N   UNL     1      31.141  35.939  13.588  1.00  0.00    -0.067 NA
BRANCH  63  65
ATOM     65  C   UNL     1      32.149  34.096  14.877  1.00  0.00     0.112 C 
ATOM     66  C   UNL     1      32.704  35.057  15.887  1.00  0.00     0.046 C 
ATOM     67  C   UNL     1      31.506  32.954  15.677  1.00  0.00     0.046 C 
ATOM     68  C   UNL     1      31.682  35.365  16.948  1.00  0.00     0.058 C 
ATOM     69  C   UNL     1      30.424  33.511  16.581  1.00  0.00     0.058 C 
ATOM     70  N   UNL     1      30.385  34.955  16.426  1.00  0.00    -0.300 NA
ATOM     71  C   UNL     1      31.853  34.503  18.171  1.00  0.00     0.021 C 
ATOM     72  C   UNL     1      30.854  33.389  18.030  1.00  0.00     0.021 C 
ATOM     73  C   UNL     1      29.372  35.566  17.231  1.00  0.00     0.105 C 
ENDBRANCH  63  65
ENDBRANCH  59  60
ENDBRANCH  58  59
ENDBRANCH  55  58
ENDBRANCH  53  54
ENDBRANCH  50  53
ENDBRANCH  47  50
ENDBRANCH   5  47
BRANCH   4  74
ATOM     74  N   UNL     1      19.348  34.157  10.426  1.00  0.00    -0.348 N 
ATOM     75  C   UNL     1      18.975  33.095  11.334  1.00  0.00     0.217 C 
ATOM     76  H   UNL     1      18.985  34.053   9.460  1.00  0.00     0.163 HD
ATOM     77  C   UNL     1      18.150  31.945  10.955  1.00  0.00     0.114 C 
ATOM     78  O   UNL     1      19.398  33.194  12.506  1.00  0.00    -0.275 OA
ENDBRANCH   4  74
TORSDOF 30
BEGIN_RES LYS A 131
REMARK  4 active torsions:
REMARK  status: ('A' for Active; 'I' for Inactive)
REMARK    1  A    between atoms: CA   and  CB  
REMARK    2  A    between atoms: CB   and  CG  
REMARK    3  A    between atoms: CG   and  CD  
REMARK    4  A    between atoms: CD   and  CE  
ROOT
ATOM      1  CA  LYS A 131      29.867  25.555  16.977  1.00 20.52     0.186 C 
ENDROOT
BRANCH   1   2
ATOM      2  CB  LYS A 131      28.345  25.722  17.026  1.00 20.94     0.034 C 
BRANCH   2   3
ATOM      3  CG  LYS A 131      27.602  24.398  16.939  1.00 22.96     0.005 C 
BRANCH   3   4
ATOM      4  CD  LYS A 131      26.424  24.347  17.871  1.00 24.33     0.041 C 
BRANCH   4   5
ATOM      5  CE  LYS A 131      25.536  23.162  17.505  1.00 26.91     0.338 C 
ATOM      6  NZ  LYS A 131      24.249  23.633  16.941  1.00 27.40     0.618 N 
ENDBRANCH   4   5
ENDBRANCH   3   4
ENDBRANCH   2   3
ENDBRANCH   1   2
END_RES LYS A 131
BEGIN_RES LYS A 135
REMARK  4 active torsions:
REMARK  status: ('A' for Active; 'I' for Inactive)
REMARK    5  A    between atoms: CA   and  CB  
REMARK    6  A    between atoms: CB   and  CG  
REMARK    7  A    between atoms: CG   and  CD  
REMARK    8  A    between atoms: CD   and  CE  
ROOT
ATOM      7  CA  LYS A 135      33.193  34.663   9.290  1.00 25.02     0.186 C 
ENDROOT
BRANCH   7   8
ATOM      8  CB  LYS A 135      32.060  35.360  10.034  1.00 26.63     0.034 C 
BRANCH   8   9
ATOM      9  CG  LYS A 135      30.827  35.570   9.194  1.00 29.45     0.005 C 
BRANCH   9  10
ATOM     10  CD  LYS A 135      30.079  34.260   9.002  1.00 32.00     0.041 C 
BRANCH  10  11
ATOM     11  CE  LYS A 135      28.752  34.501   8.307  1.00 34.25     0.338 C 
ATOM     12  NZ  LYS A 135      28.932  35.319   7.076  1.00 35.99     0.618 N 
ENDBRANCH  10  11
ENDBRANCH   9  10
ENDBRANCH   8   9
ENDBRANCH   7   8
END_RES LYS A 135
