REMARK VINA RESULT:    -5.335      5.170      9.189
REMARK INTER + INTRA:         -22.541
REMARK INTER:                 -11.076
REMARK INTRA:                 -11.465
REMARK UNBOUND:                -9.408
REMARK SMILES CC(=O)N[C@@H]1[C@@H](O)C[C@](OC[C@H]2O[C@@H](O[C@H]3[C@H](O)[C@@H](O)[C@H](OCCN=[N+]=[N-])O[C@@H]3CO)[C@H](O)[C@@H](O)[C@H]2O)(C(=O)O)O[C@H]1C(O)[C@H](O)CNC(=O)OCc1cn(-c2cccc(Cl)c2)nn1
REMARK SMILES IDX 9 1 8 2 6 3 5 4 42 5 41 6 10 7 11 8 12 9 14 10 13 11 32 12
REMARK SMILES IDX 34 13 36 14 15 15 16 16 29 17 28 18 21 19 17 20 19 21 30 22
REMARK SMILES IDX 31 23 22 25 23 26 24 27 25 28 26 29 27 30 18 31 20 33 33 35
REMARK SMILES IDX 35 37 37 39 38 41 39 42 40 43 7 45 43 47 44 48 45 50 46 51
REMARK SMILES IDX 47 53 48 54 49 55 50 57 51 58 52 59 53 60 54 61 64 62 55 63
REMARK SMILES IDX 63 64 56 65 57 66 62 67 58 68 60 69 59 70 61 71 4 72 2 73
REMARK SMILES IDX 1 75 3 76
REMARK H PARENT 31 24 18 32 20 34 33 36 35 38 37 40 40 44 7 46 44 49 46 52
REMARK H PARENT 48 56 4 74
REMARK Flexibility Score: inf
ROOT
ATOM      1  C   UNL     1      29.966  28.418  21.140  1.00  0.00     0.272 C 
ATOM      2  C   UNL     1      30.323  27.044  21.496  1.00  0.00     0.113 C 
ATOM      3  C   UNL     1      30.390  26.667  22.938  1.00  0.00     0.145 C 
ATOM      4  C   UNL     1      30.125  27.821  23.872  1.00  0.00     0.142 C 
ATOM      5  C   UNL     1      30.743  29.043  23.173  1.00  0.00     0.178 C 
ATOM      6  O   UNL     1      29.865  29.348  22.177  1.00  0.00    -0.332 OA
ENDROOT
BRANCH   1   7
ATOM      7  O   UNL     1      28.905  28.661  20.323  1.00  0.00    -0.338 OA
BRANCH   7   8
ATOM      8  C   UNL     1      27.770  29.239  20.712  1.00  0.00     0.199 C 
BRANCH   8   9
ATOM      9  C   UNL     1      26.911  29.958  19.725  1.00  0.00     0.179 C 
ATOM     10  C   UNL     1      26.909  31.748  18.267  1.00  0.00     0.282 C 
ATOM     11  O   UNL     1      27.707  30.935  19.091  1.00  0.00    -0.341 OA
ATOM     12  C   UNL     1      26.283  30.902  17.201  1.00  0.00     0.202 C 
ATOM     13  C   UNL     1      25.608  29.643  17.644  1.00  0.00     0.179 C 
ATOM     14  C   UNL     1      26.514  28.940  18.631  1.00  0.00     0.177 C 
BRANCH  10  15
ATOM     15  O   UNL     1      27.795  32.591  17.649  1.00  0.00    -0.341 OA
BRANCH  15  16
ATOM     16  C   UNL     1      29.151  32.423  17.925  1.00  0.00     0.184 C 
ATOM     17  C   UNL     1      29.788  33.546  18.600  1.00  0.00     0.178 C 
ATOM     18  O   UNL     1      30.994  33.926  18.061  1.00  0.00    -0.341 OA
ATOM     19  C   UNL     1      31.087  33.799  16.678  1.00  0.00     0.281 C 
ATOM     20  C   UNL     1      29.743  31.828  16.695  1.00  0.00     0.180 C 
ATOM     21  C   UNL     1      31.147  32.291  16.458  1.00  0.00     0.202 C 
BRANCH  17  22
ATOM     22  C   UNL     1      30.110  33.193  20.062  1.00  0.00     0.191 C 
BRANCH  22  23
ATOM     23  O   UNL     1      31.514  33.007  20.137  1.00  0.00    -0.394 OA
ATOM     24  H   UNL     1      31.927  33.840  20.429  1.00  0.00     0.210 HD
ENDBRANCH  22  23
ENDBRANCH  17  22
BRANCH  19  25
ATOM     25  O   UNL     1      32.252  34.380  16.267  1.00  0.00    -0.350 OA
BRANCH  25  26
ATOM     26  C   UNL     1      32.137  35.538  15.541  1.00  0.00     0.169 C 
BRANCH  26  27
ATOM     27  C   UNL     1      32.587  35.445  14.107  1.00  0.00     0.119 C 
BRANCH  27  28
ATOM     28  N   UNL     1      31.395  35.645  13.270  1.00  0.00    -0.092 NA
ATOM     29  N   UNL     1      30.570  34.707  13.255  1.00  0.00     0.001 N 
ATOM     30  N   UNL     1      29.546  34.044  13.500  1.00  0.00    -0.003 NA
ENDBRANCH  27  28
ENDBRANCH  26  27
ENDBRANCH  25  26
ENDBRANCH  19  25
BRANCH  20  31
ATOM     31  O   UNL     1      29.673  30.422  16.748  1.00  0.00    -0.387 OA
ATOM     32  H   UNL     1      28.845  30.178  16.264  1.00  0.00     0.211 HD
ENDBRANCH  20  31
BRANCH  21  33
ATOM     33  O   UNL     1      31.470  32.028  15.122  1.00  0.00    -0.385 OA
ATOM     34  H   UNL     1      30.909  31.336  14.738  1.00  0.00     0.211 HD
ENDBRANCH  21  33
ENDBRANCH  15  16
ENDBRANCH  10  15
BRANCH  12  35
ATOM     35  O   UNL     1      25.309  31.617  16.487  1.00  0.00    -0.385 OA
ATOM     36  H   UNL     1      24.603  31.963  17.078  1.00  0.00     0.211 HD
ENDBRANCH  12  35
BRANCH  13  37
ATOM     37  O   UNL     1      25.472  28.804  16.537  1.00  0.00    -0.387 OA
ATOM     38  H   UNL     1      26.236  28.805  15.936  1.00  0.00     0.211 HD
ENDBRANCH  13  37
BRANCH  14  39
ATOM     39  O   UNL     1      27.728  28.717  17.940  1.00  0.00    -0.387 OA
ATOM     40  H   UNL     1      27.595  28.392  17.037  1.00  0.00     0.211 HD
ENDBRANCH  14  39
ENDBRANCH   8   9
ENDBRANCH   7   8
ENDBRANCH   1   7
BRANCH   1  41
ATOM     41  C   UNL     1      31.155  28.963  20.335  1.00  0.00     0.364 C 
ATOM     42  O   UNL     1      31.164  30.100  19.830  1.00  0.00    -0.246 OA
BRANCH  41  43
ATOM     43  O   UNL     1      32.281  28.150  20.159  1.00  0.00    -0.477 OA
ATOM     44  H   UNL     1      32.386  27.336  20.777  1.00  0.00     0.296 HD
ENDBRANCH  41  43
ENDBRANCH   1  41
BRANCH   3  45
ATOM     45  O   UNL     1      29.555  25.620  23.283  1.00  0.00    -0.391 OA
ATOM     46  H   UNL     1      29.889  24.751  22.960  1.00  0.00     0.211 HD
ENDBRANCH   3  45
BRANCH   5  47
ATOM     47  C   UNL     1      31.018  30.165  24.160  1.00  0.00     0.176 C 
BRANCH  47  48
ATOM     48  O   UNL     1      32.314  29.861  24.654  1.00  0.00    -0.388 OA
ATOM     49  H   UNL     1      32.705  30.721  24.991  1.00  0.00     0.211 HD
ENDBRANCH  47  48
BRANCH  47  50
ATOM     50  C   UNL     1      31.168  31.462  23.394  1.00  0.00     0.165 C 
BRANCH  50  51
ATOM     51  O   UNL     1      31.990  31.265  22.297  1.00  0.00    -0.388 OA
ATOM     52  H   UNL     1      32.862  30.873  22.525  1.00  0.00     0.211 HD
ENDBRANCH  50  51
BRANCH  50  53
ATOM     53  C   UNL     1      31.856  32.492  24.296  1.00  0.00     0.154 C 
BRANCH  53  54
ATOM     54  N   UNL     1      33.241  32.666  23.955  1.00  0.00    -0.319 N 
ATOM     55  C   UNL     1      34.336  32.411  24.793  1.00  0.00     0.407 C 
ATOM     56  H   UNL     1      33.463  33.024  22.972  1.00  0.00     0.167 HD
ATOM     57  O   UNL     1      34.150  31.967  25.951  1.00  0.00    -0.225 OA
BRANCH  55  58
ATOM     58  O   UNL     1      35.675  32.641  24.367  1.00  0.00    -0.443 OA
BRANCH  58  59
ATOM     59  C   UNL     1      36.244  31.814  23.388  1.00  0.00     0.294 C 
BRANCH  59  60
ATOM     60  C   UNL     1      35.558  30.505  23.227  1.00  0.00     0.121 A 
ATOM     61  C   UNL     1      35.818  29.320  23.922  1.00  0.00     0.144 A 
ATOM     62  N   UNL     1      34.567  30.167  22.386  1.00  0.00    -0.131 NA
ATOM     63  N   UNL     1      34.998  28.348  23.484  1.00  0.00    -0.220 N 
ATOM     64  N   UNL     1      34.245  28.873  22.555  1.00  0.00    -0.062 NA
BRANCH  63  65
ATOM     65  C   UNL     1      35.029  27.021  23.993  1.00  0.00     0.068 A 
ATOM     66  C   UNL     1      35.854  26.034  23.504  1.00  0.00     0.028 A 
ATOM     67  C   UNL     1      34.186  26.650  25.054  1.00  0.00     0.049 A 
ATOM     68  C   UNL     1      35.847  24.748  24.037  1.00  0.00     0.004 A 
ATOM     69  C   UNL     1      34.181  25.380  25.578  1.00  0.00     0.043 A 
ATOM     70  C   UNL     1      35.012  24.404  25.078  1.00  0.00     0.020 A 
ATOM     71  Cl  UNL     1      33.120  24.934  26.907  1.00  0.00    -0.084 Cl
ENDBRANCH  63  65
ENDBRANCH  59  60
ENDBRANCH  58  59
ENDBRANCH  55  58
ENDBRANCH  53  54
ENDBRANCH  50  53
ENDBRANCH  47  50
ENDBRANCH   5  47
BRANCH   4  72
ATOM     72  N   UNL     1      30.626  27.606  25.189  1.00  0.00    -0.348 N 
ATOM     73  C   UNL     1      29.770  27.150  26.253  1.00  0.00     0.217 C 
ATOM     74  H   UNL     1      31.621  27.752  25.484  1.00  0.00     0.163 HD
ATOM     75  C   UNL     1      30.262  26.920  27.619  1.00  0.00     0.114 C 
ATOM     76  O   UNL     1      28.566  26.945  25.992  1.00  0.00    -0.275 OA
ENDBRANCH   4  72
TORSDOF 30
BEGIN_RES LYS A 131
REMARK  4 active torsions:
REMARK  status: ('A' for Active; 'I' for Inactive)
REMARK    1  A    between atoms: CA   and  CB  
REMARK    2  A    between atoms: CB   and  CG  
REMARK    3  A    between atoms: CG   and  CD  
REMARK    4  A    between atoms: CD   and  CE  
ROOT
ATOM      1  CA  LYS A 131      29.867  25.555  16.977  1.00 20.52     0.186 C 
ENDROOT
BRANCH   1   2
ATOM      2  CB  LYS A 131      28.345  25.722  17.026  1.00 20.94     0.034 C 
BRANCH   2   3
ATOM      3  CG  LYS A 131      27.601  24.402  16.897  1.00 22.96     0.005 C 
BRANCH   3   4
ATOM      4  CD  LYS A 131      26.616  24.195  18.014  1.00 24.33     0.041 C 
BRANCH   4   5
ATOM      5  CE  LYS A 131      25.638  25.364  18.053  1.00 26.91     0.338 C 
ATOM      6  NZ  LYS A 131      24.584  25.126  19.067  1.00 27.40     0.618 N 
ENDBRANCH   4   5
ENDBRANCH   3   4
ENDBRANCH   2   3
ENDBRANCH   1   2
END_RES LYS A 131
BEGIN_RES LYS A 135
REMARK  4 active torsions:
REMARK  status: ('A' for Active; 'I' for Inactive)
REMARK    5  A    between atoms: CA   and  CB  
REMARK    6  A    between atoms: CB   and  CG  
REMARK    7  A    between atoms: CG   and  CD  
REMARK    8  A    between atoms: CD   and  CE  
ROOT
ATOM      7  CA  LYS A 135      33.193  34.663   9.290  1.00 25.02     0.186 C 
ENDROOT
BRANCH   7   8
ATOM      8  CB  LYS A 135      32.060  35.360  10.034  1.00 26.63     0.034 C 
BRANCH   8   9
ATOM      9  CG  LYS A 135      30.703  34.765   9.759  1.00 29.45     0.005 C 
BRANCH   9  10
ATOM     10  CD  LYS A 135      30.521  34.510   8.271  1.00 32.00     0.041 C 
BRANCH  10  11
ATOM     11  CE  LYS A 135      29.122  34.897   7.831  1.00 34.25     0.338 C 
ATOM     12  NZ  LYS A 135      28.995  36.373   7.681  1.00 35.99     0.618 N 
ENDBRANCH  10  11
ENDBRANCH   9  10
ENDBRANCH   8   9
ENDBRANCH   7   8
END_RES LYS A 135
