REMARK VINA RESULT:    -3.805      4.670     10.777
REMARK INTER + INTRA:         -22.336
REMARK INTER:                 -12.426
REMARK INTRA:                  -9.909
REMARK UNBOUND:               -11.857
REMARK SMILES CC[N+](C)(CC)CCCn1cc(COC(=O)NC[C@@H](O)C(O)[C@@H]2O[C@@](OC[C@H]3O[C@@H](O[C@H]4[C@H](O)[C@@H](O)[C@H](OCCN=[N+]=[N-])O[C@@H]4CO)[C@H](O)[C@@H](O)[C@H]3O)(C(=O)O)C[C@H](O)[C@H]2NC(C)=O)nn1
REMARK SMILES IDX 21 1 23 2 25 3 57 4 24 5 58 6 60 7 26 8 27 9 28 10 30 11
REMARK SMILES IDX 29 12 48 13 50 14 52 15 31 16 32 17 45 18 44 19 37 20 33 21
REMARK SMILES IDX 35 22 46 23 47 24 38 26 39 27 40 28 41 29 42 30 43 31 34 32
REMARK SMILES IDX 36 34 49 36 51 38 53 40 54 42 55 43 56 44 59 46 61 48 62 49
REMARK SMILES IDX 63 51 64 52 22 53 19 55 20 56 18 58 17 59 15 60 16 62 14 63
REMARK SMILES IDX 13 64 12 65 11 66 65 67 10 68 66 69 9 70 8 71 7 72 3 73 4 74
REMARK SMILES IDX 2 75 1 76 5 77 6 78
REMARK H PARENT 47 25 34 33 36 35 49 37 51 39 53 41 56 45 59 47 61 50 22 54
REMARK H PARENT 20 57 17 61
REMARK Flexibility Score: inf
ROOT
ATOM      1  C   UNL     1      26.280  36.349   9.936  1.00  0.00     0.176 C 
ENDROOT
BRANCH   1   2
ATOM      2  C   UNL     1      25.502  36.373  11.248  1.00  0.00     0.178 C 
ATOM      3  C   UNL     1      25.897  36.523  13.569  1.00  0.00     0.272 C 
ATOM      4  C   UNL     1      24.679  35.666  13.665  1.00  0.00     0.113 C 
ATOM      5  O   UNL     1      26.424  36.293  12.268  1.00  0.00    -0.332 OA
ATOM      6  C   UNL     1      24.652  34.578  12.624  1.00  0.00     0.145 C 
ATOM      7  C   UNL     1      24.523  35.243  11.256  1.00  0.00     0.142 C 
BRANCH   3   8
ATOM      8  O   UNL     1      26.930  36.129  14.393  1.00  0.00    -0.338 OA
BRANCH   8   9
ATOM      9  C   UNL     1      28.152  35.894  13.887  1.00  0.00     0.199 C 
BRANCH   9  10
ATOM     10  C   UNL     1      29.213  35.803  15.015  1.00  0.00     0.179 C 
ATOM     11  C   UNL     1      29.147  33.509  15.561  1.00  0.00     0.282 C 
ATOM     12  O   UNL     1      28.956  34.840  15.910  1.00  0.00    -0.341 OA
ATOM     13  C   UNL     1      30.253  33.291  14.599  1.00  0.00     0.202 C 
ATOM     14  C   UNL     1      31.265  34.420  14.892  1.00  0.00     0.179 C 
ATOM     15  C   UNL     1      30.592  35.669  14.367  1.00  0.00     0.177 C 
BRANCH  11  16
ATOM     16  O   UNL     1      27.922  32.907  15.243  1.00  0.00    -0.341 OA
BRANCH  16  17
ATOM     17  C   UNL     1      27.336  32.304  16.317  1.00  0.00     0.184 C 
ATOM     18  C   UNL     1      27.130  30.852  16.328  1.00  0.00     0.178 C 
ATOM     19  O   UNL     1      26.792  30.443  17.605  1.00  0.00    -0.341 OA
ATOM     20  C   UNL     1      26.300  31.339  18.483  1.00  0.00     0.281 C 
ATOM     21  C   UNL     1      25.941  32.917  16.581  1.00  0.00     0.180 C 
ATOM     22  C   UNL     1      25.459  32.463  17.933  1.00  0.00     0.202 C 
BRANCH  18  23
ATOM     23  C   UNL     1      28.299  30.001  15.871  1.00  0.00     0.191 C 
BRANCH  23  24
ATOM     24  O   UNL     1      29.488  30.301  16.522  1.00  0.00    -0.394 OA
ATOM     25  H   UNL     1      30.182  29.674  16.137  1.00  0.00     0.210 HD
ENDBRANCH  23  24
ENDBRANCH  18  23
BRANCH  20  26
ATOM     26  O   UNL     1      27.282  31.787  19.349  1.00  0.00    -0.350 OA
BRANCH  26  27
ATOM     27  C   UNL     1      27.887  30.839  20.107  1.00  0.00     0.169 C 
BRANCH  27  28
ATOM     28  C   UNL     1      29.281  31.218  20.563  1.00  0.00     0.119 C 
BRANCH  28  29
ATOM     29  N   UNL     1      30.260  30.619  19.671  1.00  0.00    -0.092 NA
ATOM     30  N   UNL     1      31.144  29.860  20.060  1.00  0.00     0.001 N 
ATOM     31  N   UNL     1      32.024  29.078  20.425  1.00  0.00    -0.003 NA
ENDBRANCH  28  29
ENDBRANCH  27  28
ENDBRANCH  26  27
ENDBRANCH  20  26
BRANCH  21  32
ATOM     32  O   UNL     1      26.070  34.277  16.427  1.00  0.00    -0.387 OA
ATOM     33  H   UNL     1      25.251  34.761  16.239  1.00  0.00     0.211 HD
ENDBRANCH  21  32
BRANCH  22  34
ATOM     34  O   UNL     1      24.114  32.139  17.843  1.00  0.00    -0.385 OA
ATOM     35  H   UNL     1      23.517  32.758  18.340  1.00  0.00     0.211 HD
ENDBRANCH  22  34
ENDBRANCH  16  17
ENDBRANCH  11  16
BRANCH  13  36
ATOM     36  O   UNL     1      30.954  32.092  14.805  1.00  0.00    -0.385 OA
ATOM     37  H   UNL     1      31.883  32.334  15.005  1.00  0.00     0.211 HD
ENDBRANCH  13  36
BRANCH  14  38
ATOM     38  O   UNL     1      32.448  34.173  14.196  1.00  0.00    -0.387 OA
ATOM     39  H   UNL     1      32.195  33.776  13.338  1.00  0.00     0.211 HD
ENDBRANCH  14  38
BRANCH  15  40
ATOM     40  O   UNL     1      30.379  35.448  13.008  1.00  0.00    -0.387 OA
ATOM     41  H   UNL     1      31.151  35.138  12.511  1.00  0.00     0.211 HD
ENDBRANCH  15  40
ENDBRANCH   9  10
ENDBRANCH   8   9
ENDBRANCH   3   8
BRANCH   3  42
ATOM     42  C   UNL     1      25.650  37.965  13.740  1.00  0.00     0.364 C 
ATOM     43  O   UNL     1      26.544  38.817  13.535  1.00  0.00    -0.246 OA
BRANCH  42  44
ATOM     44  O   UNL     1      24.420  38.430  14.136  1.00  0.00    -0.477 OA
ATOM     45  H   UNL     1      24.174  39.418  14.157  1.00  0.00     0.296 HD
ENDBRANCH  42  44
ENDBRANCH   3  42
BRANCH   6  46
ATOM     46  O   UNL     1      25.768  33.776  12.638  1.00  0.00    -0.391 OA
ATOM     47  H   UNL     1      26.271  33.848  13.506  1.00  0.00     0.211 HD
ENDBRANCH   6  46
BRANCH   7  48
ATOM     48  N   UNL     1      23.160  35.802  11.244  1.00  0.00    -0.348 N 
ATOM     49  C   UNL     1      22.367  35.796  10.062  1.00  0.00     0.217 C 
ATOM     50  H   UNL     1      22.709  36.227  12.079  1.00  0.00     0.163 HD
ATOM     51  C   UNL     1      20.989  36.345  10.004  1.00  0.00     0.114 C 
ATOM     52  O   UNL     1      22.855  35.305   9.029  1.00  0.00    -0.275 OA
ENDBRANCH   7  48
ENDBRANCH   1   2
BRANCH   1  53
ATOM     53  O   UNL     1      25.446  36.912   8.910  1.00  0.00    -0.388 OA
ATOM     54  H   UNL     1      25.340  37.873   9.137  1.00  0.00     0.211 HD
ENDBRANCH   1  53
BRANCH   1  55
ATOM     55  C   UNL     1      26.576  34.948   9.512  1.00  0.00     0.165 C 
BRANCH  55  56
ATOM     56  O   UNL     1      27.599  34.533  10.463  1.00  0.00    -0.388 OA
ATOM     57  H   UNL     1      27.139  34.426  11.351  1.00  0.00     0.211 HD
ENDBRANCH  55  56
BRANCH  55  58
ATOM     58  C   UNL     1      27.129  34.737   8.152  1.00  0.00     0.154 C 
BRANCH  58  59
ATOM     59  N   UNL     1      27.188  35.748   7.196  1.00  0.00    -0.319 N 
ATOM     60  C   UNL     1      28.193  35.989   6.229  1.00  0.00     0.407 C 
ATOM     61  H   UNL     1      26.353  36.466   7.176  1.00  0.00     0.167 HD
ATOM     62  O   UNL     1      29.209  35.289   6.101  1.00  0.00    -0.225 OA
BRANCH  60  63
ATOM     63  O   UNL     1      28.071  37.091   5.347  1.00  0.00    -0.443 OA
BRANCH  63  64
ATOM     64  C   UNL     1      28.736  38.308   5.738  1.00  0.00     0.294 C 
BRANCH  64  65
ATOM     65  C   UNL     1      27.678  39.025   6.542  1.00  0.00     0.120 A 
ATOM     66  C   UNL     1      26.649  39.793   6.051  1.00  0.00     0.138 A 
ATOM     67  N   UNL     1      27.496  39.020   7.867  1.00  0.00    -0.132 NA
ATOM     68  N   UNL     1      25.878  40.224   7.101  1.00  0.00    -0.252 N 
ATOM     69  N   UNL     1      26.434  39.729   8.191  1.00  0.00    -0.067 NA
BRANCH  68  70
ATOM     70  C   UNL     1      24.670  41.022   6.992  1.00  0.00     0.152 C 
BRANCH  70  71
ATOM     71  C   UNL     1      23.446  40.232   7.173  1.00  0.00     0.085 C 
BRANCH  71  72
ATOM     72  C   UNL     1      22.303  40.780   7.922  1.00  0.00     0.265 C 
BRANCH  72  73
ATOM     73  N   UNL     1      22.147  40.434   9.295  1.00  0.00    -0.326 N 
ATOM     74  C   UNL     1      22.284  41.602  10.123  1.00  0.00     0.334 C 
BRANCH  73  75
ATOM     75  C   UNL     1      22.982  39.366   9.767  1.00  0.00     0.260 C 
ATOM     76  C   UNL     1      23.950  39.801  10.842  1.00  0.00     0.071 C 
ENDBRANCH  73  75
BRANCH  73  77
ATOM     77  C   UNL     1      20.745  40.014   9.449  1.00  0.00     0.260 C 
ATOM     78  C   UNL     1      19.805  40.687   8.513  1.00  0.00     0.071 C 
ENDBRANCH  73  77
ENDBRANCH  72  73
ENDBRANCH  71  72
ENDBRANCH  70  71
ENDBRANCH  68  70
ENDBRANCH  64  65
ENDBRANCH  63  64
ENDBRANCH  60  63
ENDBRANCH  58  59
ENDBRANCH  55  58
ENDBRANCH   1  55
TORSDOF 35
BEGIN_RES LYS A 131
REMARK  4 active torsions:
REMARK  status: ('A' for Active; 'I' for Inactive)
REMARK    1  A    between atoms: CA   and  CB  
REMARK    2  A    between atoms: CB   and  CG  
REMARK    3  A    between atoms: CG   and  CD  
REMARK    4  A    between atoms: CD   and  CE  
ROOT
ATOM      1  CA  LYS A 131      29.867  25.555  16.977  1.00 20.52     0.186 C 
ENDROOT
BRANCH   1   2
ATOM      2  CB  LYS A 131      28.345  25.722  17.026  1.00 20.94     0.034 C 
BRANCH   2   3
ATOM      3  CG  LYS A 131      27.601  24.406  16.862  1.00 22.96     0.005 C 
BRANCH   3   4
ATOM      4  CD  LYS A 131      26.591  24.186  17.954  1.00 24.33     0.041 C 
BRANCH   4   5
ATOM      5  CE  LYS A 131      26.470  25.451  18.797  1.00 26.91     0.338 C 
ATOM      6  NZ  LYS A 131      25.572  25.220  19.954  1.00 27.40     0.618 N 
ENDBRANCH   4   5
ENDBRANCH   3   4
ENDBRANCH   2   3
ENDBRANCH   1   2
END_RES LYS A 131
BEGIN_RES LYS A 135
REMARK  4 active torsions:
REMARK  status: ('A' for Active; 'I' for Inactive)
REMARK    5  A    between atoms: CA   and  CB  
REMARK    6  A    between atoms: CB   and  CG  
REMARK    7  A    between atoms: CG   and  CD  
REMARK    8  A    between atoms: CD   and  CE  
ROOT
ATOM      7  CA  LYS A 135      33.193  34.663   9.290  1.00 25.02     0.186 C 
ENDROOT
BRANCH   7   8
ATOM      8  CB  LYS A 135      32.060  35.360  10.034  1.00 26.63     0.034 C 
BRANCH   8   9
ATOM      9  CG  LYS A 135      30.749  35.341   9.291  1.00 29.45     0.005 C 
BRANCH   9  10
ATOM     10  CD  LYS A 135      30.228  36.754   9.084  1.00 32.00     0.041 C 
BRANCH  10  11
ATOM     11  CE  LYS A 135      30.547  37.621  10.288  1.00 34.25     0.338 C 
ATOM     12  NZ  LYS A 135      29.302  38.063  10.975  1.00 35.99     0.618 N 
ENDBRANCH  10  11
ENDBRANCH   9  10
ENDBRANCH   8   9
ENDBRANCH   7   8
END_RES LYS A 135
