REMARK VINA RESULT:    -5.406      4.676     10.618
REMARK INTER + INTRA:         -24.714
REMARK INTER:                 -14.328
REMARK INTRA:                 -10.385
REMARK UNBOUND:               -10.617
REMARK SMILES CC(=O)N[C@@H]1[C@@H](O)C[C@](OC[C@H]2O[C@@H](O[C@H]3[C@H](O)[C@@H](O)[C@H](OCCN=[N+]=[N-])O[C@@H]3CO)[C@H](O)[C@@H](O)[C@H]2O)(C(=O)O)O[C@H]1C(O)[C@H](O)CNC(=O)OCc1cn(-c2ccc(S(=O)(=O)c3ccc(N)cc3)cc2)nn1
REMARK SMILES IDX 43 1 42 2 9 3 8 4 41 5 6 6 5 7 10 8 11 9 12 10 14 11 13 12
REMARK SMILES IDX 32 13 34 14 36 15 15 16 16 17 29 18 28 19 21 20 17 21 19 22
REMARK SMILES IDX 30 23 31 24 22 26 23 27 24 28 25 29 26 30 27 31 18 32 20 34
REMARK SMILES IDX 33 36 35 38 37 40 38 42 39 43 40 44 7 46 4 48 2 49 1 51 3 52
REMARK SMILES IDX 44 53 45 55 46 56 47 58 48 59 49 60 50 62 51 63 52 64 53 65
REMARK SMILES IDX 54 66 73 67 55 68 72 69 56 70 57 71 71 72 58 73 70 74 59 75
REMARK SMILES IDX 60 76 61 77 62 78 63 79 64 80 69 81 65 82 68 83 66 84 67 85
REMARK H PARENT 31 25 18 33 20 35 33 37 35 39 37 41 40 45 7 47 4 50 44 54
REMARK H PARENT 46 57 48 61 67 86 67 87
REMARK Flexibility Score: inf
ROOT
ATOM      1  C   UNL     1      27.378  34.395  16.993  1.00  0.00     0.176 C 
ENDROOT
BRANCH   1   2
ATOM      2  C   UNL     1      28.735  33.695  17.046  1.00  0.00     0.178 C 
ATOM      3  C   UNL     1      29.992  32.144  18.214  1.00  0.00     0.272 C 
ATOM      4  C   UNL     1      31.183  33.045  18.162  1.00  0.00     0.113 C 
ATOM      5  O   UNL     1      28.801  32.889  18.141  1.00  0.00    -0.332 OA
ATOM      6  C   UNL     1      30.702  34.485  18.237  1.00  0.00     0.145 C 
ATOM      7  C   UNL     1      29.843  34.760  17.050  1.00  0.00     0.142 C 
BRANCH   3   8
ATOM      8  O   UNL     1      29.859  31.409  19.395  1.00  0.00    -0.338 OA
BRANCH   8   9
ATOM      9  C   UNL     1      31.017  31.021  20.001  1.00  0.00     0.199 C 
BRANCH   9  10
ATOM     10  C   UNL     1      30.720  29.924  20.998  1.00  0.00     0.179 C 
ATOM     11  C   UNL     1      29.202  28.320  21.577  1.00  0.00     0.282 C 
ATOM     12  O   UNL     1      29.574  29.247  20.567  1.00  0.00    -0.341 OA
ATOM     13  C   UNL     1      30.228  27.225  21.506  1.00  0.00     0.202 C 
ATOM     14  C   UNL     1      31.564  27.778  21.946  1.00  0.00     0.179 C 
ATOM     15  C   UNL     1      31.891  29.011  21.120  1.00  0.00     0.177 C 
BRANCH  11  16
ATOM     16  O   UNL     1      27.909  27.935  21.334  1.00  0.00    -0.341 OA
BRANCH  16  17
ATOM     17  C   UNL     1      27.454  28.453  20.098  1.00  0.00     0.184 C 
ATOM     18  C   UNL     1      26.096  29.039  20.319  1.00  0.00     0.178 C 
ATOM     19  O   UNL     1      25.116  28.589  19.476  1.00  0.00    -0.341 OA
ATOM     20  C   UNL     1      24.979  27.240  19.329  1.00  0.00     0.281 C 
ATOM     21  C   UNL     1      27.403  27.242  19.176  1.00  0.00     0.180 C 
ATOM     22  C   UNL     1      26.215  26.430  19.651  1.00  0.00     0.202 C 
BRANCH  18  23
ATOM     23  C   UNL     1      26.239  30.545  20.024  1.00  0.00     0.191 C 
BRANCH  23  24
ATOM     24  O   UNL     1      26.820  30.794  18.805  1.00  0.00    -0.394 OA
ATOM     25  H   UNL     1      26.873  31.751  18.560  1.00  0.00     0.210 HD
ENDBRANCH  23  24
ENDBRANCH  18  23
BRANCH  20  26
ATOM     26  O   UNL     1      24.678  26.990  17.995  1.00  0.00    -0.350 OA
BRANCH  26  27
ATOM     27  C   UNL     1      23.346  27.004  17.682  1.00  0.00     0.169 C 
BRANCH  27  28
ATOM     28  C   UNL     1      22.921  28.347  17.192  1.00  0.00     0.119 C 
BRANCH  28  29
ATOM     29  N   UNL     1      23.702  28.705  15.996  1.00  0.00    -0.092 NA
ATOM     30  N   UNL     1      24.735  29.366  16.087  1.00  0.00     0.001 N 
ATOM     31  N   UNL     1      25.948  29.622  16.184  1.00  0.00    -0.003 NA
ENDBRANCH  28  29
ENDBRANCH  27  28
ENDBRANCH  26  27
ENDBRANCH  20  26
BRANCH  21  32
ATOM     32  O   UNL     1      27.185  27.640  17.878  1.00  0.00    -0.387 OA
ATOM     33  H   UNL     1      26.210  27.701  17.689  1.00  0.00     0.211 HD
ENDBRANCH  21  32
BRANCH  22  34
ATOM     34  O   UNL     1      26.309  26.075  20.977  1.00  0.00    -0.385 OA
ATOM     35  H   UNL     1      26.528  25.115  21.106  1.00  0.00     0.211 HD
ENDBRANCH  22  34
ENDBRANCH  16  17
ENDBRANCH  11  16
BRANCH  13  36
ATOM     36  O   UNL     1      29.866  26.103  22.250  1.00  0.00    -0.385 OA
ATOM     37  H   UNL     1      29.745  25.352  21.587  1.00  0.00     0.211 HD
ENDBRANCH  13  36
BRANCH  14  38
ATOM     38  O   UNL     1      32.556  26.839  21.628  1.00  0.00    -0.387 OA
ATOM     39  H   UNL     1      33.438  27.251  21.671  1.00  0.00     0.211 HD
ENDBRANCH  14  38
BRANCH  15  40
ATOM     40  O   UNL     1      32.406  28.655  19.882  1.00  0.00    -0.387 OA
ATOM     41  H   UNL     1      32.655  29.459  19.371  1.00  0.00     0.211 HD
ENDBRANCH  15  40
ENDBRANCH   9  10
ENDBRANCH   8   9
ENDBRANCH   3   8
BRANCH   3  42
ATOM     42  C   UNL     1      29.948  31.153  17.105  1.00  0.00     0.364 C 
ATOM     43  O   UNL     1      30.706  31.146  16.107  1.00  0.00    -0.246 OA
BRANCH  42  44
ATOM     44  O   UNL     1      29.002  30.143  17.148  1.00  0.00    -0.477 OA
ATOM     45  H   UNL     1      29.054  29.381  17.843  1.00  0.00     0.296 HD
ENDBRANCH  42  44
ENDBRANCH   3  42
BRANCH   6  46
ATOM     46  O   UNL     1      29.890  34.559  19.374  1.00  0.00    -0.391 OA
ATOM     47  H   UNL     1      29.392  33.711  19.527  1.00  0.00     0.211 HD
ENDBRANCH   6  46
BRANCH   7  48
ATOM     48  N   UNL     1      30.516  34.771  15.790  1.00  0.00    -0.348 N 
ATOM     49  C   UNL     1      30.257  35.705  14.748  1.00  0.00     0.217 C 
ATOM     50  H   UNL     1      31.257  34.051  15.604  1.00  0.00     0.163 HD
ATOM     51  C   UNL     1      31.025  35.613  13.481  1.00  0.00     0.114 C 
ATOM     52  O   UNL     1      29.391  36.568  14.944  1.00  0.00    -0.275 OA
ENDBRANCH   7  48
ENDBRANCH   1   2
BRANCH   1  53
ATOM     53  O   UNL     1      27.529  35.764  16.841  1.00  0.00    -0.388 OA
ATOM     54  H   UNL     1      26.821  36.124  16.227  1.00  0.00     0.211 HD
ENDBRANCH   1  53
BRANCH   1  55
ATOM     55  C   UNL     1      26.449  33.771  16.023  1.00  0.00     0.165 C 
BRANCH  55  56
ATOM     56  O   UNL     1      26.208  32.433  16.347  1.00  0.00    -0.388 OA
ATOM     57  H   UNL     1      26.246  31.828  15.590  1.00  0.00     0.211 HD
ENDBRANCH  55  56
BRANCH  55  58
ATOM     58  C   UNL     1      27.038  33.756  14.629  1.00  0.00     0.154 C 
BRANCH  58  59
ATOM     59  N   UNL     1      26.873  34.994  13.921  1.00  0.00    -0.319 N 
ATOM     60  C   UNL     1      25.965  35.041  12.834  1.00  0.00     0.407 C 
ATOM     61  H   UNL     1      27.397  35.844  14.183  1.00  0.00     0.167 HD
ATOM     62  O   UNL     1      25.324  33.992  12.535  1.00  0.00    -0.225 OA
BRANCH  60  63
ATOM     63  O   UNL     1      25.723  36.157  12.066  1.00  0.00    -0.443 OA
BRANCH  63  64
ATOM     64  C   UNL     1      25.975  36.241  10.680  1.00  0.00     0.294 C 
BRANCH  64  65
ATOM     65  C   UNL     1      24.675  36.298   9.966  1.00  0.00     0.121 A 
ATOM     66  C   UNL     1      23.525  35.557  10.144  1.00  0.00     0.144 A 
ATOM     67  N   UNL     1      24.368  37.170   8.954  1.00  0.00    -0.131 NA
ATOM     68  N   UNL     1      22.576  35.989   9.258  1.00  0.00    -0.220 N 
ATOM     69  N   UNL     1      23.130  36.955   8.568  1.00  0.00    -0.062 NA
BRANCH  68  70
ATOM     70  C   UNL     1      21.253  35.522   9.104  1.00  0.00     0.066 A 
ATOM     71  C   UNL     1      20.525  35.074  10.211  1.00  0.00     0.030 A 
ATOM     72  C   UNL     1      20.608  35.475   7.894  1.00  0.00     0.030 A 
ATOM     73  C   UNL     1      19.237  34.610  10.114  1.00  0.00     0.023 A 
ATOM     74  C   UNL     1      19.298  35.004   7.789  1.00  0.00     0.023 A 
ATOM     75  C   UNL     1      18.601  34.568   8.894  1.00  0.00     0.072 A 
BRANCH  75  76
ATOM     76  S   UNL     1      16.956  33.982   8.759  1.00  0.00     0.206 S 
ATOM     77  O   UNL     1      16.255  34.775   7.668  1.00  0.00    -0.219 OA
ATOM     78  O   UNL     1      16.206  34.041  10.047  1.00  0.00    -0.219 OA
BRANCH  76  79
ATOM     79  C   UNL     1      16.995  32.318   8.175  1.00  0.00     0.072 A 
ATOM     80  C   UNL     1      17.091  31.277   9.058  1.00  0.00     0.023 A 
ATOM     81  C   UNL     1      16.933  32.045   6.829  1.00  0.00     0.023 A 
ATOM     82  C   UNL     1      17.123  29.994   8.595  1.00  0.00     0.027 A 
ATOM     83  C   UNL     1      16.967  30.750   6.378  1.00  0.00     0.027 A 
ATOM     84  C   UNL     1      17.062  29.691   7.236  1.00  0.00     0.031 A 
BRANCH  84  85
ATOM     85  N   UNL     1      17.100  28.349   6.800  1.00  0.00    -0.399 N 
ATOM     86  H   UNL     1      17.109  28.112   5.798  1.00  0.00     0.156 HD
ATOM     87  H   UNL     1      17.121  27.586   7.498  1.00  0.00     0.156 HD
ENDBRANCH  84  85
ENDBRANCH  76  79
ENDBRANCH  75  76
ENDBRANCH  68  70
ENDBRANCH  64  65
ENDBRANCH  63  64
ENDBRANCH  60  63
ENDBRANCH  58  59
ENDBRANCH  55  58
ENDBRANCH   1  55
TORSDOF 33
BEGIN_RES LYS A 131
REMARK  4 active torsions:
REMARK  status: ('A' for Active; 'I' for Inactive)
REMARK    1  A    between atoms: CA   and  CB  
REMARK    2  A    between atoms: CB   and  CG  
REMARK    3  A    between atoms: CG   and  CD  
REMARK    4  A    between atoms: CD   and  CE  
ROOT
ATOM      1  CA  LYS A 131      29.867  25.555  16.977  1.00 20.52     0.186 C 
ENDROOT
BRANCH   1   2
ATOM      2  CB  LYS A 131      28.345  25.722  17.026  1.00 20.94     0.034 C 
BRANCH   2   3
ATOM      3  CG  LYS A 131      27.599  24.480  16.562  1.00 22.96     0.005 C 
BRANCH   3   4
ATOM      4  CD  LYS A 131      27.015  23.708  17.712  1.00 24.33     0.041 C 
BRANCH   4   5
ATOM      5  CE  LYS A 131      25.517  23.522  17.492  1.00 26.91     0.338 C 
ATOM      6  NZ  LYS A 131      24.969  22.537  18.455  1.00 27.40     0.618 N 
ENDBRANCH   4   5
ENDBRANCH   3   4
ENDBRANCH   2   3
ENDBRANCH   1   2
END_RES LYS A 131
BEGIN_RES LYS A 135
REMARK  4 active torsions:
REMARK  status: ('A' for Active; 'I' for Inactive)
REMARK    5  A    between atoms: CA   and  CB  
REMARK    6  A    between atoms: CB   and  CG  
REMARK    7  A    between atoms: CG   and  CD  
REMARK    8  A    between atoms: CD   and  CE  
ROOT
ATOM      7  CA  LYS A 135      33.193  34.663   9.290  1.00 25.02     0.186 C 
ENDROOT
BRANCH   7   8
ATOM      8  CB  LYS A 135      32.060  35.360  10.034  1.00 26.63     0.034 C 
BRANCH   8   9
ATOM      9  CG  LYS A 135      30.752  35.352   9.285  1.00 29.45     0.005 C 
BRANCH   9  10
ATOM     10  CD  LYS A 135      29.672  34.656  10.098  1.00 32.00     0.041 C 
BRANCH  10  11
ATOM     11  CE  LYS A 135      28.658  33.997   9.183  1.00 34.25     0.338 C 
ATOM     12  NZ  LYS A 135      28.378  34.847   7.993  1.00 35.99     0.618 N 
ENDBRANCH  10  11
ENDBRANCH   9  10
ENDBRANCH   8   9
ENDBRANCH   7   8
END_RES LYS A 135
