REMARK VINA RESULT:    -5.245      3.616      9.341
REMARK INTER + INTRA:         -23.375
REMARK INTER:                 -12.906
REMARK INTRA:                 -10.469
REMARK UNBOUND:               -10.464
REMARK SMILES CC(=O)N[C@@H]1[C@@H](O)C[C@](OC[C@H]2O[C@@H](O[C@H]3[C@H](O)[C@@H](O)[C@H](OCCN=[N+]=[N-])O[C@@H]3CO)[C@H](O)[C@@H](O)[C@H]2O)(C(=O)O)O[C@H]1C(O)[C@H](O)CNC(=O)OCc1cn(-c2c3ccccc3nc3ccccc23)nn1
REMARK SMILES IDX 9 1 8 2 6 3 5 4 42 5 41 6 10 7 11 8 12 9 14 10 13 11 32 12
REMARK SMILES IDX 34 13 36 14 15 15 16 16 29 17 28 18 21 19 17 20 19 21 30 22
REMARK SMILES IDX 31 23 22 25 23 26 24 27 25 28 26 29 27 30 18 31 20 33 33 35
REMARK SMILES IDX 35 37 37 39 38 41 39 42 40 43 7 45 43 47 44 48 45 50 46 51
REMARK SMILES IDX 47 53 48 54 49 55 50 57 51 58 52 59 53 60 54 61 71 62 55 63
REMARK SMILES IDX 70 64 56 65 57 66 69 67 58 68 62 69 64 70 68 71 59 72 61 73
REMARK SMILES IDX 63 74 65 75 67 76 60 77 66 78 4 79 2 80 1 82 3 83
REMARK H PARENT 31 24 18 32 20 34 33 36 35 38 37 40 40 44 7 46 44 49 46 52
REMARK H PARENT 48 56 4 81
REMARK Flexibility Score: inf
ROOT
ATOM      1  C   UNL     1      24.219  36.569   9.142  1.00  0.00     0.272 C 
ATOM      2  C   UNL     1      25.115  35.235   9.110  1.00  0.00     0.113 C 
ATOM      3  C   UNL     1      26.341  35.623   9.852  1.00  0.00     0.145 C 
ATOM      4  C   UNL     1      26.096  36.175  11.241  1.00  0.00     0.142 C 
ATOM      5  C   UNL     1      24.786  36.821  11.418  1.00  0.00     0.178 C 
ATOM      6  O   UNL     1      23.877  36.677  10.424  1.00  0.00    -0.332 OA
ENDROOT
BRANCH   1   7
ATOM      7  O   UNL     1      23.126  36.107   8.406  1.00  0.00    -0.338 OA
BRANCH   7   8
ATOM      8  C   UNL     1      22.503  37.001   7.604  1.00  0.00     0.199 C 
BRANCH   8   9
ATOM      9  C   UNL     1      21.060  37.203   7.867  1.00  0.00     0.179 C 
ATOM     10  C   UNL     1      19.047  36.196   8.483  1.00  0.00     0.282 C 
ATOM     11  O   UNL     1      20.413  36.035   8.163  1.00  0.00    -0.341 OA
ATOM     12  C   UNL     1      18.517  37.543   8.227  1.00  0.00     0.202 C 
ATOM     13  C   UNL     1      19.360  38.619   8.872  1.00  0.00     0.179 C 
ATOM     14  C   UNL     1      20.806  38.254   8.951  1.00  0.00     0.177 C 
BRANCH  10  15
ATOM     15  O   UNL     1      18.814  35.743   9.775  1.00  0.00    -0.341 OA
BRANCH  15  16
ATOM     16  C   UNL     1      19.220  34.402   9.961  1.00  0.00     0.184 C 
ATOM     17  C   UNL     1      18.046  33.561  10.266  1.00  0.00     0.178 C 
ATOM     18  O   UNL     1      18.372  32.342  10.915  1.00  0.00    -0.341 OA
ATOM     19  C   UNL     1      18.912  32.685  12.149  1.00  0.00     0.281 C 
ATOM     20  C   UNL     1      20.188  34.477  11.152  1.00  0.00     0.180 C 
ATOM     21  C   UNL     1      20.343  33.146  11.835  1.00  0.00     0.202 C 
BRANCH  17  22
ATOM     22  C   UNL     1      17.288  33.176   9.004  1.00  0.00     0.191 C 
BRANCH  22  23
ATOM     23  O   UNL     1      16.077  33.807   8.879  1.00  0.00    -0.394 OA
ATOM     24  H   UNL     1      15.354  33.156   9.073  1.00  0.00     0.210 HD
ENDBRANCH  22  23
ENDBRANCH  17  22
BRANCH  19  25
ATOM     25  O   UNL     1      18.878  31.572  12.951  1.00  0.00    -0.350 OA
BRANCH  25  26
ATOM     26  C   UNL     1      18.882  30.364  12.260  1.00  0.00     0.169 C 
BRANCH  26  27
ATOM     27  C   UNL     1      20.196  29.628  12.404  1.00  0.00     0.119 C 
BRANCH  27  28
ATOM     28  N   UNL     1      19.877  28.212  12.555  1.00  0.00    -0.092 NA
ATOM     29  N   UNL     1      19.236  27.615  11.683  1.00  0.00     0.001 N 
ATOM     30  N   UNL     1      18.658  26.956  10.816  1.00  0.00    -0.003 NA
ENDBRANCH  27  28
ENDBRANCH  26  27
ENDBRANCH  25  26
ENDBRANCH  19  25
BRANCH  20  31
ATOM     31  O   UNL     1      21.397  35.016  10.742  1.00  0.00    -0.387 OA
ATOM     32  H   UNL     1      22.178  34.477  11.023  1.00  0.00     0.211 HD
ENDBRANCH  20  31
BRANCH  21  33
ATOM     33  O   UNL     1      21.079  33.305  12.987  1.00  0.00    -0.385 OA
ATOM     34  H   UNL     1      22.021  33.024  12.777  1.00  0.00     0.211 HD
ENDBRANCH  21  33
ENDBRANCH  15  16
ENDBRANCH  10  15
BRANCH  12  35
ATOM     35  O   UNL     1      18.340  37.761   6.852  1.00  0.00    -0.385 OA
ATOM     36  H   UNL     1      18.363  38.758   6.738  1.00  0.00     0.211 HD
ENDBRANCH  12  35
BRANCH  13  37
ATOM     37  O   UNL     1      18.821  38.870  10.148  1.00  0.00    -0.387 OA
ATOM     38  H   UNL     1      18.257  38.059  10.358  1.00  0.00     0.211 HD
ENDBRANCH  13  37
BRANCH  14  39
ATOM     39  O   UNL     1      21.199  37.825  10.202  1.00  0.00    -0.387 OA
ATOM     40  H   UNL     1      20.551  37.205  10.623  1.00  0.00     0.211 HD
ENDBRANCH  14  39
ENDBRANCH   8   9
ENDBRANCH   7   8
ENDBRANCH   1   7
BRANCH   1  41
ATOM     41  C   UNL     1      25.033  37.513   8.451  1.00  0.00     0.364 C 
ATOM     42  O   UNL     1      25.206  38.688   8.909  1.00  0.00    -0.246 OA
BRANCH  41  43
ATOM     43  O   UNL     1      25.715  37.289   7.250  1.00  0.00    -0.477 OA
ATOM     44  H   UNL     1      25.506  36.451   6.721  1.00  0.00     0.296 HD
ENDBRANCH  41  43
ENDBRANCH   1  41
BRANCH   3  45
ATOM     45  O   UNL     1      27.150  34.464   9.925  1.00  0.00    -0.391 OA
ATOM     46  H   UNL     1      26.601  33.710  10.265  1.00  0.00     0.211 HD
ENDBRANCH   3  45
BRANCH   5  47
ATOM     47  C   UNL     1      24.061  36.306  12.692  1.00  0.00     0.176 C 
BRANCH  47  48
ATOM     48  O   UNL     1      22.811  36.843  12.784  1.00  0.00    -0.388 OA
ATOM     49  H   UNL     1      22.097  36.316  12.306  1.00  0.00     0.211 HD
ENDBRANCH  47  48
BRANCH  47  50
ATOM     50  C   UNL     1      24.255  34.881  12.943  1.00  0.00     0.165 C 
BRANCH  50  51
ATOM     51  O   UNL     1      23.655  33.991  12.049  1.00  0.00    -0.388 OA
ATOM     52  H   UNL     1      23.737  34.301  11.113  1.00  0.00     0.211 HD
ENDBRANCH  50  51
BRANCH  50  53
ATOM     53  C   UNL     1      24.288  34.394  14.340  1.00  0.00     0.154 C 
BRANCH  53  54
ATOM     54  N   UNL     1      25.010  33.223  14.672  1.00  0.00    -0.319 N 
ATOM     55  C   UNL     1      24.600  31.901  14.398  1.00  0.00     0.407 C 
ATOM     56  H   UNL     1      25.964  33.345  15.180  1.00  0.00     0.167 HD
ATOM     57  O   UNL     1      23.532  31.590  13.849  1.00  0.00    -0.225 OA
BRANCH  55  58
ATOM     58  O   UNL     1      25.420  30.810  14.747  1.00  0.00    -0.443 OA
BRANCH  58  59
ATOM     59  C   UNL     1      25.913  30.608  16.061  1.00  0.00     0.294 C 
BRANCH  59  60
ATOM     60  C   UNL     1      27.373  30.910  16.094  1.00  0.00     0.121 A 
ATOM     61  C   UNL     1      27.991  32.110  16.374  1.00  0.00     0.144 A 
ATOM     62  N   UNL     1      28.373  30.055  15.838  1.00  0.00    -0.131 NA
ATOM     63  N   UNL     1      29.334  31.973  16.287  1.00  0.00    -0.219 N 
ATOM     64  N   UNL     1      29.534  30.708  15.958  1.00  0.00    -0.062 NA
BRANCH  63  65
ATOM     65  C   UNL     1      30.318  33.000  16.506  1.00  0.00     0.085 A 
ATOM     66  C   UNL     1      30.824  33.216  17.779  1.00  0.00     0.027 A 
ATOM     67  C   UNL     1      30.784  33.796  15.485  1.00  0.00     0.027 A 
ATOM     68  C   UNL     1      30.398  32.451  18.843  1.00  0.00     0.012 A 
ATOM     69  C   UNL     1      31.774  34.200  18.043  1.00  0.00     0.073 A 
ATOM     70  C   UNL     1      31.723  34.757  15.788  1.00  0.00     0.073 A 
ATOM     71  C   UNL     1      30.330  33.637  14.209  1.00  0.00     0.012 A 
ATOM     72  C   UNL     1      30.902  32.664  20.108  1.00  0.00     0.001 A 
ATOM     73  C   UNL     1      32.275  34.410  19.309  1.00  0.00     0.029 A 
ATOM     74  N   UNL     1      32.206  34.958  17.027  1.00  0.00    -0.248 NA
ATOM     75  C   UNL     1      32.214  35.574  14.791  1.00  0.00     0.029 A 
ATOM     76  C   UNL     1      30.842  34.473  13.225  1.00  0.00     0.001 A 
ATOM     77  C   UNL     1      31.851  33.648  20.371  1.00  0.00     0.002 A 
ATOM     78  C   UNL     1      31.782  35.447  13.484  1.00  0.00     0.002 A 
ENDBRANCH  63  65
ENDBRANCH  59  60
ENDBRANCH  58  59
ENDBRANCH  55  58
ENDBRANCH  53  54
ENDBRANCH  50  53
ENDBRANCH  47  50
ENDBRANCH   5  47
BRANCH   4  79
ATOM     79  N   UNL     1      27.218  37.003  11.622  1.00  0.00    -0.348 N 
ATOM     80  C   UNL     1      27.933  36.876  12.850  1.00  0.00     0.217 C 
ATOM     81  H   UNL     1      27.561  37.763  10.990  1.00  0.00     0.163 HD
ATOM     82  C   UNL     1      29.080  37.803  13.132  1.00  0.00     0.114 C 
ATOM     83  O   UNL     1      27.571  35.992  13.643  1.00  0.00    -0.275 OA
ENDBRANCH   4  79
TORSDOF 30
BEGIN_RES LYS A 131
REMARK  4 active torsions:
REMARK  status: ('A' for Active; 'I' for Inactive)
REMARK    1  A    between atoms: CA   and  CB  
REMARK    2  A    between atoms: CB   and  CG  
REMARK    3  A    between atoms: CG   and  CD  
REMARK    4  A    between atoms: CD   and  CE  
ROOT
ATOM      1  CA  LYS A 131      29.867  25.555  16.977  1.00 20.52     0.186 C 
ENDROOT
BRANCH   1   2
ATOM      2  CB  LYS A 131      28.345  25.722  17.026  1.00 20.94     0.034 C 
BRANCH   2   3
ATOM      3  CG  LYS A 131      27.601  24.401  16.905  1.00 22.96     0.005 C 
BRANCH   3   4
ATOM      4  CD  LYS A 131      26.486  24.285  17.906  1.00 24.33     0.041 C 
BRANCH   4   5
ATOM      5  CE  LYS A 131      26.429  25.552  18.754  1.00 26.91     0.338 C 
ATOM      6  NZ  LYS A 131      25.058  26.114  18.755  1.00 27.40     0.618 N 
ENDBRANCH   4   5
ENDBRANCH   3   4
ENDBRANCH   2   3
ENDBRANCH   1   2
END_RES LYS A 131
BEGIN_RES LYS A 135
REMARK  4 active torsions:
REMARK  status: ('A' for Active; 'I' for Inactive)
REMARK    5  A    between atoms: CA   and  CB  
REMARK    6  A    between atoms: CB   and  CG  
REMARK    7  A    between atoms: CG   and  CD  
REMARK    8  A    between atoms: CD   and  CE  
ROOT
ATOM      7  CA  LYS A 135      33.193  34.663   9.290  1.00 25.02     0.186 C 
ENDROOT
BRANCH   7   8
ATOM      8  CB  LYS A 135      32.060  35.360  10.034  1.00 26.63     0.034 C 
BRANCH   8   9
ATOM      9  CG  LYS A 135      30.691  34.851   9.661  1.00 29.45     0.005 C 
BRANCH   9  10
ATOM     10  CD  LYS A 135      30.644  34.468   8.190  1.00 32.00     0.041 C 
BRANCH  10  11
ATOM     11  CE  LYS A 135      29.473  35.142   7.502  1.00 34.25     0.338 C 
ATOM     12  NZ  LYS A 135      29.303  36.542   7.981  1.00 35.99     0.618 N 
ENDBRANCH  10  11
ENDBRANCH   9  10
ENDBRANCH   8   9
ENDBRANCH   7   8
END_RES LYS A 135
