REMARK VINA RESULT:    -4.640      4.626     11.166
REMARK INTER + INTRA:         -24.254
REMARK INTER:                 -13.268
REMARK INTRA:                 -10.985
REMARK UNBOUND:               -11.748
REMARK SMILES CC(=O)N[C@@H]1[C@@H](O)C[C@](OC[C@H]2O[C@@H](O[C@H]3[C@H](O)[C@@H](O)[C@H](OCCN=[N+]=[N-])O[C@@H]3CO)[C@H](O)[C@@H](O)[C@H]2O)(C(=O)O)O[C@H]1C(O)[C@H](O)CNC(=O)OCc1cn([C@@H](C)C(=O)OCc2ccccc2)nn1
REMARK SMILES IDX 43 1 42 2 9 3 8 4 41 5 6 6 5 7 10 8 11 9 12 10 14 11 13 12
REMARK SMILES IDX 32 13 34 14 36 15 15 16 16 17 29 18 28 19 21 20 17 21 19 22
REMARK SMILES IDX 30 23 31 24 22 26 23 27 24 28 25 29 26 30 27 31 18 32 20 34
REMARK SMILES IDX 33 36 35 38 37 40 38 42 39 43 40 44 7 46 4 48 2 49 1 51 3 52
REMARK SMILES IDX 44 53 45 55 46 56 47 58 48 59 49 60 50 62 51 63 52 64 53 65
REMARK SMILES IDX 54 66 69 67 55 68 68 69 56 70 57 71 58 72 59 73 60 74 61 75
REMARK SMILES IDX 62 76 63 77 67 78 64 79 66 80 65 81
REMARK H PARENT 31 25 18 33 20 35 33 37 35 39 37 41 40 45 7 47 4 50 44 54
REMARK H PARENT 46 57 48 61
REMARK Flexibility Score: inf
ROOT
ATOM      1  C   UNL     1      26.125  37.954  10.394  1.00  0.00     0.176 C 
ENDROOT
BRANCH   1   2
ATOM      2  C   UNL     1      27.295  37.723   9.521  1.00  0.00     0.178 C 
ATOM      3  C   UNL     1      26.429  38.104   7.387  1.00  0.00     0.272 C 
ATOM      4  C   UNL     1      26.632  36.671   7.077  1.00  0.00     0.113 C 
ATOM      5  O   UNL     1      27.376  38.501   8.397  1.00  0.00    -0.332 OA
ATOM      6  C   UNL     1      26.535  35.766   8.283  1.00  0.00     0.145 C 
ATOM      7  C   UNL     1      27.520  36.249   9.304  1.00  0.00     0.142 C 
BRANCH   3   8
ATOM      8  O   UNL     1      25.275  38.560   7.802  1.00  0.00    -0.338 OA
BRANCH   8   9
ATOM      9  C   UNL     1      24.153  38.830   7.202  1.00  0.00     0.199 C 
BRANCH   9  10
ATOM     10  C   UNL     1      22.822  38.303   7.659  1.00  0.00     0.179 C 
ATOM     11  C   UNL     1      21.980  36.813   9.237  1.00  0.00     0.282 C 
ATOM     12  O   UNL     1      23.012  37.151   8.365  1.00  0.00    -0.341 OA
ATOM     13  C   UNL     1      20.684  37.438   8.864  1.00  0.00     0.202 C 
ATOM     14  C   UNL     1      20.767  38.938   8.935  1.00  0.00     0.179 C 
ATOM     15  C   UNL     1      22.126  39.377   8.522  1.00  0.00     0.177 C 
BRANCH  11  16
ATOM     16  O   UNL     1      22.438  37.036  10.506  1.00  0.00    -0.341 OA
BRANCH  16  17
ATOM     17  C   UNL     1      21.937  36.213  11.470  1.00  0.00     0.184 C 
ATOM     18  C   UNL     1      22.330  36.737  12.827  1.00  0.00     0.178 C 
ATOM     19  O   UNL     1      21.956  35.823  13.819  1.00  0.00    -0.341 OA
ATOM     20  C   UNL     1      23.010  34.875  13.849  1.00  0.00     0.281 C 
ATOM     21  C   UNL     1      22.471  34.793  11.372  1.00  0.00     0.180 C 
ATOM     22  C   UNL     1      23.365  34.382  12.482  1.00  0.00     0.202 C 
BRANCH  18  23
ATOM     23  C   UNL     1      21.833  38.120  13.127  1.00  0.00     0.191 C 
BRANCH  23  24
ATOM     24  O   UNL     1      22.605  38.998  12.359  1.00  0.00    -0.394 OA
ATOM     25  H   UNL     1      23.304  39.456  12.884  1.00  0.00     0.210 HD
ENDBRANCH  23  24
ENDBRANCH  18  23
BRANCH  20  26
ATOM     26  O   UNL     1      22.666  33.903  14.732  1.00  0.00    -0.350 OA
BRANCH  26  27
ATOM     27  C   UNL     1      23.545  32.904  14.993  1.00  0.00     0.169 C 
BRANCH  27  28
ATOM     28  C   UNL     1      23.014  31.632  15.549  1.00  0.00     0.119 C 
BRANCH  28  29
ATOM     29  N   UNL     1      22.629  30.625  14.628  1.00  0.00    -0.092 NA
ATOM     30  N   UNL     1      22.017  30.876  13.597  1.00  0.00     0.001 N 
ATOM     31  N   UNL     1      21.551  31.080  12.461  1.00  0.00    -0.003 NA
ENDBRANCH  28  29
ENDBRANCH  27  28
ENDBRANCH  26  27
ENDBRANCH  20  26
BRANCH  21  32
ATOM     32  O   UNL     1      21.431  33.865  11.264  1.00  0.00    -0.387 OA
ATOM     33  H   UNL     1      21.418  33.399  10.399  1.00  0.00     0.211 HD
ENDBRANCH  21  32
BRANCH  22  34
ATOM     34  O   UNL     1      24.692  34.653  12.131  1.00  0.00    -0.385 OA
ATOM     35  H   UNL     1      25.011  33.873  11.604  1.00  0.00     0.211 HD
ENDBRANCH  22  34
ENDBRANCH  16  17
ENDBRANCH  11  16
BRANCH  13  36
ATOM     36  O   UNL     1      20.348  37.013   7.557  1.00  0.00    -0.385 OA
ATOM     37  H   UNL     1      20.968  36.242   7.379  1.00  0.00     0.211 HD
ENDBRANCH  13  36
BRANCH  14  38
ATOM     38  O   UNL     1      20.413  39.344  10.205  1.00  0.00    -0.387 OA
ATOM     39  H   UNL     1      19.841  40.159  10.198  1.00  0.00     0.211 HD
ENDBRANCH  14  38
BRANCH  15  40
ATOM     40  O   UNL     1      22.918  39.755   9.598  1.00  0.00    -0.387 OA
ATOM     41  H   UNL     1      23.740  40.223   9.252  1.00  0.00     0.211 HD
ENDBRANCH  15  40
ENDBRANCH   9  10
ENDBRANCH   8   9
ENDBRANCH   3   8
BRANCH   3  42
ATOM     42  C   UNL     1      26.990  38.901   6.226  1.00  0.00     0.364 C 
ATOM     43  O   UNL     1      27.298  40.094   6.346  1.00  0.00    -0.246 OA
BRANCH  42  44
ATOM     44  O   UNL     1      27.175  38.306   4.979  1.00  0.00    -0.477 OA
ATOM     45  H   UNL     1      27.538  37.367   4.850  1.00  0.00     0.296 HD
ENDBRANCH  42  44
ENDBRANCH   3  42
BRANCH   6  46
ATOM     46  O   UNL     1      25.241  35.670   8.786  1.00  0.00    -0.391 OA
ATOM     47  H   UNL     1      24.934  36.590   8.956  1.00  0.00     0.211 HD
ENDBRANCH   6  46
BRANCH   7  48
ATOM     48  N   UNL     1      28.866  35.981   8.816  1.00  0.00    -0.348 N 
ATOM     49  C   UNL     1      29.377  34.649   8.923  1.00  0.00     0.217 C 
ATOM     50  H   UNL     1      29.482  36.704   8.393  1.00  0.00     0.163 HD
ATOM     51  C   UNL     1      30.758  34.375   8.423  1.00  0.00     0.114 C 
ATOM     52  O   UNL     1      28.669  33.736   9.429  1.00  0.00    -0.275 OA
ENDBRANCH   7  48
ENDBRANCH   1   2
BRANCH   1  53
ATOM     53  O   UNL     1      26.209  37.076  11.502  1.00  0.00    -0.388 OA
ATOM     54  H   UNL     1      25.900  36.165  11.244  1.00  0.00     0.211 HD
ENDBRANCH   1  53
BRANCH   1  55
ATOM     55  C   UNL     1      26.105  39.348  11.042  1.00  0.00     0.165 C 
BRANCH  55  56
ATOM     56  O   UNL     1      25.649  40.309  10.195  1.00  0.00    -0.388 OA
ATOM     57  H   UNL     1      26.135  40.289   9.337  1.00  0.00     0.211 HD
ENDBRANCH  55  56
BRANCH  55  58
ATOM     58  C   UNL     1      27.403  39.638  11.724  1.00  0.00     0.154 C 
BRANCH  58  59
ATOM     59  N   UNL     1      27.386  39.161  13.078  1.00  0.00    -0.319 N 
ATOM     60  C   UNL     1      26.844  39.842  14.194  1.00  0.00     0.407 C 
ATOM     61  H   UNL     1      27.809  38.208  13.317  1.00  0.00     0.167 HD
ATOM     62  O   UNL     1      26.337  40.960  14.076  1.00  0.00    -0.225 OA
BRANCH  60  63
ATOM     63  O   UNL     1      26.866  39.266  15.474  1.00  0.00    -0.443 OA
BRANCH  63  64
ATOM     64  C   UNL     1      25.906  38.327  15.887  1.00  0.00     0.294 C 
BRANCH  64  65
ATOM     65  C   UNL     1      26.347  36.995  15.414  1.00  0.00     0.120 A 
ATOM     66  C   UNL     1      27.162  36.090  16.057  1.00  0.00     0.139 A 
ATOM     67  N   UNL     1      26.017  36.443  14.241  1.00  0.00    -0.132 NA
ATOM     68  N   UNL     1      27.311  35.000  15.255  1.00  0.00    -0.238 N 
ATOM     69  N   UNL     1      26.608  35.241  14.165  1.00  0.00    -0.066 NA
BRANCH  68  70
ATOM     70  C   UNL     1      28.120  33.870  15.637  1.00  0.00     0.215 C 
ATOM     71  C   UNL     1      27.286  32.607  15.744  1.00  0.00     0.046 C 
BRANCH  70  72
ATOM     72  C   UNL     1      29.230  33.655  14.641  1.00  0.00     0.331 C 
ATOM     73  O   UNL     1      29.442  34.524  13.779  1.00  0.00    -0.250 OA
BRANCH  72  74
ATOM     74  O   UNL     1      30.008  32.521  14.669  1.00  0.00    -0.459 OA
BRANCH  74  75
ATOM     75  C   UNL     1      31.122  32.325  15.505  1.00  0.00     0.268 C 
BRANCH  75  76
ATOM     76  C   UNL     1      31.869  33.566  15.799  1.00  0.00    -0.011 A 
ATOM     77  C   UNL     1      32.663  34.183  14.868  1.00  0.00     0.007 A 
ATOM     78  C   UNL     1      31.783  34.139  17.043  1.00  0.00     0.007 A 
ATOM     79  C   UNL     1      33.362  35.338  15.139  1.00  0.00     0.000 A 
ATOM     80  C   UNL     1      32.464  35.292  17.360  1.00  0.00     0.000 A 
ATOM     81  C   UNL     1      33.260  35.890  16.390  1.00  0.00     0.000 A 
ENDBRANCH  75  76
ENDBRANCH  74  75
ENDBRANCH  72  74
ENDBRANCH  70  72
ENDBRANCH  68  70
ENDBRANCH  64  65
ENDBRANCH  63  64
ENDBRANCH  60  63
ENDBRANCH  58  59
ENDBRANCH  55  58
ENDBRANCH   1  55
TORSDOF 34
BEGIN_RES LYS A 131
REMARK  4 active torsions:
REMARK  status: ('A' for Active; 'I' for Inactive)
REMARK    1  A    between atoms: CA   and  CB  
REMARK    2  A    between atoms: CB   and  CG  
REMARK    3  A    between atoms: CG   and  CD  
REMARK    4  A    between atoms: CD   and  CE  
ROOT
ATOM      1  CA  LYS A 131      29.867  25.555  16.977  1.00 20.52     0.186 C 
ENDROOT
BRANCH   1   2
ATOM      2  CB  LYS A 131      28.345  25.722  17.026  1.00 20.94     0.034 C 
BRANCH   2   3
ATOM      3  CG  LYS A 131      27.601  24.403  16.887  1.00 22.96     0.005 C 
BRANCH   3   4
ATOM      4  CD  LYS A 131      26.502  24.262  17.904  1.00 24.33     0.041 C 
BRANCH   4   5
ATOM      5  CE  LYS A 131      25.150  24.418  17.216  1.00 26.91     0.338 C 
ATOM      6  NZ  LYS A 131      24.304  25.388  17.950  1.00 27.40     0.618 N 
ENDBRANCH   4   5
ENDBRANCH   3   4
ENDBRANCH   2   3
ENDBRANCH   1   2
END_RES LYS A 131
BEGIN_RES LYS A 135
REMARK  4 active torsions:
REMARK  status: ('A' for Active; 'I' for Inactive)
REMARK    5  A    between atoms: CA   and  CB  
REMARK    6  A    between atoms: CB   and  CG  
REMARK    7  A    between atoms: CG   and  CD  
REMARK    8  A    between atoms: CD   and  CE  
ROOT
ATOM      7  CA  LYS A 135      33.193  34.663   9.290  1.00 25.02     0.186 C 
ENDROOT
BRANCH   7   8
ATOM      8  CB  LYS A 135      32.060  35.360  10.034  1.00 26.63     0.034 C 
BRANCH   8   9
ATOM      9  CG  LYS A 135      32.398  35.703  11.462  1.00 29.45     0.005 C 
BRANCH   9  10
ATOM     10  CD  LYS A 135      32.284  37.202  11.695  1.00 32.00     0.041 C 
BRANCH  10  11
ATOM     11  CE  LYS A 135      31.146  37.507  12.650  1.00 34.25     0.338 C 
ATOM     12  NZ  LYS A 135      29.827  37.201  12.029  1.00 35.99     0.618 N 
ENDBRANCH  10  11
ENDBRANCH   9  10
ENDBRANCH   8   9
ENDBRANCH   7   8
END_RES LYS A 135
