REMARK VINA RESULT:    -4.468      3.036      8.741
REMARK INTER + INTRA:         -21.620
REMARK INTER:                 -11.240
REMARK INTRA:                 -10.380
REMARK UNBOUND:               -10.230
REMARK SMILES CC(=O)N[C@@H]1[C@@H](O)C[C@](OC[C@H]2O[C@@H](O[C@H]3[C@H](O)[C@@H](O)[C@H](OCCN=[N+]=[N-])O[C@@H]3CO)[C@H](O)[C@@H](O)[C@H]2O)(C(=O)O)O[C@H]1C(O)[C@H](O)CNC(=O)OCc1cn(C(C)(C)CO)nn1
REMARK SMILES IDX 9 1 8 2 6 3 5 4 42 5 41 6 10 7 11 8 12 9 14 10 13 11 32 12
REMARK SMILES IDX 34 13 36 14 15 15 16 16 29 17 28 18 21 19 17 20 19 21 30 22
REMARK SMILES IDX 31 23 22 25 23 26 24 27 25 28 26 29 27 30 18 31 20 33 33 35
REMARK SMILES IDX 35 37 37 39 38 41 39 42 40 43 7 45 43 47 44 48 45 50 46 51
REMARK SMILES IDX 47 53 48 54 49 55 50 57 51 58 52 59 53 60 54 61 62 62 55 63
REMARK SMILES IDX 61 64 56 65 57 66 58 67 59 68 60 69 4 71 2 72 1 74 3 75
REMARK H PARENT 31 24 18 32 20 34 33 36 35 38 37 40 40 44 7 46 44 49 46 52
REMARK H PARENT 48 56 60 70 4 73
REMARK Flexibility Score: inf
ROOT
ATOM      1  C   UNL     1      27.651  28.665  21.015  1.00  0.00     0.272 C 
ATOM      2  C   UNL     1      27.121  28.742  22.422  1.00  0.00     0.113 C 
ATOM      3  C   UNL     1      28.291  29.003  23.340  1.00  0.00     0.145 C 
ATOM      4  C   UNL     1      29.096  27.683  23.351  1.00  0.00     0.142 C 
ATOM      5  C   UNL     1      29.391  27.351  21.919  1.00  0.00     0.178 C 
ATOM      6  O   UNL     1      29.068  28.376  21.052  1.00  0.00    -0.332 OA
ENDROOT
BRANCH   1   7
ATOM      7  O   UNL     1      27.615  29.842  20.341  1.00  0.00    -0.338 OA
BRANCH   7   8
ATOM      8  C   UNL     1      26.646  30.197  19.515  1.00  0.00     0.199 C 
BRANCH   8   9
ATOM      9  C   UNL     1      26.815  30.536  18.091  1.00  0.00     0.179 C 
ATOM     10  C   UNL     1      27.095  32.375  16.728  1.00  0.00     0.282 C 
ATOM     11  O   UNL     1      27.227  31.909  18.009  1.00  0.00    -0.341 OA
ATOM     12  C   UNL     1      27.042  31.351  15.651  1.00  0.00     0.202 C 
ATOM     13  C   UNL     1      27.849  30.105  15.940  1.00  0.00     0.179 C 
ATOM     14  C   UNL     1      27.974  29.825  17.402  1.00  0.00     0.177 C 
BRANCH  10  15
ATOM     15  O   UNL     1      28.078  33.347  16.526  1.00  0.00    -0.341 OA
BRANCH  15  16
ATOM     16  C   UNL     1      28.174  33.780  15.224  1.00  0.00     0.184 C 
ATOM     17  C   UNL     1      29.521  34.376  14.881  1.00  0.00     0.178 C 
ATOM     18  O   UNL     1      29.437  35.565  14.186  1.00  0.00    -0.341 OA
ATOM     19  C   UNL     1      28.814  36.596  14.834  1.00  0.00     0.281 C 
ATOM     20  C   UNL     1      27.119  34.891  15.073  1.00  0.00     0.180 C 
ATOM     21  C   UNL     1      27.741  36.088  15.769  1.00  0.00     0.202 C 
BRANCH  17  22
ATOM     22  C   UNL     1      30.192  33.375  13.948  1.00  0.00     0.191 C 
BRANCH  22  23
ATOM     23  O   UNL     1      30.697  32.309  14.694  1.00  0.00    -0.394 OA
ATOM     24  H   UNL     1      30.589  31.442  14.261  1.00  0.00     0.210 HD
ENDBRANCH  22  23
ENDBRANCH  17  22
BRANCH  19  25
ATOM     25  O   UNL     1      28.315  37.455  13.871  1.00  0.00    -0.350 OA
BRANCH  25  26
ATOM     26  C   UNL     1      29.225  37.955  12.993  1.00  0.00     0.169 C 
BRANCH  26  27
ATOM     27  C   UNL     1      29.012  37.509  11.554  1.00  0.00     0.119 C 
BRANCH  27  28
ATOM     28  N   UNL     1      27.664  37.804  11.111  1.00  0.00    -0.092 NA
ATOM     29  N   UNL     1      26.935  36.843  10.826  1.00  0.00     0.001 N 
ATOM     30  N   UNL     1      26.032  35.979  10.867  1.00  0.00    -0.003 NA
ENDBRANCH  27  28
ENDBRANCH  26  27
ENDBRANCH  25  26
ENDBRANCH  19  25
BRANCH  20  31
ATOM     31  O   UNL     1      26.993  35.092  13.695  1.00  0.00    -0.387 OA
ATOM     32  H   UNL     1      26.257  35.753  13.589  1.00  0.00     0.211 HD
ENDBRANCH  20  31
BRANCH  21  33
ATOM     33  O   UNL     1      28.390  35.603  16.917  1.00  0.00    -0.385 OA
ATOM     34  H   UNL     1      28.541  34.615  16.834  1.00  0.00     0.211 HD
ENDBRANCH  21  33
ENDBRANCH  15  16
ENDBRANCH  10  15
BRANCH  12  35
ATOM     35  O   UNL     1      25.753  31.031  15.220  1.00  0.00    -0.385 OA
ATOM     36  H   UNL     1      25.218  31.846  15.302  1.00  0.00     0.211 HD
ENDBRANCH  12  35
BRANCH  13  37
ATOM     37  O   UNL     1      29.113  30.172  15.327  1.00  0.00    -0.387 OA
ATOM     38  H   UNL     1      29.026  30.366  14.356  1.00  0.00     0.211 HD
ENDBRANCH  13  37
BRANCH  14  39
ATOM     39  O   UNL     1      29.155  30.469  17.837  1.00  0.00    -0.387 OA
ATOM     40  H   UNL     1      29.205  30.446  18.816  1.00  0.00     0.211 HD
ENDBRANCH  14  39
ENDBRANCH   8   9
ENDBRANCH   7   8
ENDBRANCH   1   7
BRANCH   1  41
ATOM     41  C   UNL     1      27.116  27.528  20.267  1.00  0.00     0.364 C 
ATOM     42  O   UNL     1      27.684  27.056  19.280  1.00  0.00    -0.246 OA
BRANCH  41  43
ATOM     43  O   UNL     1      25.911  26.895  20.623  1.00  0.00    -0.477 OA
ATOM     44  H   UNL     1      25.803  26.628  21.595  1.00  0.00     0.296 HD
ENDBRANCH  41  43
ENDBRANCH   1  41
BRANCH   3  45
ATOM     45  O   UNL     1      29.128  29.921  22.701  1.00  0.00    -0.391 OA
ATOM     46  H   UNL     1      29.107  30.793  23.145  1.00  0.00     0.211 HD
ENDBRANCH   3  45
BRANCH   5  47
ATOM     47  C   UNL     1      30.924  27.257  21.819  1.00  0.00     0.176 C 
BRANCH  47  48
ATOM     48  O   UNL     1      31.482  28.069  22.837  1.00  0.00    -0.388 OA
ATOM     49  H   UNL     1      30.911  28.824  23.056  1.00  0.00     0.211 HD
ENDBRANCH  47  48
BRANCH  47  50
ATOM     50  C   UNL     1      31.446  27.872  20.531  1.00  0.00     0.165 C 
BRANCH  50  51
ATOM     51  O   UNL     1      32.208  27.023  19.797  1.00  0.00    -0.388 OA
ATOM     52  H   UNL     1      33.179  27.194  19.800  1.00  0.00     0.211 HD
ENDBRANCH  50  51
BRANCH  50  53
ATOM     53  C   UNL     1      32.196  29.153  20.837  1.00  0.00     0.154 C 
BRANCH  53  54
ATOM     54  N   UNL     1      31.425  30.341  20.834  1.00  0.00    -0.319 N 
ATOM     55  C   UNL     1      31.862  31.572  21.335  1.00  0.00     0.407 C 
ATOM     56  H   UNL     1      30.430  30.319  20.421  1.00  0.00     0.167 HD
ATOM     57  O   UNL     1      32.992  31.727  21.826  1.00  0.00    -0.225 OA
BRANCH  55  58
ATOM     58  O   UNL     1      31.028  32.715  21.309  1.00  0.00    -0.443 OA
BRANCH  58  59
ATOM     59  C   UNL     1      30.162  32.966  20.225  1.00  0.00     0.294 C 
BRANCH  59  60
ATOM     60  C   UNL     1      30.859  33.406  18.999  1.00  0.00     0.120 A 
ATOM     61  C   UNL     1      31.451  34.630  18.765  1.00  0.00     0.139 A 
ATOM     62  N   UNL     1      31.052  32.694  17.878  1.00  0.00    -0.132 NA
ATOM     63  N   UNL     1      31.984  34.631  17.518  1.00  0.00    -0.244 N 
ATOM     64  N   UNL     1      31.727  33.442  17.001  1.00  0.00    -0.066 NA
BRANCH  63  65
ATOM     65  C   UNL     1      32.690  35.730  16.908  1.00  0.00     0.082 C 
ATOM     66  C   UNL     1      33.943  36.019  17.681  1.00  0.00     0.039 C 
ATOM     67  C   UNL     1      31.831  37.002  16.962  1.00  0.00     0.039 C 
BRANCH  65  68
ATOM     68  C   UNL     1      33.042  35.500  15.467  1.00  0.00     0.186 C 
BRANCH  68  69
ATOM     69  O   UNL     1      32.394  36.348  14.599  1.00  0.00    -0.394 OA
ATOM     70  H   UNL     1      31.425  36.331  14.645  1.00  0.00     0.210 HD
ENDBRANCH  68  69
ENDBRANCH  65  68
ENDBRANCH  63  65
ENDBRANCH  59  60
ENDBRANCH  58  59
ENDBRANCH  55  58
ENDBRANCH  53  54
ENDBRANCH  50  53
ENDBRANCH  47  50
ENDBRANCH   5  47
BRANCH   4  71
ATOM     71  N   UNL     1      28.279  26.742  24.047  1.00  0.00    -0.348 N 
ATOM     72  C   UNL     1      28.731  25.718  24.912  1.00  0.00     0.217 C 
ATOM     73  H   UNL     1      27.222  26.776  23.928  1.00  0.00     0.163 HD
ATOM     74  C   UNL     1      27.798  24.780  25.593  1.00  0.00     0.114 C 
ATOM     75  O   UNL     1      29.949  25.590  25.117  1.00  0.00    -0.275 OA
ENDBRANCH   4  71
TORSDOF 32
BEGIN_RES LYS A 131
REMARK  4 active torsions:
REMARK  status: ('A' for Active; 'I' for Inactive)
REMARK    1  A    between atoms: CA   and  CB  
REMARK    2  A    between atoms: CB   and  CG  
REMARK    3  A    between atoms: CG   and  CD  
REMARK    4  A    between atoms: CD   and  CE  
ROOT
ATOM      1  CA  LYS A 131      29.867  25.555  16.977  1.00 20.52     0.186 C 
ENDROOT
BRANCH   1   2
ATOM      2  CB  LYS A 131      28.345  25.722  17.026  1.00 20.94     0.034 C 
BRANCH   2   3
ATOM      3  CG  LYS A 131      27.601  24.403  16.883  1.00 22.96     0.005 C 
BRANCH   3   4
ATOM      4  CD  LYS A 131      26.605  24.192  17.990  1.00 24.33     0.041 C 
BRANCH   4   5
ATOM      5  CE  LYS A 131      25.298  24.898  17.639  1.00 26.91     0.338 C 
ATOM      6  NZ  LYS A 131      24.400  23.986  16.893  1.00 27.40     0.618 N 
ENDBRANCH   4   5
ENDBRANCH   3   4
ENDBRANCH   2   3
ENDBRANCH   1   2
END_RES LYS A 131
BEGIN_RES LYS A 135
REMARK  4 active torsions:
REMARK  status: ('A' for Active; 'I' for Inactive)
REMARK    5  A    between atoms: CA   and  CB  
REMARK    6  A    between atoms: CB   and  CG  
REMARK    7  A    between atoms: CG   and  CD  
REMARK    8  A    between atoms: CD   and  CE  
ROOT
ATOM      7  CA  LYS A 135      33.193  34.663   9.290  1.00 25.02     0.186 C 
ENDROOT
BRANCH   7   8
ATOM      8  CB  LYS A 135      32.060  35.360  10.034  1.00 26.63     0.034 C 
BRANCH   8   9
ATOM      9  CG  LYS A 135      30.715  34.712   9.827  1.00 29.45     0.005 C 
BRANCH   9  10
ATOM     10  CD  LYS A 135      29.968  35.379   8.683  1.00 32.00     0.041 C 
BRANCH  10  11
ATOM     11  CE  LYS A 135      28.732  34.581   8.316  1.00 34.25     0.338 C 
ATOM     12  NZ  LYS A 135      28.244  33.785   9.477  1.00 35.99     0.618 N 
ENDBRANCH  10  11
ENDBRANCH   9  10
ENDBRANCH   8   9
ENDBRANCH   7   8
END_RES LYS A 135
