REMARK VINA RESULT:    -4.794      4.070      8.052
REMARK INTER + INTRA:         -23.013
REMARK INTER:                 -11.672
REMARK INTRA:                 -11.341
REMARK UNBOUND:               -10.372
REMARK SMILES CC(=O)N[C@@H]1[C@@H](O)C[C@](OC[C@H]2O[C@@H](O[C@H]3[C@H](O)[C@@H](O)[C@H](OCCN=[N+]=[N-])O[C@@H]3CO)[C@H](O)[C@@H](O)[C@H]2O)(C(=O)O)O[C@H]1C(O)[C@H](O)CNC(=O)OCc1cn(CC(=O)NCc2cccs2)nn1
REMARK SMILES IDX 43 1 42 2 9 3 8 4 41 5 6 6 5 7 10 8 11 9 12 10 14 11 13 12
REMARK SMILES IDX 32 13 34 14 36 15 15 16 16 17 29 18 28 19 21 20 17 21 19 22
REMARK SMILES IDX 30 23 31 24 22 26 23 27 24 28 25 29 26 30 27 31 18 32 20 34
REMARK SMILES IDX 33 36 35 38 37 40 38 42 39 43 40 44 7 46 4 48 2 49 1 51 3 52
REMARK SMILES IDX 44 53 45 55 46 56 47 58 48 59 49 60 50 62 51 63 52 64 53 65
REMARK SMILES IDX 54 66 67 67 55 68 66 69 56 70 57 71 58 72 59 73 60 75 61 76
REMARK SMILES IDX 62 77 65 78 63 79 64 80
REMARK H PARENT 31 25 18 33 20 35 33 37 35 39 37 41 40 45 7 47 4 50 44 54
REMARK H PARENT 46 57 48 61 59 74
REMARK Flexibility Score: inf
ROOT
ATOM      1  C   UNL     1      32.277  35.234  16.255  1.00  0.00     0.176 C 
ENDROOT
BRANCH   1   2
ATOM      2  C   UNL     1      31.124  35.803  15.470  1.00  0.00     0.178 C 
ATOM      3  C   UNL     1      29.259  34.359  15.296  1.00  0.00     0.272 C 
ATOM      4  C   UNL     1      29.958  33.725  14.082  1.00  0.00     0.113 C 
ATOM      5  O   UNL     1      29.979  35.273  15.954  1.00  0.00    -0.332 OA
ATOM      6  C   UNL     1      30.516  34.803  13.244  1.00  0.00     0.145 C 
ATOM      7  C   UNL     1      31.295  35.845  14.002  1.00  0.00     0.142 C 
BRANCH   3   8
ATOM      8  O   UNL     1      28.954  33.286  16.100  1.00  0.00    -0.338 OA
BRANCH   8   9
ATOM      9  C   UNL     1      29.308  32.043  15.768  1.00  0.00     0.199 C 
BRANCH   9  10
ATOM     10  C   UNL     1      28.496  30.880  16.263  1.00  0.00     0.179 C 
ATOM     11  C   UNL     1      27.918  30.011  18.306  1.00  0.00     0.282 C 
ATOM     12  O   UNL     1      28.194  31.195  17.610  1.00  0.00    -0.341 OA
ATOM     13  C   UNL     1      27.017  29.109  17.531  1.00  0.00     0.202 C 
ATOM     14  C   UNL     1      26.341  29.734  16.357  1.00  0.00     0.179 C 
ATOM     15  C   UNL     1      27.140  30.749  15.604  1.00  0.00     0.177 C 
BRANCH  11  16
ATOM     16  O   UNL     1      27.419  30.238  19.559  1.00  0.00    -0.341 OA
BRANCH  16  17
ATOM     17  C   UNL     1      28.393  30.231  20.555  1.00  0.00     0.184 C 
ATOM     18  C   UNL     1      29.745  29.942  20.070  1.00  0.00     0.178 C 
ATOM     19  O   UNL     1      30.322  28.748  20.408  1.00  0.00    -0.341 OA
ATOM     20  C   UNL     1      29.542  27.799  20.986  1.00  0.00     0.281 C 
ATOM     21  C   UNL     1      27.872  29.387  21.683  1.00  0.00     0.180 C 
ATOM     22  C   UNL     1      28.907  28.438  22.234  1.00  0.00     0.202 C 
BRANCH  18  23
ATOM     23  C   UNL     1      30.730  31.014  20.580  1.00  0.00     0.191 C 
BRANCH  23  24
ATOM     24  O   UNL     1      30.124  32.237  20.764  1.00  0.00    -0.394 OA
ATOM     25  H   UNL     1      30.170  32.735  19.903  1.00  0.00     0.210 HD
ENDBRANCH  23  24
ENDBRANCH  18  23
BRANCH  20  26
ATOM     26  O   UNL     1      30.373  26.793  21.505  1.00  0.00    -0.350 OA
BRANCH  26  27
ATOM     27  C   UNL     1      31.707  27.053  21.266  1.00  0.00     0.169 C 
BRANCH  27  28
ATOM     28  C   UNL     1      32.404  27.133  22.627  1.00  0.00     0.119 C 
BRANCH  28  29
ATOM     29  N   UNL     1      32.491  28.527  23.038  1.00  0.00    -0.092 NA
ATOM     30  N   UNL     1      33.294  29.274  22.482  1.00  0.00     0.001 N 
ATOM     31  N   UNL     1      33.935  30.119  21.831  1.00  0.00    -0.003 NA
ENDBRANCH  28  29
ENDBRANCH  27  28
ENDBRANCH  26  27
ENDBRANCH  20  26
BRANCH  21  32
ATOM     32  O   UNL     1      27.287  30.140  22.705  1.00  0.00    -0.387 OA
ATOM     33  H   UNL     1      26.288  30.184  22.591  1.00  0.00     0.211 HD
ENDBRANCH  21  32
BRANCH  22  34
ATOM     34  O   UNL     1      28.262  27.487  22.999  1.00  0.00    -0.385 OA
ATOM     35  H   UNL     1      27.784  27.911  23.757  1.00  0.00     0.211 HD
ENDBRANCH  22  34
ENDBRANCH  16  17
ENDBRANCH  11  16
BRANCH  13  36
ATOM     36  O   UNL     1      27.683  27.928  17.129  1.00  0.00    -0.385 OA
ATOM     37  H   UNL     1      27.647  27.219  17.790  1.00  0.00     0.211 HD
ENDBRANCH  13  36
BRANCH  14  38
ATOM     38  O   UNL     1      25.072  30.240  16.726  1.00  0.00    -0.387 OA
ATOM     39  H   UNL     1      25.183  31.096  17.209  1.00  0.00     0.211 HD
ENDBRANCH  14  38
BRANCH  15  40
ATOM     40  O   UNL     1      26.452  31.979  15.742  1.00  0.00    -0.387 OA
ATOM     41  H   UNL     1      27.068  32.738  15.856  1.00  0.00     0.211 HD
ENDBRANCH  15  40
ENDBRANCH   9  10
ENDBRANCH   8   9
ENDBRANCH   3   8
BRANCH   3  42
ATOM     42  C   UNL     1      28.025  34.981  14.722  1.00  0.00     0.364 C 
ATOM     43  O   UNL     1      27.698  36.180  14.872  1.00  0.00    -0.246 OA
BRANCH  42  44
ATOM     44  O   UNL     1      27.164  34.197  13.964  1.00  0.00    -0.477 OA
ATOM     45  H   UNL     1      26.538  34.625  13.293  1.00  0.00     0.296 HD
ENDBRANCH  42  44
ENDBRANCH   3  42
BRANCH   6  46
ATOM     46  O   UNL     1      31.310  34.228  12.210  1.00  0.00    -0.391 OA
ATOM     47  H   UNL     1      30.957  34.456  11.322  1.00  0.00     0.211 HD
ENDBRANCH   6  46
BRANCH   7  48
ATOM     48  N   UNL     1      31.045  37.168  13.465  1.00  0.00    -0.348 N 
ATOM     49  C   UNL     1      31.730  37.608  12.313  1.00  0.00     0.217 C 
ATOM     50  H   UNL     1      30.359  37.832  13.912  1.00  0.00     0.163 HD
ATOM     51  C   UNL     1      31.460  38.973  11.774  1.00  0.00     0.114 C 
ATOM     52  O   UNL     1      32.572  36.915  11.694  1.00  0.00    -0.275 OA
ENDBRANCH   7  48
ENDBRANCH   1   2
BRANCH   1  53
ATOM     53  O   UNL     1      33.495  35.290  15.643  1.00  0.00    -0.388 OA
ATOM     54  H   UNL     1      34.095  36.013  15.923  1.00  0.00     0.211 HD
ENDBRANCH   1  53
BRANCH   1  55
ATOM     55  C   UNL     1      32.320  35.637  17.713  1.00  0.00     0.165 C 
BRANCH  55  56
ATOM     56  O   UNL     1      33.553  36.034  18.132  1.00  0.00    -0.388 OA
ATOM     57  H   UNL     1      34.004  36.686  17.551  1.00  0.00     0.211 HD
ENDBRANCH  55  56
BRANCH  55  58
ATOM     58  C   UNL     1      31.780  34.512  18.580  1.00  0.00     0.154 C 
BRANCH  58  59
ATOM     59  N   UNL     1      30.348  34.477  18.624  1.00  0.00    -0.319 N 
ATOM     60  C   UNL     1      29.496  35.354  19.339  1.00  0.00     0.407 C 
ATOM     61  H   UNL     1      29.802  33.723  18.072  1.00  0.00     0.167 HD
ATOM     62  O   UNL     1      29.932  36.282  20.019  1.00  0.00    -0.225 OA
BRANCH  60  63
ATOM     63  O   UNL     1      28.095  35.202  19.304  1.00  0.00    -0.443 OA
BRANCH  63  64
ATOM     64  C   UNL     1      27.420  33.990  19.395  1.00  0.00     0.294 C 
BRANCH  64  65
ATOM     65  C   UNL     1      26.220  33.888  18.554  1.00  0.00     0.120 A 
ATOM     66  C   UNL     1      25.707  34.854  17.717  1.00  0.00     0.138 A 
ATOM     67  N   UNL     1      25.390  32.817  18.439  1.00  0.00    -0.132 NA
ATOM     68  N   UNL     1      24.607  34.367  17.126  1.00  0.00    -0.243 N 
ATOM     69  N   UNL     1      24.448  33.147  17.580  1.00  0.00    -0.067 NA
BRANCH  68  70
ATOM     70  C   UNL     1      23.710  34.972  16.167  1.00  0.00     0.245 C 
BRANCH  70  71
ATOM     71  C   UNL     1      24.040  34.454  14.827  1.00  0.00     0.242 C 
ATOM     72  O   UNL     1      24.375  35.233  13.917  1.00  0.00    -0.273 OA
ATOM     73  N   UNL     1      23.980  33.064  14.560  1.00  0.00    -0.350 N 
ATOM     74  H   UNL     1      23.698  32.368  15.306  1.00  0.00     0.163 HD
BRANCH  73  75
ATOM     75  C   UNL     1      24.294  32.521  13.274  1.00  0.00     0.162 C 
BRANCH  75  76
ATOM     76  C   UNL     1      23.375  31.412  12.979  1.00  0.00     0.024 A 
ATOM     77  C   UNL     1      23.592  30.085  12.800  1.00  0.00     0.017 A 
ATOM     78  S   UNL     1      21.635  31.572  12.783  1.00  0.00    -0.147 S 
ATOM     79  C   UNL     1      22.553  29.277  12.541  1.00  0.00     0.012 A 
ATOM     80  C   UNL     1      21.308  29.780  12.461  1.00  0.00     0.065 A 
ENDBRANCH  75  76
ENDBRANCH  73  75
ENDBRANCH  70  71
ENDBRANCH  68  70
ENDBRANCH  64  65
ENDBRANCH  63  64
ENDBRANCH  60  63
ENDBRANCH  58  59
ENDBRANCH  55  58
ENDBRANCH   1  55
TORSDOF 33
BEGIN_RES LYS A 131
REMARK  4 active torsions:
REMARK  status: ('A' for Active; 'I' for Inactive)
REMARK    1  A    between atoms: CA   and  CB  
REMARK    2  A    between atoms: CB   and  CG  
REMARK    3  A    between atoms: CG   and  CD  
REMARK    4  A    between atoms: CD   and  CE  
ROOT
ATOM      1  CA  LYS A 131      29.867  25.555  16.977  1.00 20.52     0.186 C 
ENDROOT
BRANCH   1   2
ATOM      2  CB  LYS A 131      28.345  25.722  17.026  1.00 20.94     0.034 C 
BRANCH   2   3
ATOM      3  CG  LYS A 131      27.601  24.403  16.887  1.00 22.96     0.005 C 
BRANCH   3   4
ATOM      4  CD  LYS A 131      26.200  24.483  17.425  1.00 24.33     0.041 C 
BRANCH   4   5
ATOM      5  CE  LYS A 131      26.213  25.197  18.773  1.00 26.91     0.338 C 
ATOM      6  NZ  LYS A 131      24.982  24.884  19.538  1.00 27.40     0.618 N 
ENDBRANCH   4   5
ENDBRANCH   3   4
ENDBRANCH   2   3
ENDBRANCH   1   2
END_RES LYS A 131
BEGIN_RES LYS A 135
REMARK  4 active torsions:
REMARK  status: ('A' for Active; 'I' for Inactive)
REMARK    5  A    between atoms: CA   and  CB  
REMARK    6  A    between atoms: CB   and  CG  
REMARK    7  A    between atoms: CG   and  CD  
REMARK    8  A    between atoms: CD   and  CE  
ROOT
ATOM      7  CA  LYS A 135      33.193  34.663   9.290  1.00 25.02     0.186 C 
ENDROOT
BRANCH   7   8
ATOM      8  CB  LYS A 135      32.060  35.360  10.034  1.00 26.63     0.034 C 
BRANCH   8   9
ATOM      9  CG  LYS A 135      30.724  35.238   9.348  1.00 29.45     0.005 C 
BRANCH   9  10
ATOM     10  CD  LYS A 135      30.206  36.607   8.935  1.00 32.00     0.041 C 
BRANCH  10  11
ATOM     11  CE  LYS A 135      28.839  36.487   8.289  1.00 34.25     0.338 C 
ATOM     12  NZ  LYS A 135      28.935  35.860   6.942  1.00 35.99     0.618 N 
ENDBRANCH  10  11
ENDBRANCH   9  10
ENDBRANCH   8   9
ENDBRANCH   7   8
END_RES LYS A 135
