REMARK VINA RESULT:    -4.853      4.787     10.369
REMARK INTER + INTRA:         -25.552
REMARK INTER:                 -11.763
REMARK INTRA:                 -13.789
REMARK UNBOUND:               -12.046
REMARK SMILES CC(=O)N[C@@H]1[C@@H](O)C[C@](OC[C@H]2O[C@@H](O[C@H]3[C@H](O)[C@@H](O)[C@H](OCCN=[N+]=[N-])O[C@@H]3CO)[C@H](O)[C@@H](O)[C@H]2O)(C(=O)O)O[C@H]1C(O)[C@H](O)CNC(=O)OCc1cn(C[C@@H](C(=O)O)C(c2ccccc2)c2ccccc2)nn1
REMARK SMILES IDX 43 1 42 2 9 3 8 4 41 5 6 6 5 7 10 8 11 9 12 10 14 11 13 12
REMARK SMILES IDX 32 13 34 14 36 15 15 16 16 17 29 18 28 19 21 20 17 21 19 22
REMARK SMILES IDX 30 23 31 24 22 26 23 27 24 28 25 29 26 30 27 31 18 32 20 34
REMARK SMILES IDX 33 36 35 38 37 40 38 42 39 43 40 44 7 46 4 48 2 49 1 51 3 52
REMARK SMILES IDX 44 53 45 55 46 56 47 58 48 59 49 60 50 62 51 63 52 64 53 65
REMARK SMILES IDX 54 66 75 67 55 68 74 69 56 70 57 71 58 72 59 73 60 74 61 76
REMARK SMILES IDX 62 77 63 78 67 79 64 80 66 81 65 82 68 83 69 84 73 85 70 86
REMARK SMILES IDX 72 87 71 88
REMARK H PARENT 31 25 18 33 20 35 33 37 35 39 37 41 40 45 7 47 4 50 44 54
REMARK H PARENT 46 57 48 61 60 75
REMARK Flexibility Score: inf
ROOT
ATOM      1  C   UNL     1      20.830  34.133  13.696  1.00  0.00     0.176 C 
ENDROOT
BRANCH   1   2
ATOM      2  C   UNL     1      22.139  34.505  14.426  1.00  0.00     0.178 C 
ATOM      3  C   UNL     1      24.265  33.888  15.091  1.00  0.00     0.272 C 
ATOM      4  C   UNL     1      24.162  35.399  15.484  1.00  0.00     0.113 C 
ATOM      5  O   UNL     1      23.044  33.510  14.504  1.00  0.00    -0.332 OA
ATOM      6  C   UNL     1      22.984  35.671  16.354  1.00  0.00     0.145 C 
ATOM      7  C   UNL     1      21.734  35.129  15.740  1.00  0.00     0.142 C 
BRANCH   3   8
ATOM      8  O   UNL     1      24.638  33.229  16.137  1.00  0.00    -0.338 OA
BRANCH   8   9
ATOM      9  C   UNL     1      25.661  33.022  16.869  1.00  0.00     0.199 C 
BRANCH   9  10
ATOM     10  C   UNL     1      26.147  31.670  17.321  1.00  0.00     0.179 C 
ATOM     11  C   UNL     1      25.186  29.502  17.285  1.00  0.00     0.282 C 
ATOM     12  O   UNL     1      25.099  30.823  17.507  1.00  0.00    -0.341 OA
ATOM     13  C   UNL     1      26.490  28.887  16.955  1.00  0.00     0.202 C 
ATOM     14  C   UNL     1      27.609  29.851  16.685  1.00  0.00     0.179 C 
ATOM     15  C   UNL     1      26.976  31.095  16.150  1.00  0.00     0.177 C 
BRANCH  11  16
ATOM     16  O   UNL     1      24.338  29.264  16.163  1.00  0.00    -0.341 OA
BRANCH  16  17
ATOM     17  C   UNL     1      23.273  28.456  16.446  1.00  0.00     0.184 C 
ATOM     18  C   UNL     1      22.891  27.707  15.201  1.00  0.00     0.178 C 
ATOM     19  O   UNL     1      22.021  28.426  14.389  1.00  0.00    -0.341 OA
ATOM     20  C   UNL     1      22.145  29.816  14.530  1.00  0.00     0.281 C 
ATOM     21  C   UNL     1      22.051  29.242  16.901  1.00  0.00     0.180 C 
ATOM     22  C   UNL     1      21.691  30.291  15.868  1.00  0.00     0.202 C 
BRANCH  18  23
ATOM     23  C   UNL     1      22.311  26.344  15.452  1.00  0.00     0.191 C 
BRANCH  23  24
ATOM     24  O   UNL     1      20.980  26.246  15.098  1.00  0.00    -0.394 OA
ATOM     25  H   UNL     1      20.680  27.170  14.843  1.00  0.00     0.210 HD
ENDBRANCH  23  24
ENDBRANCH  18  23
BRANCH  20  26
ATOM     26  O   UNL     1      21.361  30.416  13.570  1.00  0.00    -0.350 OA
BRANCH  26  27
ATOM     27  C   UNL     1      20.949  29.639  12.533  1.00  0.00     0.169 C 
BRANCH  27  28
ATOM     28  C   UNL     1      19.521  29.829  12.137  1.00  0.00     0.119 C 
BRANCH  28  29
ATOM     29  N   UNL     1      18.806  28.621  12.596  1.00  0.00    -0.092 NA
ATOM     30  N   UNL     1      18.669  28.487  13.814  1.00  0.00     0.001 N 
ATOM     31  N   UNL     1      18.649  28.266  15.023  1.00  0.00    -0.003 NA
ENDBRANCH  28  29
ENDBRANCH  27  28
ENDBRANCH  26  27
ENDBRANCH  20  26
BRANCH  21  32
ATOM     32  O   UNL     1      20.990  28.344  16.973  1.00  0.00    -0.387 OA
ATOM     33  H   UNL     1      21.026  27.649  16.276  1.00  0.00     0.211 HD
ENDBRANCH  21  32
BRANCH  22  34
ATOM     34  O   UNL     1      22.320  31.493  16.168  1.00  0.00    -0.385 OA
ATOM     35  H   UNL     1      22.108  32.126  15.411  1.00  0.00     0.211 HD
ENDBRANCH  22  34
ENDBRANCH  16  17
ENDBRANCH  11  16
BRANCH  13  36
ATOM     36  O   UNL     1      26.932  28.076  18.028  1.00  0.00    -0.385 OA
ATOM     37  H   UNL     1      27.670  28.533  18.524  1.00  0.00     0.211 HD
ENDBRANCH  13  36
BRANCH  14  38
ATOM     38  O   UNL     1      28.491  29.312  15.770  1.00  0.00    -0.387 OA
ATOM     39  H   UNL     1      28.653  28.359  15.999  1.00  0.00     0.211 HD
ENDBRANCH  14  38
BRANCH  15  40
ATOM     40  O   UNL     1      26.154  30.760  15.083  1.00  0.00    -0.387 OA
ATOM     41  H   UNL     1      25.242  31.044  15.302  1.00  0.00     0.211 HD
ENDBRANCH  15  40
ENDBRANCH   9  10
ENDBRANCH   8   9
ENDBRANCH   3   8
BRANCH   3  42
ATOM     42  C   UNL     1      25.225  33.926  13.970  1.00  0.00     0.364 C 
ATOM     43  O   UNL     1      26.158  34.746  13.847  1.00  0.00    -0.246 OA
BRANCH  42  44
ATOM     44  O   UNL     1      25.111  32.974  12.934  1.00  0.00    -0.477 OA
ATOM     45  H   UNL     1      25.571  33.180  12.072  1.00  0.00     0.296 HD
ENDBRANCH  42  44
ENDBRANCH   3  42
BRANCH   6  46
ATOM     46  O   UNL     1      23.159  35.181  17.657  1.00  0.00    -0.391 OA
ATOM     47  H   UNL     1      22.391  35.393  18.237  1.00  0.00     0.211 HD
ENDBRANCH   6  46
BRANCH   7  48
ATOM     48  N   UNL     1      20.830  36.221  15.457  1.00  0.00    -0.348 N 
ATOM     49  C   UNL     1      19.981  36.752  16.459  1.00  0.00     0.217 C 
ATOM     50  H   UNL     1      20.813  36.623  14.477  1.00  0.00     0.163 HD
ATOM     51  C   UNL     1      19.038  37.888  16.171  1.00  0.00     0.114 C 
ATOM     52  O   UNL     1      20.045  36.235  17.604  1.00  0.00    -0.275 OA
ENDBRANCH   7  48
ENDBRANCH   1   2
BRANCH   1  53
ATOM     53  O   UNL     1      20.210  33.077  14.307  1.00  0.00    -0.388 OA
ATOM     54  H   UNL     1      20.754  32.630  14.995  1.00  0.00     0.211 HD
ENDBRANCH   1  53
BRANCH   1  55
ATOM     55  C   UNL     1      21.095  33.823  12.275  1.00  0.00     0.165 C 
BRANCH  55  56
ATOM     56  O   UNL     1      22.053  32.804  12.094  1.00  0.00    -0.388 OA
ATOM     57  H   UNL     1      22.176  32.416  13.016  1.00  0.00     0.211 HD
ENDBRANCH  55  56
BRANCH  55  58
ATOM     58  C   UNL     1      21.349  34.907  11.295  1.00  0.00     0.154 C 
BRANCH  58  59
ATOM     59  N   UNL     1      22.544  34.824  10.541  1.00  0.00    -0.319 N 
ATOM     60  C   UNL     1      23.758  35.491  10.811  1.00  0.00     0.407 C 
ATOM     61  H   UNL     1      22.535  34.177   9.660  1.00  0.00     0.167 HD
ATOM     62  O   UNL     1      23.898  36.287  11.756  1.00  0.00    -0.225 OA
BRANCH  60  63
ATOM     63  O   UNL     1      24.834  35.237   9.986  1.00  0.00    -0.443 OA
BRANCH  63  64
ATOM     64  C   UNL     1      25.822  36.176   9.747  1.00  0.00     0.294 C 
BRANCH  64  65
ATOM     65  C   UNL     1      27.015  36.045  10.596  1.00  0.00     0.120 A 
ATOM     66  C   UNL     1      27.793  37.022  11.170  1.00  0.00     0.138 A 
ATOM     67  N   UNL     1      27.618  34.870  10.958  1.00  0.00    -0.132 NA
ATOM     68  N   UNL     1      28.802  36.453  11.836  1.00  0.00    -0.251 N 
ATOM     69  N   UNL     1      28.672  35.148  11.690  1.00  0.00    -0.067 NA
BRANCH  68  70
ATOM     70  C   UNL     1      29.879  37.110  12.603  1.00  0.00     0.162 C 
BRANCH  70  71
ATOM     71  C   UNL     1      30.745  36.077  13.247  1.00  0.00     0.132 C 
BRANCH  71  72
ATOM     72  C   UNL     1      32.138  36.142  12.711  1.00  0.00     0.309 C 
ATOM     73  O   UNL     1      33.035  35.357  13.061  1.00  0.00    -0.252 OA
BRANCH  72  74
ATOM     74  O   UNL     1      32.462  37.114  11.780  1.00  0.00    -0.481 OA
ATOM     75  H   UNL     1      31.852  37.928  11.669  1.00  0.00     0.296 HD
ENDBRANCH  72  74
ENDBRANCH  71  72
BRANCH  71  76
ATOM     76  C   UNL     1      30.704  35.950  14.723  1.00  0.00     0.065 C 
BRANCH  76  77
ATOM     77  C   UNL     1      29.808  36.842  15.461  1.00  0.00    -0.040 A 
ATOM     78  C   UNL     1      28.458  36.515  15.653  1.00  0.00     0.004 A 
ATOM     79  C   UNL     1      30.209  38.062  16.012  1.00  0.00     0.004 A 
ATOM     80  C   UNL     1      27.589  37.314  16.326  1.00  0.00     0.000 A 
ATOM     81  C   UNL     1      29.322  38.863  16.690  1.00  0.00     0.000 A 
ATOM     82  C   UNL     1      28.001  38.498  16.854  1.00  0.00     0.000 A 
ENDBRANCH  76  77
BRANCH  76  83
ATOM     83  C   UNL     1      30.718  34.542  15.203  1.00  0.00    -0.040 A 
ATOM     84  C   UNL     1      31.263  34.316  16.449  1.00  0.00     0.004 A 
ATOM     85  C   UNL     1      30.213  33.503  14.469  1.00  0.00     0.004 A 
ATOM     86  C   UNL     1      31.308  33.056  16.975  1.00  0.00     0.000 A 
ATOM     87  C   UNL     1      30.265  32.225  15.017  1.00  0.00     0.000 A 
ATOM     88  C   UNL     1      30.808  31.993  16.261  1.00  0.00     0.000 A 
ENDBRANCH  76  83
ENDBRANCH  71  76
ENDBRANCH  70  71
ENDBRANCH  68  70
ENDBRANCH  64  65
ENDBRANCH  63  64
ENDBRANCH  60  63
ENDBRANCH  58  59
ENDBRANCH  55  58
ENDBRANCH   1  55
TORSDOF 36
BEGIN_RES LYS A 131
REMARK  4 active torsions:
REMARK  status: ('A' for Active; 'I' for Inactive)
REMARK    1  A    between atoms: CA   and  CB  
REMARK    2  A    between atoms: CB   and  CG  
REMARK    3  A    between atoms: CG   and  CD  
REMARK    4  A    between atoms: CD   and  CE  
ROOT
ATOM      1  CA  LYS A 131      29.867  25.555  16.977  1.00 20.52     0.186 C 
ENDROOT
BRANCH   1   2
ATOM      2  CB  LYS A 131      28.345  25.722  17.026  1.00 20.94     0.034 C 
BRANCH   2   3
ATOM      3  CG  LYS A 131      27.603  24.395  16.970  1.00 22.96     0.005 C 
BRANCH   3   4
ATOM      4  CD  LYS A 131      26.471  24.338  17.958  1.00 24.33     0.041 C 
BRANCH   4   5
ATOM      5  CE  LYS A 131      25.182  24.795  17.282  1.00 26.91     0.338 C 
ATOM      6  NZ  LYS A 131      24.334  23.629  16.939  1.00 27.40     0.618 N 
ENDBRANCH   4   5
ENDBRANCH   3   4
ENDBRANCH   2   3
ENDBRANCH   1   2
END_RES LYS A 131
BEGIN_RES LYS A 135
REMARK  4 active torsions:
REMARK  status: ('A' for Active; 'I' for Inactive)
REMARK    5  A    between atoms: CA   and  CB  
REMARK    6  A    between atoms: CB   and  CG  
REMARK    7  A    between atoms: CG   and  CD  
REMARK    8  A    between atoms: CD   and  CE  
ROOT
ATOM      7  CA  LYS A 135      33.193  34.663   9.290  1.00 25.02     0.186 C 
ENDROOT
BRANCH   7   8
ATOM      8  CB  LYS A 135      32.060  35.360  10.034  1.00 26.63     0.034 C 
BRANCH   8   9
ATOM      9  CG  LYS A 135      30.904  35.745   9.147  1.00 29.45     0.005 C 
BRANCH   9  10
ATOM     10  CD  LYS A 135      30.366  34.529   8.408  1.00 32.00     0.041 C 
BRANCH  10  11
ATOM     11  CE  LYS A 135      29.081  34.874   7.681  1.00 34.25     0.338 C 
ATOM     12  NZ  LYS A 135      28.914  36.348   7.556  1.00 35.99     0.618 N 
ENDBRANCH  10  11
ENDBRANCH   9  10
ENDBRANCH   8   9
ENDBRANCH   7   8
END_RES LYS A 135
