REMARK VINA RESULT:    -4.183      2.959      7.372
REMARK INTER + INTRA:         -22.149
REMARK INTER:                  -9.073
REMARK INTRA:                 -13.076
REMARK UNBOUND:               -11.119
REMARK SMILES CC(=O)N[C@@H]1[C@@H](O)C[C@](OC[C@H]2O[C@@H](O[C@H]3[C@H](O)[C@@H](O)[C@H](OCCN=[N+]=[N-])O[C@@H]3CO)[C@H](O)[C@@H](O)[C@H]2O)(C(=O)O)O[C@H]1C(O)[C@H](O)CNC(=O)OCc1cn(CC(O)CO)nn1
REMARK SMILES IDX 43 1 42 2 9 3 8 4 41 5 6 6 5 7 10 8 11 9 12 10 14 11 13 12
REMARK SMILES IDX 32 13 34 14 36 15 15 16 16 17 29 18 28 19 21 20 17 21 19 22
REMARK SMILES IDX 30 23 31 24 22 26 23 27 24 28 25 29 26 30 27 31 18 32 20 34
REMARK SMILES IDX 33 36 35 38 37 40 38 42 39 43 40 44 7 46 4 48 2 49 1 51 3 52
REMARK SMILES IDX 44 53 45 55 46 56 47 58 48 59 49 60 50 62 51 63 52 64 53 65
REMARK SMILES IDX 54 66 62 67 55 68 61 69 56 70 57 71 58 72 59 74 60 75
REMARK H PARENT 31 25 18 33 20 35 33 37 35 39 37 41 40 45 7 47 4 50 44 54
REMARK H PARENT 46 57 48 61 58 73 60 76
REMARK Flexibility Score: inf
ROOT
ATOM      1  C   UNL     1      28.272  30.263  16.211  1.00  0.00     0.176 C 
ENDROOT
BRANCH   1   2
ATOM      2  C   UNL     1      28.497  31.197  17.415  1.00  0.00     0.178 C 
ATOM      3  C   UNL     1      29.902  32.919  18.217  1.00  0.00     0.272 C 
ATOM      4  C   UNL     1      30.089  32.187  19.516  1.00  0.00     0.113 C 
ATOM      5  O   UNL     1      29.542  31.997  17.222  1.00  0.00    -0.332 OA
ATOM      6  C   UNL     1      29.665  30.768  19.563  1.00  0.00     0.145 C 
ATOM      7  C   UNL     1      28.569  30.372  18.645  1.00  0.00     0.142 C 
BRANCH   3   8
ATOM      8  O   UNL     1      31.021  33.500  17.837  1.00  0.00    -0.338 OA
BRANCH   8   9
ATOM      9  C   UNL     1      31.882  34.383  18.121  1.00  0.00     0.199 C 
BRANCH   9  10
ATOM     10  C   UNL     1      31.990  35.723  17.470  1.00  0.00     0.179 C 
ATOM     11  C   UNL     1      31.830  36.722  15.418  1.00  0.00     0.282 C 
ATOM     12  O   UNL     1      31.346  35.660  16.175  1.00  0.00    -0.341 OA
ATOM     13  C   UNL     1      32.317  37.892  16.201  1.00  0.00     0.202 C 
ATOM     14  C   UNL     1      31.636  38.118  17.517  1.00  0.00     0.179 C 
ATOM     15  C   UNL     1      31.157  36.817  18.140  1.00  0.00     0.177 C 
BRANCH  11  16
ATOM     16  O   UNL     1      30.972  37.159  14.430  1.00  0.00    -0.341 OA
BRANCH  16  17
ATOM     17  C   UNL     1      29.781  36.440  14.354  1.00  0.00     0.184 C 
ATOM     18  C   UNL     1      29.785  35.595  13.117  1.00  0.00     0.178 C 
ATOM     19  O   UNL     1      28.800  35.946  12.207  1.00  0.00    -0.341 OA
ATOM     20  C   UNL     1      28.709  37.342  12.077  1.00  0.00     0.281 C 
ATOM     21  C   UNL     1      28.629  37.342  14.516  1.00  0.00     0.180 C 
ATOM     22  C   UNL     1      27.930  37.803  13.285  1.00  0.00     0.202 C 
BRANCH  18  23
ATOM     23  C   UNL     1      29.614  34.122  13.430  1.00  0.00     0.191 C 
BRANCH  23  24
ATOM     24  O   UNL     1      29.195  33.919  14.737  1.00  0.00    -0.394 OA
ATOM     25  H   UNL     1      28.210  33.699  14.693  1.00  0.00     0.210 HD
ENDBRANCH  23  24
ENDBRANCH  18  23
BRANCH  20  26
ATOM     26  O   UNL     1      28.006  37.576  10.907  1.00  0.00    -0.350 OA
BRANCH  26  27
ATOM     27  C   UNL     1      28.698  38.318   9.963  1.00  0.00     0.169 C 
BRANCH  27  28
ATOM     28  C   UNL     1      28.013  38.347   8.615  1.00  0.00     0.119 C 
BRANCH  28  29
ATOM     29  N   UNL     1      26.678  37.815   8.665  1.00  0.00    -0.092 NA
ATOM     30  N   UNL     1      25.704  38.282   8.086  1.00  0.00     0.001 N 
ATOM     31  N   UNL     1      24.799  38.907   7.534  1.00  0.00    -0.003 NA
ENDBRANCH  28  29
ENDBRANCH  27  28
ENDBRANCH  26  27
ENDBRANCH  20  26
BRANCH  21  32
ATOM     32  O   UNL     1      27.652  36.797  15.386  1.00  0.00    -0.387 OA
ATOM     33  H   UNL     1      26.960  36.412  14.757  1.00  0.00     0.211 HD
ENDBRANCH  21  32
BRANCH  22  34
ATOM     34  O   UNL     1      27.689  39.175  13.257  1.00  0.00    -0.385 OA
ATOM     35  H   UNL     1      27.348  39.489  12.403  1.00  0.00     0.211 HD
ENDBRANCH  22  34
ENDBRANCH  16  17
ENDBRANCH  11  16
BRANCH  13  36
ATOM     36  O   UNL     1      33.727  37.912  16.304  1.00  0.00    -0.385 OA
ATOM     37  H   UNL     1      34.172  37.537  15.522  1.00  0.00     0.211 HD
ENDBRANCH  13  36
BRANCH  14  38
ATOM     38  O   UNL     1      30.602  39.050  17.456  1.00  0.00    -0.387 OA
ATOM     39  H   UNL     1      30.294  39.129  16.521  1.00  0.00     0.211 HD
ENDBRANCH  14  38
BRANCH  15  40
ATOM     40  O   UNL     1      29.825  36.624  17.684  1.00  0.00    -0.387 OA
ATOM     41  H   UNL     1      29.180  36.836  18.401  1.00  0.00     0.211 HD
ENDBRANCH  15  40
ENDBRANCH   9  10
ENDBRANCH   8   9
ENDBRANCH   3   8
BRANCH   3  42
ATOM     42  C   UNL     1      28.785  33.915  18.316  1.00  0.00     0.364 C 
ATOM     43  O   UNL     1      28.506  34.332  19.483  1.00  0.00    -0.246 OA
BRANCH  42  44
ATOM     44  O   UNL     1      28.077  34.377  17.237  1.00  0.00    -0.477 OA
ATOM     45  H   UNL     1      27.111  34.712  17.324  1.00  0.00     0.296 HD
ENDBRANCH  42  44
ENDBRANCH   3  42
BRANCH   6  46
ATOM     46  O   UNL     1      30.803  29.985  19.255  1.00  0.00    -0.391 OA
ATOM     47  H   UNL     1      30.523  29.068  19.061  1.00  0.00     0.211 HD
ENDBRANCH   6  46
BRANCH   7  48
ATOM     48  N   UNL     1      27.313  30.324  19.389  1.00  0.00    -0.348 N 
ATOM     49  C   UNL     1      26.664  29.101  19.691  1.00  0.00     0.217 C 
ATOM     50  H   UNL     1      26.848  31.191  19.725  1.00  0.00     0.163 HD
ATOM     51  C   UNL     1      25.386  29.047  20.447  1.00  0.00     0.114 C 
ATOM     52  O   UNL     1      27.208  28.040  19.294  1.00  0.00    -0.275 OA
ENDBRANCH   7  48
ENDBRANCH   1   2
BRANCH   1  53
ATOM     53  O   UNL     1      28.104  28.970  16.665  1.00  0.00    -0.388 OA
ATOM     54  H   UNL     1      27.637  28.420  15.988  1.00  0.00     0.211 HD
ENDBRANCH   1  53
BRANCH   1  55
ATOM     55  C   UNL     1      27.036  30.702  15.441  1.00  0.00     0.165 C 
BRANCH  55  56
ATOM     56  O   UNL     1      27.120  32.115  15.403  1.00  0.00    -0.388 OA
ATOM     57  H   UNL     1      26.442  32.501  16.010  1.00  0.00     0.211 HD
ENDBRANCH  55  56
BRANCH  55  58
ATOM     58  C   UNL     1      25.751  30.324  16.094  1.00  0.00     0.154 C 
BRANCH  58  59
ATOM     59  N   UNL     1      24.976  31.482  16.489  1.00  0.00    -0.319 N 
ATOM     60  C   UNL     1      23.691  31.712  15.946  1.00  0.00     0.407 C 
ATOM     61  H   UNL     1      25.338  32.186  17.191  1.00  0.00     0.167 HD
ATOM     62  O   UNL     1      23.179  30.943  15.100  1.00  0.00    -0.225 OA
BRANCH  60  63
ATOM     63  O   UNL     1      22.938  32.802  16.333  1.00  0.00    -0.443 OA
BRANCH  63  64
ATOM     64  C   UNL     1      23.174  34.138  16.056  1.00  0.00     0.294 C 
BRANCH  64  65
ATOM     65  C   UNL     1      24.231  34.409  15.055  1.00  0.00     0.120 A 
ATOM     66  C   UNL     1      24.012  34.606  13.721  1.00  0.00     0.138 A 
ATOM     67  N   UNL     1      25.573  34.493  15.298  1.00  0.00    -0.132 NA
ATOM     68  N   UNL     1      25.226  34.806  13.175  1.00  0.00    -0.249 N 
ATOM     69  N   UNL     1      26.132  34.736  14.119  1.00  0.00    -0.067 NA
BRANCH  68  70
ATOM     70  C   UNL     1      25.515  35.050  11.778  1.00  0.00     0.180 C 
BRANCH  70  71
ATOM     71  C   UNL     1      24.495  36.086  11.286  1.00  0.00     0.161 C 
BRANCH  71  72
ATOM     72  O   UNL     1      25.148  37.291  11.202  1.00  0.00    -0.389 OA
ATOM     73  H   UNL     1      25.977  37.311  11.741  1.00  0.00     0.211 HD
ENDBRANCH  71  72
BRANCH  71  74
ATOM     74  C   UNL     1      23.939  35.654   9.951  1.00  0.00     0.189 C 
BRANCH  74  75
ATOM     75  O   UNL     1      22.793  34.912  10.131  1.00  0.00    -0.394 OA
ATOM     76  H   UNL     1      22.965  34.193  10.792  1.00  0.00     0.210 HD
ENDBRANCH  74  75
ENDBRANCH  71  74
ENDBRANCH  70  71
ENDBRANCH  68  70
ENDBRANCH  64  65
ENDBRANCH  63  64
ENDBRANCH  60  63
ENDBRANCH  58  59
ENDBRANCH  55  58
ENDBRANCH   1  55
TORSDOF 34
BEGIN_RES LYS A 131
REMARK  4 active torsions:
REMARK  status: ('A' for Active; 'I' for Inactive)
REMARK    1  A    between atoms: CA   and  CB  
REMARK    2  A    between atoms: CB   and  CG  
REMARK    3  A    between atoms: CG   and  CD  
REMARK    4  A    between atoms: CD   and  CE  
ROOT
ATOM      1  CA  LYS A 131      29.867  25.555  16.977  1.00 20.52     0.186 C 
ENDROOT
BRANCH   1   2
ATOM      2  CB  LYS A 131      28.345  25.722  17.026  1.00 20.94     0.034 C 
BRANCH   2   3
ATOM      3  CG  LYS A 131      27.602  24.397  16.945  1.00 22.96     0.005 C 
BRANCH   3   4
ATOM      4  CD  LYS A 131      26.487  24.311  17.949  1.00 24.33     0.041 C 
BRANCH   4   5
ATOM      5  CE  LYS A 131      25.480  23.255  17.503  1.00 26.91     0.338 C 
ATOM      6  NZ  LYS A 131      24.907  22.555  18.677  1.00 27.40     0.618 N 
ENDBRANCH   4   5
ENDBRANCH   3   4
ENDBRANCH   2   3
ENDBRANCH   1   2
END_RES LYS A 131
BEGIN_RES LYS A 135
REMARK  4 active torsions:
REMARK  status: ('A' for Active; 'I' for Inactive)
REMARK    5  A    between atoms: CA   and  CB  
REMARK    6  A    between atoms: CB   and  CG  
REMARK    7  A    between atoms: CG   and  CD  
REMARK    8  A    between atoms: CD   and  CE  
ROOT
ATOM      7  CA  LYS A 135      33.193  34.663   9.290  1.00 25.02     0.186 C 
ENDROOT
BRANCH   7   8
ATOM      8  CB  LYS A 135      32.060  35.360  10.034  1.00 26.63     0.034 C 
BRANCH   8   9
ATOM      9  CG  LYS A 135      30.795  35.485   9.225  1.00 29.45     0.005 C 
BRANCH   9  10
ATOM     10  CD  LYS A 135      30.176  34.117   8.982  1.00 32.00     0.041 C 
BRANCH  10  11
ATOM     11  CE  LYS A 135      28.727  34.101   9.428  1.00 34.25     0.338 C 
ATOM     12  NZ  LYS A 135      27.823  34.545   8.330  1.00 35.99     0.618 N 
ENDBRANCH  10  11
ENDBRANCH   9  10
ENDBRANCH   8   9
ENDBRANCH   7   8
END_RES LYS A 135
