REMARK VINA RESULT:    -4.722      2.846      7.638
REMARK INTER + INTRA:         -23.112
REMARK INTER:                 -12.457
REMARK INTRA:                 -10.655
REMARK UNBOUND:               -11.213
REMARK SMILES CC(=O)N[C@@H]1[C@@H](O)C[C@](OC[C@H]2O[C@@H](O[C@H]3[C@H](O)[C@@H](O)[C@H](OCCN=[N+]=[N-])O[C@@H]3CO)[C@H](O)[C@@H](O)[C@H]2O)(C(=O)O)O[C@H]1C(O)[C@H](O)CNC(=O)OCc1cn(CC2=CC[C@H]3C[C@@H]2C3(C)C)nn1
REMARK SMILES IDX 9 1 8 2 6 3 5 4 42 5 41 6 10 7 11 8 12 9 14 10 13 11 32 12
REMARK SMILES IDX 34 13 36 14 15 15 16 16 29 17 28 18 21 19 17 20 19 21 30 22
REMARK SMILES IDX 31 23 22 25 23 26 24 27 25 28 26 29 27 30 18 31 20 33 33 35
REMARK SMILES IDX 35 37 37 39 38 41 39 42 40 43 7 45 43 47 44 48 45 50 46 51
REMARK SMILES IDX 47 53 48 54 49 55 50 57 51 58 52 59 53 60 54 61 67 62 55 63
REMARK SMILES IDX 66 64 56 65 57 66 58 67 62 68 59 69 61 70 63 71 60 72 64 73
REMARK SMILES IDX 65 74 4 75 2 76 1 78 3 79
REMARK H PARENT 31 24 18 32 20 34 33 36 35 38 37 40 40 44 7 46 44 49 46 52
REMARK H PARENT 48 56 4 77
REMARK Flexibility Score: inf
ROOT
ATOM      1  C   UNL     1      26.720  38.466   8.257  1.00  0.00     0.272 C 
ATOM      2  C   UNL     1      26.338  39.909   8.306  1.00  0.00     0.113 C 
ATOM      3  C   UNL     1      26.268  40.487   6.881  1.00  0.00     0.145 C 
ATOM      4  C   UNL     1      27.600  40.425   6.226  1.00  0.00     0.142 C 
ATOM      5  C   UNL     1      28.455  39.486   7.052  1.00  0.00     0.178 C 
ATOM      6  O   UNL     1      27.819  38.334   7.341  1.00  0.00    -0.332 OA
ENDROOT
BRANCH   1   7
ATOM      7  O   UNL     1      25.814  37.615   7.800  1.00  0.00    -0.338 OA
BRANCH   7   8
ATOM      8  C   UNL     1      25.381  36.493   8.314  1.00  0.00     0.199 C 
BRANCH   8   9
ATOM      9  C   UNL     1      24.073  36.256   8.940  1.00  0.00     0.179 C 
ATOM     10  C   UNL     1      23.220  35.454  10.935  1.00  0.00     0.282 C 
ATOM     11  O   UNL     1      24.333  36.020  10.325  1.00  0.00    -0.341 OA
ATOM     12  C   UNL     1      21.927  36.023  10.559  1.00  0.00     0.202 C 
ATOM     13  C   UNL     1      21.858  37.031   9.482  1.00  0.00     0.179 C 
ATOM     14  C   UNL     1      23.210  37.530   9.038  1.00  0.00     0.177 C 
BRANCH  10  15
ATOM     15  O   UNL     1      23.443  35.651  12.311  1.00  0.00    -0.341 OA
BRANCH  15  16
ATOM     16  C   UNL     1      23.712  34.471  12.981  1.00  0.00     0.184 C 
ATOM     17  C   UNL     1      24.940  33.820  12.413  1.00  0.00     0.178 C 
ATOM     18  O   UNL     1      25.085  32.487  12.756  1.00  0.00    -0.341 OA
ATOM     19  C   UNL     1      24.243  32.011  13.717  1.00  0.00     0.281 C 
ATOM     20  C   UNL     1      22.543  33.523  12.689  1.00  0.00     0.180 C 
ATOM     21  C   UNL     1      22.782  32.229  13.405  1.00  0.00     0.202 C 
BRANCH  17  22
ATOM     22  C   UNL     1      26.161  34.595  12.923  1.00  0.00     0.191 C 
BRANCH  22  23
ATOM     23  O   UNL     1      26.546  35.484  11.930  1.00  0.00    -0.394 OA
ATOM     24  H   UNL     1      27.438  35.182  11.575  1.00  0.00     0.210 HD
ENDBRANCH  22  23
ENDBRANCH  17  22
BRANCH  19  25
ATOM     25  O   UNL     1      24.520  32.560  14.976  1.00  0.00    -0.350 OA
BRANCH  25  26
ATOM     26  C   UNL     1      25.356  31.735  15.730  1.00  0.00     0.169 C 
BRANCH  26  27
ATOM     27  C   UNL     1      26.256  32.684  16.526  1.00  0.00     0.119 C 
BRANCH  27  28
ATOM     28  N   UNL     1      27.598  32.637  15.986  1.00  0.00    -0.092 NA
ATOM     29  N   UNL     1      28.172  31.589  15.757  1.00  0.00     0.001 N 
ATOM     30  N   UNL     1      28.769  30.509  15.671  1.00  0.00    -0.003 NA
ENDBRANCH  27  28
ENDBRANCH  26  27
ENDBRANCH  25  26
ENDBRANCH  19  25
BRANCH  20  31
ATOM     31  O   UNL     1      21.348  34.082  13.176  1.00  0.00    -0.387 OA
ATOM     32  H   UNL     1      20.736  34.280  12.435  1.00  0.00     0.211 HD
ENDBRANCH  20  31
BRANCH  21  33
ATOM     33  O   UNL     1      22.263  31.132  12.719  1.00  0.00    -0.385 OA
ATOM     34  H   UNL     1      21.301  31.320  12.522  1.00  0.00     0.211 HD
ENDBRANCH  21  33
ENDBRANCH  15  16
ENDBRANCH  10  15
BRANCH  12  35
ATOM     35  O   UNL     1      21.083  34.942  10.185  1.00  0.00    -0.385 OA
ATOM     36  H   UNL     1      21.532  34.070  10.327  1.00  0.00     0.211 HD
ENDBRANCH  12  35
BRANCH  13  37
ATOM     37  O   UNL     1      20.980  38.075   9.790  1.00  0.00    -0.387 OA
ATOM     38  H   UNL     1      20.073  37.876   9.430  1.00  0.00     0.211 HD
ENDBRANCH  13  37
BRANCH  14  39
ATOM     39  O   UNL     1      23.741  38.302  10.092  1.00  0.00    -0.387 OA
ATOM     40  H   UNL     1      24.722  38.187  10.136  1.00  0.00     0.211 HD
ENDBRANCH  14  39
ENDBRANCH   8   9
ENDBRANCH   7   8
ENDBRANCH   1   7
BRANCH   1  41
ATOM     41  C   UNL     1      27.367  38.063   9.533  1.00  0.00     0.364 C 
ATOM     42  O   UNL     1      28.584  37.663   9.532  1.00  0.00    -0.246 OA
BRANCH  41  43
ATOM     43  O   UNL     1      26.741  38.082  10.733  1.00  0.00    -0.477 OA
ATOM     44  H   UNL     1      26.813  37.414  11.483  1.00  0.00     0.296 HD
ENDBRANCH  41  43
ENDBRANCH   1  41
BRANCH   3  45
ATOM     45  O   UNL     1      25.433  39.588   6.201  1.00  0.00    -0.391 OA
ATOM     46  H   UNL     1      25.986  39.108   5.536  1.00  0.00     0.211 HD
ENDBRANCH   3  45
BRANCH   5  47
ATOM     47  C   UNL     1      29.739  39.130   6.297  1.00  0.00     0.176 C 
BRANCH  47  48
ATOM     48  O   UNL     1      29.645  37.877   5.751  1.00  0.00    -0.388 OA
ATOM     49  H   UNL     1      28.815  37.377   5.991  1.00  0.00     0.211 HD
ENDBRANCH  47  48
BRANCH  47  50
ATOM     50  C   UNL     1      30.933  39.246   7.197  1.00  0.00     0.165 C 
BRANCH  50  51
ATOM     51  O   UNL     1      30.826  38.156   8.108  1.00  0.00    -0.388 OA
ATOM     52  H   UNL     1      30.830  38.614   9.007  1.00  0.00     0.211 HD
ENDBRANCH  50  51
BRANCH  50  53
ATOM     53  C   UNL     1      30.887  40.483   8.037  1.00  0.00     0.154 C 
BRANCH  53  54
ATOM     54  N   UNL     1      30.503  40.279   9.396  1.00  0.00    -0.319 N 
ATOM     55  C   UNL     1      29.536  41.118   9.999  1.00  0.00     0.407 C 
ATOM     56  H   UNL     1      30.941  39.494   9.940  1.00  0.00     0.167 HD
ATOM     57  O   UNL     1      29.016  42.036   9.352  1.00  0.00    -0.225 OA
BRANCH  55  58
ATOM     58  O   UNL     1      29.155  40.928  11.314  1.00  0.00    -0.443 OA
BRANCH  58  59
ATOM     59  C   UNL     1      29.912  40.354  12.326  1.00  0.00     0.294 C 
BRANCH  59  60
ATOM     60  C   UNL     1      29.503  38.968  12.697  1.00  0.00     0.120 A 
ATOM     61  C   UNL     1      30.227  37.807  12.564  1.00  0.00     0.138 A 
ATOM     62  N   UNL     1      28.317  38.600  13.255  1.00  0.00    -0.132 NA
ATOM     63  N   UNL     1      29.494  36.790  13.026  1.00  0.00    -0.248 N 
ATOM     64  N   UNL     1      28.348  37.296  13.437  1.00  0.00    -0.067 NA
BRANCH  63  65
ATOM     65  C   UNL     1      29.881  35.368  13.079  1.00  0.00     0.177 C 
BRANCH  65  66
ATOM     66  C   UNL     1      31.117  35.330  13.930  1.00  0.00    -0.049 C 
ATOM     67  C   UNL     1      32.323  35.089  13.379  1.00  0.00    -0.025 C 
ATOM     68  C   UNL     1      31.083  35.555  15.382  1.00  0.00     0.023 C 
ATOM     69  C   UNL     1      33.492  34.904  14.266  1.00  0.00     0.031 C 
ATOM     70  C   UNL     1      32.272  36.467  15.712  1.00  0.00     0.013 C 
ATOM     71  C   UNL     1      31.823  34.453  16.078  1.00  0.00    -0.026 C 
ATOM     72  C   UNL     1      33.115  35.186  15.693  1.00  0.00    -0.000 C 
ATOM     73  C   UNL     1      31.683  34.450  17.581  1.00  0.00     0.012 C 
ATOM     74  C   UNL     1      31.686  33.075  15.524  1.00  0.00     0.012 C 
ENDBRANCH  65  66
ENDBRANCH  63  65
ENDBRANCH  59  60
ENDBRANCH  58  59
ENDBRANCH  55  58
ENDBRANCH  53  54
ENDBRANCH  50  53
ENDBRANCH  47  50
ENDBRANCH   5  47
BRANCH   4  75
ATOM     75  N   UNL     1      28.308  41.649   6.083  1.00  0.00    -0.348 N 
ATOM     76  C   UNL     1      28.709  42.253   4.882  1.00  0.00     0.217 C 
ATOM     77  H   UNL     1      28.552  42.145   6.989  1.00  0.00     0.163 HD
ATOM     78  C   UNL     1      29.448  43.542   4.877  1.00  0.00     0.114 C 
ATOM     79  O   UNL     1      28.417  41.660   3.829  1.00  0.00    -0.275 OA
ENDBRANCH   4  75
TORSDOF 31
BEGIN_RES LYS A 131
REMARK  4 active torsions:
REMARK  status: ('A' for Active; 'I' for Inactive)
REMARK    1  A    between atoms: CA   and  CB  
REMARK    2  A    between atoms: CB   and  CG  
REMARK    3  A    between atoms: CG   and  CD  
REMARK    4  A    between atoms: CD   and  CE  
ROOT
ATOM      1  CA  LYS A 131      29.867  25.555  16.977  1.00 20.52     0.186 C 
ENDROOT
BRANCH   1   2
ATOM      2  CB  LYS A 131      28.345  25.722  17.026  1.00 20.94     0.034 C 
BRANCH   2   3
ATOM      3  CG  LYS A 131      27.600  24.407  16.855  1.00 22.96     0.005 C 
BRANCH   3   4
ATOM      4  CD  LYS A 131      26.156  24.517  17.258  1.00 24.33     0.041 C 
BRANCH   4   5
ATOM      5  CE  LYS A 131      25.628  23.139  17.643  1.00 26.91     0.338 C 
ATOM      6  NZ  LYS A 131      25.480  23.032  19.113  1.00 27.40     0.618 N 
ENDBRANCH   4   5
ENDBRANCH   3   4
ENDBRANCH   2   3
ENDBRANCH   1   2
END_RES LYS A 131
BEGIN_RES LYS A 135
REMARK  4 active torsions:
REMARK  status: ('A' for Active; 'I' for Inactive)
REMARK    5  A    between atoms: CA   and  CB  
REMARK    6  A    between atoms: CB   and  CG  
REMARK    7  A    between atoms: CG   and  CD  
REMARK    8  A    between atoms: CD   and  CE  
ROOT
ATOM      7  CA  LYS A 135      33.193  34.663   9.290  1.00 25.02     0.186 C 
ENDROOT
BRANCH   7   8
ATOM      8  CB  LYS A 135      32.060  35.360  10.034  1.00 26.63     0.034 C 
BRANCH   8   9
ATOM      9  CG  LYS A 135      30.693  34.837   9.676  1.00 29.45     0.005 C 
BRANCH   9  10
ATOM     10  CD  LYS A 135      30.589  34.586   8.179  1.00 32.00     0.041 C 
BRANCH  10  11
ATOM     11  CE  LYS A 135      29.193  34.905   7.681  1.00 34.25     0.338 C 
ATOM     12  NZ  LYS A 135      28.157  34.335   8.588  1.00 35.99     0.618 N 
ENDBRANCH  10  11
ENDBRANCH   9  10
ENDBRANCH   8   9
ENDBRANCH   7   8
END_RES LYS A 135
