REMARK VINA RESULT:    -3.676      3.596      9.150
REMARK INTER + INTRA:         -22.086
REMARK INTER:                 -10.443
REMARK INTRA:                 -11.643
REMARK UNBOUND:               -13.037
REMARK SMILES CC(=O)N[C@@H]1[C@@H](O)C[C@](OC[C@H]2O[C@@H](O[C@H]3[C@H](O)[C@@H](O)[C@H](OCCN=[N+]=[N-])O[C@@H]3CO)[C@H](O)[C@@H](O)[C@H]2O)(C(=O)O)O[C@H]1C(O)[C@H](O)CNC(=O)OCc1cn([C@H]2C[C@H]3CC[C@@H](C2)N3C)nn1
REMARK SMILES IDX 9 1 8 2 6 3 5 4 42 5 41 6 10 7 11 8 12 9 14 10 13 11 32 12
REMARK SMILES IDX 34 13 36 14 15 15 16 16 29 17 28 18 21 19 17 20 19 21 30 22
REMARK SMILES IDX 31 23 22 25 23 26 24 27 25 28 26 29 27 30 18 31 20 33 33 35
REMARK SMILES IDX 35 37 37 39 38 41 39 42 40 43 7 45 43 47 44 48 45 50 46 51
REMARK SMILES IDX 47 53 48 54 49 55 50 57 51 58 52 59 53 60 54 61 66 62 55 63
REMARK SMILES IDX 65 64 56 65 62 66 57 67 61 68 58 69 63 70 60 71 59 72 64 73
REMARK SMILES IDX 4 74 2 75 1 77 3 78
REMARK H PARENT 31 24 18 32 20 34 33 36 35 38 37 40 40 44 7 46 44 49 46 52
REMARK H PARENT 48 56 4 76
REMARK Flexibility Score: inf
ROOT
ATOM      1  C   UNL     1      32.293  34.790  15.091  1.00  0.00     0.272 C 
ATOM      2  C   UNL     1      33.206  35.563  16.025  1.00  0.00     0.113 C 
ATOM      3  C   UNL     1      32.540  36.092  17.259  1.00  0.00     0.145 C 
ATOM      4  C   UNL     1      31.127  36.405  16.934  1.00  0.00     0.142 C 
ATOM      5  C   UNL     1      31.065  36.749  15.443  1.00  0.00     0.178 C 
ATOM      6  O   UNL     1      31.104  35.421  14.849  1.00  0.00    -0.332 OA
ENDROOT
BRANCH   1   7
ATOM      7  O   UNL     1      32.172  33.521  15.572  1.00  0.00    -0.338 OA
BRANCH   7   8
ATOM      8  C   UNL     1      31.208  32.705  15.104  1.00  0.00     0.199 C 
BRANCH   8   9
ATOM      9  C   UNL     1      29.988  32.482  15.918  1.00  0.00     0.179 C 
ATOM     10  C   UNL     1      27.791  32.997  15.842  1.00  0.00     0.282 C 
ATOM     11  O   UNL     1      28.851  32.539  15.050  1.00  0.00    -0.341 OA
ATOM     12  C   UNL     1      27.565  32.202  17.057  1.00  0.00     0.202 C 
ATOM     13  C   UNL     1      28.614  31.248  17.486  1.00  0.00     0.179 C 
ATOM     14  C   UNL     1      29.831  31.159  16.593  1.00  0.00     0.177 C 
BRANCH  10  15
ATOM     15  O   UNL     1      26.697  33.067  15.014  1.00  0.00    -0.341 OA
BRANCH  15  16
ATOM     16  C   UNL     1      26.287  34.383  14.777  1.00  0.00     0.184 C 
ATOM     17  C   UNL     1      25.153  34.848  15.628  1.00  0.00     0.178 C 
ATOM     18  O   UNL     1      23.908  34.420  15.295  1.00  0.00    -0.341 OA
ATOM     19  C   UNL     1      23.616  34.450  13.975  1.00  0.00     0.281 C 
ATOM     20  C   UNL     1      25.927  34.424  13.308  1.00  0.00     0.180 C 
ATOM     21  C   UNL     1      24.633  33.621  13.193  1.00  0.00     0.202 C 
BRANCH  17  22
ATOM     22  C   UNL     1      25.249  36.352  15.908  1.00  0.00     0.191 C 
BRANCH  22  23
ATOM     23  O   UNL     1      26.359  36.709  16.639  1.00  0.00    -0.394 OA
ATOM     24  H   UNL     1      26.765  37.548  16.336  1.00  0.00     0.210 HD
ENDBRANCH  22  23
ENDBRANCH  17  22
BRANCH  19  25
ATOM     25  O   UNL     1      23.377  35.661  13.398  1.00  0.00    -0.350 OA
BRANCH  25  26
ATOM     26  C   UNL     1      22.360  36.421  13.888  1.00  0.00     0.169 C 
BRANCH  26  27
ATOM     27  C   UNL     1      22.632  37.882  13.776  1.00  0.00     0.119 C 
BRANCH  27  28
ATOM     28  N   UNL     1      23.930  38.145  13.138  1.00  0.00    -0.092 NA
ATOM     29  N   UNL     1      24.647  39.074  13.548  1.00  0.00     0.001 N 
ATOM     30  N   UNL     1      25.423  39.634  14.347  1.00  0.00    -0.003 NA
ENDBRANCH  27  28
ENDBRANCH  26  27
ENDBRANCH  25  26
ENDBRANCH  19  25
BRANCH  20  31
ATOM     31  O   UNL     1      25.717  35.692  12.823  1.00  0.00    -0.387 OA
ATOM     32  H   UNL     1      26.534  36.200  12.698  1.00  0.00     0.211 HD
ENDBRANCH  20  31
BRANCH  21  33
ATOM     33  O   UNL     1      24.770  32.365  13.778  1.00  0.00    -0.385 OA
ATOM     34  H   UNL     1      23.869  32.105  14.111  1.00  0.00     0.211 HD
ENDBRANCH  21  33
ENDBRANCH  15  16
ENDBRANCH  10  15
BRANCH  12  35
ATOM     35  O   UNL     1      27.357  33.115  18.123  1.00  0.00    -0.385 OA
ATOM     36  H   UNL     1      27.293  32.666  18.992  1.00  0.00     0.211 HD
ENDBRANCH  12  35
BRANCH  13  37
ATOM     37  O   UNL     1      28.101  29.931  17.585  1.00  0.00    -0.387 OA
ATOM     38  H   UNL     1      27.119  30.016  17.808  1.00  0.00     0.211 HD
ENDBRANCH  13  37
BRANCH  14  39
ATOM     39  O   UNL     1      29.522  30.173  15.625  1.00  0.00    -0.387 OA
ATOM     40  H   UNL     1      30.209  29.456  15.800  1.00  0.00     0.211 HD
ENDBRANCH  14  39
ENDBRANCH   8   9
ENDBRANCH   7   8
ENDBRANCH   1   7
BRANCH   1  41
ATOM     41  C   UNL     1      33.040  34.775  13.793  1.00  0.00     0.364 C 
ATOM     42  O   UNL     1      32.609  35.331  12.788  1.00  0.00    -0.246 OA
BRANCH  41  43
ATOM     43  O   UNL     1      34.273  34.116  13.693  1.00  0.00    -0.477 OA
ATOM     44  H   UNL     1      34.868  34.122  14.532  1.00  0.00     0.296 HD
ENDBRANCH  41  43
ENDBRANCH   1  41
BRANCH   3  45
ATOM     45  O   UNL     1      32.656  35.078  18.239  1.00  0.00    -0.391 OA
ATOM     46  H   UNL     1      32.460  34.193  17.839  1.00  0.00     0.211 HD
ENDBRANCH   3  45
BRANCH   5  47
ATOM     47  C   UNL     1      29.798  37.366  15.002  1.00  0.00     0.176 C 
BRANCH  47  48
ATOM     48  O   UNL     1      28.750  36.395  15.311  1.00  0.00    -0.388 OA
ATOM     49  H   UNL     1      28.310  36.159  14.455  1.00  0.00     0.211 HD
ENDBRANCH  47  48
BRANCH  47  50
ATOM     50  C   UNL     1      29.588  37.448  13.497  1.00  0.00     0.165 C 
BRANCH  50  51
ATOM     51  O   UNL     1      30.866  37.719  12.951  1.00  0.00    -0.388 OA
ATOM     52  H   UNL     1      30.845  37.696  11.962  1.00  0.00     0.211 HD
ENDBRANCH  50  51
BRANCH  50  53
ATOM     53  C   UNL     1      28.601  38.421  12.994  1.00  0.00     0.154 C 
BRANCH  53  54
ATOM     54  N   UNL     1      27.945  37.795  11.828  1.00  0.00    -0.319 N 
ATOM     55  C   UNL     1      28.417  38.013  10.510  1.00  0.00     0.407 C 
ATOM     56  H   UNL     1      27.122  37.188  11.994  1.00  0.00     0.167 HD
ATOM     57  O   UNL     1      29.437  38.753  10.340  1.00  0.00    -0.225 OA
BRANCH  55  58
ATOM     58  O   UNL     1      27.781  37.427   9.427  1.00  0.00    -0.443 OA
BRANCH  58  59
ATOM     59  C   UNL     1      26.540  37.954   9.015  1.00  0.00     0.294 C 
BRANCH  59  60
ATOM     60  C   UNL     1      25.382  37.145   9.446  1.00  0.00     0.120 A 
ATOM     61  C   UNL     1      24.099  37.627   9.597  1.00  0.00     0.138 A 
ATOM     62  N   UNL     1      25.320  35.853   9.787  1.00  0.00    -0.132 NA
ATOM     63  N   UNL     1      23.299  36.641  10.019  1.00  0.00    -0.249 N 
ATOM     64  N   UNL     1      24.064  35.554  10.130  1.00  0.00    -0.067 NA
BRANCH  63  65
ATOM     65  C   UNL     1      21.878  36.796  10.294  1.00  0.00     0.112 C 
ATOM     66  C   UNL     1      21.295  35.427  10.388  1.00  0.00     0.046 C 
ATOM     67  C   UNL     1      21.292  37.685   9.246  1.00  0.00     0.046 C 
ATOM     68  C   UNL     1      19.986  35.249   9.688  1.00  0.00     0.058 C 
ATOM     69  C   UNL     1      19.942  37.280   8.741  1.00  0.00     0.058 C 
ATOM     70  N   UNL     1      19.210  36.450   9.675  1.00  0.00    -0.300 NA
ATOM     71  C   UNL     1      20.256  35.008   8.205  1.00  0.00     0.021 C 
ATOM     72  C   UNL     1      20.132  36.363   7.550  1.00  0.00     0.021 C 
ATOM     73  C   UNL     1      19.032  37.076  10.962  1.00  0.00     0.105 C 
ENDBRANCH  63  65
ENDBRANCH  59  60
ENDBRANCH  58  59
ENDBRANCH  55  58
ENDBRANCH  53  54
ENDBRANCH  50  53
ENDBRANCH  47  50
ENDBRANCH   5  47
BRANCH   4  74
ATOM     74  N   UNL     1      30.418  37.200  17.844  1.00  0.00    -0.348 N 
ATOM     75  C   UNL     1      29.228  36.747  18.509  1.00  0.00     0.217 C 
ATOM     76  H   UNL     1      30.750  38.155  18.107  1.00  0.00     0.163 HD
ATOM     77  C   UNL     1      28.547  37.667  19.479  1.00  0.00     0.114 C 
ATOM     78  O   UNL     1      28.759  35.622  18.299  1.00  0.00    -0.275 OA
ENDBRANCH   4  74
TORSDOF 30
BEGIN_RES LYS A 131
REMARK  4 active torsions:
REMARK  status: ('A' for Active; 'I' for Inactive)
REMARK    1  A    between atoms: CA   and  CB  
REMARK    2  A    between atoms: CB   and  CG  
REMARK    3  A    between atoms: CG   and  CD  
REMARK    4  A    between atoms: CD   and  CE  
ROOT
ATOM      1  CA  LYS A 131      29.867  25.555  16.977  1.00 20.52     0.186 C 
ENDROOT
BRANCH   1   2
ATOM      2  CB  LYS A 131      28.345  25.722  17.026  1.00 20.94     0.034 C 
BRANCH   2   3
ATOM      3  CG  LYS A 131      27.601  24.401  16.902  1.00 22.96     0.005 C 
BRANCH   3   4
ATOM      4  CD  LYS A 131      26.615  24.200  18.018  1.00 24.33     0.041 C 
BRANCH   4   5
ATOM      5  CE  LYS A 131      25.305  24.900  17.673  1.00 26.91     0.338 C 
ATOM      6  NZ  LYS A 131      24.439  24.012  16.861  1.00 27.40     0.618 N 
ENDBRANCH   4   5
ENDBRANCH   3   4
ENDBRANCH   2   3
ENDBRANCH   1   2
END_RES LYS A 131
BEGIN_RES LYS A 135
REMARK  4 active torsions:
REMARK  status: ('A' for Active; 'I' for Inactive)
REMARK    5  A    between atoms: CA   and  CB  
REMARK    6  A    between atoms: CB   and  CG  
REMARK    7  A    between atoms: CG   and  CD  
REMARK    8  A    between atoms: CD   and  CE  
ROOT
ATOM      7  CA  LYS A 135      33.193  34.663   9.290  1.00 25.02     0.186 C 
ENDROOT
BRANCH   7   8
ATOM      8  CB  LYS A 135      32.060  35.360  10.034  1.00 26.63     0.034 C 
BRANCH   8   9
ATOM      9  CG  LYS A 135      30.785  35.457   9.236  1.00 29.45     0.005 C 
BRANCH   9  10
ATOM     10  CD  LYS A 135      30.171  34.080   9.037  1.00 32.00     0.041 C 
BRANCH  10  11
ATOM     11  CE  LYS A 135      28.715  34.079   9.463  1.00 34.25     0.338 C 
ATOM     12  NZ  LYS A 135      28.578  34.426  10.905  1.00 35.99     0.618 N 
ENDBRANCH  10  11
ENDBRANCH   9  10
ENDBRANCH   8   9
ENDBRANCH   7   8
END_RES LYS A 135
