REMARK VINA RESULT:    -4.200      2.694      8.199
REMARK INTER + INTRA:         -22.976
REMARK INTER:                 -12.750
REMARK INTRA:                 -10.227
REMARK UNBOUND:               -12.270
REMARK SMILES CC(=O)N[C@@H]1[C@@H](O)C[C@](OC[C@H]2O[C@@H](O[C@H]3[C@H](O)[C@@H](O)[C@H](OCCN=[N+]=[N-])O[C@@H]3CO)[C@H](O)[C@@H](O)[C@H]2O)(C(=O)O)O[C@H]1C(O)[C@H](O)CNC(=O)OCc1cn(-c2ccc(S(N)(=O)=O)cc2)nn1
REMARK SMILES IDX 9 1 8 2 6 3 5 4 42 5 41 6 10 7 11 8 12 9 14 10 13 11 32 12
REMARK SMILES IDX 34 13 36 14 15 15 16 16 29 17 28 18 21 19 17 20 19 21 30 22
REMARK SMILES IDX 31 23 22 25 23 26 24 27 25 28 26 29 27 30 18 31 20 33 33 35
REMARK SMILES IDX 35 37 37 39 38 41 39 42 40 43 7 45 43 47 44 48 45 50 46 51
REMARK SMILES IDX 47 53 48 54 49 55 50 57 51 58 52 59 53 60 54 61 67 62 55 63
REMARK SMILES IDX 66 64 56 65 57 66 65 67 58 68 64 69 59 70 60 71 62 72 63 73
REMARK SMILES IDX 61 74 4 77 2 78 1 80 3 81
REMARK H PARENT 31 24 18 32 20 34 33 36 35 38 37 40 40 44 7 46 44 49 46 52
REMARK H PARENT 48 56 61 75 61 76 4 79
REMARK Flexibility Score: inf
ROOT
ATOM      1  C   UNL     1      27.535  39.802   5.500  1.00  0.00     0.272 C 
ATOM      2  C   UNL     1      27.844  38.567   4.638  1.00  0.00     0.113 C 
ATOM      3  C   UNL     1      27.988  37.333   5.457  1.00  0.00     0.145 C 
ATOM      4  C   UNL     1      28.727  37.666   6.727  1.00  0.00     0.142 C 
ATOM      5  C   UNL     1      29.490  38.961   6.420  1.00  0.00     0.178 C 
ATOM      6  O   UNL     1      28.529  39.970   6.434  1.00  0.00    -0.332 OA
ENDROOT
BRANCH   1   7
ATOM      7  O   UNL     1      26.273  39.574   6.034  1.00  0.00    -0.338 OA
BRANCH   7   8
ATOM      8  C   UNL     1      25.713  40.659   6.649  1.00  0.00     0.199 C 
BRANCH   8   9
ATOM      9  C   UNL     1      25.132  40.178   7.991  1.00  0.00     0.179 C 
ATOM     10  C   UNL     1      24.480  38.132   8.918  1.00  0.00     0.282 C 
ATOM     11  O   UNL     1      24.567  38.965   7.759  1.00  0.00    -0.341 OA
ATOM     12  C   UNL     1      25.915  37.835   9.241  1.00  0.00     0.202 C 
ATOM     13  C   UNL     1      26.597  39.096   9.757  1.00  0.00     0.179 C 
ATOM     14  C   UNL     1      26.070  40.329   9.118  1.00  0.00     0.177 C 
BRANCH  10  15
ATOM     15  O   UNL     1      23.804  37.019   8.557  1.00  0.00    -0.341 OA
BRANCH  15  16
ATOM     16  C   UNL     1      22.510  36.890   9.127  1.00  0.00     0.184 C 
ATOM     17  C   UNL     1      22.553  35.815  10.113  1.00  0.00     0.178 C 
ATOM     18  O   UNL     1      21.467  34.964  10.163  1.00  0.00    -0.341 OA
ATOM     19  C   UNL     1      20.277  35.457   9.707  1.00  0.00     0.281 C 
ATOM     20  C   UNL     1      21.494  36.732   8.020  1.00  0.00     0.180 C 
ATOM     21  C   UNL     1      20.433  35.726   8.234  1.00  0.00     0.202 C 
BRANCH  17  22
ATOM     22  C   UNL     1      22.791  36.282  11.534  1.00  0.00     0.191 C 
BRANCH  22  23
ATOM     23  O   UNL     1      22.257  37.549  11.728  1.00  0.00    -0.394 OA
ATOM     24  H   UNL     1      21.775  37.621  12.589  1.00  0.00     0.210 HD
ENDBRANCH  22  23
ENDBRANCH  17  22
BRANCH  19  25
ATOM     25  O   UNL     1      19.762  36.529  10.394  1.00  0.00    -0.350 OA
BRANCH  25  26
ATOM     26  C   UNL     1      18.607  36.156  11.072  1.00  0.00     0.169 C 
BRANCH  26  27
ATOM     27  C   UNL     1      17.416  36.466  10.171  1.00  0.00     0.119 C 
BRANCH  27  28
ATOM     28  N   UNL     1      17.621  37.761   9.584  1.00  0.00    -0.092 NA
ATOM     29  N   UNL     1      17.454  37.969   8.361  1.00  0.00     0.001 N 
ATOM     30  N   UNL     1      17.871  38.114   7.199  1.00  0.00    -0.003 NA
ENDBRANCH  27  28
ENDBRANCH  26  27
ENDBRANCH  25  26
ENDBRANCH  19  25
BRANCH  20  31
ATOM     31  O   UNL     1      20.875  37.951   7.729  1.00  0.00    -0.387 OA
ATOM     32  H   UNL     1      21.566  38.636   7.577  1.00  0.00     0.211 HD
ENDBRANCH  20  31
BRANCH  21  33
ATOM     33  O   UNL     1      20.633  34.529   7.556  1.00  0.00    -0.385 OA
ATOM     34  H   UNL     1      20.750  34.803   6.590  1.00  0.00     0.211 HD
ENDBRANCH  21  33
ENDBRANCH  15  16
ENDBRANCH  10  15
BRANCH  12  35
ATOM     35  O   UNL     1      26.127  36.748  10.036  1.00  0.00    -0.385 OA
ATOM     36  H   UNL     1      26.319  36.941  10.974  1.00  0.00     0.211 HD
ENDBRANCH  12  35
BRANCH  13  37
ATOM     37  O   UNL     1      27.976  38.969   9.744  1.00  0.00    -0.387 OA
ATOM     38  H   UNL     1      28.334  38.334   9.090  1.00  0.00     0.211 HD
ENDBRANCH  13  37
BRANCH  14  39
ATOM     39  O   UNL     1      27.186  41.062   8.645  1.00  0.00    -0.387 OA
ATOM     40  H   UNL     1      26.891  41.438   7.765  1.00  0.00     0.211 HD
ENDBRANCH  14  39
ENDBRANCH   8   9
ENDBRANCH   7   8
ENDBRANCH   1   7
BRANCH   1  41
ATOM     41  C   UNL     1      27.489  40.935   4.502  1.00  0.00     0.364 C 
ATOM     42  O   UNL     1      28.166  41.977   4.675  1.00  0.00    -0.246 OA
BRANCH  41  43
ATOM     43  O   UNL     1      26.705  40.860   3.367  1.00  0.00    -0.477 OA
ATOM     44  H   UNL     1      26.577  39.957   2.936  1.00  0.00     0.296 HD
ENDBRANCH  41  43
ENDBRANCH   1  41
BRANCH   3  45
ATOM     45  O   UNL     1      26.722  36.795   5.679  1.00  0.00    -0.391 OA
ATOM     46  H   UNL     1      26.360  37.160   6.520  1.00  0.00     0.211 HD
ENDBRANCH   3  45
BRANCH   5  47
ATOM     47  C   UNL     1      30.516  39.245   7.484  1.00  0.00     0.176 C 
BRANCH  47  48
ATOM     48  O   UNL     1      31.791  38.825   7.165  1.00  0.00    -0.388 OA
ATOM     49  H   UNL     1      32.478  39.159   7.796  1.00  0.00     0.211 HD
ENDBRANCH  47  48
BRANCH  47  50
ATOM     50  C   UNL     1      30.532  40.719   7.818  1.00  0.00     0.165 C 
BRANCH  50  51
ATOM     51  O   UNL     1      31.223  41.438   6.820  1.00  0.00    -0.388 OA
ATOM     52  H   UNL     1      32.167  41.600   7.105  1.00  0.00     0.211 HD
ENDBRANCH  50  51
BRANCH  50  53
ATOM     53  C   UNL     1      31.157  40.986   9.164  1.00  0.00     0.154 C 
BRANCH  53  54
ATOM     54  N   UNL     1      31.064  39.841  10.039  1.00  0.00    -0.319 N 
ATOM     55  C   UNL     1      30.771  40.028  11.414  1.00  0.00     0.407 C 
ATOM     56  H   UNL     1      31.205  38.869   9.701  1.00  0.00     0.167 HD
ATOM     57  O   UNL     1      30.599  41.207  11.843  1.00  0.00    -0.225 OA
BRANCH  55  58
ATOM     58  O   UNL     1      30.657  38.999  12.333  1.00  0.00    -0.443 OA
BRANCH  58  59
ATOM     59  C   UNL     1      29.507  38.813  13.124  1.00  0.00     0.294 C 
BRANCH  59  60
ATOM     60  C   UNL     1      28.855  37.534  12.736  1.00  0.00     0.121 A 
ATOM     61  C   UNL     1      28.013  36.763  13.546  1.00  0.00     0.144 A 
ATOM     62  N   UNL     1      28.917  36.850  11.581  1.00  0.00    -0.131 NA
ATOM     63  N   UNL     1      27.613  35.667  12.855  1.00  0.00    -0.220 N 
ATOM     64  N   UNL     1      28.167  35.743  11.682  1.00  0.00    -0.062 NA
BRANCH  63  65
ATOM     65  C   UNL     1      26.750  34.626  13.327  1.00  0.00     0.066 A 
ATOM     66  C   UNL     1      25.706  34.163  12.560  1.00  0.00     0.030 A 
ATOM     67  C   UNL     1      26.941  34.054  14.565  1.00  0.00     0.030 A 
ATOM     68  C   UNL     1      24.869  33.149  13.022  1.00  0.00     0.024 A 
ATOM     69  C   UNL     1      26.111  33.038  15.036  1.00  0.00     0.024 A 
ATOM     70  C   UNL     1      25.064  32.577  14.264  1.00  0.00     0.082 A 
BRANCH  70  71
ATOM     71  S   UNL     1      23.989  31.294  14.818  1.00  0.00     0.238 S 
ATOM     72  O   UNL     1      22.548  31.742  14.778  1.00  0.00    -0.207 OA
ATOM     73  O   UNL     1      24.105  30.094  13.929  1.00  0.00    -0.207 OA
BRANCH  71  74
ATOM     74  N   UNL     1      24.384  30.813  16.439  1.00  0.00    -0.225 NA
ATOM     75  H   UNL     1      23.859  29.915  16.637  1.00  0.00     0.137 HD
ATOM     76  H   UNL     1      24.131  31.546  17.143  1.00  0.00     0.137 HD
ENDBRANCH  71  74
ENDBRANCH  70  71
ENDBRANCH  63  65
ENDBRANCH  59  60
ENDBRANCH  58  59
ENDBRANCH  55  58
ENDBRANCH  53  54
ENDBRANCH  50  53
ENDBRANCH  47  50
ENDBRANCH   5  47
BRANCH   4  77
ATOM     77  N   UNL     1      29.626  36.637   7.179  1.00  0.00    -0.348 N 
ATOM     78  C   UNL     1      29.130  35.520   7.884  1.00  0.00     0.217 C 
ATOM     79  H   UNL     1      30.644  36.699   6.994  1.00  0.00     0.163 HD
ATOM     80  C   UNL     1      30.088  34.481   8.335  1.00  0.00     0.114 C 
ATOM     81  O   UNL     1      27.915  35.366   8.147  1.00  0.00    -0.275 OA
ENDBRANCH   4  77
TORSDOF 32
BEGIN_RES LYS A 131
REMARK  4 active torsions:
REMARK  status: ('A' for Active; 'I' for Inactive)
REMARK    1  A    between atoms: CA   and  CB  
REMARK    2  A    between atoms: CB   and  CG  
REMARK    3  A    between atoms: CG   and  CD  
REMARK    4  A    between atoms: CD   and  CE  
ROOT
ATOM      1  CA  LYS A 131      29.867  25.555  16.977  1.00 20.52     0.186 C 
ENDROOT
BRANCH   1   2
ATOM      2  CB  LYS A 131      28.345  25.722  17.026  1.00 20.94     0.034 C 
BRANCH   2   3
ATOM      3  CG  LYS A 131      27.601  24.401  16.905  1.00 22.96     0.005 C 
BRANCH   3   4
ATOM      4  CD  LYS A 131      26.156  24.526  17.301  1.00 24.33     0.041 C 
BRANCH   4   5
ATOM      5  CE  LYS A 131      25.951  23.906  18.680  1.00 26.91     0.338 C 
ATOM      6  NZ  LYS A 131      25.546  24.942  19.659  1.00 27.40     0.618 N 
ENDBRANCH   4   5
ENDBRANCH   3   4
ENDBRANCH   2   3
ENDBRANCH   1   2
END_RES LYS A 131
BEGIN_RES LYS A 135
REMARK  4 active torsions:
REMARK  status: ('A' for Active; 'I' for Inactive)
REMARK    5  A    between atoms: CA   and  CB  
REMARK    6  A    between atoms: CB   and  CG  
REMARK    7  A    between atoms: CG   and  CD  
REMARK    8  A    between atoms: CD   and  CE  
ROOT
ATOM      7  CA  LYS A 135      33.193  34.663   9.290  1.00 25.02     0.186 C 
ENDROOT
BRANCH   7   8
ATOM      8  CB  LYS A 135      32.060  35.360  10.034  1.00 26.63     0.034 C 
BRANCH   8   9
ATOM      9  CG  LYS A 135      31.928  34.928  11.472  1.00 29.45     0.005 C 
BRANCH   9  10
ATOM     10  CD  LYS A 135      32.496  35.986  12.405  1.00 32.00     0.041 C 
BRANCH  10  11
ATOM     11  CE  LYS A 135      32.016  35.757  13.825  1.00 34.25     0.338 C 
ATOM     12  NZ  LYS A 135      32.213  36.974  14.660  1.00 35.99     0.618 N 
ENDBRANCH  10  11
ENDBRANCH   9  10
ENDBRANCH   8   9
ENDBRANCH   7   8
END_RES LYS A 135
