REMARK VINA RESULT:    -4.951      3.485      6.697
REMARK INTER + INTRA:         -21.309
REMARK INTER:                  -9.574
REMARK INTRA:                 -11.736
REMARK UNBOUND:                -9.122
REMARK SMILES CC(=O)N[C@@H]1[C@@H](O)C[C@](OC[C@H]2O[C@@H](O[C@H]3[C@H](O)[C@@H](O)[C@H](OCCN=[N+]=[N-])O[C@@H]3CO)[C@H](O)[C@@H](O)[C@H]2O)(C(=O)O)O[C@H]1C(O)[C@H](O)CNC(=O)OCc1cn(-c2ccc(Cl)cc2)nn1
REMARK SMILES IDX 9 1 8 2 6 3 5 4 42 5 41 6 10 7 11 8 12 9 14 10 13 11 32 12
REMARK SMILES IDX 34 13 36 14 15 15 16 16 29 17 28 18 21 19 17 20 19 21 30 22
REMARK SMILES IDX 31 23 22 25 23 26 24 27 25 28 26 29 27 30 18 31 20 33 33 35
REMARK SMILES IDX 35 37 37 39 38 41 39 42 40 43 7 45 43 47 44 48 45 50 46 51
REMARK SMILES IDX 47 53 48 54 49 55 50 57 51 58 52 59 53 60 54 61 64 62 55 63
REMARK SMILES IDX 63 64 56 65 57 66 62 67 58 68 61 69 59 70 60 71 4 72 2 73
REMARK SMILES IDX 1 75 3 76
REMARK H PARENT 31 24 18 32 20 34 33 36 35 38 37 40 40 44 7 46 44 49 46 52
REMARK H PARENT 48 56 4 74
REMARK Flexibility Score: inf
ROOT
ATOM      1  C   UNL     1      24.218  31.441  14.078  1.00  0.00     0.272 C 
ATOM      2  C   UNL     1      23.254  32.266  14.826  1.00  0.00     0.113 C 
ATOM      3  C   UNL     1      23.636  32.837  16.130  1.00  0.00     0.145 C 
ATOM      4  C   UNL     1      25.108  32.607  16.395  1.00  0.00     0.142 C 
ATOM      5  C   UNL     1      25.341  31.124  16.032  1.00  0.00     0.178 C 
ATOM      6  O   UNL     1      25.461  31.227  14.613  1.00  0.00    -0.332 OA
ENDROOT
BRANCH   1   7
ATOM      7  O   UNL     1      24.378  32.044  12.799  1.00  0.00    -0.338 OA
BRANCH   7   8
ATOM      8  C   UNL     1      24.272  33.407  12.824  1.00  0.00     0.199 C 
BRANCH   8   9
ATOM      9  C   UNL     1      25.387  34.079  12.026  1.00  0.00     0.179 C 
ATOM     10  C   UNL     1      25.458  36.180  10.970  1.00  0.00     0.282 C 
ATOM     11  O   UNL     1      24.903  34.903  11.060  1.00  0.00    -0.341 OA
ATOM     12  C   UNL     1      25.240  36.867  12.253  1.00  0.00     0.202 C 
ATOM     13  C   UNL     1      25.946  36.102  13.364  1.00  0.00     0.179 C 
ATOM     14  C   UNL     1      26.397  34.742  12.934  1.00  0.00     0.177 C 
BRANCH  10  15
ATOM     15  O   UNL     1      24.837  36.719   9.845  1.00  0.00    -0.341 OA
BRANCH  15  16
ATOM     16  C   UNL     1      23.936  37.677  10.036  1.00  0.00     0.184 C 
ATOM     17  C   UNL     1      22.544  37.289   9.685  1.00  0.00     0.178 C 
ATOM     18  O   UNL     1      21.624  38.201  10.193  1.00  0.00    -0.341 OA
ATOM     19  C   UNL     1      21.765  39.481   9.765  1.00  0.00     0.281 C 
ATOM     20  C   UNL     1      24.209  38.981   9.258  1.00  0.00     0.180 C 
ATOM     21  C   UNL     1      22.942  39.657   8.875  1.00  0.00     0.202 C 
BRANCH  17  22
ATOM     22  C   UNL     1      22.108  35.909  10.062  1.00  0.00     0.191 C 
BRANCH  22  23
ATOM     23  O   UNL     1      22.582  34.942   9.176  1.00  0.00    -0.394 OA
ATOM     24  H   UNL     1      21.900  34.775   8.484  1.00  0.00     0.210 HD
ENDBRANCH  22  23
ENDBRANCH  17  22
BRANCH  19  25
ATOM     25  O   UNL     1      21.920  40.343  10.856  1.00  0.00    -0.350 OA
BRANCH  25  26
ATOM     26  C   UNL     1      21.054  40.021  11.890  1.00  0.00     0.169 C 
BRANCH  26  27
ATOM     27  C   UNL     1      21.666  40.136  13.252  1.00  0.00     0.119 C 
BRANCH  27  28
ATOM     28  N   UNL     1      22.741  39.149  13.321  1.00  0.00    -0.092 NA
ATOM     29  N   UNL     1      22.392  38.006  13.667  1.00  0.00     0.001 N 
ATOM     30  N   UNL     1      22.044  36.806  13.659  1.00  0.00    -0.003 NA
ENDBRANCH  27  28
ENDBRANCH  26  27
ENDBRANCH  25  26
ENDBRANCH  19  25
BRANCH  20  31
ATOM     31  O   UNL     1      24.938  39.798  10.104  1.00  0.00    -0.387 OA
ATOM     32  H   UNL     1      24.538  40.721  10.017  1.00  0.00     0.211 HD
ENDBRANCH  20  31
BRANCH  21  33
ATOM     33  O   UNL     1      22.568  39.389   7.543  1.00  0.00    -0.385 OA
ATOM     34  H   UNL     1      21.805  38.773   7.609  1.00  0.00     0.211 HD
ENDBRANCH  21  33
ENDBRANCH  15  16
ENDBRANCH  10  15
BRANCH  12  35
ATOM     35  O   UNL     1      25.673  38.193  12.307  1.00  0.00    -0.385 OA
ATOM     36  H   UNL     1      25.726  38.521  13.262  1.00  0.00     0.211 HD
ENDBRANCH  12  35
BRANCH  13  37
ATOM     37  O   UNL     1      25.110  36.086  14.477  1.00  0.00    -0.387 OA
ATOM     38  H   UNL     1      24.251  36.516  14.349  1.00  0.00     0.211 HD
ENDBRANCH  13  37
BRANCH  14  39
ATOM     39  O   UNL     1      26.487  33.894  14.066  1.00  0.00    -0.387 OA
ATOM     40  H   UNL     1      27.397  33.975  14.402  1.00  0.00     0.211 HD
ENDBRANCH  14  39
ENDBRANCH   8   9
ENDBRANCH   7   8
ENDBRANCH   1   7
BRANCH   1  41
ATOM     41  C   UNL     1      23.587  30.101  13.798  1.00  0.00     0.364 C 
ATOM     42  O   UNL     1      23.977  29.370  12.861  1.00  0.00    -0.246 OA
BRANCH  41  43
ATOM     43  O   UNL     1      22.555  29.668  14.593  1.00  0.00    -0.477 OA
ATOM     44  H   UNL     1      21.774  30.255  14.878  1.00  0.00     0.296 HD
ENDBRANCH  41  43
ENDBRANCH   1  41
BRANCH   3  45
ATOM     45  O   UNL     1      23.434  34.216  16.159  1.00  0.00    -0.391 OA
ATOM     46  H   UNL     1      22.484  34.387  16.012  1.00  0.00     0.211 HD
ENDBRANCH   3  45
BRANCH   5  47
ATOM     47  C   UNL     1      26.615  30.584  16.573  1.00  0.00     0.176 C 
BRANCH  47  48
ATOM     48  O   UNL     1      26.418  29.243  16.870  1.00  0.00    -0.388 OA
ATOM     49  H   UNL     1      25.696  29.070  17.523  1.00  0.00     0.211 HD
ENDBRANCH  47  48
BRANCH  47  50
ATOM     50  C   UNL     1      27.870  30.796  15.838  1.00  0.00     0.165 C 
BRANCH  50  51
ATOM     51  O   UNL     1      28.669  29.631  16.133  1.00  0.00    -0.388 OA
ATOM     52  H   UNL     1      28.189  28.818  15.848  1.00  0.00     0.211 HD
ENDBRANCH  50  51
BRANCH  50  53
ATOM     53  C   UNL     1      28.726  31.916  16.412  1.00  0.00     0.154 C 
BRANCH  53  54
ATOM     54  N   UNL     1      28.667  33.144  15.669  1.00  0.00    -0.319 N 
ATOM     55  C   UNL     1      29.751  33.482  14.820  1.00  0.00     0.407 C 
ATOM     56  H   UNL     1      27.861  33.812  15.722  1.00  0.00     0.167 HD
ATOM     57  O   UNL     1      30.775  32.741  14.711  1.00  0.00    -0.225 OA
BRANCH  55  58
ATOM     58  O   UNL     1      29.730  34.645  14.073  1.00  0.00    -0.443 OA
BRANCH  58  59
ATOM     59  C   UNL     1      29.591  35.934  14.677  1.00  0.00     0.294 C 
BRANCH  59  60
ATOM     60  C   UNL     1      29.252  36.953  13.642  1.00  0.00     0.121 A 
ATOM     61  C   UNL     1      29.489  36.821  12.281  1.00  0.00     0.144 A 
ATOM     62  N   UNL     1      28.675  38.149  13.819  1.00  0.00    -0.131 NA
ATOM     63  N   UNL     1      29.052  37.934  11.679  1.00  0.00    -0.220 N 
ATOM     64  N   UNL     1      28.574  38.704  12.614  1.00  0.00    -0.062 NA
BRANCH  63  65
ATOM     65  C   UNL     1      29.143  38.133  10.267  1.00  0.00     0.066 A 
ATOM     66  C   UNL     1      28.019  38.192   9.481  1.00  0.00     0.030 A 
ATOM     67  C   UNL     1      30.363  38.269   9.664  1.00  0.00     0.030 A 
ATOM     68  C   UNL     1      28.076  38.386   8.099  1.00  0.00     0.023 A 
ATOM     69  C   UNL     1      30.449  38.461   8.293  1.00  0.00     0.023 A 
ATOM     70  C   UNL     1      29.301  38.521   7.502  1.00  0.00     0.041 A 
ATOM     71  Cl  UNL     1      29.424  38.765   5.758  1.00  0.00    -0.084 Cl
ENDBRANCH  63  65
ENDBRANCH  59  60
ENDBRANCH  58  59
ENDBRANCH  55  58
ENDBRANCH  53  54
ENDBRANCH  50  53
ENDBRANCH  47  50
ENDBRANCH   5  47
BRANCH   4  72
ATOM     72  N   UNL     1      25.461  32.957  17.718  1.00  0.00    -0.348 N 
ATOM     73  C   UNL     1      26.177  34.182  17.965  1.00  0.00     0.217 C 
ATOM     74  H   UNL     1      25.235  32.403  18.560  1.00  0.00     0.163 HD
ATOM     75  C   UNL     1      26.564  34.581  19.348  1.00  0.00     0.114 C 
ATOM     76  O   UNL     1      26.467  34.910  16.981  1.00  0.00    -0.275 OA
ENDBRANCH   4  72
TORSDOF 30
BEGIN_RES LYS A 131
REMARK  4 active torsions:
REMARK  status: ('A' for Active; 'I' for Inactive)
REMARK    1  A    between atoms: CA   and  CB  
REMARK    2  A    between atoms: CB   and  CG  
REMARK    3  A    between atoms: CG   and  CD  
REMARK    4  A    between atoms: CD   and  CE  
ROOT
ATOM      1  CA  LYS A 131      29.867  25.555  16.977  1.00 20.52     0.186 C 
ENDROOT
BRANCH   1   2
ATOM      2  CB  LYS A 131      28.345  25.722  17.026  1.00 20.94     0.034 C 
BRANCH   2   3
ATOM      3  CG  LYS A 131      27.601  24.402  16.891  1.00 22.96     0.005 C 
BRANCH   3   4
ATOM      4  CD  LYS A 131      26.637  24.177  18.022  1.00 24.33     0.041 C 
BRANCH   4   5
ATOM      5  CE  LYS A 131      25.525  23.238  17.564  1.00 26.91     0.338 C 
ATOM      6  NZ  LYS A 131      24.460  23.998  16.868  1.00 27.40     0.618 N 
ENDBRANCH   4   5
ENDBRANCH   3   4
ENDBRANCH   2   3
ENDBRANCH   1   2
END_RES LYS A 131
BEGIN_RES LYS A 135
REMARK  4 active torsions:
REMARK  status: ('A' for Active; 'I' for Inactive)
REMARK    5  A    between atoms: CA   and  CB  
REMARK    6  A    between atoms: CB   and  CG  
REMARK    7  A    between atoms: CG   and  CD  
REMARK    8  A    between atoms: CD   and  CE  
ROOT
ATOM      7  CA  LYS A 135      33.193  34.663   9.290  1.00 25.02     0.186 C 
ENDROOT
BRANCH   7   8
ATOM      8  CB  LYS A 135      32.060  35.360  10.034  1.00 26.63     0.034 C 
BRANCH   8   9
ATOM      9  CG  LYS A 135      30.710  34.731   9.802  1.00 29.45     0.005 C 
BRANCH   9  10
ATOM     10  CD  LYS A 135      30.434  34.587   8.314  1.00 32.00     0.041 C 
BRANCH  10  11
ATOM     11  CE  LYS A 135      28.964  34.817   8.020  1.00 34.25     0.338 C 
ATOM     12  NZ  LYS A 135      28.110  34.319   9.135  1.00 35.99     0.618 N 
ENDBRANCH  10  11
ENDBRANCH   9  10
ENDBRANCH   8   9
ENDBRANCH   7   8
END_RES LYS A 135
