REMARK VINA RESULT:    -4.861      2.652      7.491
REMARK INTER + INTRA:         -24.049
REMARK INTER:                 -12.737
REMARK INTRA:                 -11.312
REMARK UNBOUND:               -10.521
REMARK SMILES CC(=O)N[C@@H]1[C@@H](O)C[C@](OC[C@H]2O[C@@H](O[C@H]3[C@H](O)[C@@H](O)[C@H](OCCN=[N+]=[N-])O[C@@H]3CO)[C@H](O)[C@@H](O)[C@H]2O)(C(=O)O)O[C@H]1C(O)[C@H](O)CNC(=O)OCc1cn(CCCCCC(=O)O)nn1
REMARK SMILES IDX 47 1 45 2 43 3 42 4 9 5 8 6 41 7 6 8 5 9 10 10 11 11 12 12
REMARK SMILES IDX 14 13 13 14 32 15 34 16 36 17 15 18 16 19 29 20 28 21 21 22
REMARK SMILES IDX 17 23 19 24 30 25 31 26 22 28 23 29 24 30 25 31 26 32 27 33
REMARK SMILES IDX 18 34 20 36 33 38 35 40 37 42 38 44 39 45 40 46 7 48 4 50
REMARK SMILES IDX 2 51 1 53 3 54 44 55 46 57 48 59 49 60 50 62 51 63 52 64
REMARK SMILES IDX 53 65 54 66 65 67 55 68 64 69 56 70 57 71 58 72 59 73 60 74
REMARK SMILES IDX 61 75 62 76 63 77
REMARK H PARENT 31 27 18 35 20 37 33 39 35 41 37 43 40 47 7 49 4 52 44 56
REMARK H PARENT 46 58 48 61 63 78
REMARK Flexibility Score: inf
ROOT
ATOM      1  C   UNL     1      31.924  27.598  22.003  1.00  0.00     0.154 C 
ENDROOT
BRANCH   1   2
ATOM      2  C   UNL     1      32.236  28.791  21.132  1.00  0.00     0.165 C 
BRANCH   2   3
ATOM      3  C   UNL     1      31.671  29.990  21.822  1.00  0.00     0.176 C 
BRANCH   3   4
ATOM      4  C   UNL     1      30.192  30.006  22.003  1.00  0.00     0.178 C 
ATOM      5  C   UNL     1      28.209  29.348  21.160  1.00  0.00     0.272 C 
ATOM      6  C   UNL     1      27.741  29.613  22.554  1.00  0.00     0.113 C 
ATOM      7  O   UNL     1      29.456  29.867  20.838  1.00  0.00    -0.332 OA
ATOM      8  C   UNL     1      28.303  30.788  23.260  1.00  0.00     0.145 C 
ATOM      9  C   UNL     1      29.646  31.246  22.676  1.00  0.00     0.142 C 
BRANCH   5  10
ATOM     10  O   UNL     1      27.253  29.673  20.200  1.00  0.00    -0.338 OA
BRANCH  10  11
ATOM     11  C   UNL     1      27.234  30.951  19.744  1.00  0.00     0.199 C 
BRANCH  11  12
ATOM     12  C   UNL     1      27.025  30.876  18.243  1.00  0.00     0.179 C 
ATOM     13  C   UNL     1      26.865  31.949  16.288  1.00  0.00     0.282 C 
ATOM     14  O   UNL     1      27.534  31.962  17.548  1.00  0.00    -0.341 OA
ATOM     15  C   UNL     1      26.595  30.618  15.748  1.00  0.00     0.202 C 
ATOM     16  C   UNL     1      27.385  29.471  16.312  1.00  0.00     0.179 C 
ATOM     17  C   UNL     1      27.811  29.678  17.741  1.00  0.00     0.177 C 
BRANCH  13  18
ATOM     18  O   UNL     1      27.434  32.907  15.451  1.00  0.00    -0.341 OA
BRANCH  18  19
ATOM     19  C   UNL     1      28.679  33.300  15.773  1.00  0.00     0.184 C 
ATOM     20  C   UNL     1      28.919  34.760  15.534  1.00  0.00     0.178 C 
ATOM     21  O   UNL     1      30.078  35.072  16.275  1.00  0.00    -0.341 OA
ATOM     22  C   UNL     1      31.175  34.494  15.732  1.00  0.00     0.281 C 
ATOM     23  C   UNL     1      29.723  32.629  14.815  1.00  0.00     0.180 C 
ATOM     24  C   UNL     1      30.882  33.571  14.611  1.00  0.00     0.202 C 
BRANCH  20  25
ATOM     25  C   UNL     1      27.819  35.652  16.044  1.00  0.00     0.191 C 
BRANCH  25  26
ATOM     26  O   UNL     1      27.310  35.176  17.233  1.00  0.00    -0.394 OA
ATOM     27  H   UNL     1      27.304  35.931  17.880  1.00  0.00     0.210 HD
ENDBRANCH  25  26
ENDBRANCH  20  25
BRANCH  22  28
ATOM     28  O   UNL     1      32.007  33.878  16.676  1.00  0.00    -0.350 OA
BRANCH  28  29
ATOM     29  C   UNL     1      31.622  34.129  17.968  1.00  0.00     0.169 C 
BRANCH  29  30
ATOM     30  C   UNL     1      30.991  32.879  18.565  1.00  0.00     0.119 C 
BRANCH  30  31
ATOM     31  N   UNL     1      30.264  33.198  19.783  1.00  0.00    -0.092 NA
ATOM     32  N   UNL     1      29.294  33.978  19.732  1.00  0.00     0.001 N 
ATOM     33  N   UNL     1      28.665  35.031  19.850  1.00  0.00    -0.003 NA
ENDBRANCH  30  31
ENDBRANCH  29  30
ENDBRANCH  28  29
ENDBRANCH  22  28
BRANCH  23  34
ATOM     34  O   UNL     1      30.216  31.483  15.439  1.00  0.00    -0.387 OA
ATOM     35  H   UNL     1      30.553  31.733  16.348  1.00  0.00     0.211 HD
ENDBRANCH  23  34
BRANCH  24  36
ATOM     36  O   UNL     1      30.866  34.186  13.352  1.00  0.00    -0.385 OA
ATOM     37  H   UNL     1      31.594  34.848  13.247  1.00  0.00     0.211 HD
ENDBRANCH  24  36
ENDBRANCH  18  19
ENDBRANCH  13  18
BRANCH  15  38
ATOM     38  O   UNL     1      25.230  30.246  15.921  1.00  0.00    -0.385 OA
ATOM     39  H   UNL     1      25.154  29.536  16.583  1.00  0.00     0.211 HD
ENDBRANCH  15  38
BRANCH  16  40
ATOM     40  O   UNL     1      28.553  29.206  15.574  1.00  0.00    -0.387 OA
ATOM     41  H   UNL     1      28.582  28.298  15.221  1.00  0.00     0.211 HD
ENDBRANCH  16  40
BRANCH  17  42
ATOM     42  O   UNL     1      29.173  30.072  17.765  1.00  0.00    -0.387 OA
ATOM     43  H   UNL     1      29.615  29.429  18.404  1.00  0.00     0.211 HD
ENDBRANCH  17  42
ENDBRANCH  11  12
ENDBRANCH  10  11
ENDBRANCH   5  10
BRANCH   5  44
ATOM     44  C   UNL     1      28.371  27.872  21.045  1.00  0.00     0.364 C 
ATOM     45  O   UNL     1      27.953  27.110  21.945  1.00  0.00    -0.246 OA
BRANCH  44  46
ATOM     46  O   UNL     1      28.986  27.329  19.944  1.00  0.00    -0.477 OA
ATOM     47  H   UNL     1      28.467  26.875  19.173  1.00  0.00     0.296 HD
ENDBRANCH  44  46
ENDBRANCH   5  44
BRANCH   8  48
ATOM     48  O   UNL     1      27.424  31.851  23.445  1.00  0.00    -0.391 OA
ATOM     49  H   UNL     1      27.905  32.680  23.224  1.00  0.00     0.211 HD
ENDBRANCH   8  48
BRANCH   9  50
ATOM     50  N   UNL     1      30.488  31.811  23.671  1.00  0.00    -0.348 N 
ATOM     51  C   UNL     1      30.503  33.213  23.864  1.00  0.00     0.217 C 
ATOM     52  H   UNL     1      31.089  31.219  24.260  1.00  0.00     0.163 HD
ATOM     53  C   UNL     1      31.371  33.830  24.901  1.00  0.00     0.114 C 
ATOM     54  O   UNL     1      29.787  33.996  23.173  1.00  0.00    -0.275 OA
ENDBRANCH   9  50
ENDBRANCH   3   4
BRANCH   3  55
ATOM     55  O   UNL     1      32.061  31.183  21.172  1.00  0.00    -0.388 OA
ATOM     56  H   UNL     1      31.264  31.667  20.859  1.00  0.00     0.211 HD
ENDBRANCH   3  55
ENDBRANCH   2   3
BRANCH   2  57
ATOM     57  O   UNL     1      31.621  28.596  19.901  1.00  0.00    -0.388 OA
ATOM     58  H   UNL     1      31.751  29.427  19.378  1.00  0.00     0.211 HD
ENDBRANCH   2  57
ENDBRANCH   1   2
BRANCH   1  59
ATOM     59  N   UNL     1      33.062  27.034  22.657  1.00  0.00    -0.319 N 
ATOM     60  C   UNL     1      33.222  27.267  24.061  1.00  0.00     0.407 C 
ATOM     61  H   UNL     1      33.772  26.469  22.166  1.00  0.00     0.167 HD
ATOM     62  O   UNL     1      32.378  27.949  24.693  1.00  0.00    -0.225 OA
BRANCH  60  63
ATOM     63  O   UNL     1      34.290  26.763  24.766  1.00  0.00    -0.443 OA
BRANCH  63  64
ATOM     64  C   UNL     1      35.501  26.391  24.209  1.00  0.00     0.294 C 
BRANCH  64  65
ATOM     65  C   UNL     1      36.500  27.451  24.024  1.00  0.00     0.120 A 
ATOM     66  C   UNL     1      36.413  28.550  23.211  1.00  0.00     0.138 A 
ATOM     67  N   UNL     1      37.707  27.506  24.633  1.00  0.00    -0.132 NA
ATOM     68  N   UNL     1      37.549  29.239  23.339  1.00  0.00    -0.252 N 
ATOM     69  N   UNL     1      38.301  28.584  24.200  1.00  0.00    -0.067 NA
BRANCH  68  70
ATOM     70  C   UNL     1      37.873  30.484  22.656  1.00  0.00     0.146 C 
BRANCH  70  71
ATOM     71  C   UNL     1      36.638  31.382  22.699  1.00  0.00     0.024 C 
BRANCH  71  72
ATOM     72  C   UNL     1      36.361  31.995  21.358  1.00  0.00     0.002 C 
BRANCH  72  73
ATOM     73  C   UNL     1      36.910  33.392  21.312  1.00  0.00     0.012 C 
BRANCH  73  74
ATOM     74  C   UNL     1      37.417  33.786  19.964  1.00  0.00     0.122 C 
BRANCH  74  75
ATOM     75  C   UNL     1      38.687  33.061  19.679  1.00  0.00     0.303 C 
ATOM     76  O   UNL     1      39.607  33.056  20.526  1.00  0.00    -0.252 OA
BRANCH  75  77
ATOM     77  O   UNL     1      38.871  32.382  18.479  1.00  0.00    -0.481 OA
ATOM     78  H   UNL     1      38.523  32.791  17.609  1.00  0.00     0.296 HD
ENDBRANCH  75  77
ENDBRANCH  74  75
ENDBRANCH  73  74
ENDBRANCH  72  73
ENDBRANCH  71  72
ENDBRANCH  70  71
ENDBRANCH  68  70
ENDBRANCH  64  65
ENDBRANCH  63  64
ENDBRANCH  60  63
ENDBRANCH   1  59
TORSDOF 36
BEGIN_RES LYS A 131
REMARK  4 active torsions:
REMARK  status: ('A' for Active; 'I' for Inactive)
REMARK    1  A    between atoms: CA   and  CB  
REMARK    2  A    between atoms: CB   and  CG  
REMARK    3  A    between atoms: CG   and  CD  
REMARK    4  A    between atoms: CD   and  CE  
ROOT
ATOM      1  CA  LYS A 131      29.867  25.555  16.977  1.00 20.52     0.186 C 
ENDROOT
BRANCH   1   2
ATOM      2  CB  LYS A 131      28.345  25.722  17.026  1.00 20.94     0.034 C 
BRANCH   2   3
ATOM      3  CG  LYS A 131      27.602  24.399  16.925  1.00 22.96     0.005 C 
BRANCH   3   4
ATOM      4  CD  LYS A 131      26.388  24.362  17.811  1.00 24.33     0.041 C 
BRANCH   4   5
ATOM      5  CE  LYS A 131      26.204  25.721  18.480  1.00 26.91     0.338 C 
ATOM      6  NZ  LYS A 131      25.679  25.555  19.855  1.00 27.40     0.618 N 
ENDBRANCH   4   5
ENDBRANCH   3   4
ENDBRANCH   2   3
ENDBRANCH   1   2
END_RES LYS A 131
BEGIN_RES LYS A 135
REMARK  4 active torsions:
REMARK  status: ('A' for Active; 'I' for Inactive)
REMARK    5  A    between atoms: CA   and  CB  
REMARK    6  A    between atoms: CB   and  CG  
REMARK    7  A    between atoms: CG   and  CD  
REMARK    8  A    between atoms: CD   and  CE  
ROOT
ATOM      7  CA  LYS A 135      33.193  34.663   9.290  1.00 25.02     0.186 C 
ENDROOT
BRANCH   7   8
ATOM      8  CB  LYS A 135      32.060  35.360  10.034  1.00 26.63     0.034 C 
BRANCH   8   9
ATOM      9  CG  LYS A 135      30.798  35.492   9.222  1.00 29.45     0.005 C 
BRANCH   9  10
ATOM     10  CD  LYS A 135      30.197  34.124   8.937  1.00 32.00     0.041 C 
BRANCH  10  11
ATOM     11  CE  LYS A 135      28.705  34.238   8.693  1.00 34.25     0.338 C 
ATOM     12  NZ  LYS A 135      27.939  34.062   9.958  1.00 35.99     0.618 N 
ENDBRANCH  10  11
ENDBRANCH   9  10
ENDBRANCH   8   9
ENDBRANCH   7   8
END_RES LYS A 135
