REMARK VINA RESULT:    -4.208      2.898      5.536
REMARK INTER + INTRA:         -21.930
REMARK INTER:                 -10.761
REMARK INTRA:                 -11.169
REMARK UNBOUND:               -11.571
REMARK SMILES CC(=O)N[C@@H]1[C@@H](O)C[C@](OC[C@H]2O[C@@H](O[C@H]3[C@H](O)[C@@H](O)[C@H](OCCN=[N+]=[N-])O[C@@H]3CO)[C@H](O)[C@@H](O)[C@H]2O)(C(=O)O)O[C@H]1C(O)[C@H](O)CNC(=O)OCc1cn(-c2ccc3[nH]ncc3c2)nn1
REMARK SMILES IDX 9 1 8 2 6 3 5 4 42 5 41 6 10 7 11 8 12 9 14 10 13 11 32 12
REMARK SMILES IDX 34 13 36 14 15 15 16 16 29 17 28 18 21 19 17 20 19 21 30 22
REMARK SMILES IDX 31 23 22 25 23 26 24 27 25 28 26 29 27 30 18 31 20 33 33 35
REMARK SMILES IDX 35 37 37 39 38 41 39 42 40 43 7 45 43 47 44 48 45 50 46 51
REMARK SMILES IDX 47 53 48 54 49 55 50 57 51 58 52 59 53 60 54 61 66 62 55 63
REMARK SMILES IDX 65 64 56 65 57 66 64 67 58 68 63 69 59 70 62 71 60 72 61 73
REMARK SMILES IDX 4 75 2 76 1 78 3 79
REMARK H PARENT 31 24 18 32 20 34 33 36 35 38 37 40 40 44 7 46 44 49 46 52
REMARK H PARENT 48 56 60 74 4 77
REMARK Flexibility Score: inf
ROOT
ATOM      1  C   UNL     1      29.990  33.228  16.786  1.00  0.00     0.272 C 
ATOM      2  C   UNL     1      30.775  34.479  16.951  1.00  0.00     0.113 C 
ATOM      3  C   UNL     1      30.812  35.042  18.348  1.00  0.00     0.145 C 
ATOM      4  C   UNL     1      31.420  33.905  19.211  1.00  0.00     0.142 C 
ATOM      5  C   UNL     1      30.545  32.735  18.975  1.00  0.00     0.178 C 
ATOM      6  O   UNL     1      30.400  32.273  17.713  1.00  0.00    -0.332 OA
ENDROOT
BRANCH   1   7
ATOM      7  O   UNL     1      30.238  32.719  15.493  1.00  0.00    -0.338 OA
BRANCH   7   8
ATOM      8  C   UNL     1      30.848  33.575  14.636  1.00  0.00     0.199 C 
BRANCH   8   9
ATOM      9  C   UNL     1      29.892  34.053  13.520  1.00  0.00     0.179 C 
ATOM     10  C   UNL     1      28.419  35.837  13.634  1.00  0.00     0.282 C 
ATOM     11  O   UNL     1      28.724  34.526  14.038  1.00  0.00    -0.341 OA
ATOM     12  C   UNL     1      29.509  36.707  14.169  1.00  0.00     0.202 C 
ATOM     13  C   UNL     1      30.762  36.391  13.339  1.00  0.00     0.179 C 
ATOM     14  C   UNL     1      30.614  35.062  12.647  1.00  0.00     0.177 C 
BRANCH  10  15
ATOM     15  O   UNL     1      27.140  36.161  14.050  1.00  0.00    -0.341 OA
BRANCH  15  16
ATOM     16  C   UNL     1      26.265  36.080  12.974  1.00  0.00     0.184 C 
ATOM     17  C   UNL     1      25.365  37.267  12.809  1.00  0.00     0.178 C 
ATOM     18  O   UNL     1      24.612  37.160  11.701  1.00  0.00    -0.341 OA
ATOM     19  C   UNL     1      24.411  35.964  11.089  1.00  0.00     0.281 C 
ATOM     20  C   UNL     1      25.278  34.921  13.208  1.00  0.00     0.180 C 
ATOM     21  C   UNL     1      24.503  34.749  11.947  1.00  0.00     0.202 C 
BRANCH  17  22
ATOM     22  C   UNL     1      26.085  38.600  12.801  1.00  0.00     0.191 C 
BRANCH  22  23
ATOM     23  O   UNL     1      26.506  38.971  14.065  1.00  0.00    -0.394 OA
ATOM     24  H   UNL     1      25.724  38.795  14.671  1.00  0.00     0.210 HD
ENDBRANCH  22  23
ENDBRANCH  17  22
BRANCH  19  25
ATOM     25  O   UNL     1      25.289  35.884  10.036  1.00  0.00    -0.350 OA
BRANCH  25  26
ATOM     26  C   UNL     1      25.278  36.896   9.141  1.00  0.00     0.169 C 
BRANCH  26  27
ATOM     27  C   UNL     1      26.022  36.613   7.875  1.00  0.00     0.119 C 
BRANCH  27  28
ATOM     28  N   UNL     1      26.664  37.741   7.269  1.00  0.00    -0.092 NA
ATOM     29  N   UNL     1      27.824  37.747   6.907  1.00  0.00     0.001 N 
ATOM     30  N   UNL     1      29.067  37.889   6.866  1.00  0.00    -0.003 NA
ENDBRANCH  27  28
ENDBRANCH  26  27
ENDBRANCH  25  26
ENDBRANCH  19  25
BRANCH  20  31
ATOM     31  O   UNL     1      25.919  33.775  13.597  1.00  0.00    -0.387 OA
ATOM     32  H   UNL     1      26.116  33.735  14.568  1.00  0.00     0.211 HD
ENDBRANCH  20  31
BRANCH  21  33
ATOM     33  O   UNL     1      23.226  34.278  12.305  1.00  0.00    -0.385 OA
ATOM     34  H   UNL     1      23.012  33.426  11.846  1.00  0.00     0.211 HD
ENDBRANCH  21  33
ENDBRANCH  15  16
ENDBRANCH  10  15
BRANCH  12  35
ATOM     35  O   UNL     1      29.254  38.055  14.181  1.00  0.00    -0.385 OA
ATOM     36  H   UNL     1      28.899  38.379  13.298  1.00  0.00     0.211 HD
ENDBRANCH  12  35
BRANCH  13  37
ATOM     37  O   UNL     1      31.918  36.526  14.078  1.00  0.00    -0.387 OA
ATOM     38  H   UNL     1      31.844  35.895  14.855  1.00  0.00     0.211 HD
ENDBRANCH  13  37
BRANCH  14  39
ATOM     39  O   UNL     1      31.928  34.568  12.448  1.00  0.00    -0.387 OA
ATOM     40  H   UNL     1      32.055  34.190  11.565  1.00  0.00     0.211 HD
ENDBRANCH  14  39
ENDBRANCH   8   9
ENDBRANCH   7   8
ENDBRANCH   1   7
BRANCH   1  41
ATOM     41  C   UNL     1      28.526  33.385  17.000  1.00  0.00     0.364 C 
ATOM     42  O   UNL     1      27.898  32.364  17.436  1.00  0.00    -0.246 OA
BRANCH  41  43
ATOM     43  O   UNL     1      27.775  34.498  16.783  1.00  0.00    -0.477 OA
ATOM     44  H   UNL     1      27.366  34.737  15.878  1.00  0.00     0.296 HD
ENDBRANCH  41  43
ENDBRANCH   1  41
BRANCH   3  45
ATOM     45  O   UNL     1      31.651  36.140  18.352  1.00  0.00    -0.391 OA
ATOM     46  H   UNL     1      31.435  36.778  17.606  1.00  0.00     0.211 HD
ENDBRANCH   3  45
BRANCH   5  47
ATOM     47  C   UNL     1      30.764  31.663  19.999  1.00  0.00     0.176 C 
BRANCH  47  48
ATOM     48  O   UNL     1      29.595  31.756  20.840  1.00  0.00    -0.388 OA
ATOM     49  H   UNL     1      29.526  32.651  21.228  1.00  0.00     0.211 HD
ENDBRANCH  47  48
BRANCH  47  50
ATOM     50  C   UNL     1      30.741  30.247  19.480  1.00  0.00     0.165 C 
BRANCH  50  51
ATOM     51  O   UNL     1      29.417  30.053  18.995  1.00  0.00    -0.388 OA
ATOM     52  H   UNL     1      29.075  30.839  18.535  1.00  0.00     0.211 HD
ENDBRANCH  50  51
BRANCH  50  53
ATOM     53  C   UNL     1      31.044  29.188  20.471  1.00  0.00     0.154 C 
BRANCH  53  54
ATOM     54  N   UNL     1      30.032  28.233  20.757  1.00  0.00    -0.319 N 
ATOM     55  C   UNL     1      29.029  28.316  21.751  1.00  0.00     0.407 C 
ATOM     56  H   UNL     1      29.992  27.338  20.171  1.00  0.00     0.167 HD
ATOM     57  O   UNL     1      28.937  29.298  22.493  1.00  0.00    -0.225 OA
BRANCH  55  58
ATOM     58  O   UNL     1      28.117  27.275  21.907  1.00  0.00    -0.443 OA
BRANCH  58  59
ATOM     59  C   UNL     1      26.864  27.189  21.300  1.00  0.00     0.294 C 
BRANCH  59  60
ATOM     60  C   UNL     1      26.783  27.774  19.955  1.00  0.00     0.121 A 
ATOM     61  C   UNL     1      25.860  28.698  19.518  1.00  0.00     0.144 A 
ATOM     62  N   UNL     1      27.594  27.496  18.913  1.00  0.00    -0.131 NA
ATOM     63  N   UNL     1      26.160  28.930  18.238  1.00  0.00    -0.220 N 
ATOM     64  N   UNL     1      27.204  28.199  17.895  1.00  0.00    -0.062 NA
BRANCH  63  65
ATOM     65  C   UNL     1      25.450  29.830  17.387  1.00  0.00     0.067 A 
ATOM     66  C   UNL     1      24.746  30.894  17.907  1.00  0.00     0.030 A 
ATOM     67  C   UNL     1      25.453  29.646  16.023  1.00  0.00     0.040 A 
ATOM     68  C   UNL     1      24.061  31.756  17.087  1.00  0.00     0.030 A 
ATOM     69  C   UNL     1      24.753  30.530  15.206  1.00  0.00     0.022 A 
ATOM     70  C   UNL     1      24.041  31.603  15.715  1.00  0.00     0.065 A 
ATOM     71  C   UNL     1      24.610  30.556  13.838  1.00  0.00     0.143 A 
ATOM     72  N   UNL     1      23.487  32.254  14.678  1.00  0.00    -0.278 N 
ATOM     73  N   UNL     1      23.834  31.622  13.580  1.00  0.00    -0.183 NA
ATOM     74  H   UNL     1      22.889  33.111  14.766  1.00  0.00     0.190 HD
ENDBRANCH  63  65
ENDBRANCH  59  60
ENDBRANCH  58  59
ENDBRANCH  55  58
ENDBRANCH  53  54
ENDBRANCH  50  53
ENDBRANCH  47  50
ENDBRANCH   5  47
BRANCH   4  75
ATOM     75  N   UNL     1      31.204  34.399  20.575  1.00  0.00    -0.348 N 
ATOM     76  C   UNL     1      32.307  34.586  21.411  1.00  0.00     0.217 C 
ATOM     77  H   UNL     1      30.260  34.611  20.937  1.00  0.00     0.163 HD
ATOM     78  C   UNL     1      32.172  35.082  22.820  1.00  0.00     0.114 C 
ATOM     79  O   UNL     1      33.477  34.334  20.971  1.00  0.00    -0.275 OA
ENDBRANCH   4  75
TORSDOF 30
BEGIN_RES LYS A 131
REMARK  4 active torsions:
REMARK  status: ('A' for Active; 'I' for Inactive)
REMARK    1  A    between atoms: CA   and  CB  
REMARK    2  A    between atoms: CB   and  CG  
REMARK    3  A    between atoms: CG   and  CD  
REMARK    4  A    between atoms: CD   and  CE  
ROOT
ATOM      1  CA  LYS A 131      29.867  25.555  16.977  1.00 20.52     0.186 C 
ENDROOT
BRANCH   1   2
ATOM      2  CB  LYS A 131      28.345  25.722  17.026  1.00 20.94     0.034 C 
BRANCH   2   3
ATOM      3  CG  LYS A 131      27.600  24.408  16.849  1.00 22.96     0.005 C 
BRANCH   3   4
ATOM      4  CD  LYS A 131      26.577  24.187  17.928  1.00 24.33     0.041 C 
BRANCH   4   5
ATOM      5  CE  LYS A 131      25.177  24.343  17.342  1.00 26.91     0.338 C 
ATOM      6  NZ  LYS A 131      24.681  25.725  17.546  1.00 27.40     0.618 N 
ENDBRANCH   4   5
ENDBRANCH   3   4
ENDBRANCH   2   3
ENDBRANCH   1   2
END_RES LYS A 131
BEGIN_RES LYS A 135
REMARK  4 active torsions:
REMARK  status: ('A' for Active; 'I' for Inactive)
REMARK    5  A    between atoms: CA   and  CB  
REMARK    6  A    between atoms: CB   and  CG  
REMARK    7  A    between atoms: CG   and  CD  
REMARK    8  A    between atoms: CD   and  CE  
ROOT
ATOM      7  CA  LYS A 135      33.193  34.663   9.290  1.00 25.02     0.186 C 
ENDROOT
BRANCH   7   8
ATOM      8  CB  LYS A 135      32.060  35.360  10.034  1.00 26.63     0.034 C 
BRANCH   8   9
ATOM      9  CG  LYS A 135      30.875  35.683   9.161  1.00 29.45     0.005 C 
BRANCH   9  10
ATOM     10  CD  LYS A 135      30.355  34.428   8.476  1.00 32.00     0.041 C 
BRANCH  10  11
ATOM     11  CE  LYS A 135      28.841  34.459   8.386  1.00 34.25     0.338 C 
ATOM     12  NZ  LYS A 135      28.219  33.825   9.581  1.00 35.99     0.618 N 
ENDBRANCH  10  11
ENDBRANCH   9  10
ENDBRANCH   8   9
ENDBRANCH   7   8
END_RES LYS A 135
