REMARK VINA RESULT:    -4.997      3.506      8.289
REMARK INTER + INTRA:         -22.775
REMARK INTER:                 -10.246
REMARK INTRA:                 -12.529
REMARK UNBOUND:                -9.598
REMARK SMILES CC(=O)N[C@@H]1[C@@H](O)C[C@](OC[C@H]2O[C@@H](O[C@H]3[C@H](O)[C@@H](O)[C@H](OCCN=[N+]=[N-])O[C@@H]3CO)[C@H](O)[C@@H](O)[C@H]2O)(C(=O)O)O[C@H]1C(O)[C@H](O)CNC(=O)OCc1cn(Cc2ccccc2OC(C)=O)nn1
REMARK SMILES IDX 43 1 42 2 9 3 8 4 41 5 6 6 5 7 10 8 11 9 12 10 14 11 13 12
REMARK SMILES IDX 32 13 34 14 36 15 15 16 16 17 29 18 28 19 21 20 17 21 19 22
REMARK SMILES IDX 30 23 31 24 22 26 23 27 24 28 25 29 26 30 27 31 18 32 20 34
REMARK SMILES IDX 33 36 35 38 37 40 38 42 39 43 40 44 7 46 4 48 2 49 1 51 3 52
REMARK SMILES IDX 44 53 45 55 46 56 47 58 48 59 49 60 50 62 51 63 52 64 53 65
REMARK SMILES IDX 54 66 68 67 55 68 67 69 56 70 57 71 62 72 58 73 61 74 59 75
REMARK SMILES IDX 60 76 63 77 64 78 66 79 65 80
REMARK H PARENT 31 25 18 33 20 35 33 37 35 39 37 41 40 45 7 47 4 50 44 54
REMARK H PARENT 46 57 48 61
REMARK Flexibility Score: inf
ROOT
ATOM      1  C   UNL     1      24.540  39.222   9.640  1.00  0.00     0.176 C 
ENDROOT
BRANCH   1   2
ATOM      2  C   UNL     1      24.144  37.792   9.306  1.00  0.00     0.178 C 
ATOM      3  C   UNL     1      22.994  35.974  10.204  1.00  0.00     0.272 C 
ATOM      4  C   UNL     1      23.779  35.307   9.080  1.00  0.00     0.113 C 
ATOM      5  O   UNL     1      23.538  37.262  10.423  1.00  0.00    -0.332 OA
ATOM      6  C   UNL     1      25.242  35.632   9.334  1.00  0.00     0.145 C 
ATOM      7  C   UNL     1      25.451  37.059   8.999  1.00  0.00     0.142 C 
BRANCH   3   8
ATOM      8  O   UNL     1      23.097  35.321  11.396  1.00  0.00    -0.338 OA
BRANCH   8   9
ATOM      9  C   UNL     1      22.554  35.888  12.504  1.00  0.00     0.199 C 
BRANCH   9  10
ATOM     10  C   UNL     1      23.483  35.580  13.691  1.00  0.00     0.179 C 
ATOM     11  C   UNL     1      25.088  34.085  14.378  1.00  0.00     0.282 C 
ATOM     12  O   UNL     1      24.276  34.507  13.270  1.00  0.00    -0.341 OA
ATOM     13  C   UNL     1      26.135  35.133  14.509  1.00  0.00     0.202 C 
ATOM     14  C   UNL     1      25.408  36.411  14.964  1.00  0.00     0.179 C 
ATOM     15  C   UNL     1      24.302  36.782  14.035  1.00  0.00     0.177 C 
BRANCH  11  16
ATOM     16  O   UNL     1      25.489  32.818  14.030  1.00  0.00    -0.341 OA
BRANCH  16  17
ATOM     17  C   UNL     1      24.989  31.858  14.929  1.00  0.00     0.184 C 
ATOM     18  C   UNL     1      26.038  31.153  15.706  1.00  0.00     0.178 C 
ATOM     19  O   UNL     1      25.845  29.769  15.755  1.00  0.00    -0.341 OA
ATOM     20  C   UNL     1      24.545  29.387  16.058  1.00  0.00     0.281 C 
ATOM     21  C   UNL     1      24.352  30.729  14.036  1.00  0.00     0.180 C 
ATOM     22  C   UNL     1      23.564  29.881  14.996  1.00  0.00     0.202 C 
BRANCH  18  23
ATOM     23  C   UNL     1      26.357  31.721  17.053  1.00  0.00     0.191 C 
BRANCH  23  24
ATOM     24  O   UNL     1      25.296  32.503  17.483  1.00  0.00    -0.394 OA
ATOM     25  H   UNL     1      24.468  32.233  17.033  1.00  0.00     0.210 HD
ENDBRANCH  23  24
ENDBRANCH  18  23
BRANCH  20  26
ATOM     26  O   UNL     1      24.146  29.882  17.249  1.00  0.00    -0.350 OA
BRANCH  26  27
ATOM     27  C   UNL     1      23.870  29.074  18.289  1.00  0.00     0.169 C 
BRANCH  27  28
ATOM     28  C   UNL     1      24.820  27.980  18.620  1.00  0.00     0.119 C 
BRANCH  28  29
ATOM     29  N   UNL     1      25.423  28.188  19.893  1.00  0.00    -0.092 NA
ATOM     30  N   UNL     1      26.215  29.078  20.111  1.00  0.00     0.001 N 
ATOM     31  N   UNL     1      26.790  30.158  20.277  1.00  0.00    -0.003 NA
ENDBRANCH  28  29
ENDBRANCH  27  28
ENDBRANCH  26  27
ENDBRANCH  20  26
BRANCH  21  32
ATOM     32  O   UNL     1      23.599  31.304  13.043  1.00  0.00    -0.387 OA
ATOM     33  H   UNL     1      24.195  31.830  12.419  1.00  0.00     0.211 HD
ENDBRANCH  21  32
BRANCH  22  34
ATOM     34  O   UNL     1      22.885  28.860  14.369  1.00  0.00    -0.385 OA
ATOM     35  H   UNL     1      22.155  29.280  13.831  1.00  0.00     0.211 HD
ENDBRANCH  22  34
ENDBRANCH  16  17
ENDBRANCH  11  16
BRANCH  13  36
ATOM     36  O   UNL     1      27.061  34.877  15.507  1.00  0.00    -0.385 OA
ATOM     37  H   UNL     1      26.689  34.857  16.413  1.00  0.00     0.211 HD
ENDBRANCH  13  36
BRANCH  14  38
ATOM     38  O   UNL     1      26.328  37.448  15.134  1.00  0.00    -0.387 OA
ATOM     39  H   UNL     1      26.308  37.978  14.286  1.00  0.00     0.211 HD
ENDBRANCH  14  38
BRANCH  15  40
ATOM     40  O   UNL     1      24.860  37.394  12.916  1.00  0.00    -0.387 OA
ATOM     41  H   UNL     1      25.785  37.133  12.748  1.00  0.00     0.211 HD
ENDBRANCH  15  40
ENDBRANCH   9  10
ENDBRANCH   8   9
ENDBRANCH   3   8
BRANCH   3  42
ATOM     42  C   UNL     1      21.610  36.122   9.701  1.00  0.00     0.364 C 
ATOM     43  O   UNL     1      21.024  35.220   9.106  1.00  0.00    -0.246 OA
BRANCH  42  44
ATOM     44  O   UNL     1      20.950  37.334   9.913  1.00  0.00    -0.477 OA
ATOM     45  H   UNL     1      19.947  37.366  10.149  1.00  0.00     0.296 HD
ENDBRANCH  42  44
ENDBRANCH   3  42
BRANCH   6  46
ATOM     46  O   UNL     1      25.430  35.475  10.711  1.00  0.00    -0.391 OA
ATOM     47  H   UNL     1      25.733  36.296  11.165  1.00  0.00     0.211 HD
ENDBRANCH   6  46
BRANCH   7  48
ATOM     48  N   UNL     1      25.905  37.373   7.709  1.00  0.00    -0.348 N 
ATOM     49  C   UNL     1      27.221  37.825   7.411  1.00  0.00     0.217 C 
ATOM     50  H   UNL     1      25.220  37.265   6.907  1.00  0.00     0.163 HD
ATOM     51  C   UNL     1      27.660  38.145   6.044  1.00  0.00     0.114 C 
ATOM     52  O   UNL     1      27.998  37.940   8.369  1.00  0.00    -0.275 OA
ENDBRANCH   7  48
ENDBRANCH   1   2
BRANCH   1  53
ATOM     53  O   UNL     1      24.590  39.909   8.441  1.00  0.00    -0.388 OA
ATOM     54  H   UNL     1      24.027  40.711   8.404  1.00  0.00     0.211 HD
ENDBRANCH   1  53
BRANCH   1  55
ATOM     55  C   UNL     1      23.692  39.850  10.696  1.00  0.00     0.165 C 
BRANCH  55  56
ATOM     56  O   UNL     1      22.459  40.166  10.119  1.00  0.00    -0.388 OA
ATOM     57  H   UNL     1      21.815  40.476  10.774  1.00  0.00     0.211 HD
ENDBRANCH  55  56
BRANCH  55  58
ATOM     58  C   UNL     1      24.328  41.070  11.317  1.00  0.00     0.154 C 
BRANCH  58  59
ATOM     59  N   UNL     1      25.751  41.028  11.388  1.00  0.00    -0.319 N 
ATOM     60  C   UNL     1      26.483  40.549  12.505  1.00  0.00     0.407 C 
ATOM     61  H   UNL     1      26.317  41.370  10.565  1.00  0.00     0.167 HD
ATOM     62  O   UNL     1      25.833  40.139  13.499  1.00  0.00    -0.225 OA
BRANCH  60  63
ATOM     63  O   UNL     1      27.856  40.512  12.560  1.00  0.00    -0.443 OA
BRANCH  63  64
ATOM     64  C   UNL     1      28.568  39.644  13.441  1.00  0.00     0.294 C 
BRANCH  64  65
ATOM     65  C   UNL     1      28.501  38.247  12.989  1.00  0.00     0.120 A 
ATOM     66  C   UNL     1      29.302  37.243  13.480  1.00  0.00     0.138 A 
ATOM     67  N   UNL     1      27.710  37.671  12.076  1.00  0.00    -0.132 NA
ATOM     68  N   UNL     1      28.987  36.100  12.866  1.00  0.00    -0.248 N 
ATOM     69  N   UNL     1      27.999  36.402  12.004  1.00  0.00    -0.067 NA
BRANCH  68  70
ATOM     70  C   UNL     1      29.544  34.770  13.019  1.00  0.00     0.185 C 
BRANCH  70  71
ATOM     71  C   UNL     1      30.847  34.799  13.692  1.00  0.00     0.016 A 
ATOM     72  C   UNL     1      31.002  34.415  14.979  1.00  0.00     0.135 A 
ATOM     73  C   UNL     1      31.940  35.231  12.935  1.00  0.00     0.009 A 
ATOM     74  C   UNL     1      32.277  34.456  15.547  1.00  0.00     0.047 A 
ATOM     75  C   UNL     1      33.187  35.267  13.502  1.00  0.00     0.001 A 
ATOM     76  C   UNL     1      33.366  34.880  14.811  1.00  0.00     0.004 A 
BRANCH  72  77
ATOM     77  O   UNL     1      29.955  33.984  15.768  1.00  0.00    -0.426 OA
BRANCH  77  78
ATOM     78  C   UNL     1      29.877  32.618  16.061  1.00  0.00     0.308 C 
ATOM     79  O   UNL     1      29.485  31.833  15.170  1.00  0.00    -0.252 OA
ATOM     80  C   UNL     1      30.251  32.135  17.393  1.00  0.00     0.139 C 
ENDBRANCH  77  78
ENDBRANCH  72  77
ENDBRANCH  70  71
ENDBRANCH  68  70
ENDBRANCH  64  65
ENDBRANCH  63  64
ENDBRANCH  60  63
ENDBRANCH  58  59
ENDBRANCH  55  58
ENDBRANCH   1  55
TORSDOF 33
BEGIN_RES LYS A 131
REMARK  4 active torsions:
REMARK  status: ('A' for Active; 'I' for Inactive)
REMARK    1  A    between atoms: CA   and  CB  
REMARK    2  A    between atoms: CB   and  CG  
REMARK    3  A    between atoms: CG   and  CD  
REMARK    4  A    between atoms: CD   and  CE  
ROOT
ATOM      1  CA  LYS A 131      29.867  25.555  16.977  1.00 20.52     0.186 C 
ENDROOT
BRANCH   1   2
ATOM      2  CB  LYS A 131      28.345  25.722  17.026  1.00 20.94     0.034 C 
BRANCH   2   3
ATOM      3  CG  LYS A 131      27.601  24.401  16.900  1.00 22.96     0.005 C 
BRANCH   3   4
ATOM      4  CD  LYS A 131      26.159  24.522  17.307  1.00 24.33     0.041 C 
BRANCH   4   5
ATOM      5  CE  LYS A 131      25.911  23.684  18.557  1.00 26.91     0.338 C 
ATOM      6  NZ  LYS A 131      25.490  24.547  19.686  1.00 27.40     0.618 N 
ENDBRANCH   4   5
ENDBRANCH   3   4
ENDBRANCH   2   3
ENDBRANCH   1   2
END_RES LYS A 131
BEGIN_RES LYS A 135
REMARK  4 active torsions:
REMARK  status: ('A' for Active; 'I' for Inactive)
REMARK    5  A    between atoms: CA   and  CB  
REMARK    6  A    between atoms: CB   and  CG  
REMARK    7  A    between atoms: CG   and  CD  
REMARK    8  A    between atoms: CD   and  CE  
ROOT
ATOM      7  CA  LYS A 135      33.193  34.663   9.290  1.00 25.02     0.186 C 
ENDROOT
BRANCH   7   8
ATOM      8  CB  LYS A 135      32.060  35.360  10.034  1.00 26.63     0.034 C 
BRANCH   8   9
ATOM      9  CG  LYS A 135      30.717  34.705   9.837  1.00 29.45     0.005 C 
BRANCH   9  10
ATOM     10  CD  LYS A 135      30.261  34.841   8.393  1.00 32.00     0.041 C 
BRANCH  10  11
ATOM     11  CE  LYS A 135      28.779  34.541   8.272  1.00 34.25     0.338 C 
ATOM     12  NZ  LYS A 135      28.281  33.805   9.467  1.00 35.99     0.618 N 
ENDBRANCH  10  11
ENDBRANCH   9  10
ENDBRANCH   8   9
ENDBRANCH   7   8
END_RES LYS A 135
