REMARK VINA RESULT:    -4.821      5.112     10.717
REMARK INTER + INTRA:         -23.064
REMARK INTER:                 -11.071
REMARK INTRA:                 -11.993
REMARK UNBOUND:               -11.198
REMARK SMILES CC(=O)N[C@@H]1[C@@H](O)C[C@](OC[C@H]2O[C@@H](O[C@H]3[C@H](O)[C@@H](O)[C@H](OCCN=[N+]=[N-])O[C@@H]3CO)[C@H](O)[C@@H](O)[C@H]2O)(C(=O)O)O[C@H]1C(O)[C@H](O)CNC(=O)OCc1cn(C23CC4CC(CC(C4)C2)C3)nn1
REMARK SMILES IDX 9 1 8 2 6 3 5 4 42 5 41 6 10 7 11 8 12 9 14 10 13 11 32 12
REMARK SMILES IDX 34 13 36 14 15 15 16 16 29 17 28 18 21 19 17 20 19 21 30 22
REMARK SMILES IDX 31 23 22 25 23 26 24 27 25 28 26 29 27 30 18 31 20 33 33 35
REMARK SMILES IDX 35 37 37 39 38 41 39 42 40 43 7 45 43 47 44 48 45 50 46 51
REMARK SMILES IDX 47 53 48 54 49 55 50 57 51 58 52 59 53 60 54 61 67 62 55 63
REMARK SMILES IDX 66 64 56 65 65 66 64 67 57 68 60 69 62 70 58 71 59 72 61 73
REMARK SMILES IDX 63 74 4 75 2 76 1 78 3 79
REMARK H PARENT 31 24 18 32 20 34 33 36 35 38 37 40 40 44 7 46 44 49 46 52
REMARK H PARENT 48 56 4 77
REMARK Flexibility Score: inf
ROOT
ATOM      1  C   UNL     1      29.147  31.385  20.782  1.00  0.00     0.272 C 
ATOM      2  C   UNL     1      30.635  31.303  20.774  1.00  0.00     0.113 C 
ATOM      3  C   UNL     1      31.104  30.150  19.909  1.00  0.00     0.145 C 
ATOM      4  C   UNL     1      30.787  28.888  20.724  1.00  0.00     0.142 C 
ATOM      5  C   UNL     1      29.386  29.077  21.224  1.00  0.00     0.178 C 
ATOM      6  O   UNL     1      28.654  30.045  20.583  1.00  0.00    -0.332 OA
ENDROOT
BRANCH   1   7
ATOM      7  O   UNL     1      28.561  32.088  19.823  1.00  0.00    -0.338 OA
BRANCH   7   8
ATOM      8  C   UNL     1      29.054  32.985  19.007  1.00  0.00     0.199 C 
BRANCH   8   9
ATOM      9  C   UNL     1      28.365  34.261  18.656  1.00  0.00     0.179 C 
ATOM     10  C   UNL     1      26.416  35.273  18.179  1.00  0.00     0.282 C 
ATOM     11  O   UNL     1      26.951  34.013  18.520  1.00  0.00    -0.341 OA
ATOM     12  C   UNL     1      26.107  35.943  19.477  1.00  0.00     0.202 C 
ATOM     13  C   UNL     1      27.206  35.571  20.454  1.00  0.00     0.179 C 
ATOM     14  C   UNL     1      28.515  35.314  19.749  1.00  0.00     0.177 C 
BRANCH  10  15
ATOM     15  O   UNL     1      25.330  35.137  17.322  1.00  0.00    -0.341 OA
BRANCH  15  16
ATOM     16  C   UNL     1      25.772  35.031  16.037  1.00  0.00     0.184 C 
ATOM     17  C   UNL     1      25.531  36.184  15.132  1.00  0.00     0.178 C 
ATOM     18  O   UNL     1      26.430  36.027  14.052  1.00  0.00    -0.341 OA
ATOM     19  C   UNL     1      26.033  34.952  13.222  1.00  0.00     0.281 C 
ATOM     20  C   UNL     1      25.163  33.823  15.316  1.00  0.00     0.180 C 
ATOM     21  C   UNL     1      25.847  33.692  13.999  1.00  0.00     0.202 C 
BRANCH  17  22
ATOM     22  C   UNL     1      25.630  37.537  15.729  1.00  0.00     0.191 C 
BRANCH  22  23
ATOM     23  O   UNL     1      24.540  37.697  16.599  1.00  0.00    -0.394 OA
ATOM     24  H   UNL     1      23.971  38.466  16.334  1.00  0.00     0.210 HD
ENDBRANCH  22  23
ENDBRANCH  17  22
BRANCH  19  25
ATOM     25  O   UNL     1      27.081  34.779  12.346  1.00  0.00    -0.350 OA
BRANCH  25  26
ATOM     26  C   UNL     1      26.989  35.397  11.154  1.00  0.00     0.169 C 
BRANCH  26  27
ATOM     27  C   UNL     1      25.609  35.354  10.579  1.00  0.00     0.119 C 
BRANCH  27  28
ATOM     28  N   UNL     1      25.665  35.122   9.130  1.00  0.00    -0.092 NA
ATOM     29  N   UNL     1      25.865  36.093   8.412  1.00  0.00     0.001 N 
ATOM     30  N   UNL     1      25.796  36.970   7.525  1.00  0.00    -0.003 NA
ENDBRANCH  27  28
ENDBRANCH  26  27
ENDBRANCH  25  26
ENDBRANCH  19  25
BRANCH  20  31
ATOM     31  O   UNL     1      25.360  32.648  16.041  1.00  0.00    -0.387 OA
ATOM     32  H   UNL     1      26.273  32.324  15.881  1.00  0.00     0.211 HD
ENDBRANCH  20  31
BRANCH  21  33
ATOM     33  O   UNL     1      25.098  32.796  13.238  1.00  0.00    -0.385 OA
ATOM     34  H   UNL     1      25.315  32.880  12.290  1.00  0.00     0.211 HD
ENDBRANCH  21  33
ENDBRANCH  15  16
ENDBRANCH  10  15
BRANCH  12  35
ATOM     35  O   UNL     1      25.910  37.300  19.414  1.00  0.00    -0.385 OA
ATOM     36  H   UNL     1      25.611  37.562  18.511  1.00  0.00     0.211 HD
ENDBRANCH  12  35
BRANCH  13  37
ATOM     37  O   UNL     1      26.852  34.507  21.274  1.00  0.00    -0.387 OA
ATOM     38  H   UNL     1      27.574  33.801  21.220  1.00  0.00     0.211 HD
ENDBRANCH  13  37
BRANCH  14  39
ATOM     39  O   UNL     1      29.415  34.824  20.685  1.00  0.00    -0.387 OA
ATOM     40  H   UNL     1      30.281  34.575  20.268  1.00  0.00     0.211 HD
ENDBRANCH  14  39
ENDBRANCH   8   9
ENDBRANCH   7   8
ENDBRANCH   1   7
BRANCH   1  41
ATOM     41  C   UNL     1      28.667  31.687  22.141  1.00  0.00     0.364 C 
ATOM     42  O   UNL     1      27.486  31.759  22.503  1.00  0.00    -0.246 OA
BRANCH  41  43
ATOM     43  O   UNL     1      29.693  31.916  23.104  1.00  0.00    -0.477 OA
ATOM     44  H   UNL     1      30.541  32.344  22.798  1.00  0.00     0.296 HD
ENDBRANCH  41  43
ENDBRANCH   1  41
BRANCH   3  45
ATOM     45  O   UNL     1      30.335  30.097  18.754  1.00  0.00    -0.391 OA
ATOM     46  H   UNL     1      30.128  29.143  18.584  1.00  0.00     0.211 HD
ENDBRANCH   3  45
BRANCH   5  47
ATOM     47  C   UNL     1      28.534  27.771  20.994  1.00  0.00     0.176 C 
BRANCH  47  48
ATOM     48  O   UNL     1      29.431  27.008  20.218  1.00  0.00    -0.388 OA
ATOM     49  H   UNL     1      28.861  26.390  19.697  1.00  0.00     0.211 HD
ENDBRANCH  47  48
BRANCH  47  50
ATOM     50  C   UNL     1      27.336  28.080  20.216  1.00  0.00     0.165 C 
BRANCH  50  51
ATOM     51  O   UNL     1      26.122  27.634  20.768  1.00  0.00    -0.388 OA
ATOM     52  H   UNL     1      25.833  28.278  21.481  1.00  0.00     0.211 HD
ENDBRANCH  50  51
BRANCH  50  53
ATOM     53  C   UNL     1      27.346  27.760  18.770  1.00  0.00     0.154 C 
BRANCH  53  54
ATOM     54  N   UNL     1      27.717  28.832  17.922  1.00  0.00    -0.319 N 
ATOM     55  C   UNL     1      26.905  29.853  17.408  1.00  0.00     0.407 C 
ATOM     56  H   UNL     1      28.776  28.852  17.637  1.00  0.00     0.167 HD
ATOM     57  O   UNL     1      25.690  29.894  17.662  1.00  0.00    -0.225 OA
BRANCH  55  58
ATOM     58  O   UNL     1      27.499  30.843  16.589  1.00  0.00    -0.443 OA
BRANCH  58  59
ATOM     59  C   UNL     1      28.568  30.456  15.763  1.00  0.00     0.294 C 
BRANCH  59  60
ATOM     60  C   UNL     1      29.565  31.536  15.705  1.00  0.00     0.120 A 
ATOM     61  C   UNL     1      29.353  32.785  15.182  1.00  0.00     0.138 A 
ATOM     62  N   UNL     1      30.838  31.519  16.140  1.00  0.00    -0.132 NA
ATOM     63  N   UNL     1      30.489  33.476  15.314  1.00  0.00    -0.246 N 
ATOM     64  N   UNL     1      31.369  32.685  15.897  1.00  0.00    -0.066 NA
BRANCH  63  65
ATOM     65  C   UNL     1      30.644  34.847  14.871  1.00  0.00     0.065 C 
ATOM     66  C   UNL     1      32.015  35.319  15.242  1.00  0.00     0.034 C 
ATOM     67  C   UNL     1      30.359  34.950  13.387  1.00  0.00     0.034 C 
ATOM     68  C   UNL     1      29.634  35.730  15.581  1.00  0.00     0.034 C 
ATOM     69  C   UNL     1      32.233  36.734  14.768  1.00  0.00    -0.008 C 
ATOM     70  C   UNL     1      30.644  36.348  12.925  1.00  0.00    -0.008 C 
ATOM     71  C   UNL     1      29.835  37.141  15.082  1.00  0.00    -0.008 C 
ATOM     72  C   UNL     1      31.214  37.630  15.428  1.00  0.00     0.007 C 
ATOM     73  C   UNL     1      32.045  36.753  13.269  1.00  0.00     0.007 C 
ATOM     74  C   UNL     1      29.639  37.272  13.598  1.00  0.00     0.007 C 
ENDBRANCH  63  65
ENDBRANCH  59  60
ENDBRANCH  58  59
ENDBRANCH  55  58
ENDBRANCH  53  54
ENDBRANCH  50  53
ENDBRANCH  47  50
ENDBRANCH   5  47
BRANCH   4  75
ATOM     75  N   UNL     1      31.723  28.838  21.853  1.00  0.00    -0.348 N 
ATOM     76  C   UNL     1      32.291  27.608  22.286  1.00  0.00     0.217 C 
ATOM     77  H   UNL     1      31.982  29.720  22.361  1.00  0.00     0.163 HD
ATOM     78  C   UNL     1      33.245  27.577  23.453  1.00  0.00     0.114 C 
ATOM     79  O   UNL     1      31.977  26.564  21.675  1.00  0.00    -0.275 OA
ENDBRANCH   4  75
TORSDOF 30
BEGIN_RES LYS A 131
REMARK  4 active torsions:
REMARK  status: ('A' for Active; 'I' for Inactive)
REMARK    1  A    between atoms: CA   and  CB  
REMARK    2  A    between atoms: CB   and  CG  
REMARK    3  A    between atoms: CG   and  CD  
REMARK    4  A    between atoms: CD   and  CE  
ROOT
ATOM      1  CA  LYS A 131      29.867  25.555  16.977  1.00 20.52     0.186 C 
ENDROOT
BRANCH   1   2
ATOM      2  CB  LYS A 131      28.345  25.722  17.026  1.00 20.94     0.034 C 
BRANCH   2   3
ATOM      3  CG  LYS A 131      27.601  24.401  16.905  1.00 22.96     0.005 C 
BRANCH   3   4
ATOM      4  CD  LYS A 131      26.545  24.246  17.964  1.00 24.33     0.041 C 
BRANCH   4   5
ATOM      5  CE  LYS A 131      25.277  23.675  17.338  1.00 26.91     0.338 C 
ATOM      6  NZ  LYS A 131      24.100  24.496  17.709  1.00 27.40     0.618 N 
ENDBRANCH   4   5
ENDBRANCH   3   4
ENDBRANCH   2   3
ENDBRANCH   1   2
END_RES LYS A 131
BEGIN_RES LYS A 135
REMARK  4 active torsions:
REMARK  status: ('A' for Active; 'I' for Inactive)
REMARK    5  A    between atoms: CA   and  CB  
REMARK    6  A    between atoms: CB   and  CG  
REMARK    7  A    between atoms: CG   and  CD  
REMARK    8  A    between atoms: CD   and  CE  
ROOT
ATOM      7  CA  LYS A 135      33.193  34.663   9.290  1.00 25.02     0.186 C 
ENDROOT
BRANCH   7   8
ATOM      8  CB  LYS A 135      32.060  35.360  10.034  1.00 26.63     0.034 C 
BRANCH   8   9
ATOM      9  CG  LYS A 135      30.697  34.801   9.716  1.00 29.45     0.005 C 
BRANCH   9  10
ATOM     10  CD  LYS A 135      30.582  34.476   8.235  1.00 32.00     0.041 C 
BRANCH  10  11
ATOM     11  CE  LYS A 135      29.392  35.191   7.624  1.00 34.25     0.338 C 
ATOM     12  NZ  LYS A 135      29.331  36.610   8.071  1.00 35.99     0.618 N 
ENDBRANCH  10  11
ENDBRANCH   9  10
ENDBRANCH   8   9
ENDBRANCH   7   8
END_RES LYS A 135
