REMARK VINA RESULT:    -4.583      5.272     10.522
REMARK INTER + INTRA:         -22.996
REMARK INTER:                 -12.533
REMARK INTRA:                 -10.463
REMARK UNBOUND:               -11.447
REMARK SMILES CC(=O)N[C@@H]1[C@@H](O)C[C@](OC[C@H]2O[C@@H](O[C@H]3[C@H](O)[C@@H](O)[C@H](OCCN=[N+]=[N-])O[C@@H]3CO)[C@H](O)[C@@H](O)[C@H]2O)(C(=O)O)O[C@H]1C(O)[C@H](O)CNC(=O)OCc1cn(-c2ccccc2C(C)C)nn1
REMARK SMILES IDX 9 1 8 2 6 3 5 4 42 5 41 6 10 7 11 8 12 9 14 10 13 11 32 12
REMARK SMILES IDX 34 13 36 14 15 15 16 16 29 17 28 18 21 19 17 20 19 21 30 22
REMARK SMILES IDX 31 23 22 25 23 26 24 27 25 28 26 29 27 30 18 31 20 33 33 35
REMARK SMILES IDX 35 37 37 39 38 41 39 42 40 43 7 45 43 47 44 48 45 50 46 51
REMARK SMILES IDX 47 53 48 54 49 55 50 57 51 58 52 59 53 60 54 61 66 62 55 63
REMARK SMILES IDX 65 64 56 65 61 66 57 67 60 68 58 69 59 70 62 71 63 72 64 73
REMARK SMILES IDX 4 74 2 75 1 77 3 78
REMARK H PARENT 31 24 18 32 20 34 33 36 35 38 37 40 40 44 7 46 44 49 46 52
REMARK H PARENT 48 56 4 76
REMARK Flexibility Score: inf
ROOT
ATOM      1  C   UNL     1      29.916  32.469  17.695  1.00  0.00     0.272 C 
ATOM      2  C   UNL     1      30.259  31.111  17.126  1.00  0.00     0.113 C 
ATOM      3  C   UNL     1      29.131  30.710  16.188  1.00  0.00     0.145 C 
ATOM      4  C   UNL     1      27.896  30.447  17.068  1.00  0.00     0.142 C 
ATOM      5  C   UNL     1      27.728  31.620  17.958  1.00  0.00     0.178 C 
ATOM      6  O   UNL     1      28.516  32.668  17.504  1.00  0.00    -0.332 OA
ENDROOT
BRANCH   1   7
ATOM      7  O   UNL     1      30.473  33.475  16.996  1.00  0.00    -0.338 OA
BRANCH   7   8
ATOM      8  C   UNL     1      31.561  33.550  16.311  1.00  0.00     0.199 C 
BRANCH   8   9
ATOM      9  C   UNL     1      31.697  34.256  15.001  1.00  0.00     0.179 C 
ATOM     10  C   UNL     1      30.636  34.796  13.065  1.00  0.00     0.282 C 
ATOM     11  O   UNL     1      30.698  33.957  14.108  1.00  0.00    -0.341 OA
ATOM     12  C   UNL     1      31.860  35.665  12.816  1.00  0.00     0.202 C 
ATOM     13  C   UNL     1      32.250  36.441  14.046  1.00  0.00     0.179 C 
ATOM     14  C   UNL     1      31.639  35.781  15.247  1.00  0.00     0.177 C 
BRANCH  10  15
ATOM     15  O   UNL     1      29.534  35.587  12.939  1.00  0.00    -0.341 OA
BRANCH  15  16
ATOM     16  C   UNL     1      28.293  35.008  12.850  1.00  0.00     0.184 C 
ATOM     17  C   UNL     1      27.527  35.416  11.635  1.00  0.00     0.178 C 
ATOM     18  O   UNL     1      26.337  35.994  11.907  1.00  0.00    -0.341 OA
ATOM     19  C   UNL     1      25.428  35.356  12.692  1.00  0.00     0.281 C 
ATOM     20  C   UNL     1      27.466  35.086  14.067  1.00  0.00     0.180 C 
ATOM     21  C   UNL     1      26.106  34.486  13.751  1.00  0.00     0.202 C 
BRANCH  17  22
ATOM     22  C   UNL     1      27.281  34.259  10.653  1.00  0.00     0.191 C 
BRANCH  22  23
ATOM     23  O   UNL     1      26.381  34.734   9.671  1.00  0.00    -0.394 OA
ATOM     24  H   UNL     1      26.958  35.109   8.933  1.00  0.00     0.210 HD
ENDBRANCH  22  23
ENDBRANCH  17  22
BRANCH  19  25
ATOM     25  O   UNL     1      24.622  34.543  11.940  1.00  0.00    -0.350 OA
BRANCH  25  26
ATOM     26  C   UNL     1      23.315  34.886  11.793  1.00  0.00     0.169 C 
BRANCH  26  27
ATOM     27  C   UNL     1      22.983  36.035  10.915  1.00  0.00     0.119 C 
BRANCH  27  28
ATOM     28  N   UNL     1      23.164  35.727   9.537  1.00  0.00    -0.092 NA
ATOM     29  N   UNL     1      22.299  35.581   8.696  1.00  0.00     0.001 N 
ATOM     30  N   UNL     1      21.330  35.617   7.948  1.00  0.00    -0.003 NA
ENDBRANCH  27  28
ENDBRANCH  26  27
ENDBRANCH  25  26
ENDBRANCH  19  25
BRANCH  20  31
ATOM     31  O   UNL     1      27.962  34.365  15.152  1.00  0.00    -0.387 OA
ATOM     32  H   UNL     1      28.781  33.904  14.864  1.00  0.00     0.211 HD
ENDBRANCH  20  31
BRANCH  21  33
ATOM     33  O   UNL     1      25.293  34.482  14.886  1.00  0.00    -0.385 OA
ATOM     34  H   UNL     1      24.651  33.735  14.776  1.00  0.00     0.211 HD
ENDBRANCH  21  33
ENDBRANCH  15  16
ENDBRANCH  10  15
BRANCH  12  35
ATOM     35  O   UNL     1      32.891  34.839  12.402  1.00  0.00    -0.385 OA
ATOM     36  H   UNL     1      33.681  34.943  13.021  1.00  0.00     0.211 HD
ENDBRANCH  12  35
BRANCH  13  37
ATOM     37  O   UNL     1      31.812  37.765  13.911  1.00  0.00    -0.387 OA
ATOM     38  H   UNL     1      31.629  38.094  14.826  1.00  0.00     0.211 HD
ENDBRANCH  13  37
BRANCH  14  39
ATOM     39  O   UNL     1      30.307  36.126  15.345  1.00  0.00    -0.387 OA
ATOM     40  H   UNL     1      30.083  36.696  14.567  1.00  0.00     0.211 HD
ENDBRANCH  14  39
ENDBRANCH   8   9
ENDBRANCH   7   8
ENDBRANCH   1   7
BRANCH   1  41
ATOM     41  C   UNL     1      30.186  32.541  19.135  1.00  0.00     0.364 C 
ATOM     42  O   UNL     1      30.812  31.544  19.647  1.00  0.00    -0.246 OA
BRANCH  41  43
ATOM     43  O   UNL     1      29.858  33.531  20.023  1.00  0.00    -0.477 OA
ATOM     44  H   UNL     1      29.350  33.425  20.882  1.00  0.00     0.296 HD
ENDBRANCH  41  43
ENDBRANCH   1  41
BRANCH   3  45
ATOM     45  O   UNL     1      28.774  31.799  15.387  1.00  0.00    -0.391 OA
ATOM     46  H   UNL     1      27.924  31.564  14.937  1.00  0.00     0.211 HD
ENDBRANCH   3  45
BRANCH   5  47
ATOM     47  C   UNL     1      26.350  32.193  18.092  1.00  0.00     0.176 C 
BRANCH  47  48
ATOM     48  O   UNL     1      26.289  33.156  17.024  1.00  0.00    -0.388 OA
ATOM     49  H   UNL     1      25.983  33.981  17.519  1.00  0.00     0.211 HD
ENDBRANCH  47  48
BRANCH  47  50
ATOM     50  C   UNL     1      26.059  32.969  19.337  1.00  0.00     0.165 C 
BRANCH  50  51
ATOM     51  O   UNL     1      26.954  33.971  19.597  1.00  0.00    -0.388 OA
ATOM     52  H   UNL     1      27.302  33.814  20.513  1.00  0.00     0.211 HD
ENDBRANCH  50  51
BRANCH  50  53
ATOM     53  C   UNL     1      25.598  32.134  20.473  1.00  0.00     0.154 C 
BRANCH  53  54
ATOM     54  N   UNL     1      26.576  31.200  20.996  1.00  0.00    -0.319 N 
ATOM     55  C   UNL     1      27.634  31.625  21.836  1.00  0.00     0.407 C 
ATOM     56  H   UNL     1      26.543  30.180  20.781  1.00  0.00     0.167 HD
ATOM     57  O   UNL     1      27.812  32.815  22.182  1.00  0.00    -0.225 OA
BRANCH  55  58
ATOM     58  O   UNL     1      28.596  30.731  22.365  1.00  0.00    -0.443 OA
BRANCH  58  59
ATOM     59  C   UNL     1      28.608  29.398  21.954  1.00  0.00     0.294 C 
BRANCH  59  60
ATOM     60  C   UNL     1      30.025  28.950  21.842  1.00  0.00     0.121 A 
ATOM     61  C   UNL     1      31.039  28.947  22.773  1.00  0.00     0.144 A 
ATOM     62  N   UNL     1      30.608  28.423  20.718  1.00  0.00    -0.131 NA
ATOM     63  N   UNL     1      32.173  28.450  22.252  1.00  0.00    -0.220 N 
ATOM     64  N   UNL     1      31.866  28.139  20.985  1.00  0.00    -0.062 NA
BRANCH  63  65
ATOM     65  C   UNL     1      33.446  28.261  22.861  1.00  0.00     0.070 A 
ATOM     66  C   UNL     1      34.323  29.320  22.935  1.00  0.00    -0.020 A 
ATOM     67  C   UNL     1      33.865  27.056  23.381  1.00  0.00     0.029 A 
ATOM     68  C   UNL     1      35.572  29.174  23.506  1.00  0.00     0.006 A 
ATOM     69  C   UNL     1      35.111  26.893  23.957  1.00  0.00     0.002 A 
ATOM     70  C   UNL     1      35.978  27.966  24.021  1.00  0.00     0.000 A 
BRANCH  66  71
ATOM     71  C   UNL     1      33.908  30.632  22.399  1.00  0.00     0.015 C 
ATOM     72  C   UNL     1      35.129  31.295  21.778  1.00  0.00     0.012 C 
ATOM     73  C   UNL     1      33.430  31.526  23.555  1.00  0.00     0.012 C 
ENDBRANCH  66  71
ENDBRANCH  63  65
ENDBRANCH  59  60
ENDBRANCH  58  59
ENDBRANCH  55  58
ENDBRANCH  53  54
ENDBRANCH  50  53
ENDBRANCH  47  50
ENDBRANCH   5  47
BRANCH   4  74
ATOM     74  N   UNL     1      28.146  29.220  17.789  1.00  0.00    -0.348 N 
ATOM     75  C   UNL     1      27.190  28.506  18.527  1.00  0.00     0.217 C 
ATOM     76  H   UNL     1      29.135  28.828  17.764  1.00  0.00     0.163 HD
ATOM     77  C   UNL     1      27.611  27.245  19.225  1.00  0.00     0.114 C 
ATOM     78  O   UNL     1      26.019  28.902  18.604  1.00  0.00    -0.275 OA
ENDBRANCH   4  74
TORSDOF 31
BEGIN_RES LYS A 131
REMARK  4 active torsions:
REMARK  status: ('A' for Active; 'I' for Inactive)
REMARK    1  A    between atoms: CA   and  CB  
REMARK    2  A    between atoms: CB   and  CG  
REMARK    3  A    between atoms: CG   and  CD  
REMARK    4  A    between atoms: CD   and  CE  
ROOT
ATOM      1  CA  LYS A 131      29.867  25.555  16.977  1.00 20.52     0.186 C 
ENDROOT
BRANCH   1   2
ATOM      2  CB  LYS A 131      28.345  25.722  17.026  1.00 20.94     0.034 C 
BRANCH   2   3
ATOM      3  CG  LYS A 131      27.599  24.478  16.570  1.00 22.96     0.005 C 
BRANCH   3   4
ATOM      4  CD  LYS A 131      27.014  23.713  17.724  1.00 24.33     0.041 C 
BRANCH   4   5
ATOM      5  CE  LYS A 131      25.491  23.744  17.636  1.00 26.91     0.338 C 
ATOM      6  NZ  LYS A 131      24.939  22.370  17.708  1.00 27.40     0.618 N 
ENDBRANCH   4   5
ENDBRANCH   3   4
ENDBRANCH   2   3
ENDBRANCH   1   2
END_RES LYS A 131
BEGIN_RES LYS A 135
REMARK  4 active torsions:
REMARK  status: ('A' for Active; 'I' for Inactive)
REMARK    5  A    between atoms: CA   and  CB  
REMARK    6  A    between atoms: CB   and  CG  
REMARK    7  A    between atoms: CG   and  CD  
REMARK    8  A    between atoms: CD   and  CE  
ROOT
ATOM      7  CA  LYS A 135      33.193  34.663   9.290  1.00 25.02     0.186 C 
ENDROOT
BRANCH   7   8
ATOM      8  CB  LYS A 135      32.060  35.360  10.034  1.00 26.63     0.034 C 
BRANCH   8   9
ATOM      9  CG  LYS A 135      30.915  35.766   9.143  1.00 29.45     0.005 C 
BRANCH   9  10
ATOM     10  CD  LYS A 135      30.255  34.543   8.526  1.00 32.00     0.041 C 
BRANCH  10  11
ATOM     11  CE  LYS A 135      29.376  34.945   7.357  1.00 34.25     0.338 C 
ATOM     12  NZ  LYS A 135      28.651  36.215   7.642  1.00 35.99     0.618 N 
ENDBRANCH  10  11
ENDBRANCH   9  10
ENDBRANCH   8   9
ENDBRANCH   7   8
END_RES LYS A 135
