REMARK VINA RESULT:    -4.096      2.211      6.360
REMARK INTER + INTRA:         -24.345
REMARK INTER:                  -9.739
REMARK INTRA:                 -14.606
REMARK UNBOUND:               -13.184
REMARK SMILES CC(=O)N[C@@H]1[C@@H](O)C[C@](OC[C@H]2O[C@@H](O[C@H]3[C@H](O)[C@@H](O)[C@H](OCCN=[N+]=[N-])O[C@@H]3CO)[C@H](O)[C@@H](O)[C@H]2O)(C(=O)O)O[C@H]1C(O)[C@H](O)CNC(=O)OCc1cn(CC(O)Cn2ccnc2[N+](=O)[O-])nn1
REMARK SMILES IDX 43 1 42 2 9 3 8 4 41 5 6 6 5 7 10 8 11 9 12 10 14 11 13 12
REMARK SMILES IDX 32 13 34 14 36 15 15 16 16 17 29 18 28 19 21 20 17 21 19 22
REMARK SMILES IDX 30 23 31 24 22 26 23 27 24 28 25 29 26 30 27 31 18 32 20 34
REMARK SMILES IDX 33 36 35 38 37 40 38 42 39 43 40 44 7 46 4 48 2 49 1 51 3 52
REMARK SMILES IDX 44 53 45 55 46 56 47 58 48 59 49 60 50 62 51 63 52 64 53 65
REMARK SMILES IDX 54 66 69 67 55 68 68 69 56 70 57 71 58 72 59 74 60 75 61 76
REMARK SMILES IDX 64 77 62 78 63 79 65 80 66 81 67 82
REMARK H PARENT 31 25 18 33 20 35 33 37 35 39 37 41 40 45 7 47 4 50 44 54
REMARK H PARENT 46 57 48 61 58 73
REMARK Flexibility Score: inf
ROOT
ATOM      1  C   UNL     1      28.557  28.794  22.438  1.00  0.00     0.176 C 
ENDROOT
BRANCH   1   2
ATOM      2  C   UNL     1      29.652  29.894  22.288  1.00  0.00     0.178 C 
ATOM      3  C   UNL     1      29.923  31.747  20.931  1.00  0.00     0.272 C 
ATOM      4  C   UNL     1      31.374  31.414  20.747  1.00  0.00     0.113 C 
ATOM      5  O   UNL     1      29.186  30.592  21.171  1.00  0.00    -0.332 OA
ATOM      6  C   UNL     1      31.602  29.908  20.737  1.00  0.00     0.145 C 
ATOM      7  C   UNL     1      30.939  29.266  21.948  1.00  0.00     0.142 C 
BRANCH   3   8
ATOM      8  O   UNL     1      29.334  32.275  19.788  1.00  0.00    -0.338 OA
BRANCH   8   9
ATOM      9  C   UNL     1      28.018  32.098  19.583  1.00  0.00     0.199 C 
BRANCH   9  10
ATOM     10  C   UNL     1      27.669  31.737  18.152  1.00  0.00     0.179 C 
ATOM     11  C   UNL     1      27.891  32.386  16.027  1.00  0.00     0.282 C 
ATOM     12  O   UNL     1      28.617  32.271  17.238  1.00  0.00    -0.341 OA
ATOM     13  C   UNL     1      27.393  31.035  15.577  1.00  0.00     0.202 C 
ATOM     14  C   UNL     1      28.118  29.990  16.423  1.00  0.00     0.179 C 
ATOM     15  C   UNL     1      27.709  30.251  17.876  1.00  0.00     0.177 C 
BRANCH  11  16
ATOM     16  O   UNL     1      28.646  32.962  15.027  1.00  0.00    -0.341 OA
BRANCH  16  17
ATOM     17  C   UNL     1      29.727  33.572  15.622  1.00  0.00     0.184 C 
ATOM     18  C   UNL     1      29.672  35.091  15.589  1.00  0.00     0.178 C 
ATOM     19  O   UNL     1      30.598  35.494  16.557  1.00  0.00    -0.341 OA
ATOM     20  C   UNL     1      31.900  35.218  16.242  1.00  0.00     0.281 C 
ATOM     21  C   UNL     1      31.037  33.220  14.932  1.00  0.00     0.180 C 
ATOM     22  C   UNL     1      32.181  33.941  15.539  1.00  0.00     0.202 C 
BRANCH  18  23
ATOM     23  C   UNL     1      28.326  35.658  15.862  1.00  0.00     0.191 C 
BRANCH  23  24
ATOM     24  O   UNL     1      27.614  35.690  14.669  1.00  0.00    -0.394 OA
ATOM     25  H   UNL     1      26.762  35.187  14.713  1.00  0.00     0.210 HD
ENDBRANCH  23  24
ENDBRANCH  18  23
BRANCH  20  26
ATOM     26  O   UNL     1      32.597  35.165  17.479  1.00  0.00    -0.350 OA
BRANCH  26  27
ATOM     27  C   UNL     1      31.955  34.397  18.417  1.00  0.00     0.169 C 
BRANCH  27  28
ATOM     28  C   UNL     1      32.550  34.798  19.773  1.00  0.00     0.119 C 
BRANCH  28  29
ATOM     29  N   UNL     1      31.703  35.700  20.491  1.00  0.00    -0.092 NA
ATOM     30  N   UNL     1      30.485  35.810  20.222  1.00  0.00     0.001 N 
ATOM     31  N   UNL     1      29.277  35.778  20.391  1.00  0.00    -0.003 NA
ENDBRANCH  28  29
ENDBRANCH  27  28
ENDBRANCH  26  27
ENDBRANCH  20  26
BRANCH  21  32
ATOM     32  O   UNL     1      31.259  31.832  15.051  1.00  0.00    -0.387 OA
ATOM     33  H   UNL     1      31.295  31.485  14.142  1.00  0.00     0.211 HD
ENDBRANCH  21  32
BRANCH  22  34
ATOM     34  O   UNL     1      33.060  34.253  14.470  1.00  0.00    -0.385 OA
ATOM     35  H   UNL     1      33.134  35.235  14.350  1.00  0.00     0.211 HD
ENDBRANCH  22  34
ENDBRANCH  16  17
ENDBRANCH  11  16
BRANCH  13  36
ATOM     36  O   UNL     1      26.016  30.975  15.790  1.00  0.00    -0.385 OA
ATOM     37  H   UNL     1      25.741  30.087  16.153  1.00  0.00     0.211 HD
ENDBRANCH  13  36
BRANCH  14  38
ATOM     38  O   UNL     1      29.471  30.270  16.351  1.00  0.00    -0.387 OA
ATOM     39  H   UNL     1      29.613  31.229  16.273  1.00  0.00     0.211 HD
ENDBRANCH  14  38
BRANCH  15  40
ATOM     40  O   UNL     1      28.637  29.588  18.647  1.00  0.00    -0.387 OA
ATOM     41  H   UNL     1      28.887  28.709  18.266  1.00  0.00     0.211 HD
ENDBRANCH  15  40
ENDBRANCH   9  10
ENDBRANCH   8   9
ENDBRANCH   3   8
BRANCH   3  42
ATOM     42  C   UNL     1      29.730  32.677  22.051  1.00  0.00     0.364 C 
ATOM     43  O   UNL     1      28.632  32.729  22.709  1.00  0.00    -0.246 OA
BRANCH  42  44
ATOM     44  O   UNL     1      30.692  33.566  22.489  1.00  0.00    -0.477 OA
ATOM     45  H   UNL     1      31.501  33.289  23.053  1.00  0.00     0.296 HD
ENDBRANCH  42  44
ENDBRANCH   3  42
BRANCH   6  46
ATOM     46  O   UNL     1      31.185  29.330  19.554  1.00  0.00    -0.391 OA
ATOM     47  H   UNL     1      31.326  29.932  18.781  1.00  0.00     0.211 HD
ENDBRANCH   6  46
BRANCH   7  48
ATOM     48  N   UNL     1      31.890  29.059  22.994  1.00  0.00    -0.348 N 
ATOM     49  C   UNL     1      32.026  27.965  23.840  1.00  0.00     0.217 C 
ATOM     50  H   UNL     1      32.637  29.858  23.165  1.00  0.00     0.163 HD
ATOM     51  C   UNL     1      33.133  27.908  24.881  1.00  0.00     0.114 C 
ATOM     52  O   UNL     1      31.287  26.979  23.818  1.00  0.00    -0.275 OA
ENDBRANCH   7  48
ENDBRANCH   1   2
BRANCH   1  53
ATOM     53  O   UNL     1      29.106  27.603  21.901  1.00  0.00    -0.388 OA
ATOM     54  H   UNL     1      30.074  27.585  21.951  1.00  0.00     0.211 HD
ENDBRANCH   1  53
BRANCH   1  55
ATOM     55  C   UNL     1      27.277  29.096  21.813  1.00  0.00     0.165 C 
BRANCH  55  56
ATOM     56  O   UNL     1      26.600  30.207  22.247  1.00  0.00    -0.388 OA
ATOM     57  H   UNL     1      26.938  30.581  23.092  1.00  0.00     0.211 HD
ENDBRANCH  55  56
BRANCH  55  58
ATOM     58  C   UNL     1      26.305  27.891  21.814  1.00  0.00     0.154 C 
BRANCH  58  59
ATOM     59  N   UNL     1      25.734  27.846  20.473  1.00  0.00    -0.319 N 
ATOM     60  C   UNL     1      26.451  27.279  19.369  1.00  0.00     0.407 C 
ATOM     61  H   UNL     1      24.780  28.231  20.292  1.00  0.00     0.167 HD
ATOM     62  O   UNL     1      27.593  26.806  19.552  1.00  0.00    -0.225 OA
BRANCH  60  63
ATOM     63  O   UNL     1      25.907  27.245  18.102  1.00  0.00    -0.443 OA
BRANCH  63  64
ATOM     64  C   UNL     1      24.563  27.083  17.765  1.00  0.00     0.294 C 
BRANCH  64  65
ATOM     65  C   UNL     1      23.996  28.374  17.304  1.00  0.00     0.120 A 
ATOM     66  C   UNL     1      23.495  29.388  18.100  1.00  0.00     0.138 A 
ATOM     67  N   UNL     1      23.856  28.828  16.050  1.00  0.00    -0.132 NA
ATOM     68  N   UNL     1      23.078  30.403  17.301  1.00  0.00    -0.249 N 
ATOM     69  N   UNL     1      23.308  30.035  16.067  1.00  0.00    -0.067 NA
BRANCH  68  70
ATOM     70  C   UNL     1      22.530  31.652  17.821  1.00  0.00     0.181 C 
BRANCH  70  71
ATOM     71  C   UNL     1      23.743  32.473  18.250  1.00  0.00     0.170 C 
BRANCH  71  72
ATOM     72  O   UNL     1      24.421  32.874  17.123  1.00  0.00    -0.388 OA
ATOM     73  H   UNL     1      23.840  32.797  16.329  1.00  0.00     0.211 HD
ENDBRANCH  71  72
BRANCH  71  74
ATOM     74  C   UNL     1      23.320  33.611  19.127  1.00  0.00     0.239 C 
BRANCH  74  75
ATOM     75  N   UNL     1      24.293  33.797  20.191  1.00  0.00    -0.227 N 
ATOM     76  C   UNL     1      25.250  34.780  20.135  1.00  0.00     0.204 A 
ATOM     77  C   UNL     1      24.418  33.123  21.334  1.00  0.00     0.434 A 
ATOM     78  C   UNL     1      25.984  34.694  21.297  1.00  0.00     0.245 A 
ATOM     79  N   UNL     1      25.460  33.680  22.013  1.00  0.00    -0.074 NA
BRANCH  77  80
ATOM     80  N   UNL     1      23.632  32.026  21.765  1.00  0.00    -0.047 N 
ATOM     81  O   UNL     1      22.667  32.194  22.575  1.00  0.00    -0.390 OA
ATOM     82  O   UNL     1      23.846  30.736  21.362  1.00  0.00    -0.390 OA
ENDBRANCH  77  80
ENDBRANCH  74  75
ENDBRANCH  71  74
ENDBRANCH  70  71
ENDBRANCH  68  70
ENDBRANCH  64  65
ENDBRANCH  63  64
ENDBRANCH  60  63
ENDBRANCH  58  59
ENDBRANCH  55  58
ENDBRANCH   1  55
TORSDOF 35
BEGIN_RES LYS A 131
REMARK  4 active torsions:
REMARK  status: ('A' for Active; 'I' for Inactive)
REMARK    1  A    between atoms: CA   and  CB  
REMARK    2  A    between atoms: CB   and  CG  
REMARK    3  A    between atoms: CG   and  CD  
REMARK    4  A    between atoms: CD   and  CE  
ROOT
ATOM      1  CA  LYS A 131      29.867  25.555  16.977  1.00 20.52     0.186 C 
ENDROOT
BRANCH   1   2
ATOM      2  CB  LYS A 131      28.345  25.722  17.026  1.00 20.94     0.034 C 
BRANCH   2   3
ATOM      3  CG  LYS A 131      27.599  24.432  16.723  1.00 22.96     0.005 C 
BRANCH   3   4
ATOM      4  CD  LYS A 131      26.974  23.836  17.954  1.00 24.33     0.041 C 
BRANCH   4   5
ATOM      5  CE  LYS A 131      25.854  22.885  17.547  1.00 26.91     0.338 C 
ATOM      6  NZ  LYS A 131      24.665  23.646  17.095  1.00 27.40     0.618 N 
ENDBRANCH   4   5
ENDBRANCH   3   4
ENDBRANCH   2   3
ENDBRANCH   1   2
END_RES LYS A 131
BEGIN_RES LYS A 135
REMARK  4 active torsions:
REMARK  status: ('A' for Active; 'I' for Inactive)
REMARK    5  A    between atoms: CA   and  CB  
REMARK    6  A    between atoms: CB   and  CG  
REMARK    7  A    between atoms: CG   and  CD  
REMARK    8  A    between atoms: CD   and  CE  
ROOT
ATOM      7  CA  LYS A 135      33.193  34.663   9.290  1.00 25.02     0.186 C 
ENDROOT
BRANCH   7   8
ATOM      8  CB  LYS A 135      32.060  35.360  10.034  1.00 26.63     0.034 C 
BRANCH   8   9
ATOM      9  CG  LYS A 135      30.844  35.613   9.180  1.00 29.45     0.005 C 
BRANCH   9  10
ATOM     10  CD  LYS A 135      30.220  34.300   8.733  1.00 32.00     0.041 C 
BRANCH  10  11
ATOM     11  CE  LYS A 135      28.722  34.456   8.554  1.00 34.25     0.338 C 
ATOM     12  NZ  LYS A 135      27.976  33.673   9.578  1.00 35.99     0.618 N 
ENDBRANCH  10  11
ENDBRANCH   9  10
ENDBRANCH   8   9
ENDBRANCH   7   8
END_RES LYS A 135
