REMARK VINA RESULT:    -4.161      4.797      9.503
REMARK INTER + INTRA:         -23.959
REMARK INTER:                 -13.549
REMARK INTRA:                 -10.410
REMARK UNBOUND:               -13.108
REMARK SMILES CC(=O)N[C@@H]1[C@@H](O)C[C@](OC[C@H]2O[C@@H](O[C@H]3[C@H](O)[C@@H](O)[C@H](OCCN=[N+]=[N-])O[C@@H]3CO)[C@H](O)[C@@H](O)[C@H]2O)(C(=O)O)O[C@H]1C(O)[C@H](O)CNC(=O)OCc1cn(-c2cccc(C=CC(=O)O)c2)nn1
REMARK SMILES IDX 43 1 42 2 9 3 8 4 41 5 6 6 5 7 10 8 11 9 12 10 14 11 13 12
REMARK SMILES IDX 32 13 34 14 36 15 15 16 16 17 29 18 28 19 21 20 17 21 19 22
REMARK SMILES IDX 30 23 31 24 22 26 23 27 24 28 25 29 26 30 27 31 18 32 20 34
REMARK SMILES IDX 33 36 35 38 37 40 38 42 39 43 40 44 7 46 4 48 2 49 1 51 3 52
REMARK SMILES IDX 44 53 45 55 46 56 47 58 48 59 49 60 50 62 51 63 52 64 53 65
REMARK SMILES IDX 54 66 68 67 55 68 67 69 56 70 66 71 57 72 60 73 58 74 59 75
REMARK SMILES IDX 61 76 62 77 63 78 64 79 65 80
REMARK H PARENT 31 25 18 33 20 35 33 37 35 39 37 41 40 45 7 47 4 50 44 54
REMARK H PARENT 46 57 48 61 65 81
REMARK Flexibility Score: inf
ROOT
ATOM      1  C   UNL     1      28.558  35.137  12.734  1.00  0.00     0.176 C 
ENDROOT
BRANCH   1   2
ATOM      2  C   UNL     1      29.722  35.994  13.192  1.00  0.00     0.178 C 
ATOM      3  C   UNL     1      30.558  38.159  12.778  1.00  0.00     0.272 C 
ATOM      4  C   UNL     1      31.599  37.511  13.812  1.00  0.00     0.113 C 
ATOM      5  O   UNL     1      29.664  37.154  12.472  1.00  0.00    -0.332 OA
ATOM      6  C   UNL     1      32.136  36.309  13.122  1.00  0.00     0.145 C 
ATOM      7  C   UNL     1      31.027  35.293  12.936  1.00  0.00     0.142 C 
BRANCH   3   8
ATOM      8  O   UNL     1      31.333  38.407  11.716  1.00  0.00    -0.338 OA
BRANCH   8   9
ATOM      9  C   UNL     1      31.408  39.539  11.039  1.00  0.00     0.199 C 
BRANCH   9  10
ATOM     10  C   UNL     1      31.896  39.518   9.606  1.00  0.00     0.179 C 
ATOM     11  C   UNL     1      30.696  39.010   7.632  1.00  0.00     0.282 C 
ATOM     12  O   UNL     1      31.105  38.683   8.909  1.00  0.00    -0.341 OA
ATOM     13  C   UNL     1      31.739  39.812   6.959  1.00  0.00     0.202 C 
ATOM     14  C   UNL     1      32.158  41.059   7.676  1.00  0.00     0.179 C 
ATOM     15  C   UNL     1      31.741  40.952   9.119  1.00  0.00     0.177 C 
BRANCH  11  16
ATOM     16  O   UNL     1      29.438  39.556   7.756  1.00  0.00    -0.341 OA
BRANCH  16  17
ATOM     17  C   UNL     1      28.436  38.692   8.038  1.00  0.00     0.184 C 
ATOM     18  C   UNL     1      27.417  38.656   6.941  1.00  0.00     0.178 C 
ATOM     19  O   UNL     1      26.671  37.475   7.175  1.00  0.00    -0.341 OA
ATOM     20  C   UNL     1      25.841  37.658   8.284  1.00  0.00     0.281 C 
ATOM     21  C   UNL     1      27.650  39.086   9.292  1.00  0.00     0.180 C 
ATOM     22  C   UNL     1      26.589  38.031   9.522  1.00  0.00     0.202 C 
BRANCH  18  23
ATOM     23  C   UNL     1      27.970  38.619   5.562  1.00  0.00     0.191 C 
BRANCH  23  24
ATOM     24  O   UNL     1      27.427  37.532   4.880  1.00  0.00    -0.394 OA
ATOM     25  H   UNL     1      26.512  37.318   5.243  1.00  0.00     0.210 HD
ENDBRANCH  23  24
ENDBRANCH  18  23
BRANCH  20  26
ATOM     26  O   UNL     1      25.176  36.456   8.507  1.00  0.00    -0.350 OA
BRANCH  26  27
ATOM     27  C   UNL     1      23.799  36.586   8.345  1.00  0.00     0.169 C 
BRANCH  27  28
ATOM     28  C   UNL     1      23.134  36.128   9.624  1.00  0.00     0.119 C 
BRANCH  28  29
ATOM     29  N   UNL     1      22.773  37.281  10.415  1.00  0.00    -0.092 NA
ATOM     30  N   UNL     1      22.565  38.379   9.869  1.00  0.00     0.001 N 
ATOM     31  N   UNL     1      22.751  39.522   9.422  1.00  0.00    -0.003 NA
ENDBRANCH  28  29
ENDBRANCH  27  28
ENDBRANCH  26  27
ENDBRANCH  20  26
BRANCH  21  32
ATOM     32  O   UNL     1      28.449  39.111  10.429  1.00  0.00    -0.387 OA
ATOM     33  H   UNL     1      28.721  38.172  10.580  1.00  0.00     0.211 HD
ENDBRANCH  21  32
BRANCH  22  34
ATOM     34  O   UNL     1      25.655  38.615  10.408  1.00  0.00    -0.385 OA
ATOM     35  H   UNL     1      26.042  38.779  11.297  1.00  0.00     0.211 HD
ENDBRANCH  22  34
ENDBRANCH  16  17
ENDBRANCH  11  16
BRANCH  13  36
ATOM     36  O   UNL     1      32.910  39.015   6.803  1.00  0.00    -0.385 OA
ATOM     37  H   UNL     1      33.585  39.289   7.486  1.00  0.00     0.211 HD
ENDBRANCH  13  36
BRANCH  14  38
ATOM     38  O   UNL     1      31.685  42.235   7.088  1.00  0.00    -0.387 OA
ATOM     39  H   UNL     1      30.903  42.601   7.573  1.00  0.00     0.211 HD
ENDBRANCH  14  38
BRANCH  15  40
ATOM     40  O   UNL     1      30.433  41.377   9.247  1.00  0.00    -0.387 OA
ATOM     41  H   UNL     1      30.354  42.188   9.838  1.00  0.00     0.211 HD
ENDBRANCH  15  40
ENDBRANCH   9  10
ENDBRANCH   8   9
ENDBRANCH   3   8
BRANCH   3  42
ATOM     42  C   UNL     1      29.911  39.230  13.517  1.00  0.00     0.364 C 
ATOM     43  O   UNL     1      30.409  40.033  14.326  1.00  0.00    -0.246 OA
BRANCH  42  44
ATOM     44  O   UNL     1      28.522  39.413  13.309  1.00  0.00    -0.477 OA
ATOM     45  H   UNL     1      27.961  39.734  14.113  1.00  0.00     0.296 HD
ENDBRANCH  42  44
ENDBRANCH   3  42
BRANCH   6  46
ATOM     46  O   UNL     1      32.556  36.756  11.825  1.00  0.00    -0.391 OA
ATOM     47  H   UNL     1      33.409  37.265  11.913  1.00  0.00     0.211 HD
ENDBRANCH   6  46
BRANCH   7  48
ATOM     48  N   UNL     1      31.213  34.057  13.606  1.00  0.00    -0.348 N 
ATOM     49  C   UNL     1      31.278  33.815  14.981  1.00  0.00     0.217 C 
ATOM     50  H   UNL     1      31.352  33.170  12.997  1.00  0.00     0.163 HD
ATOM     51  C   UNL     1      31.505  32.396  15.467  1.00  0.00     0.114 C 
ATOM     52  O   UNL     1      31.159  34.704  15.866  1.00  0.00    -0.275 OA
ENDBRANCH   7  48
ENDBRANCH   1   2
BRANCH   1  53
ATOM     53  O   UNL     1      28.101  34.377  13.795  1.00  0.00    -0.388 OA
ATOM     54  H   UNL     1      28.033  34.850  14.643  1.00  0.00     0.211 HD
ENDBRANCH   1  53
BRANCH   1  55
ATOM     55  C   UNL     1      27.372  35.987  12.279  1.00  0.00     0.165 C 
BRANCH  55  56
ATOM     56  O   UNL     1      26.894  36.830  13.244  1.00  0.00    -0.388 OA
ATOM     57  H   UNL     1      27.466  36.911  14.042  1.00  0.00     0.211 HD
ENDBRANCH  55  56
BRANCH  55  58
ATOM     58  C   UNL     1      26.290  35.137  11.693  1.00  0.00     0.154 C 
BRANCH  58  59
ATOM     59  N   UNL     1      25.727  34.253  12.649  1.00  0.00    -0.319 N 
ATOM     60  C   UNL     1      24.610  34.597  13.446  1.00  0.00     0.407 C 
ATOM     61  H   UNL     1      26.132  33.290  12.801  1.00  0.00     0.167 HD
ATOM     62  O   UNL     1      24.059  35.727  13.339  1.00  0.00    -0.225 OA
BRANCH  60  63
ATOM     63  O   UNL     1      24.060  33.722  14.379  1.00  0.00    -0.443 OA
BRANCH  63  64
ATOM     64  C   UNL     1      24.384  33.966  15.752  1.00  0.00     0.294 C 
BRANCH  64  65
ATOM     65  C   UNL     1      25.680  33.313  16.013  1.00  0.00     0.121 A 
ATOM     66  C   UNL     1      26.528  33.502  17.101  1.00  0.00     0.144 A 
ATOM     67  N   UNL     1      26.276  32.396  15.233  1.00  0.00    -0.131 NA
ATOM     68  N   UNL     1      27.599  32.692  16.939  1.00  0.00    -0.220 N 
ATOM     69  N   UNL     1      27.418  32.042  15.807  1.00  0.00    -0.062 NA
BRANCH  68  70
ATOM     70  C   UNL     1      28.669  32.610  17.865  1.00  0.00     0.067 A 
ATOM     71  C   UNL     1      29.186  31.362  18.216  1.00  0.00     0.036 A 
ATOM     72  C   UNL     1      29.210  33.719  18.422  1.00  0.00     0.028 A 
ATOM     73  C   UNL     1      30.212  31.231  19.099  1.00  0.00    -0.023 A 
ATOM     74  C   UNL     1      30.262  33.635  19.330  1.00  0.00     0.003 A 
ATOM     75  C   UNL     1      30.740  32.384  19.648  1.00  0.00     0.008 A 
BRANCH  73  76
ATOM     76  C   UNL     1      30.747  29.938  19.468  1.00  0.00     0.015 C 
ATOM     77  C   UNL     1      31.389  29.766  20.596  1.00  0.00     0.094 C 
BRANCH  77  78
ATOM     78  C   UNL     1      31.913  28.439  20.929  1.00  0.00     0.328 C 
ATOM     79  O   UNL     1      32.333  28.177  22.061  1.00  0.00    -0.247 OA
BRANCH  78  80
ATOM     80  O   UNL     1      31.949  27.436  19.963  1.00  0.00    -0.478 OA
ATOM     81  H   UNL     1      31.257  26.688  20.040  1.00  0.00     0.297 HD
ENDBRANCH  78  80
ENDBRANCH  77  78
ENDBRANCH  73  76
ENDBRANCH  68  70
ENDBRANCH  64  65
ENDBRANCH  63  64
ENDBRANCH  60  63
ENDBRANCH  58  59
ENDBRANCH  55  58
ENDBRANCH   1  55
TORSDOF 33
BEGIN_RES LYS A 131
REMARK  4 active torsions:
REMARK  status: ('A' for Active; 'I' for Inactive)
REMARK    1  A    between atoms: CA   and  CB  
REMARK    2  A    between atoms: CB   and  CG  
REMARK    3  A    between atoms: CG   and  CD  
REMARK    4  A    between atoms: CD   and  CE  
ROOT
ATOM      1  CA  LYS A 131      29.867  25.555  16.977  1.00 20.52     0.186 C 
ENDROOT
BRANCH   1   2
ATOM      2  CB  LYS A 131      28.345  25.722  17.026  1.00 20.94     0.034 C 
BRANCH   2   3
ATOM      3  CG  LYS A 131      27.602  24.399  16.927  1.00 22.96     0.005 C 
BRANCH   3   4
ATOM      4  CD  LYS A 131      26.154  24.532  17.310  1.00 24.33     0.041 C 
BRANCH   4   5
ATOM      5  CE  LYS A 131      25.763  23.381  18.232  1.00 26.91     0.338 C 
ATOM      6  NZ  LYS A 131      24.394  23.583  18.762  1.00 27.40     0.618 N 
ENDBRANCH   4   5
ENDBRANCH   3   4
ENDBRANCH   2   3
ENDBRANCH   1   2
END_RES LYS A 131
BEGIN_RES LYS A 135
REMARK  4 active torsions:
REMARK  status: ('A' for Active; 'I' for Inactive)
REMARK    5  A    between atoms: CA   and  CB  
REMARK    6  A    between atoms: CB   and  CG  
REMARK    7  A    between atoms: CG   and  CD  
REMARK    8  A    between atoms: CD   and  CE  
ROOT
ATOM      7  CA  LYS A 135      33.193  34.663   9.290  1.00 25.02     0.186 C 
ENDROOT
BRANCH   7   8
ATOM      8  CB  LYS A 135      32.060  35.360  10.034  1.00 26.63     0.034 C 
BRANCH   8   9
ATOM      9  CG  LYS A 135      30.811  35.530   9.208  1.00 29.45     0.005 C 
BRANCH   9  10
ATOM     10  CD  LYS A 135      29.870  34.352   9.410  1.00 32.00     0.041 C 
BRANCH  10  11
ATOM     11  CE  LYS A 135      28.688  34.447   8.464  1.00 34.25     0.338 C 
ATOM     12  NZ  LYS A 135      29.052  35.182   7.222  1.00 35.99     0.618 N 
ENDBRANCH  10  11
ENDBRANCH   9  10
ENDBRANCH   8   9
ENDBRANCH   7   8
END_RES LYS A 135
