REMARK VINA RESULT:    -4.940      3.424      7.676
REMARK INTER + INTRA:         -24.213
REMARK INTER:                  -9.169
REMARK INTRA:                 -15.044
REMARK UNBOUND:               -11.187
REMARK SMILES CC(=O)N[C@@H]1[C@@H](O)C[C@](OC[C@H]2O[C@@H](O[C@H]3[C@H](O)[C@@H](O)[C@H](OCCN=[N+]=[N-])O[C@@H]3CO)[C@H](O)[C@@H](O)[C@H]2O)(C(=O)O)O[C@H]1C(O)[C@H](O)CNC(=O)OCc1cn(-c2ccc(S(=O)(=O)Nc3nccs3)cc2)nn1
REMARK SMILES IDX 43 1 42 2 9 3 8 4 41 5 6 6 5 7 10 8 11 9 12 10 14 11 13 12
REMARK SMILES IDX 32 13 34 14 36 15 15 16 16 17 29 18 28 19 21 20 17 21 19 22
REMARK SMILES IDX 30 23 31 24 22 26 23 27 24 28 25 29 26 30 27 31 18 32 20 34
REMARK SMILES IDX 33 36 35 38 37 40 38 42 39 43 40 44 7 46 4 48 2 49 1 51 3 52
REMARK SMILES IDX 44 53 45 55 46 56 47 58 48 59 49 60 50 62 51 63 52 64 53 65
REMARK SMILES IDX 54 66 72 67 55 68 71 69 56 70 57 71 70 72 58 73 69 74 59 75
REMARK SMILES IDX 60 76 61 77 62 78 63 79 64 81 65 82 68 83 66 84 67 85
REMARK H PARENT 31 25 18 33 20 35 33 37 35 39 37 41 40 45 7 47 4 50 44 54
REMARK H PARENT 46 57 48 61 63 80
REMARK Flexibility Score: inf
ROOT
ATOM      1  C   UNL     1      31.057  31.054  20.335  1.00  0.00     0.176 C 
ENDROOT
BRANCH   1   2
ATOM      2  C   UNL     1      30.008  32.100  20.164  1.00  0.00     0.178 C 
ATOM      3  C   UNL     1      27.873  32.450  21.051  1.00  0.00     0.272 C 
ATOM      4  C   UNL     1      28.081  33.701  20.170  1.00  0.00     0.113 C 
ATOM      5  O   UNL     1      28.865  31.539  20.816  1.00  0.00    -0.332 OA
ATOM      6  C   UNL     1      28.457  33.378  18.774  1.00  0.00     0.145 C 
ATOM      7  C   UNL     1      29.540  32.298  18.743  1.00  0.00     0.142 C 
BRANCH   3   8
ATOM      8  O   UNL     1      26.667  31.865  20.756  1.00  0.00    -0.338 OA
BRANCH   8   9
ATOM      9  C   UNL     1      26.545  30.555  21.145  1.00  0.00     0.199 C 
BRANCH   9  10
ATOM     10  C   UNL     1      26.064  29.644  20.039  1.00  0.00     0.179 C 
ATOM     11  C   UNL     1      25.091  29.434  18.041  1.00  0.00     0.282 C 
ATOM     12  O   UNL     1      25.857  30.316  18.839  1.00  0.00    -0.341 OA
ATOM     13  C   UNL     1      26.061  28.426  17.476  1.00  0.00     0.202 C 
ATOM     14  C   UNL     1      27.378  28.476  18.257  1.00  0.00     0.179 C 
ATOM     15  C   UNL     1      27.087  28.558  19.744  1.00  0.00     0.177 C 
BRANCH  11  16
ATOM     16  O   UNL     1      24.420  30.067  17.050  1.00  0.00    -0.341 OA
BRANCH  16  17
ATOM     17  C   UNL     1      24.904  31.313  16.693  1.00  0.00     0.184 C 
ATOM     18  C   UNL     1      23.940  32.427  16.629  1.00  0.00     0.178 C 
ATOM     19  O   UNL     1      24.419  33.361  15.668  1.00  0.00    -0.341 OA
ATOM     20  C   UNL     1      24.187  32.894  14.367  1.00  0.00     0.281 C 
ATOM     21  C   UNL     1      25.720  31.234  15.410  1.00  0.00     0.180 C 
ATOM     22  C   UNL     1      24.873  31.554  14.177  1.00  0.00     0.202 C 
BRANCH  18  23
ATOM     23  C   UNL     1      23.844  33.268  17.902  1.00  0.00     0.191 C 
BRANCH  23  24
ATOM     24  O   UNL     1      24.618  32.826  18.931  1.00  0.00    -0.394 OA
ATOM     25  H   UNL     1      25.190  32.083  18.632  1.00  0.00     0.210 HD
ENDBRANCH  23  24
ENDBRANCH  18  23
BRANCH  20  26
ATOM     26  O   UNL     1      24.687  33.827  13.486  1.00  0.00    -0.350 OA
BRANCH  26  27
ATOM     27  C   UNL     1      24.870  35.086  13.997  1.00  0.00     0.169 C 
BRANCH  27  28
ATOM     28  C   UNL     1      26.299  35.570  13.924  1.00  0.00     0.119 C 
BRANCH  28  29
ATOM     29  N   UNL     1      27.092  34.484  13.409  1.00  0.00    -0.092 NA
ATOM     30  N   UNL     1      28.309  34.492  13.577  1.00  0.00     0.001 N 
ATOM     31  N   UNL     1      29.513  34.601  13.332  1.00  0.00    -0.003 NA
ENDBRANCH  28  29
ENDBRANCH  27  28
ENDBRANCH  26  27
ENDBRANCH  20  26
BRANCH  21  32
ATOM     32  O   UNL     1      26.763  32.158  15.426  1.00  0.00    -0.387 OA
ATOM     33  H   UNL     1      26.608  32.864  16.095  1.00  0.00     0.211 HD
ENDBRANCH  21  32
BRANCH  22  34
ATOM     34  O   UNL     1      23.989  30.525  13.887  1.00  0.00    -0.385 OA
ATOM     35  H   UNL     1      23.770  30.085  14.739  1.00  0.00     0.211 HD
ENDBRANCH  22  34
ENDBRANCH  16  17
ENDBRANCH  11  16
BRANCH  13  36
ATOM     36  O   UNL     1      25.616  27.093  17.669  1.00  0.00    -0.385 OA
ATOM     37  H   UNL     1      25.428  26.651  16.829  1.00  0.00     0.211 HD
ENDBRANCH  13  36
BRANCH  14  38
ATOM     38  O   UNL     1      28.176  29.517  17.805  1.00  0.00    -0.387 OA
ATOM     39  H   UNL     1      27.697  30.103  17.163  1.00  0.00     0.211 HD
ENDBRANCH  14  38
BRANCH  15  40
ATOM     40  O   UNL     1      28.286  28.790  20.399  1.00  0.00    -0.387 OA
ATOM     41  H   UNL     1      28.553  28.092  21.019  1.00  0.00     0.211 HD
ENDBRANCH  15  40
ENDBRANCH   9  10
ENDBRANCH   8   9
ENDBRANCH   3   8
BRANCH   3  42
ATOM     42  C   UNL     1      27.914  32.938  22.431  1.00  0.00     0.364 C 
ATOM     43  O   UNL     1      28.763  32.506  23.276  1.00  0.00    -0.246 OA
BRANCH  42  44
ATOM     44  O   UNL     1      27.042  33.898  22.912  1.00  0.00    -0.477 OA
ATOM     45  H   UNL     1      26.352  34.323  22.279  1.00  0.00     0.296 HD
ENDBRANCH  42  44
ENDBRANCH   3  42
BRANCH   6  46
ATOM     46  O   UNL     1      27.369  33.011  17.982  1.00  0.00    -0.391 OA
ATOM     47  H   UNL     1      27.285  33.640  17.226  1.00  0.00     0.211 HD
ENDBRANCH   6  46
BRANCH   7  48
ATOM     48  N   UNL     1      30.542  32.637  17.797  1.00  0.00    -0.348 N 
ATOM     49  C   UNL     1      30.458  32.153  16.461  1.00  0.00     0.217 C 
ATOM     50  H   UNL     1      31.353  33.237  18.041  1.00  0.00     0.163 HD
ATOM     51  C   UNL     1      31.452  32.458  15.420  1.00  0.00     0.114 C 
ATOM     52  O   UNL     1      29.468  31.412  16.134  1.00  0.00    -0.275 OA
ENDBRANCH   7  48
ENDBRANCH   1   2
BRANCH   1  53
ATOM     53  O   UNL     1      30.791  30.000  19.406  1.00  0.00    -0.388 OA
ATOM     54  H   UNL     1      30.766  29.138  19.859  1.00  0.00     0.211 HD
ENDBRANCH   1  53
BRANCH   1  55
ATOM     55  C   UNL     1      31.202  30.459  21.706  1.00  0.00     0.165 C 
BRANCH  55  56
ATOM     56  O   UNL     1      31.628  31.570  22.512  1.00  0.00    -0.388 OA
ATOM     57  H   UNL     1      32.278  31.242  23.187  1.00  0.00     0.211 HD
ENDBRANCH  55  56
BRANCH  55  58
ATOM     58  C   UNL     1      32.389  29.507  21.785  1.00  0.00     0.154 C 
BRANCH  58  59
ATOM     59  N   UNL     1      31.955  28.359  22.536  1.00  0.00    -0.319 N 
ATOM     60  C   UNL     1      31.167  27.314  21.986  1.00  0.00     0.407 C 
ATOM     61  H   UNL     1      32.222  28.250  23.569  1.00  0.00     0.167 HD
ATOM     62  O   UNL     1      30.825  27.337  20.798  1.00  0.00    -0.225 OA
BRANCH  60  63
ATOM     63  O   UNL     1      30.752  26.237  22.760  1.00  0.00    -0.443 OA
BRANCH  63  64
ATOM     64  C   UNL     1      30.045  26.311  23.967  1.00  0.00     0.294 C 
BRANCH  64  65
ATOM     65  C   UNL     1      28.595  26.078  23.858  1.00  0.00     0.121 A 
ATOM     66  C   UNL     1      27.716  26.728  22.986  1.00  0.00     0.144 A 
ATOM     67  N   UNL     1      27.824  25.225  24.532  1.00  0.00    -0.131 NA
ATOM     68  N   UNL     1      26.456  26.251  23.159  1.00  0.00    -0.220 N 
ATOM     69  N   UNL     1      26.555  25.338  24.108  1.00  0.00    -0.062 NA
BRANCH  68  70
ATOM     70  C   UNL     1      25.298  26.688  22.427  1.00  0.00     0.066 A 
ATOM     71  C   UNL     1      24.519  27.731  22.841  1.00  0.00     0.030 A 
ATOM     72  C   UNL     1      24.964  26.010  21.268  1.00  0.00     0.030 A 
ATOM     73  C   UNL     1      23.399  28.106  22.102  1.00  0.00     0.024 A 
ATOM     74  C   UNL     1      23.870  26.343  20.506  1.00  0.00     0.024 A 
ATOM     75  C   UNL     1      23.100  27.407  20.956  1.00  0.00     0.088 A 
BRANCH  75  76
ATOM     76  S   UNL     1      21.699  27.849  20.012  1.00  0.00     0.263 S 
ATOM     77  O   UNL     1      21.923  29.254  19.488  1.00  0.00    -0.201 OA
ATOM     78  O   UNL     1      20.533  27.900  20.959  1.00  0.00    -0.201 OA
BRANCH  76  79
ATOM     79  N   UNL     1      21.460  26.722  18.759  1.00  0.00    -0.255 N 
ATOM     80  H   UNL     1      21.096  25.784  19.004  1.00  0.00     0.182 HD
BRANCH  79  81
ATOM     81  C   UNL     1      21.753  27.071  17.451  1.00  0.00     0.196 A 
ATOM     82  N   UNL     1      22.719  27.020  16.619  1.00  0.00    -0.228 NA
ATOM     83  S   UNL     1      20.480  27.894  16.377  1.00  0.00    -0.105 S 
ATOM     84  C   UNL     1      22.702  27.447  15.411  1.00  0.00     0.125 A 
ATOM     85  C   UNL     1      21.564  28.021  14.913  1.00  0.00     0.089 A 
ENDBRANCH  79  81
ENDBRANCH  76  79
ENDBRANCH  75  76
ENDBRANCH  68  70
ENDBRANCH  64  65
ENDBRANCH  63  64
ENDBRANCH  60  63
ENDBRANCH  58  59
ENDBRANCH  55  58
ENDBRANCH   1  55
TORSDOF 33
BEGIN_RES LYS A 131
REMARK  4 active torsions:
REMARK  status: ('A' for Active; 'I' for Inactive)
REMARK    1  A    between atoms: CA   and  CB  
REMARK    2  A    between atoms: CB   and  CG  
REMARK    3  A    between atoms: CG   and  CD  
REMARK    4  A    between atoms: CD   and  CE  
ROOT
ATOM      1  CA  LYS A 131      29.867  25.555  16.977  1.00 20.52     0.186 C 
ENDROOT
BRANCH   1   2
ATOM      2  CB  LYS A 131      28.345  25.722  17.026  1.00 20.94     0.034 C 
BRANCH   2   3
ATOM      3  CG  LYS A 131      27.599  24.453  16.643  1.00 22.96     0.005 C 
BRANCH   3   4
ATOM      4  CD  LYS A 131      26.958  23.793  17.833  1.00 24.33     0.041 C 
BRANCH   4   5
ATOM      5  CE  LYS A 131      25.458  23.657  17.592  1.00 26.91     0.338 C 
ATOM      6  NZ  LYS A 131      25.049  22.233  17.656  1.00 27.40     0.618 N 
ENDBRANCH   4   5
ENDBRANCH   3   4
ENDBRANCH   2   3
ENDBRANCH   1   2
END_RES LYS A 131
BEGIN_RES LYS A 135
REMARK  4 active torsions:
REMARK  status: ('A' for Active; 'I' for Inactive)
REMARK    5  A    between atoms: CA   and  CB  
REMARK    6  A    between atoms: CB   and  CG  
REMARK    7  A    between atoms: CG   and  CD  
REMARK    8  A    between atoms: CD   and  CE  
ROOT
ATOM      7  CA  LYS A 135      33.193  34.663   9.290  1.00 25.02     0.186 C 
ENDROOT
BRANCH   7   8
ATOM      8  CB  LYS A 135      32.060  35.360  10.034  1.00 26.63     0.034 C 
BRANCH   8   9
ATOM      9  CG  LYS A 135      30.737  34.647   9.921  1.00 29.45     0.005 C 
BRANCH   9  10
ATOM     10  CD  LYS A 135      30.326  34.507   8.464  1.00 32.00     0.041 C 
BRANCH  10  11
ATOM     11  CE  LYS A 135      28.815  34.525   8.332  1.00 34.25     0.338 C 
ATOM     12  NZ  LYS A 135      28.169  33.821   9.474  1.00 35.99     0.618 N 
ENDBRANCH  10  11
ENDBRANCH   9  10
ENDBRANCH   8   9
ENDBRANCH   7   8
END_RES LYS A 135
