REMARK VINA RESULT:    -4.139      4.290      8.386
REMARK INTER + INTRA:         -21.583
REMARK INTER:                 -10.857
REMARK INTRA:                 -10.726
REMARK UNBOUND:               -10.427
REMARK SMILES CCN(CC)CCn1cc(COC(=O)NC[C@@H](O)C(O)[C@@H]2O[C@@](OC[C@H]3O[C@@H](O[C@H]4[C@H](O)[C@@H](O)[C@H](OCCN=[N+]=[N-])O[C@@H]4CO)[C@H](O)[C@@H](O)[C@H]3O)(C(=O)O)C[C@H](O)[C@H]2NC(C)=O)nn1
REMARK SMILES IDX 19 1 21 2 23 3 55 4 22 5 56 6 58 7 24 8 25 9 26 10 28 11
REMARK SMILES IDX 27 12 46 13 48 14 50 15 29 16 30 17 43 18 42 19 35 20 31 21
REMARK SMILES IDX 33 22 44 23 45 24 36 26 37 27 38 28 39 29 40 30 41 31 32 32
REMARK SMILES IDX 34 34 47 36 49 38 51 40 52 42 53 43 54 44 57 46 59 48 60 49
REMARK SMILES IDX 61 51 62 52 20 53 17 55 18 56 16 58 15 59 13 60 14 62 12 63
REMARK SMILES IDX 11 64 10 65 9 66 63 67 8 68 64 69 7 70 6 71 3 72 2 73 1 74
REMARK SMILES IDX 4 75 5 76
REMARK H PARENT 45 25 32 33 34 35 47 37 49 39 51 41 54 45 57 47 59 50 20 54
REMARK H PARENT 18 57 15 61
REMARK Flexibility Score: inf
ROOT
ATOM      1  C   UNL     1      22.349  37.320   7.798  1.00  0.00     0.176 C 
ENDROOT
BRANCH   1   2
ATOM      2  C   UNL     1      23.575  36.809   8.507  1.00  0.00     0.178 C 
ATOM      3  C   UNL     1      24.426  36.230  10.566  1.00  0.00     0.272 C 
ATOM      4  C   UNL     1      25.550  35.769   9.625  1.00  0.00     0.113 C 
ATOM      5  O   UNL     1      23.328  36.650   9.849  1.00  0.00    -0.332 OA
ATOM      6  C   UNL     1      25.984  36.819   8.654  1.00  0.00     0.145 C 
ATOM      7  C   UNL     1      24.773  37.726   8.386  1.00  0.00     0.142 C 
BRANCH   3   8
ATOM      8  O   UNL     1      24.974  37.183  11.391  1.00  0.00    -0.338 OA
BRANCH   8   9
ATOM      9  C   UNL     1      24.091  37.888  12.172  1.00  0.00     0.199 C 
BRANCH   9  10
ATOM     10  C   UNL     1      24.332  37.616  13.667  1.00  0.00     0.179 C 
ATOM     11  C   UNL     1      26.314  37.179  14.855  1.00  0.00     0.282 C 
ATOM     12  O   UNL     1      25.508  36.961  13.748  1.00  0.00    -0.341 OA
ATOM     13  C   UNL     1      25.543  37.591  16.045  1.00  0.00     0.202 C 
ATOM     14  C   UNL     1      24.671  38.795  15.825  1.00  0.00     0.179 C 
ATOM     15  C   UNL     1      24.385  38.951  14.347  1.00  0.00     0.177 C 
BRANCH  11  16
ATOM     16  O   UNL     1      27.317  38.025  14.402  1.00  0.00    -0.341 OA
BRANCH  16  17
ATOM     17  C   UNL     1      28.479  37.412  14.090  1.00  0.00     0.184 C 
ATOM     18  C   UNL     1      28.740  37.364  12.607  1.00  0.00     0.178 C 
ATOM     19  O   UNL     1      30.034  36.801  12.412  1.00  0.00    -0.341 OA
ATOM     20  C   UNL     1      29.922  35.432  12.517  1.00  0.00     0.281 C 
ATOM     21  C   UNL     1      28.561  35.974  14.591  1.00  0.00     0.180 C 
ATOM     22  C   UNL     1      28.947  35.001  13.523  1.00  0.00     0.202 C 
BRANCH  18  23
ATOM     23  C   UNL     1      28.594  38.651  11.879  1.00  0.00     0.191 C 
BRANCH  23  24
ATOM     24  O   UNL     1      27.240  38.861  11.644  1.00  0.00    -0.394 OA
ATOM     25  H   UNL     1      27.050  39.667  11.103  1.00  0.00     0.210 HD
ENDBRANCH  23  24
ENDBRANCH  18  23
BRANCH  20  26
ATOM     26  O   UNL     1      31.166  34.814  12.607  1.00  0.00    -0.350 OA
BRANCH  26  27
ATOM     27  C   UNL     1      32.157  35.591  13.126  1.00  0.00     0.169 C 
BRANCH  27  28
ATOM     28  C   UNL     1      32.964  34.885  14.200  1.00  0.00     0.119 C 
BRANCH  28  29
ATOM     29  N   UNL     1      32.124  34.492  15.314  1.00  0.00    -0.092 NA
ATOM     30  N   UNL     1      31.871  33.310  15.579  1.00  0.00     0.001 N 
ATOM     31  N   UNL     1      31.270  32.235  15.551  1.00  0.00    -0.003 NA
ENDBRANCH  28  29
ENDBRANCH  27  28
ENDBRANCH  26  27
ENDBRANCH  20  26
BRANCH  21  32
ATOM     32  O   UNL     1      29.487  35.922  15.615  1.00  0.00    -0.387 OA
ATOM     33  H   UNL     1      29.519  35.065  16.087  1.00  0.00     0.211 HD
ENDBRANCH  21  32
BRANCH  22  34
ATOM     34  O   UNL     1      27.802  34.475  12.873  1.00  0.00    -0.385 OA
ATOM     35  H   UNL     1      27.028  34.969  13.249  1.00  0.00     0.211 HD
ENDBRANCH  22  34
ENDBRANCH  16  17
ENDBRANCH  11  16
BRANCH  13  36
ATOM     36  O   UNL     1      24.671  36.521  16.401  1.00  0.00    -0.385 OA
ATOM     37  H   UNL     1      23.854  36.545  15.870  1.00  0.00     0.211 HD
ENDBRANCH  13  36
BRANCH  14  38
ATOM     38  O   UNL     1      25.169  39.964  16.379  1.00  0.00    -0.387 OA
ATOM     39  H   UNL     1      25.899  40.353  15.870  1.00  0.00     0.211 HD
ENDBRANCH  14  38
BRANCH  15  40
ATOM     40  O   UNL     1      25.417  39.694  13.790  1.00  0.00    -0.387 OA
ATOM     41  H   UNL     1      26.139  39.842  14.467  1.00  0.00     0.211 HD
ENDBRANCH  15  40
ENDBRANCH   9  10
ENDBRANCH   8   9
ENDBRANCH   3   8
BRANCH   3  42
ATOM     42  C   UNL     1      24.065  35.008  11.328  1.00  0.00     0.364 C 
ATOM     43  O   UNL     1      22.881  34.532  11.271  1.00  0.00    -0.246 OA
BRANCH  42  44
ATOM     44  O   UNL     1      24.935  34.304  12.136  1.00  0.00    -0.477 OA
ATOM     45  H   UNL     1      25.523  34.797  12.799  1.00  0.00     0.296 HD
ENDBRANCH  42  44
ENDBRANCH   3  42
BRANCH   6  46
ATOM     46  O   UNL     1      27.110  37.521   9.012  1.00  0.00    -0.391 OA
ATOM     47  H   UNL     1      27.545  37.826   8.175  1.00  0.00     0.211 HD
ENDBRANCH   6  46
BRANCH   7  48
ATOM     48  N   UNL     1      24.887  38.399   7.137  1.00  0.00    -0.348 N 
ATOM     49  C   UNL     1      25.436  39.733   7.130  1.00  0.00     0.217 C 
ATOM     50  H   UNL     1      24.614  38.018   6.214  1.00  0.00     0.163 HD
ATOM     51  C   UNL     1      25.583  40.497   5.866  1.00  0.00     0.114 C 
ATOM     52  O   UNL     1      25.807  40.295   8.194  1.00  0.00    -0.275 OA
ENDBRANCH   7  48
ENDBRANCH   1   2
BRANCH   1  53
ATOM     53  O   UNL     1      22.510  37.103   6.436  1.00  0.00    -0.388 OA
ATOM     54  H   UNL     1      23.494  37.017   6.230  1.00  0.00     0.211 HD
ENDBRANCH   1  53
BRANCH   1  55
ATOM     55  C   UNL     1      21.186  36.499   8.292  1.00  0.00     0.165 C 
BRANCH  55  56
ATOM     56  O   UNL     1      20.299  36.278   7.233  1.00  0.00    -0.388 OA
ATOM     57  H   UNL     1      20.736  35.667   6.591  1.00  0.00     0.211 HD
ENDBRANCH  55  56
BRANCH  55  58
ATOM     58  C   UNL     1      20.448  37.064   9.449  1.00  0.00     0.154 C 
BRANCH  58  59
ATOM     59  N   UNL     1      20.161  36.125  10.478  1.00  0.00    -0.319 N 
ATOM     60  C   UNL     1      18.941  35.369  10.419  1.00  0.00     0.407 C 
ATOM     61  H   UNL     1      20.793  35.977  11.266  1.00  0.00     0.167 HD
ATOM     62  O   UNL     1      18.131  35.528   9.484  1.00  0.00    -0.225 OA
BRANCH  60  63
ATOM     63  O   UNL     1      18.686  34.456  11.430  1.00  0.00    -0.443 OA
BRANCH  63  64
ATOM     64  C   UNL     1      19.546  33.311  11.548  1.00  0.00     0.294 C 
BRANCH  64  65
ATOM     65  C   UNL     1      20.063  33.285  12.922  1.00  0.00     0.120 A 
ATOM     66  C   UNL     1      21.183  32.546  13.316  1.00  0.00     0.138 A 
ATOM     67  N   UNL     1      19.641  33.895  14.027  1.00  0.00    -0.132 NA
ATOM     68  N   UNL     1      21.388  32.742  14.631  1.00  0.00    -0.251 N 
ATOM     69  N   UNL     1      20.448  33.555  15.034  1.00  0.00    -0.067 NA
BRANCH  68  70
ATOM     70  C   UNL     1      22.436  32.172  15.455  1.00  0.00     0.161 C 
BRANCH  70  71
ATOM     71  C   UNL     1      22.873  30.874  14.811  1.00  0.00     0.108 C 
BRANCH  71  72
ATOM     72  N   UNL     1      24.228  30.897  14.342  1.00  0.00    -0.302 NA
BRANCH  72  73
ATOM     73  C   UNL     1      24.350  30.390  13.002  1.00  0.00     0.081 C 
ATOM     74  C   UNL     1      23.226  29.389  12.761  1.00  0.00     0.021 C 
ENDBRANCH  72  73
BRANCH  72  75
ATOM     75  C   UNL     1      25.153  30.309  15.260  1.00  0.00     0.081 C 
ATOM     76  C   UNL     1      26.219  31.305  15.671  1.00  0.00     0.021 C 
ENDBRANCH  72  75
ENDBRANCH  71  72
ENDBRANCH  70  71
ENDBRANCH  68  70
ENDBRANCH  64  65
ENDBRANCH  63  64
ENDBRANCH  60  63
ENDBRANCH  58  59
ENDBRANCH  55  58
ENDBRANCH   1  55
TORSDOF 34
BEGIN_RES LYS A 131
REMARK  4 active torsions:
REMARK  status: ('A' for Active; 'I' for Inactive)
REMARK    1  A    between atoms: CA   and  CB  
REMARK    2  A    between atoms: CB   and  CG  
REMARK    3  A    between atoms: CG   and  CD  
REMARK    4  A    between atoms: CD   and  CE  
ROOT
ATOM      1  CA  LYS A 131      29.867  25.555  16.977  1.00 20.52     0.186 C 
ENDROOT
BRANCH   1   2
ATOM      2  CB  LYS A 131      28.345  25.722  17.026  1.00 20.94     0.034 C 
BRANCH   2   3
ATOM      3  CG  LYS A 131      27.602  24.399  16.920  1.00 22.96     0.005 C 
BRANCH   3   4
ATOM      4  CD  LYS A 131      26.149  24.535  17.282  1.00 24.33     0.041 C 
BRANCH   4   5
ATOM      5  CE  LYS A 131      26.001  24.543  18.800  1.00 26.91     0.338 C 
ATOM      6  NZ  LYS A 131      25.520  23.227  19.282  1.00 27.40     0.618 N 
ENDBRANCH   4   5
ENDBRANCH   3   4
ENDBRANCH   2   3
ENDBRANCH   1   2
END_RES LYS A 131
BEGIN_RES LYS A 135
REMARK  4 active torsions:
REMARK  status: ('A' for Active; 'I' for Inactive)
REMARK    5  A    between atoms: CA   and  CB  
REMARK    6  A    between atoms: CB   and  CG  
REMARK    7  A    between atoms: CG   and  CD  
REMARK    8  A    between atoms: CD   and  CE  
ROOT
ATOM      7  CA  LYS A 135      33.193  34.663   9.290  1.00 25.02     0.186 C 
ENDROOT
BRANCH   7   8
ATOM      8  CB  LYS A 135      32.060  35.360  10.034  1.00 26.63     0.034 C 
BRANCH   8   9
ATOM      9  CG  LYS A 135      30.885  35.705   9.156  1.00 29.45     0.005 C 
BRANCH   9  10
ATOM     10  CD  LYS A 135      30.400  34.477   8.401  1.00 32.00     0.041 C 
BRANCH  10  11
ATOM     11  CE  LYS A 135      28.884  34.420   8.396  1.00 34.25     0.338 C 
ATOM     12  NZ  LYS A 135      28.370  33.693   9.590  1.00 35.99     0.618 N 
ENDBRANCH  10  11
ENDBRANCH   9  10
ENDBRANCH   8   9
ENDBRANCH   7   8
END_RES LYS A 135
