REMARK VINA RESULT:    -3.985      5.921     10.579
REMARK INTER + INTRA:         -21.892
REMARK INTER:                  -9.230
REMARK INTRA:                 -12.662
REMARK UNBOUND:               -11.851
REMARK SMILES CC(=O)N[C@@H]1[C@@H](O)C[C@](OC[C@H]2O[C@@H](O[C@H]3[C@H](O)[C@@H](O)[C@H](OCCN=[N+]=[N-])O[C@@H]3CO)[C@H](O)[C@@H](O)[C@H]2O)(C(=O)O)O[C@H]1C(O)[C@H](O)CNC(=O)OCc1cn(Cc2ccccc2)nn1
REMARK SMILES IDX 9 1 8 2 6 3 5 4 42 5 41 6 10 7 11 8 12 9 14 10 13 11 32 12
REMARK SMILES IDX 34 13 36 14 15 15 16 16 29 17 28 18 21 19 17 20 19 21 30 22
REMARK SMILES IDX 31 23 22 25 23 26 24 27 25 28 26 29 27 30 18 31 20 33 33 35
REMARK SMILES IDX 35 37 37 39 38 41 39 42 40 43 7 45 43 47 44 48 45 50 46 51
REMARK SMILES IDX 47 53 48 54 49 55 50 57 51 58 52 59 53 60 54 61 64 62 55 63
REMARK SMILES IDX 63 64 56 65 57 66 58 67 62 68 59 69 61 70 60 71 4 72 2 73
REMARK SMILES IDX 1 75 3 76
REMARK H PARENT 31 24 18 32 20 34 33 36 35 38 37 40 40 44 7 46 44 49 46 52
REMARK H PARENT 48 56 4 74
REMARK Flexibility Score: inf
ROOT
ATOM      1  C   UNL     1      31.290  42.606   6.150  1.00  0.00     0.272 C 
ATOM      2  C   UNL     1      32.280  42.806   5.062  1.00  0.00     0.113 C 
ATOM      3  C   UNL     1      33.513  42.048   5.372  1.00  0.00     0.145 C 
ATOM      4  C   UNL     1      33.504  41.370   6.751  1.00  0.00     0.142 C 
ATOM      5  C   UNL     1      32.933  42.254   7.777  1.00  0.00     0.178 C 
ATOM      6  O   UNL     1      31.884  43.081   7.334  1.00  0.00    -0.332 OA
ENDROOT
BRANCH   1   7
ATOM      7  O   UNL     1      30.805  41.324   6.307  1.00  0.00    -0.338 OA
BRANCH   7   8
ATOM      8  C   UNL     1      30.247  40.877   5.121  1.00  0.00     0.199 C 
BRANCH   8   9
ATOM      9  C   UNL     1      29.192  39.818   5.346  1.00  0.00     0.179 C 
ATOM     10  C   UNL     1      28.702  38.090   6.837  1.00  0.00     0.282 C 
ATOM     11  O   UNL     1      29.665  38.741   6.062  1.00  0.00    -0.341 OA
ATOM     12  C   UNL     1      27.383  37.990   6.164  1.00  0.00     0.202 C 
ATOM     13  C   UNL     1      26.822  39.352   5.904  1.00  0.00     0.179 C 
ATOM     14  C   UNL     1      27.921  40.389   5.916  1.00  0.00     0.177 C 
BRANCH  10  15
ATOM     15  O   UNL     1      28.577  38.683   8.083  1.00  0.00    -0.341 OA
BRANCH  15  16
ATOM     16  C   UNL     1      29.068  37.905   9.124  1.00  0.00     0.184 C 
ATOM     17  C   UNL     1      28.088  37.842  10.235  1.00  0.00     0.178 C 
ATOM     18  O   UNL     1      28.674  37.080  11.269  1.00  0.00    -0.341 OA
ATOM     19  C   UNL     1      29.585  37.955  11.895  1.00  0.00     0.281 C 
ATOM     20  C   UNL     1      30.307  38.663   9.627  1.00  0.00     0.180 C 
ATOM     21  C   UNL     1      30.767  38.193  10.967  1.00  0.00     0.202 C 
BRANCH  17  22
ATOM     22  C   UNL     1      26.773  37.192   9.816  1.00  0.00     0.191 C 
BRANCH  22  23
ATOM     23  O   UNL     1      25.955  38.226   9.310  1.00  0.00    -0.394 OA
ATOM     24  H   UNL     1      25.531  37.910   8.477  1.00  0.00     0.210 HD
ENDBRANCH  22  23
ENDBRANCH  17  22
BRANCH  19  25
ATOM     25  O   UNL     1      30.014  37.392  13.071  1.00  0.00    -0.350 OA
BRANCH  25  26
ATOM     26  C   UNL     1      29.519  36.108  13.188  1.00  0.00     0.169 C 
BRANCH  26  27
ATOM     27  C   UNL     1      30.530  35.073  13.580  1.00  0.00     0.119 C 
BRANCH  27  28
ATOM     28  N   UNL     1      31.840  35.741  13.547  1.00  0.00    -0.092 NA
ATOM     29  N   UNL     1      32.649  35.416  14.414  1.00  0.00     0.001 N 
ATOM     30  N   UNL     1      33.709  35.205  15.020  1.00  0.00    -0.003 NA
ENDBRANCH  27  28
ENDBRANCH  26  27
ENDBRANCH  25  26
ENDBRANCH  19  25
BRANCH  20  31
ATOM     31  O   UNL     1      31.310  38.371   8.680  1.00  0.00    -0.387 OA
ATOM     32  H   UNL     1      31.702  37.468   8.819  1.00  0.00     0.211 HD
ENDBRANCH  20  31
BRANCH  21  33
ATOM     33  O   UNL     1      31.566  39.175  11.552  1.00  0.00    -0.385 OA
ATOM     34  H   UNL     1      32.467  38.837  11.802  1.00  0.00     0.211 HD
ENDBRANCH  21  33
ENDBRANCH  15  16
ENDBRANCH  10  15
BRANCH  12  35
ATOM     35  O   UNL     1      27.440  37.219   4.990  1.00  0.00    -0.385 OA
ATOM     36  H   UNL     1      27.408  36.274   5.283  1.00  0.00     0.211 HD
ENDBRANCH  12  35
BRANCH  13  37
ATOM     37  O   UNL     1      25.872  39.639   6.877  1.00  0.00    -0.387 OA
ATOM     38  H   UNL     1      26.175  40.348   7.506  1.00  0.00     0.211 HD
ENDBRANCH  13  37
BRANCH  14  39
ATOM     39  O   UNL     1      28.058  41.044   7.109  1.00  0.00    -0.387 OA
ATOM     40  H   UNL     1      28.876  41.562   7.244  1.00  0.00     0.211 HD
ENDBRANCH  14  39
ENDBRANCH   8   9
ENDBRANCH   7   8
ENDBRANCH   1   7
BRANCH   1  41
ATOM     41  C   UNL     1      30.099  43.514   6.007  1.00  0.00     0.364 C 
ATOM     42  O   UNL     1      29.305  43.626   6.942  1.00  0.00    -0.246 OA
BRANCH  41  43
ATOM     43  O   UNL     1      29.905  44.213   4.836  1.00  0.00    -0.477 OA
ATOM     44  H   UNL     1      30.641  44.325   4.136  1.00  0.00     0.296 HD
ENDBRANCH  41  43
ENDBRANCH   1  41
BRANCH   3  45
ATOM     45  O   UNL     1      33.806  41.022   4.454  1.00  0.00    -0.391 OA
ATOM     46  H   UNL     1      34.751  40.939   4.259  1.00  0.00     0.211 HD
ENDBRANCH   3  45
BRANCH   5  47
ATOM     47  C   UNL     1      32.477  41.695   9.059  1.00  0.00     0.176 C 
BRANCH  47  48
ATOM     48  O   UNL     1      33.047  40.495   9.423  1.00  0.00    -0.388 OA
ATOM     49  H   UNL     1      33.841  40.567   9.996  1.00  0.00     0.211 HD
ENDBRANCH  47  48
BRANCH  47  50
ATOM     50  C   UNL     1      32.428  42.603  10.254  1.00  0.00     0.165 C 
BRANCH  50  51
ATOM     51  O   UNL     1      32.729  41.993  11.433  1.00  0.00    -0.388 OA
ATOM     52  H   UNL     1      33.335  41.231  11.357  1.00  0.00     0.211 HD
ENDBRANCH  50  51
BRANCH  50  53
ATOM     53  C   UNL     1      31.248  43.529  10.230  1.00  0.00     0.154 C 
BRANCH  53  54
ATOM     54  N   UNL     1      30.014  42.915   9.814  1.00  0.00    -0.319 N 
ATOM     55  C   UNL     1      29.259  41.984  10.598  1.00  0.00     0.407 C 
ATOM     56  H   UNL     1      29.572  43.123   8.868  1.00  0.00     0.167 HD
ATOM     57  O   UNL     1      29.678  41.654  11.731  1.00  0.00    -0.225 OA
BRANCH  55  58
ATOM     58  O   UNL     1      28.078  41.436  10.133  1.00  0.00    -0.443 OA
BRANCH  58  59
ATOM     59  C   UNL     1      26.862  41.794  10.745  1.00  0.00     0.294 C 
BRANCH  59  60
ATOM     60  C   UNL     1      25.735  41.702   9.793  1.00  0.00     0.120 A 
ATOM     61  C   UNL     1      24.517  41.071  10.083  1.00  0.00     0.138 A 
ATOM     62  N   UNL     1      25.599  42.152   8.541  1.00  0.00    -0.132 NA
ATOM     63  N   UNL     1      23.720  41.172   9.008  1.00  0.00    -0.248 N 
ATOM     64  N   UNL     1      24.379  41.821   8.094  1.00  0.00    -0.067 NA
BRANCH  63  65
ATOM     65  C   UNL     1      22.374  40.651   8.915  1.00  0.00     0.181 C 
BRANCH  65  66
ATOM     66  C   UNL     1      22.424  39.169   8.854  1.00  0.00    -0.026 A 
ATOM     67  C   UNL     1      22.069  38.379   9.934  1.00  0.00     0.005 A 
ATOM     68  C   UNL     1      22.837  38.565   7.677  1.00  0.00     0.005 A 
ATOM     69  C   UNL     1      22.133  37.000   9.828  1.00  0.00     0.000 A 
ATOM     70  C   UNL     1      22.896  37.187   7.583  1.00  0.00     0.000 A 
ATOM     71  C   UNL     1      22.544  36.413   8.658  1.00  0.00     0.000 A 
ENDBRANCH  65  66
ENDBRANCH  63  65
ENDBRANCH  59  60
ENDBRANCH  58  59
ENDBRANCH  55  58
ENDBRANCH  53  54
ENDBRANCH  50  53
ENDBRANCH  47  50
ENDBRANCH   5  47
BRANCH   4  72
ATOM     72  N   UNL     1      34.952  41.192   6.982  1.00  0.00    -0.348 N 
ATOM     73  C   UNL     1      35.615  39.955   6.817  1.00  0.00     0.217 C 
ATOM     74  H   UNL     1      35.519  42.014   7.285  1.00  0.00     0.163 HD
ATOM     75  C   UNL     1      37.081  39.805   7.063  1.00  0.00     0.114 C 
ATOM     76  O   UNL     1      34.943  38.960   6.451  1.00  0.00    -0.275 OA
ENDBRANCH   4  72
TORSDOF 31
BEGIN_RES LYS A 131
REMARK  4 active torsions:
REMARK  status: ('A' for Active; 'I' for Inactive)
REMARK    1  A    between atoms: CA   and  CB  
REMARK    2  A    between atoms: CB   and  CG  
REMARK    3  A    between atoms: CG   and  CD  
REMARK    4  A    between atoms: CD   and  CE  
ROOT
ATOM      1  CA  LYS A 131      29.867  25.555  16.977  1.00 20.52     0.186 C 
ENDROOT
BRANCH   1   2
ATOM      2  CB  LYS A 131      28.345  25.722  17.026  1.00 20.94     0.034 C 
BRANCH   2   3
ATOM      3  CG  LYS A 131      27.601  24.400  16.907  1.00 22.96     0.005 C 
BRANCH   3   4
ATOM      4  CD  LYS A 131      26.544  24.248  17.966  1.00 24.33     0.041 C 
BRANCH   4   5
ATOM      5  CE  LYS A 131      26.007  25.623  18.350  1.00 26.91     0.338 C 
ATOM      6  NZ  LYS A 131      25.834  25.720  19.819  1.00 27.40     0.618 N 
ENDBRANCH   4   5
ENDBRANCH   3   4
ENDBRANCH   2   3
ENDBRANCH   1   2
END_RES LYS A 131
BEGIN_RES LYS A 135
REMARK  4 active torsions:
REMARK  status: ('A' for Active; 'I' for Inactive)
REMARK    5  A    between atoms: CA   and  CB  
REMARK    6  A    between atoms: CB   and  CG  
REMARK    7  A    between atoms: CG   and  CD  
REMARK    8  A    between atoms: CD   and  CE  
ROOT
ATOM      7  CA  LYS A 135      33.193  34.663   9.290  1.00 25.02     0.186 C 
ENDROOT
BRANCH   7   8
ATOM      8  CB  LYS A 135      32.060  35.360  10.034  1.00 26.63     0.034 C 
BRANCH   8   9
ATOM      9  CG  LYS A 135      30.737  34.647   9.921  1.00 29.45     0.005 C 
BRANCH   9  10
ATOM     10  CD  LYS A 135      30.358  34.447   8.462  1.00 32.00     0.041 C 
BRANCH  10  11
ATOM     11  CE  LYS A 135      28.851  34.475   8.295  1.00 34.25     0.338 C 
ATOM     12  NZ  LYS A 135      28.169  33.864   9.470  1.00 35.99     0.618 N 
ENDBRANCH  10  11
ENDBRANCH   9  10
ENDBRANCH   8   9
ENDBRANCH   7   8
END_RES LYS A 135
