REMARK VINA RESULT:    -4.972      2.841      6.631
REMARK INTER + INTRA:         -22.655
REMARK INTER:                 -10.983
REMARK INTRA:                 -11.672
REMARK UNBOUND:               -10.416
REMARK SMILES CC(=O)N[C@@H]1[C@@H](O)C[C@](OC[C@H]2O[C@@H](O[C@H]3[C@H](O)[C@@H](O)[C@H](OCCN=[N+]=[N-])O[C@@H]3CO)[C@H](O)[C@@H](O)[C@H]2O)(C(=O)O)O[C@H]1C(O)[C@H](O)CNC(=O)OCc1cn(-c2ccc3c(c2)OCO3)nn1
REMARK SMILES IDX 9 1 8 2 6 3 5 4 42 5 41 6 10 7 11 8 12 9 14 10 13 11 32 12
REMARK SMILES IDX 34 13 36 14 15 15 16 16 29 17 28 18 21 19 17 20 19 21 30 22
REMARK SMILES IDX 31 23 22 25 23 26 24 27 25 28 26 29 27 30 18 31 20 33 33 35
REMARK SMILES IDX 35 37 37 39 38 41 39 42 40 43 7 45 43 47 44 48 45 50 46 51
REMARK SMILES IDX 47 53 48 54 49 55 50 57 51 58 52 59 53 60 54 61 66 62 55 63
REMARK SMILES IDX 65 64 56 65 57 66 61 67 58 68 60 69 59 70 62 71 64 72 63 73
REMARK SMILES IDX 4 74 2 75 1 77 3 78
REMARK H PARENT 31 24 18 32 20 34 33 36 35 38 37 40 40 44 7 46 44 49 46 52
REMARK H PARENT 48 56 4 76
REMARK Flexibility Score: inf
ROOT
ATOM      1  C   UNL     1      29.989  31.152  20.968  1.00  0.00     0.272 C 
ATOM      2  C   UNL     1      30.381  32.281  21.881  1.00  0.00     0.113 C 
ATOM      3  C   UNL     1      30.177  33.655  21.217  1.00  0.00     0.145 C 
ATOM      4  C   UNL     1      31.200  33.711  20.102  1.00  0.00     0.142 C 
ATOM      5  C   UNL     1      30.970  32.465  19.273  1.00  0.00     0.178 C 
ATOM      6  O   UNL     1      29.923  31.698  19.655  1.00  0.00    -0.332 OA
ENDROOT
BRANCH   1   7
ATOM      7  O   UNL     1      28.786  30.653  21.197  1.00  0.00    -0.338 OA
BRANCH   7   8
ATOM      8  C   UNL     1      28.352  29.515  21.645  1.00  0.00     0.199 C 
BRANCH   8   9
ATOM      9  C   UNL     1      27.398  28.653  20.863  1.00  0.00     0.179 C 
ATOM     10  C   UNL     1      25.481  28.911  19.565  1.00  0.00     0.282 C 
ATOM     11  O   UNL     1      26.297  29.408  20.547  1.00  0.00    -0.341 OA
ATOM     12  C   UNL     1      25.776  27.500  19.180  1.00  0.00     0.202 C 
ATOM     13  C   UNL     1      27.228  27.317  18.772  1.00  0.00     0.179 C 
ATOM     14  C   UNL     1      28.119  28.224  19.559  1.00  0.00     0.177 C 
BRANCH  10  15
ATOM     15  O   UNL     1      25.702  29.696  18.415  1.00  0.00    -0.341 OA
BRANCH  15  16
ATOM     16  C   UNL     1      24.638  30.501  18.099  1.00  0.00     0.184 C 
ATOM     17  C   UNL     1      24.560  30.667  16.604  1.00  0.00     0.178 C 
ATOM     18  O   UNL     1      25.346  31.682  16.113  1.00  0.00    -0.341 OA
ATOM     19  C   UNL     1      26.476  31.923  16.896  1.00  0.00     0.281 C 
ATOM     20  C   UNL     1      24.847  31.818  18.809  1.00  0.00     0.180 C 
ATOM     21  C   UNL     1      26.109  32.448  18.262  1.00  0.00     0.202 C 
BRANCH  17  22
ATOM     22  C   UNL     1      23.133  30.936  16.146  1.00  0.00     0.191 C 
BRANCH  22  23
ATOM     23  O   UNL     1      22.211  30.525  17.100  1.00  0.00    -0.394 OA
ATOM     24  H   UNL     1      22.152  31.163  17.876  1.00  0.00     0.210 HD
ENDBRANCH  22  23
ENDBRANCH  17  22
BRANCH  19  25
ATOM     25  O   UNL     1      27.188  32.914  16.234  1.00  0.00    -0.350 OA
BRANCH  25  26
ATOM     26  C   UNL     1      26.289  33.836  15.708  1.00  0.00     0.169 C 
BRANCH  26  27
ATOM     27  C   UNL     1      26.706  35.263  16.046  1.00  0.00     0.119 C 
BRANCH  27  28
ATOM     28  N   UNL     1      28.064  35.180  16.605  1.00  0.00    -0.092 NA
ATOM     29  N   UNL     1      28.246  35.521  17.794  1.00  0.00     0.001 N 
ATOM     30  N   UNL     1      28.226  35.948  18.962  1.00  0.00    -0.003 NA
ENDBRANCH  27  28
ENDBRANCH  26  27
ENDBRANCH  25  26
ENDBRANCH  19  25
BRANCH  20  31
ATOM     31  O   UNL     1      23.758  32.662  18.732  1.00  0.00    -0.387 OA
ATOM     32  H   UNL     1      23.941  33.515  18.239  1.00  0.00     0.211 HD
ENDBRANCH  20  31
BRANCH  21  33
ATOM     33  O   UNL     1      27.151  32.121  19.132  1.00  0.00    -0.385 OA
ATOM     34  H   UNL     1      27.999  32.583  18.908  1.00  0.00     0.211 HD
ENDBRANCH  21  33
ENDBRANCH  15  16
ENDBRANCH  10  15
BRANCH  12  35
ATOM     35  O   UNL     1      25.468  26.559  20.159  1.00  0.00    -0.385 OA
ATOM     36  H   UNL     1      25.369  27.048  21.035  1.00  0.00     0.211 HD
ENDBRANCH  12  35
BRANCH  13  37
ATOM     37  O   UNL     1      27.327  27.588  17.406  1.00  0.00    -0.387 OA
ATOM     38  H   UNL     1      26.812  26.981  16.844  1.00  0.00     0.211 HD
ENDBRANCH  13  37
BRANCH  14  39
ATOM     39  O   UNL     1      28.398  29.348  18.787  1.00  0.00    -0.387 OA
ATOM     40  H   UNL     1      27.746  29.521  18.089  1.00  0.00     0.211 HD
ENDBRANCH  14  39
ENDBRANCH   8   9
ENDBRANCH   7   8
ENDBRANCH   1   7
BRANCH   1  41
ATOM     41  C   UNL     1      31.069  30.114  20.909  1.00  0.00     0.364 C 
ATOM     42  O   UNL     1      31.901  30.123  21.883  1.00  0.00    -0.246 OA
BRANCH  41  43
ATOM     43  O   UNL     1      31.241  29.188  19.931  1.00  0.00    -0.477 OA
ATOM     44  H   UNL     1      32.135  28.935  19.541  1.00  0.00     0.296 HD
ENDBRANCH  41  43
ENDBRANCH   1  41
BRANCH   3  45
ATOM     45  O   UNL     1      28.873  33.627  20.705  1.00  0.00    -0.391 OA
ATOM     46  H   UNL     1      28.234  33.957  21.375  1.00  0.00     0.211 HD
ENDBRANCH   3  45
BRANCH   5  47
ATOM     47  C   UNL     1      30.598  32.996  17.873  1.00  0.00     0.176 C 
BRANCH  47  48
ATOM     48  O   UNL     1      31.513  33.877  17.373  1.00  0.00    -0.388 OA
ATOM     49  H   UNL     1      31.162  34.484  16.676  1.00  0.00     0.211 HD
ENDBRANCH  47  48
BRANCH  47  50
ATOM     50  C   UNL     1      30.390  31.850  16.891  1.00  0.00     0.165 C 
BRANCH  50  51
ATOM     51  O   UNL     1      30.704  30.642  17.416  1.00  0.00    -0.388 OA
ATOM     52  H   UNL     1      31.652  30.459  17.581  1.00  0.00     0.211 HD
ENDBRANCH  50  51
BRANCH  50  53
ATOM     53  C   UNL     1      31.220  32.176  15.689  1.00  0.00     0.154 C 
BRANCH  53  54
ATOM     54  N   UNL     1      30.473  32.850  14.673  1.00  0.00    -0.319 N 
ATOM     55  C   UNL     1      30.774  34.127  14.132  1.00  0.00     0.407 C 
ATOM     56  H   UNL     1      29.593  32.395  14.242  1.00  0.00     0.167 HD
ATOM     57  O   UNL     1      31.772  34.768  14.520  1.00  0.00    -0.225 OA
BRANCH  55  58
ATOM     58  O   UNL     1      29.968  34.708  13.149  1.00  0.00    -0.443 OA
BRANCH  58  59
ATOM     59  C   UNL     1      28.602  34.434  13.002  1.00  0.00     0.294 C 
BRANCH  59  60
ATOM     60  C   UNL     1      28.022  35.413  12.021  1.00  0.00     0.121 A 
ATOM     61  C   UNL     1      26.849  35.231  11.287  1.00  0.00     0.144 A 
ATOM     62  N   UNL     1      28.481  36.619  11.666  1.00  0.00    -0.131 NA
ATOM     63  N   UNL     1      26.647  36.326  10.521  1.00  0.00    -0.220 N 
ATOM     64  N   UNL     1      27.660  37.135  10.786  1.00  0.00    -0.062 NA
BRANCH  63  65
ATOM     65  C   UNL     1      25.590  36.581   9.628  1.00  0.00     0.070 A 
ATOM     66  C   UNL     1      25.706  37.549   8.670  1.00  0.00     0.032 A 
ATOM     67  C   UNL     1      24.426  35.856   9.705  1.00  0.00     0.079 A 
ATOM     68  C   UNL     1      24.644  37.789   7.786  1.00  0.00     0.053 A 
ATOM     69  C   UNL     1      23.372  36.079   8.844  1.00  0.00     0.167 A 
ATOM     70  C   UNL     1      23.492  37.051   7.884  1.00  0.00     0.165 A 
ATOM     71  O   UNL     1      22.135  35.484   8.739  1.00  0.00    -0.454 OA
ATOM     72  O   UNL     1      22.310  37.077   7.154  1.00  0.00    -0.454 OA
ATOM     73  C   UNL     1      21.368  36.318   7.862  1.00  0.00     0.468 C 
ENDBRANCH  63  65
ENDBRANCH  59  60
ENDBRANCH  58  59
ENDBRANCH  55  58
ENDBRANCH  53  54
ENDBRANCH  50  53
ENDBRANCH  47  50
ENDBRANCH   5  47
BRANCH   4  74
ATOM     74  N   UNL     1      32.512  33.810  20.668  1.00  0.00    -0.348 N 
ATOM     75  C   UNL     1      33.486  34.746  20.159  1.00  0.00     0.217 C 
ATOM     76  H   UNL     1      32.863  33.236  21.462  1.00  0.00     0.163 HD
ATOM     77  C   UNL     1      34.845  34.839  20.755  1.00  0.00     0.114 C 
ATOM     78  O   UNL     1      33.179  35.479  19.213  1.00  0.00    -0.275 OA
ENDBRANCH   4  74
TORSDOF 30
BEGIN_RES LYS A 131
REMARK  4 active torsions:
REMARK  status: ('A' for Active; 'I' for Inactive)
REMARK    1  A    between atoms: CA   and  CB  
REMARK    2  A    between atoms: CB   and  CG  
REMARK    3  A    between atoms: CG   and  CD  
REMARK    4  A    between atoms: CD   and  CE  
ROOT
ATOM      1  CA  LYS A 131      29.867  25.555  16.977  1.00 20.52     0.186 C 
ENDROOT
BRANCH   1   2
ATOM      2  CB  LYS A 131      28.345  25.722  17.026  1.00 20.94     0.034 C 
BRANCH   2   3
ATOM      3  CG  LYS A 131      27.599  24.475  16.578  1.00 22.96     0.005 C 
BRANCH   3   4
ATOM      4  CD  LYS A 131      27.256  23.574  17.732  1.00 24.33     0.041 C 
BRANCH   4   5
ATOM      5  CE  LYS A 131      25.761  23.662  18.019  1.00 26.91     0.338 C 
ATOM      6  NZ  LYS A 131      25.068  24.409  16.942  1.00 27.40     0.618 N 
ENDBRANCH   4   5
ENDBRANCH   3   4
ENDBRANCH   2   3
ENDBRANCH   1   2
END_RES LYS A 131
BEGIN_RES LYS A 135
REMARK  4 active torsions:
REMARK  status: ('A' for Active; 'I' for Inactive)
REMARK    5  A    between atoms: CA   and  CB  
REMARK    6  A    between atoms: CB   and  CG  
REMARK    7  A    between atoms: CG   and  CD  
REMARK    8  A    between atoms: CD   and  CE  
ROOT
ATOM      7  CA  LYS A 135      33.193  34.663   9.290  1.00 25.02     0.186 C 
ENDROOT
BRANCH   7   8
ATOM      8  CB  LYS A 135      32.060  35.360  10.034  1.00 26.63     0.034 C 
BRANCH   8   9
ATOM      9  CG  LYS A 135      30.709  34.737   9.794  1.00 29.45     0.005 C 
BRANCH   9  10
ATOM     10  CD  LYS A 135      30.483  34.501   8.309  1.00 32.00     0.041 C 
BRANCH  10  11
ATOM     11  CE  LYS A 135      29.068  34.880   7.918  1.00 34.25     0.338 C 
ATOM     12  NZ  LYS A 135      28.961  36.339   7.639  1.00 35.99     0.618 N 
ENDBRANCH  10  11
ENDBRANCH   9  10
ENDBRANCH   8   9
ENDBRANCH   7   8
END_RES LYS A 135
