REMARK VINA RESULT:    -4.212      4.060      9.149
REMARK INTER + INTRA:         -22.176
REMARK INTER:                 -11.019
REMARK INTRA:                 -11.157
REMARK UNBOUND:               -11.069
REMARK SMILES COCC(C(N)=O)n1cc(COC(=O)NC[C@@H](O)C(O)[C@@H]2O[C@@](OC[C@H]3O[C@@H](O[C@H]4[C@H](O)[C@@H](O)[C@H](OCCN=[N+]=[N-])O[C@@H]4CO)[C@H](O)[C@@H](O)[C@H]3O)(C(=O)O)C[C@H](O)[C@H]2NC(C)=O)nn1
REMARK SMILES IDX 23 1 55 2 56 3 58 4 21 5 22 6 24 7 25 8 26 9 28 10 27 11
REMARK SMILES IDX 46 12 48 13 50 14 29 15 30 16 43 17 42 18 35 19 31 20 33 21
REMARK SMILES IDX 44 22 45 23 36 25 37 26 38 27 39 28 40 29 41 30 32 31 34 33
REMARK SMILES IDX 47 35 49 37 51 39 52 41 53 42 54 43 57 45 19 47 20 48 17 50
REMARK SMILES IDX 18 51 16 53 15 54 13 55 14 57 12 58 11 59 10 60 9 61 63 62
REMARK SMILES IDX 8 63 64 64 4 65 3 66 2 67 1 68 5 69 7 70 6 71 59 74 60 75
REMARK SMILES IDX 61 77 62 78
REMARK H PARENT 45 24 32 32 34 34 47 36 49 38 51 40 54 44 57 46 20 49 18 52
REMARK H PARENT 15 56 6 72 6 73 59 76
REMARK Flexibility Score: inf
ROOT
ATOM      1  C   UNL     1      24.774  36.378  10.205  1.00  0.00     0.272 C 
ATOM      2  C   UNL     1      23.601  36.379   9.302  1.00  0.00     0.113 C 
ATOM      3  C   UNL     1      23.469  37.520   8.362  1.00  0.00     0.145 C 
ATOM      4  C   UNL     1      23.908  38.795   9.030  1.00  0.00     0.142 C 
ATOM      5  C   UNL     1      23.928  38.530  10.528  1.00  0.00     0.178 C 
ATOM      6  O   UNL     1      24.913  37.623  10.816  1.00  0.00    -0.332 OA
ENDROOT
BRANCH   1   7
ATOM      7  O   UNL     1      25.986  36.054   9.662  1.00  0.00    -0.338 OA
BRANCH   7   8
ATOM      8  C   UNL     1      26.059  34.958   8.867  1.00  0.00     0.199 C 
BRANCH   8   9
ATOM      9  C   UNL     1      27.504  34.486   8.650  1.00  0.00     0.179 C 
ATOM     10  C   UNL     1      28.661  36.226   7.637  1.00  0.00     0.282 C 
ATOM     11  O   UNL     1      28.037  34.994   7.500  1.00  0.00    -0.341 OA
ATOM     12  C   UNL     1      29.691  36.248   8.713  1.00  0.00     0.202 C 
ATOM     13  C   UNL     1      29.138  35.831  10.036  1.00  0.00     0.179 C 
ATOM     14  C   UNL     1      28.340  34.587   9.875  1.00  0.00     0.177 C 
BRANCH  10  15
ATOM     15  O   UNL     1      27.760  37.267   7.772  1.00  0.00    -0.341 OA
BRANCH  15  16
ATOM     16  C   UNL     1      28.130  38.350   6.977  1.00  0.00     0.184 C 
ATOM     17  C   UNL     1      27.710  39.679   7.479  1.00  0.00     0.178 C 
ATOM     18  O   UNL     1      28.261  40.701   6.747  1.00  0.00    -0.341 OA
ATOM     19  C   UNL     1      28.472  40.402   5.399  1.00  0.00     0.281 C 
ATOM     20  C   UNL     1      27.414  38.136   5.632  1.00  0.00     0.180 C 
ATOM     21  C   UNL     1      27.422  39.429   4.889  1.00  0.00     0.202 C 
BRANCH  17  22
ATOM     22  C   UNL     1      28.056  39.948   8.931  1.00  0.00     0.191 C 
BRANCH  22  23
ATOM     23  O   UNL     1      27.306  39.114   9.759  1.00  0.00    -0.394 OA
ATOM     24  H   UNL     1      27.375  39.373  10.707  1.00  0.00     0.210 HD
ENDBRANCH  22  23
ENDBRANCH  17  22
BRANCH  19  25
ATOM     25  O   UNL     1      29.739  39.971   5.221  1.00  0.00    -0.350 OA
BRANCH  25  26
ATOM     26  C   UNL     1      30.790  40.729   5.604  1.00  0.00     0.169 C 
BRANCH  26  27
ATOM     27  C   UNL     1      32.162  40.205   5.359  1.00  0.00     0.119 C 
BRANCH  27  28
ATOM     28  N   UNL     1      32.828  39.784   6.551  1.00  0.00    -0.092 NA
ATOM     29  N   UNL     1      32.206  39.692   7.606  1.00  0.00     0.001 N 
ATOM     30  N   UNL     1      31.597  39.132   8.532  1.00  0.00    -0.003 NA
ENDBRANCH  27  28
ENDBRANCH  26  27
ENDBRANCH  25  26
ENDBRANCH  19  25
BRANCH  20  31
ATOM     31  O   UNL     1      28.058  37.128   4.916  1.00  0.00    -0.387 OA
ATOM     32  H   UNL     1      27.349  36.610   4.471  1.00  0.00     0.211 HD
ENDBRANCH  20  31
BRANCH  21  33
ATOM     33  O   UNL     1      26.180  40.088   5.014  1.00  0.00    -0.385 OA
ATOM     34  H   UNL     1      25.554  39.505   5.534  1.00  0.00     0.211 HD
ENDBRANCH  21  33
ENDBRANCH  15  16
ENDBRANCH  10  15
BRANCH  12  35
ATOM     35  O   UNL     1      30.666  35.294   8.364  1.00  0.00    -0.385 OA
ATOM     36  H   UNL     1      31.533  35.723   8.207  1.00  0.00     0.211 HD
ENDBRANCH  12  35
BRANCH  13  37
ATOM     37  O   UNL     1      28.466  36.863  10.689  1.00  0.00    -0.387 OA
ATOM     38  H   UNL     1      27.667  37.073  10.135  1.00  0.00     0.211 HD
ENDBRANCH  13  37
BRANCH  14  39
ATOM     39  O   UNL     1      27.529  34.366  10.990  1.00  0.00    -0.387 OA
ATOM     40  H   UNL     1      26.570  34.481  10.754  1.00  0.00     0.211 HD
ENDBRANCH  14  39
ENDBRANCH   8   9
ENDBRANCH   7   8
ENDBRANCH   1   7
BRANCH   1  41
ATOM     41  C   UNL     1      24.452  35.444  11.343  1.00  0.00     0.364 C 
ATOM     42  O   UNL     1      23.434  34.726  11.328  1.00  0.00    -0.246 OA
BRANCH  41  43
ATOM     43  O   UNL     1      25.308  35.397  12.411  1.00  0.00    -0.477 OA
ATOM     44  H   UNL     1      25.848  34.579  12.647  1.00  0.00     0.296 HD
ENDBRANCH  41  43
ENDBRANCH   1  41
BRANCH   3  45
ATOM     45  O   UNL     1      24.097  37.323   7.136  1.00  0.00    -0.391 OA
ATOM     46  H   UNL     1      23.433  37.043   6.458  1.00  0.00     0.211 HD
ENDBRANCH   3  45
BRANCH   5  47
ATOM     47  C   UNL     1      24.198  39.825  11.269  1.00  0.00     0.176 C 
BRANCH  47  48
ATOM     48  O   UNL     1      23.101  40.624  11.381  1.00  0.00    -0.388 OA
ATOM     49  H   UNL     1      23.060  41.252  12.114  1.00  0.00     0.211 HD
ENDBRANCH  47  48
BRANCH  47  50
ATOM     50  C   UNL     1      24.777  39.534  12.627  1.00  0.00     0.165 C 
BRANCH  50  51
ATOM     51  O   UNL     1      23.978  40.242  13.558  1.00  0.00    -0.388 OA
ATOM     52  H   UNL     1      24.234  39.966  14.480  1.00  0.00     0.211 HD
ENDBRANCH  50  51
BRANCH  50  53
ATOM     53  C   UNL     1      26.174  40.017  12.825  1.00  0.00     0.154 C 
BRANCH  53  54
ATOM     54  N   UNL     1      27.191  39.018  12.801  1.00  0.00    -0.319 N 
ATOM     55  C   UNL     1      28.560  39.301  13.060  1.00  0.00     0.407 C 
ATOM     56  H   UNL     1      26.955  38.012  12.582  1.00  0.00     0.167 HD
ATOM     57  O   UNL     1      28.899  40.465  13.319  1.00  0.00    -0.225 OA
BRANCH  55  58
ATOM     58  O   UNL     1      29.539  38.302  13.032  1.00  0.00    -0.443 OA
BRANCH  58  59
ATOM     59  C   UNL     1      29.857  37.528  14.150  1.00  0.00     0.294 C 
BRANCH  59  60
ATOM     60  C   UNL     1      29.110  36.269  14.266  1.00  0.00     0.120 A 
ATOM     61  C   UNL     1      29.375  35.296  15.197  1.00  0.00     0.139 A 
ATOM     62  N   UNL     1      28.080  35.885  13.503  1.00  0.00    -0.132 NA
ATOM     63  N   UNL     1      28.485  34.326  14.974  1.00  0.00    -0.237 N 
ATOM     64  N   UNL     1      27.711  34.696  13.951  1.00  0.00    -0.066 NA
BRANCH  63  65
ATOM     65  C   UNL     1      28.388  33.089  15.726  1.00  0.00     0.223 C 
BRANCH  65  66
ATOM     66  C   UNL     1      29.212  33.220  16.965  1.00  0.00     0.197 C 
BRANCH  66  67
ATOM     67  O   UNL     1      29.879  32.058  17.266  1.00  0.00    -0.382 OA
ATOM     68  C   UNL     1      30.450  31.501  16.153  1.00  0.00     0.195 C 
ENDBRANCH  66  67
ENDBRANCH  65  66
BRANCH  65  69
ATOM     69  C   UNL     1      26.938  32.913  16.070  1.00  0.00     0.244 C 
ATOM     70  O   UNL     1      26.481  33.516  17.061  1.00  0.00    -0.273 OA
ATOM     71  N   UNL     1      26.136  32.072  15.258  1.00  0.00    -0.368 N 
ATOM     72  H   UNL     1      25.803  31.135  15.542  1.00  0.00     0.159 HD
ATOM     73  H   UNL     1      25.870  32.425  14.314  1.00  0.00     0.159 HD
ENDBRANCH  65  69
ENDBRANCH  63  65
ENDBRANCH  59  60
ENDBRANCH  58  59
ENDBRANCH  55  58
ENDBRANCH  53  54
ENDBRANCH  50  53
ENDBRANCH  47  50
ENDBRANCH   5  47
BRANCH   4  74
ATOM     74  N   UNL     1      23.019  39.904   8.688  1.00  0.00    -0.348 N 
ATOM     75  C   UNL     1      23.139  40.663   7.493  1.00  0.00     0.217 C 
ATOM     76  H   UNL     1      22.239  40.178   9.336  1.00  0.00     0.163 HD
ATOM     77  C   UNL     1      22.256  41.782   7.126  1.00  0.00     0.114 C 
ATOM     78  O   UNL     1      24.081  40.339   6.693  1.00  0.00    -0.275 OA
ENDBRANCH   4  74
TORSDOF 33
BEGIN_RES LYS A 131
REMARK  4 active torsions:
REMARK  status: ('A' for Active; 'I' for Inactive)
REMARK    1  A    between atoms: CA   and  CB  
REMARK    2  A    between atoms: CB   and  CG  
REMARK    3  A    between atoms: CG   and  CD  
REMARK    4  A    between atoms: CD   and  CE  
ROOT
ATOM      1  CA  LYS A 131      29.867  25.555  16.977  1.00 20.52     0.186 C 
ENDROOT
BRANCH   1   2
ATOM      2  CB  LYS A 131      28.345  25.722  17.026  1.00 20.94     0.034 C 
BRANCH   2   3
ATOM      3  CG  LYS A 131      27.601  24.403  16.887  1.00 22.96     0.005 C 
BRANCH   3   4
ATOM      4  CD  LYS A 131      26.155  24.524  17.282  1.00 24.33     0.041 C 
BRANCH   4   5
ATOM      5  CE  LYS A 131      25.796  23.401  18.249  1.00 26.91     0.338 C 
ATOM      6  NZ  LYS A 131      24.984  22.366  17.565  1.00 27.40     0.618 N 
ENDBRANCH   4   5
ENDBRANCH   3   4
ENDBRANCH   2   3
ENDBRANCH   1   2
END_RES LYS A 131
BEGIN_RES LYS A 135
REMARK  4 active torsions:
REMARK  status: ('A' for Active; 'I' for Inactive)
REMARK    5  A    between atoms: CA   and  CB  
REMARK    6  A    between atoms: CB   and  CG  
REMARK    7  A    between atoms: CG   and  CD  
REMARK    8  A    between atoms: CD   and  CE  
ROOT
ATOM      7  CA  LYS A 135      33.193  34.663   9.290  1.00 25.02     0.186 C 
ENDROOT
BRANCH   7   8
ATOM      8  CB  LYS A 135      32.060  35.360  10.034  1.00 26.63     0.034 C 
BRANCH   8   9
ATOM      9  CG  LYS A 135      32.500  36.029  11.311  1.00 29.45     0.005 C 
BRANCH   9  10
ATOM     10  CD  LYS A 135      32.023  35.242  12.521  1.00 32.00     0.041 C 
BRANCH  10  11
ATOM     11  CE  LYS A 135      32.964  35.445  13.693  1.00 34.25     0.338 C 
ATOM     12  NZ  LYS A 135      34.152  34.554  13.588  1.00 35.99     0.618 N 
ENDBRANCH  10  11
ENDBRANCH   9  10
ENDBRANCH   8   9
ENDBRANCH   7   8
END_RES LYS A 135
