REMARK VINA RESULT:    -4.831      3.201      7.228
REMARK INTER + INTRA:         -23.387
REMARK INTER:                 -10.755
REMARK INTRA:                 -12.631
REMARK UNBOUND:               -11.213
REMARK SMILES CC(=O)N[C@@H]1[C@@H](O)C[C@](OC[C@H]2O[C@@H](O[C@H]3[C@H](O)[C@@H](O)[C@H](OCCN=[N+]=[N-])O[C@@H]3CO)[C@H](O)[C@@H](O)[C@H]2O)(C(=O)O)O[C@H]1C(O)[C@H](O)CNC(=O)OCc1cn(CC2=CC[C@H]3C[C@@H]2C3(C)C)nn1
REMARK SMILES IDX 9 1 8 2 6 3 5 4 42 5 41 6 10 7 11 8 12 9 14 10 13 11 32 12
REMARK SMILES IDX 34 13 36 14 15 15 16 16 29 17 28 18 21 19 17 20 19 21 30 22
REMARK SMILES IDX 31 23 22 25 23 26 24 27 25 28 26 29 27 30 18 31 20 33 33 35
REMARK SMILES IDX 35 37 37 39 38 41 39 42 40 43 7 45 43 47 44 48 45 50 46 51
REMARK SMILES IDX 47 53 48 54 49 55 50 57 51 58 52 59 53 60 54 61 67 62 55 63
REMARK SMILES IDX 66 64 56 65 57 66 58 67 62 68 59 69 61 70 63 71 60 72 64 73
REMARK SMILES IDX 65 74 4 75 2 76 1 78 3 79
REMARK H PARENT 31 24 18 32 20 34 33 36 35 38 37 40 40 44 7 46 44 49 46 52
REMARK H PARENT 48 56 4 77
REMARK Flexibility Score: inf
ROOT
ATOM      1  C   UNL     1      19.162  35.166   9.596  1.00  0.00     0.272 C 
ATOM      2  C   UNL     1      19.576  34.109  10.566  1.00  0.00     0.113 C 
ATOM      3  C   UNL     1      20.448  34.720  11.677  1.00  0.00     0.145 C 
ATOM      4  C   UNL     1      21.700  35.284  11.107  1.00  0.00     0.142 C 
ATOM      5  C   UNL     1      21.498  35.382   9.609  1.00  0.00     0.178 C 
ATOM      6  O   UNL     1      20.322  35.956   9.287  1.00  0.00    -0.332 OA
ENDROOT
BRANCH   1   7
ATOM      7  O   UNL     1      18.269  36.052  10.010  1.00  0.00    -0.338 OA
BRANCH   7   8
ATOM      8  C   UNL     1      17.378  36.727   9.331  1.00  0.00     0.199 C 
BRANCH   8   9
ATOM      9  C   UNL     1      17.514  38.097   8.815  1.00  0.00     0.179 C 
ATOM     10  C   UNL     1      18.852  39.954   9.146  1.00  0.00     0.282 C 
ATOM     11  O   UNL     1      18.777  38.574   9.283  1.00  0.00    -0.341 OA
ATOM     12  C   UNL     1      18.324  40.502   7.897  1.00  0.00     0.202 C 
ATOM     13  C   UNL     1      17.629  39.611   6.946  1.00  0.00     0.179 C 
ATOM     14  C   UNL     1      17.751  38.148   7.293  1.00  0.00     0.177 C 
BRANCH  10  15
ATOM     15  O   UNL     1      20.229  40.236   9.242  1.00  0.00    -0.341 OA
BRANCH  15  16
ATOM     16  C   UNL     1      20.592  40.691  10.497  1.00  0.00     0.184 C 
ATOM     17  C   UNL     1      21.406  41.948  10.377  1.00  0.00     0.178 C 
ATOM     18  O   UNL     1      22.112  42.277  11.521  1.00  0.00    -0.341 OA
ATOM     19  C   UNL     1      21.813  41.566  12.645  1.00  0.00     0.281 C 
ATOM     20  C   UNL     1      21.518  39.629  11.099  1.00  0.00     0.180 C 
ATOM     21  C   UNL     1      21.932  40.072  12.470  1.00  0.00     0.202 C 
BRANCH  17  22
ATOM     22  C   UNL     1      20.449  43.098  10.042  1.00  0.00     0.191 C 
BRANCH  22  23
ATOM     23  O   UNL     1      20.290  43.132   8.664  1.00  0.00    -0.394 OA
ATOM     24  H   UNL     1      20.121  44.087   8.398  1.00  0.00     0.210 HD
ENDBRANCH  22  23
ENDBRANCH  17  22
BRANCH  19  25
ATOM     25  O   UNL     1      20.529  41.860  13.126  1.00  0.00    -0.350 OA
BRANCH  25  26
ATOM     26  C   UNL     1      20.141  40.985  14.141  1.00  0.00     0.169 C 
BRANCH  26  27
ATOM     27  C   UNL     1      18.660  41.283  14.392  1.00  0.00     0.119 C 
BRANCH  27  28
ATOM     28  N   UNL     1      17.861  40.620  13.384  1.00  0.00    -0.092 NA
ATOM     29  N   UNL     1      18.051  39.462  13.059  1.00  0.00     0.001 N 
ATOM     30  N   UNL     1      18.365  38.334  12.660  1.00  0.00    -0.003 NA
ENDBRANCH  27  28
ENDBRANCH  26  27
ENDBRANCH  25  26
ENDBRANCH  19  25
BRANCH  20  31
ATOM     31  O   UNL     1      20.826  38.412  11.220  1.00  0.00    -0.387 OA
ATOM     32  H   UNL     1      20.004  38.430  10.683  1.00  0.00     0.211 HD
ENDBRANCH  20  31
BRANCH  21  33
ATOM     33  O   UNL     1      23.215  39.644  12.807  1.00  0.00    -0.385 OA
ATOM     34  H   UNL     1      23.845  39.976  12.106  1.00  0.00     0.211 HD
ENDBRANCH  21  33
ENDBRANCH  15  16
ENDBRANCH  10  15
BRANCH  12  35
ATOM     35  O   UNL     1      17.420  41.543   8.243  1.00  0.00    -0.385 OA
ATOM     36  H   UNL     1      16.708  41.641   7.562  1.00  0.00     0.211 HD
ENDBRANCH  12  35
BRANCH  13  37
ATOM     37  O   UNL     1      17.983  39.875   5.619  1.00  0.00    -0.387 OA
ATOM     38  H   UNL     1      17.166  39.923   5.051  1.00  0.00     0.211 HD
ENDBRANCH  13  37
BRANCH  14  39
ATOM     39  O   UNL     1      19.094  37.775   7.075  1.00  0.00    -0.387 OA
ATOM     40  H   UNL     1      19.561  37.674   7.941  1.00  0.00     0.211 HD
ENDBRANCH  14  39
ENDBRANCH   8   9
ENDBRANCH   7   8
ENDBRANCH   1   7
BRANCH   1  41
ATOM     41  C   UNL     1      18.872  34.561   8.270  1.00  0.00     0.364 C 
ATOM     42  O   UNL     1      18.081  33.558   8.186  1.00  0.00    -0.246 OA
BRANCH  41  43
ATOM     43  O   UNL     1      19.406  35.005   7.107  1.00  0.00    -0.477 OA
ATOM     44  H   UNL     1      19.968  34.495   6.446  1.00  0.00     0.296 HD
ENDBRANCH  41  43
ENDBRANCH   1  41
BRANCH   3  45
ATOM     45  O   UNL     1      19.684  35.802  12.139  1.00  0.00    -0.391 OA
ATOM     46  H   UNL     1      18.980  35.981  11.468  1.00  0.00     0.211 HD
ENDBRANCH   3  45
BRANCH   5  47
ATOM     47  C   UNL     1      22.612  36.220   8.975  1.00  0.00     0.176 C 
BRANCH  47  48
ATOM     48  O   UNL     1      23.344  36.859   9.942  1.00  0.00    -0.388 OA
ATOM     49  H   UNL     1      22.994  37.754  10.208  1.00  0.00     0.211 HD
ENDBRANCH  47  48
BRANCH  47  50
ATOM     50  C   UNL     1      22.044  37.194   7.986  1.00  0.00     0.165 C 
BRANCH  50  51
ATOM     51  O   UNL     1      21.693  36.414   6.847  1.00  0.00    -0.388 OA
ATOM     52  H   UNL     1      22.332  35.636   6.902  1.00  0.00     0.211 HD
ENDBRANCH  50  51
BRANCH  50  53
ATOM     53  C   UNL     1      23.069  38.173   7.508  1.00  0.00     0.154 C 
BRANCH  53  54
ATOM     54  N   UNL     1      23.309  39.274   8.384  1.00  0.00    -0.319 N 
ATOM     55  C   UNL     1      24.378  40.167   8.132  1.00  0.00     0.407 C 
ATOM     56  H   UNL     1      22.678  39.419   9.211  1.00  0.00     0.167 HD
ATOM     57  O   UNL     1      25.114  39.999   7.151  1.00  0.00    -0.225 OA
BRANCH  55  58
ATOM     58  O   UNL     1      24.618  41.239   8.971  1.00  0.00    -0.443 OA
BRANCH  58  59
ATOM     59  C   UNL     1      25.184  41.194  10.238  1.00  0.00     0.294 C 
BRANCH  59  60
ATOM     60  C   UNL     1      25.860  39.907  10.570  1.00  0.00     0.120 A 
ATOM     61  C   UNL     1      27.198  39.604  10.482  1.00  0.00     0.138 A 
ATOM     62  N   UNL     1      25.258  38.779  11.040  1.00  0.00    -0.132 NA
ATOM     63  N   UNL     1      27.380  38.345  10.885  1.00  0.00    -0.248 N 
ATOM     64  N   UNL     1      26.195  37.870  11.216  1.00  0.00    -0.067 NA
BRANCH  63  65
ATOM     65  C   UNL     1      28.657  37.610  10.957  1.00  0.00     0.177 C 
BRANCH  65  66
ATOM     66  C   UNL     1      28.704  36.785   9.704  1.00  0.00    -0.049 C 
ATOM     67  C   UNL     1      29.323  37.247   8.599  1.00  0.00    -0.025 C 
ATOM     68  C   UNL     1      28.094  35.450   9.614  1.00  0.00     0.023 C 
ATOM     69  C   UNL     1      29.213  36.476   7.341  1.00  0.00     0.031 C 
ATOM     70  C   UNL     1      29.097  34.560   8.869  1.00  0.00     0.013 C 
ATOM     71  C   UNL     1      27.226  35.376   8.395  1.00  0.00    -0.026 C 
ATOM     72  C   UNL     1      28.514  35.170   7.587  1.00  0.00    -0.000 C 
ATOM     73  C   UNL     1      26.376  34.132   8.300  1.00  0.00     0.012 C 
ATOM     74  C   UNL     1      26.439  36.591   8.035  1.00  0.00     0.012 C 
ENDBRANCH  65  66
ENDBRANCH  63  65
ENDBRANCH  59  60
ENDBRANCH  58  59
ENDBRANCH  55  58
ENDBRANCH  53  54
ENDBRANCH  50  53
ENDBRANCH  47  50
ENDBRANCH   5  47
BRANCH   4  75
ATOM     75  N   UNL     1      22.900  34.559  11.340  1.00  0.00    -0.348 N 
ATOM     76  C   UNL     1      23.943  34.916  12.206  1.00  0.00     0.217 C 
ATOM     77  H   UNL     1      23.002  33.655  10.793  1.00  0.00     0.163 HD
ATOM     78  C   UNL     1      25.149  34.060  12.354  1.00  0.00     0.114 C 
ATOM     79  O   UNL     1      23.811  35.978  12.840  1.00  0.00    -0.275 OA
ENDBRANCH   4  75
TORSDOF 31
BEGIN_RES LYS A 131
REMARK  4 active torsions:
REMARK  status: ('A' for Active; 'I' for Inactive)
REMARK    1  A    between atoms: CA   and  CB  
REMARK    2  A    between atoms: CB   and  CG  
REMARK    3  A    between atoms: CG   and  CD  
REMARK    4  A    between atoms: CD   and  CE  
ROOT
ATOM      1  CA  LYS A 131      29.867  25.555  16.977  1.00 20.52     0.186 C 
ENDROOT
BRANCH   1   2
ATOM      2  CB  LYS A 131      28.345  25.722  17.026  1.00 20.94     0.034 C 
BRANCH   2   3
ATOM      3  CG  LYS A 131      27.602  24.397  16.949  1.00 22.96     0.005 C 
BRANCH   3   4
ATOM      4  CD  LYS A 131      26.111  24.578  17.019  1.00 24.33     0.041 C 
BRANCH   4   5
ATOM      5  CE  LYS A 131      25.486  23.382  17.729  1.00 26.91     0.338 C 
ATOM      6  NZ  LYS A 131      25.837  23.391  19.169  1.00 27.40     0.618 N 
ENDBRANCH   4   5
ENDBRANCH   3   4
ENDBRANCH   2   3
ENDBRANCH   1   2
END_RES LYS A 131
BEGIN_RES LYS A 135
REMARK  4 active torsions:
REMARK  status: ('A' for Active; 'I' for Inactive)
REMARK    5  A    between atoms: CA   and  CB  
REMARK    6  A    between atoms: CB   and  CG  
REMARK    7  A    between atoms: CG   and  CD  
REMARK    8  A    between atoms: CD   and  CE  
ROOT
ATOM      7  CA  LYS A 135      33.193  34.663   9.290  1.00 25.02     0.186 C 
ENDROOT
BRANCH   7   8
ATOM      8  CB  LYS A 135      32.060  35.360  10.034  1.00 26.63     0.034 C 
BRANCH   8   9
ATOM      9  CG  LYS A 135      32.531  36.228  11.172  1.00 29.45     0.005 C 
BRANCH   9  10
ATOM     10  CD  LYS A 135      31.766  35.905  12.446  1.00 32.00     0.041 C 
BRANCH  10  11
ATOM     11  CE  LYS A 135      30.768  34.789  12.200  1.00 34.25     0.338 C 
ATOM     12  NZ  LYS A 135      29.647  34.847  13.178  1.00 35.99     0.618 N 
ENDBRANCH  10  11
ENDBRANCH   9  10
ENDBRANCH   8   9
ENDBRANCH   7   8
END_RES LYS A 135
