REMARK VINA RESULT:    -4.411      3.117      8.748
REMARK INTER + INTRA:         -21.522
REMARK INTER:                 -12.091
REMARK INTRA:                  -9.431
REMARK UNBOUND:               -10.664
REMARK SMILES CC(=O)N[C@@H]1[C@@H](O)C[C@](OC[C@H]2O[C@@H](O[C@H]3[C@H](O)[C@@H](O)[C@H](OCCN=[N+]=[N-])O[C@@H]3CO)[C@H](O)[C@@H](O)[C@H]2O)(C(=O)O)O[C@H]1C(O)[C@H](O)CNC(=O)OCc1cn(-c2ccc(Br)cc2)nn1
REMARK SMILES IDX 9 1 8 2 6 3 5 4 42 5 41 6 10 7 11 8 12 9 14 10 13 11 32 12
REMARK SMILES IDX 34 13 36 14 15 15 16 16 29 17 28 18 21 19 17 20 19 21 30 22
REMARK SMILES IDX 31 23 22 25 23 26 24 27 25 28 26 29 27 30 18 31 20 33 33 35
REMARK SMILES IDX 35 37 37 39 38 41 39 42 40 43 7 45 43 47 44 48 45 50 46 51
REMARK SMILES IDX 47 53 48 54 49 55 50 57 51 58 52 59 53 60 54 61 64 62 55 63
REMARK SMILES IDX 63 64 56 65 57 66 62 67 58 68 61 69 59 70 60 71 4 72 2 73
REMARK SMILES IDX 1 75 3 76
REMARK H PARENT 31 24 18 32 20 34 33 36 35 38 37 40 40 44 7 46 44 49 46 52
REMARK H PARENT 48 56 4 74
REMARK Flexibility Score: inf
ROOT
ATOM      1  C   UNL     1      28.028  34.325  15.322  1.00  0.00     0.272 C 
ATOM      2  C   UNL     1      28.529  35.789  15.186  1.00  0.00     0.113 C 
ATOM      3  C   UNL     1      29.657  35.975  16.131  1.00  0.00     0.145 C 
ATOM      4  C   UNL     1      30.727  34.928  15.761  1.00  0.00     0.142 C 
ATOM      5  C   UNL     1      30.101  33.601  16.120  1.00  0.00     0.178 C 
ATOM      6  O   UNL     1      29.055  33.430  15.240  1.00  0.00    -0.332 OA
ENDROOT
BRANCH   1   7
ATOM      7  O   UNL     1      27.222  34.180  14.188  1.00  0.00    -0.338 OA
BRANCH   7   8
ATOM      8  C   UNL     1      26.888  35.333  13.544  1.00  0.00     0.199 C 
BRANCH   8   9
ATOM      9  C   UNL     1      25.347  35.387  13.507  1.00  0.00     0.179 C 
ATOM     10  C   UNL     1      23.695  35.894  11.951  1.00  0.00     0.282 C 
ATOM     11  O   UNL     1      24.903  36.217  12.518  1.00  0.00    -0.341 OA
ATOM     12  C   UNL     1      22.814  35.078  12.807  1.00  0.00     0.202 C 
ATOM     13  C   UNL     1      23.437  33.874  13.438  1.00  0.00     0.179 C 
ATOM     14  C   UNL     1      24.922  33.943  13.291  1.00  0.00     0.177 C 
BRANCH  10  15
ATOM     15  O   UNL     1      23.976  35.389  10.682  1.00  0.00    -0.341 OA
BRANCH  15  16
ATOM     16  C   UNL     1      24.133  36.395   9.745  1.00  0.00     0.184 C 
ATOM     17  C   UNL     1      23.111  36.310   8.657  1.00  0.00     0.178 C 
ATOM     18  O   UNL     1      23.201  37.405   7.846  1.00  0.00    -0.341 OA
ATOM     19  C   UNL     1      24.339  38.151   7.874  1.00  0.00     0.281 C 
ATOM     20  C   UNL     1      25.485  36.253   9.028  1.00  0.00     0.180 C 
ATOM     21  C   UNL     1      25.629  37.377   8.025  1.00  0.00     0.202 C 
BRANCH  17  22
ATOM     22  C   UNL     1      21.723  36.291   9.268  1.00  0.00     0.191 C 
BRANCH  22  23
ATOM     23  O   UNL     1      21.292  35.000   9.460  1.00  0.00    -0.394 OA
ATOM     24  H   UNL     1      20.943  34.872  10.360  1.00  0.00     0.210 HD
ENDBRANCH  22  23
ENDBRANCH  17  22
BRANCH  19  25
ATOM     25  O   UNL     1      24.271  39.225   8.755  1.00  0.00    -0.350 OA
BRANCH  25  26
ATOM     26  C   UNL     1      25.475  39.871   8.957  1.00  0.00     0.169 C 
BRANCH  26  27
ATOM     27  C   UNL     1      25.718  40.304  10.364  1.00  0.00     0.119 C 
BRANCH  27  28
ATOM     28  N   UNL     1      25.895  39.139  11.214  1.00  0.00    -0.092 NA
ATOM     29  N   UNL     1      27.012  38.968  11.709  1.00  0.00     0.001 N 
ATOM     30  N   UNL     1      28.068  38.783  12.350  1.00  0.00    -0.003 NA
ENDBRANCH  27  28
ENDBRANCH  26  27
ENDBRANCH  25  26
ENDBRANCH  19  25
BRANCH  20  31
ATOM     31  O   UNL     1      26.515  36.194   9.951  1.00  0.00    -0.387 OA
ATOM     32  H   UNL     1      26.261  35.658  10.749  1.00  0.00     0.211 HD
ENDBRANCH  20  31
BRANCH  21  33
ATOM     33  O   UNL     1      26.094  36.970   6.795  1.00  0.00    -0.385 OA
ATOM     34  H   UNL     1      25.533  36.221   6.482  1.00  0.00     0.211 HD
ENDBRANCH  21  33
ENDBRANCH  15  16
ENDBRANCH  10  15
BRANCH  12  35
ATOM     35  O   UNL     1      22.287  35.951  13.799  1.00  0.00    -0.385 OA
ATOM     36  H   UNL     1      22.101  35.427  14.631  1.00  0.00     0.211 HD
ENDBRANCH  12  35
BRANCH  13  37
ATOM     37  O   UNL     1      22.977  32.691  12.812  1.00  0.00    -0.387 OA
ATOM     38  H   UNL     1      22.009  32.647  13.016  1.00  0.00     0.211 HD
ENDBRANCH  13  37
BRANCH  14  39
ATOM     39  O   UNL     1      25.359  33.454  12.063  1.00  0.00    -0.387 OA
ATOM     40  H   UNL     1      24.858  32.639  11.809  1.00  0.00     0.211 HD
ENDBRANCH  14  39
ENDBRANCH   8   9
ENDBRANCH   7   8
ENDBRANCH   1   7
BRANCH   1  41
ATOM     41  C   UNL     1      27.186  34.285  16.515  1.00  0.00     0.364 C 
ATOM     42  O   UNL     1      26.906  33.230  17.133  1.00  0.00    -0.246 OA
BRANCH  41  43
ATOM     43  O   UNL     1      26.650  35.449  17.032  1.00  0.00    -0.477 OA
ATOM     44  H   UNL     1      27.190  36.149  17.538  1.00  0.00     0.296 HD
ENDBRANCH  41  43
ENDBRANCH   1  41
BRANCH   3  45
ATOM     45  O   UNL     1      30.280  37.204  15.966  1.00  0.00    -0.391 OA
ATOM     46  H   UNL     1      30.735  37.453  16.797  1.00  0.00     0.211 HD
ENDBRANCH   3  45
BRANCH   5  47
ATOM     47  C   UNL     1      31.000  32.420  15.982  1.00  0.00     0.176 C 
BRANCH  47  48
ATOM     48  O   UNL     1      31.042  32.146  14.584  1.00  0.00    -0.388 OA
ATOM     49  H   UNL     1      31.270  32.987  14.113  1.00  0.00     0.211 HD
ENDBRANCH  47  48
BRANCH  47  50
ATOM     50  C   UNL     1      30.449  31.131  16.575  1.00  0.00     0.165 C 
BRANCH  50  51
ATOM     51  O   UNL     1      29.398  30.786  15.681  1.00  0.00    -0.388 OA
ATOM     52  H   UNL     1      28.782  30.132  16.139  1.00  0.00     0.211 HD
ENDBRANCH  50  51
BRANCH  50  53
ATOM     53  C   UNL     1      29.815  31.357  17.903  1.00  0.00     0.154 C 
BRANCH  53  54
ATOM     54  N   UNL     1      28.459  30.909  17.933  1.00  0.00    -0.319 N 
ATOM     55  C   UNL     1      27.887  30.093  18.959  1.00  0.00     0.407 C 
ATOM     56  H   UNL     1      27.784  31.179  17.149  1.00  0.00     0.167 HD
ATOM     57  O   UNL     1      28.614  29.727  19.912  1.00  0.00    -0.225 OA
BRANCH  55  58
ATOM     58  O   UNL     1      26.568  29.705  18.933  1.00  0.00    -0.443 OA
BRANCH  58  59
ATOM     59  C   UNL     1      26.154  28.663  18.086  1.00  0.00     0.294 C 
BRANCH  59  60
ATOM     60  C   UNL     1      25.666  29.246  16.817  1.00  0.00     0.121 A 
ATOM     61  C   UNL     1      24.423  28.953  16.242  1.00  0.00     0.144 A 
ATOM     62  N   UNL     1      26.240  30.115  15.972  1.00  0.00    -0.131 NA
ATOM     63  N   UNL     1      24.306  29.646  15.096  1.00  0.00    -0.220 N 
ATOM     64  N   UNL     1      25.420  30.338  14.962  1.00  0.00    -0.062 NA
BRANCH  63  65
ATOM     65  C   UNL     1      23.164  29.581  14.251  1.00  0.00     0.066 A 
ATOM     66  C   UNL     1      23.181  29.208  12.946  1.00  0.00     0.029 A 
ATOM     67  C   UNL     1      21.950  29.922  14.837  1.00  0.00     0.029 A 
ATOM     68  C   UNL     1      21.998  29.176  12.238  1.00  0.00     0.018 A 
ATOM     69  C   UNL     1      20.776  29.885  14.118  1.00  0.00     0.018 A 
ATOM     70  C   UNL     1      20.785  29.507  12.791  1.00  0.00     0.018 A 
ATOM     71  Br  UNL     1      19.170  29.447  11.777  1.00  0.00    -0.051 Br
ENDBRANCH  63  65
ENDBRANCH  59  60
ENDBRANCH  58  59
ENDBRANCH  55  58
ENDBRANCH  53  54
ENDBRANCH  50  53
ENDBRANCH  47  50
ENDBRANCH   5  47
BRANCH   4  72
ATOM     72  N   UNL     1      31.900  35.270  16.505  1.00  0.00    -0.348 N 
ATOM     73  C   UNL     1      33.063  35.804  15.887  1.00  0.00     0.217 C 
ATOM     74  H   UNL     1      31.912  35.125  17.530  1.00  0.00     0.163 HD
ATOM     75  C   UNL     1      34.293  36.165  16.632  1.00  0.00     0.114 C 
ATOM     76  O   UNL     1      33.074  35.991  14.627  1.00  0.00    -0.275 OA
ENDBRANCH   4  72
TORSDOF 30
BEGIN_RES LYS A 131
REMARK  4 active torsions:
REMARK  status: ('A' for Active; 'I' for Inactive)
REMARK    1  A    between atoms: CA   and  CB  
REMARK    2  A    between atoms: CB   and  CG  
REMARK    3  A    between atoms: CG   and  CD  
REMARK    4  A    between atoms: CD   and  CE  
ROOT
ATOM      1  CA  LYS A 131      29.867  25.555  16.977  1.00 20.52     0.186 C 
ENDROOT
BRANCH   1   2
ATOM      2  CB  LYS A 131      28.345  25.722  17.026  1.00 20.94     0.034 C 
BRANCH   2   3
ATOM      3  CG  LYS A 131      27.601  24.403  16.888  1.00 22.96     0.005 C 
BRANCH   3   4
ATOM      4  CD  LYS A 131      26.151  24.528  17.266  1.00 24.33     0.041 C 
BRANCH   4   5
ATOM      5  CE  LYS A 131      25.965  24.104  18.719  1.00 26.91     0.338 C 
ATOM      6  NZ  LYS A 131      25.463  25.238  19.530  1.00 27.40     0.618 N 
ENDBRANCH   4   5
ENDBRANCH   3   4
ENDBRANCH   2   3
ENDBRANCH   1   2
END_RES LYS A 131
BEGIN_RES LYS A 135
REMARK  4 active torsions:
REMARK  status: ('A' for Active; 'I' for Inactive)
REMARK    5  A    between atoms: CA   and  CB  
REMARK    6  A    between atoms: CB   and  CG  
REMARK    7  A    between atoms: CG   and  CD  
REMARK    8  A    between atoms: CD   and  CE  
ROOT
ATOM      7  CA  LYS A 135      33.193  34.663   9.290  1.00 25.02     0.186 C 
ENDROOT
BRANCH   7   8
ATOM      8  CB  LYS A 135      32.060  35.360  10.034  1.00 26.63     0.034 C 
BRANCH   8   9
ATOM      9  CG  LYS A 135      30.712  34.722   9.814  1.00 29.45     0.005 C 
BRANCH   9  10
ATOM     10  CD  LYS A 135      30.479  34.458   8.334  1.00 32.00     0.041 C 
BRANCH  10  11
ATOM     11  CE  LYS A 135      29.053  34.800   7.950  1.00 34.25     0.338 C 
ATOM     12  NZ  LYS A 135      29.005  35.511   6.642  1.00 35.99     0.618 N 
ENDBRANCH  10  11
ENDBRANCH   9  10
ENDBRANCH   8   9
ENDBRANCH   7   8
END_RES LYS A 135
