REMARK VINA RESULT:    -5.064      2.584      7.357
REMARK INTER + INTRA:         -22.951
REMARK INTER:                 -11.704
REMARK INTRA:                 -11.247
REMARK UNBOUND:                -9.598
REMARK SMILES CC(=O)N[C@@H]1[C@@H](O)C[C@](OC[C@H]2O[C@@H](O[C@H]3[C@H](O)[C@@H](O)[C@H](OCCN=[N+]=[N-])O[C@@H]3CO)[C@H](O)[C@@H](O)[C@H]2O)(C(=O)O)O[C@H]1C(O)[C@H](O)CNC(=O)OCc1cn(Cc2ccccc2OC(C)=O)nn1
REMARK SMILES IDX 43 1 42 2 9 3 8 4 41 5 6 6 5 7 10 8 11 9 12 10 14 11 13 12
REMARK SMILES IDX 32 13 34 14 36 15 15 16 16 17 29 18 28 19 21 20 17 21 19 22
REMARK SMILES IDX 30 23 31 24 22 26 23 27 24 28 25 29 26 30 27 31 18 32 20 34
REMARK SMILES IDX 33 36 35 38 37 40 38 42 39 43 40 44 7 46 4 48 2 49 1 51 3 52
REMARK SMILES IDX 44 53 45 55 46 56 47 58 48 59 49 60 50 62 51 63 52 64 53 65
REMARK SMILES IDX 54 66 68 67 55 68 67 69 56 70 57 71 62 72 58 73 61 74 59 75
REMARK SMILES IDX 60 76 63 77 64 78 66 79 65 80
REMARK H PARENT 31 25 18 33 20 35 33 37 35 39 37 41 40 45 7 47 4 50 44 54
REMARK H PARENT 46 57 48 61
REMARK Flexibility Score: inf
ROOT
ATOM      1  C   UNL     1      25.565  37.797   8.262  1.00  0.00     0.176 C 
ENDROOT
BRANCH   1   2
ATOM      2  C   UNL     1      26.005  38.929   7.347  1.00  0.00     0.178 C 
ATOM      3  C   UNL     1      27.829  39.619   6.069  1.00  0.00     0.272 C 
ATOM      4  C   UNL     1      27.024  40.910   6.166  1.00  0.00     0.113 C 
ATOM      5  O   UNL     1      27.327  38.710   7.030  1.00  0.00    -0.332 OA
ATOM      6  C   UNL     1      26.839  41.184   7.649  1.00  0.00     0.145 C 
ATOM      7  C   UNL     1      25.851  40.211   8.167  1.00  0.00     0.142 C 
BRANCH   3   8
ATOM      8  O   UNL     1      29.149  39.783   6.366  1.00  0.00    -0.338 OA
BRANCH   8   9
ATOM      9  C   UNL     1      29.925  40.512   5.523  1.00  0.00     0.199 C 
BRANCH   9  10
ATOM     10  C   UNL     1      31.197  40.914   6.289  1.00  0.00     0.179 C 
ATOM     11  C   UNL     1      32.582  40.200   7.979  1.00  0.00     0.282 C 
ATOM     12  O   UNL     1      31.471  39.839   7.141  1.00  0.00    -0.341 OA
ATOM     13  C   UNL     1      33.773  40.124   7.091  1.00  0.00     0.202 C 
ATOM     14  C   UNL     1      33.616  41.260   6.065  1.00  0.00     0.179 C 
ATOM     15  C   UNL     1      32.318  41.174   5.335  1.00  0.00     0.177 C 
BRANCH  11  16
ATOM     16  O   UNL     1      32.505  39.315   9.027  1.00  0.00    -0.341 OA
BRANCH  16  17
ATOM     17  C   UNL     1      31.337  39.518   9.783  1.00  0.00     0.184 C 
ATOM     18  C   UNL     1      31.584  39.740  11.229  1.00  0.00     0.178 C 
ATOM     19  O   UNL     1      30.729  38.998  12.051  1.00  0.00    -0.341 OA
ATOM     20  C   UNL     1      29.393  39.051  11.677  1.00  0.00     0.281 C 
ATOM     21  C   UNL     1      30.556  38.152   9.736  1.00  0.00     0.180 C 
ATOM     22  C   UNL     1      29.190  38.473  10.277  1.00  0.00     0.202 C 
BRANCH  18  23
ATOM     23  C   UNL     1      31.684  41.166  11.671  1.00  0.00     0.191 C 
BRANCH  23  24
ATOM     24  O   UNL     1      31.636  41.220  13.056  1.00  0.00    -0.394 OA
ATOM     25  H   UNL     1      30.932  41.834  13.351  1.00  0.00     0.210 HD
ENDBRANCH  23  24
ENDBRANCH  18  23
BRANCH  20  26
ATOM     26  O   UNL     1      28.929  40.319  11.669  1.00  0.00    -0.350 OA
BRANCH  26  27
ATOM     27  C   UNL     1      27.614  40.586  11.775  1.00  0.00     0.169 C 
BRANCH  27  28
ATOM     28  C   UNL     1      27.189  41.942  12.210  1.00  0.00     0.119 C 
BRANCH  28  29
ATOM     29  N   UNL     1      27.490  42.919  11.219  1.00  0.00    -0.092 NA
ATOM     30  N   UNL     1      26.663  43.355  10.449  1.00  0.00     0.001 N 
ATOM     31  N   UNL     1      25.700  43.908   9.910  1.00  0.00    -0.003 NA
ENDBRANCH  28  29
ENDBRANCH  27  28
ENDBRANCH  26  27
ENDBRANCH  20  26
BRANCH  21  32
ATOM     32  O   UNL     1      30.553  37.674   8.449  1.00  0.00    -0.387 OA
ATOM     33  H   UNL     1      29.647  37.821   8.028  1.00  0.00     0.211 HD
ENDBRANCH  21  32
BRANCH  22  34
ATOM     34  O   UNL     1      28.342  37.388  10.257  1.00  0.00    -0.385 OA
ATOM     35  H   UNL     1      28.087  37.196  11.204  1.00  0.00     0.211 HD
ENDBRANCH  22  34
ENDBRANCH  16  17
ENDBRANCH  11  16
BRANCH  13  36
ATOM     36  O   UNL     1      34.969  40.392   7.737  1.00  0.00    -0.385 OA
ATOM     37  H   UNL     1      34.975  40.168   8.691  1.00  0.00     0.211 HD
ENDBRANCH  13  36
BRANCH  14  38
ATOM     38  O   UNL     1      34.711  41.275   5.199  1.00  0.00    -0.387 OA
ATOM     39  H   UNL     1      34.341  41.136   4.281  1.00  0.00     0.211 HD
ENDBRANCH  14  38
BRANCH  15  40
ATOM     40  O   UNL     1      32.434  40.189   4.356  1.00  0.00    -0.387 OA
ATOM     41  H   UNL     1      32.822  39.356   4.685  1.00  0.00     0.211 HD
ENDBRANCH  15  40
ENDBRANCH   9  10
ENDBRANCH   8   9
ENDBRANCH   3   8
BRANCH   3  42
ATOM     42  C   UNL     1      27.564  39.077   4.718  1.00  0.00     0.364 C 
ATOM     43  O   UNL     1      27.230  39.788   3.774  1.00  0.00    -0.246 OA
BRANCH  42  44
ATOM     44  O   UNL     1      27.702  37.702   4.513  1.00  0.00    -0.477 OA
ATOM     45  H   UNL     1      28.436  37.158   4.990  1.00  0.00     0.296 HD
ENDBRANCH  42  44
ENDBRANCH   3  42
BRANCH   6  46
ATOM     46  O   UNL     1      28.075  40.908   8.241  1.00  0.00    -0.391 OA
ATOM     47  H   UNL     1      28.191  41.326   9.127  1.00  0.00     0.211 HD
ENDBRANCH   6  46
BRANCH   7  48
ATOM     48  N   UNL     1      24.505  40.605   8.222  1.00  0.00    -0.348 N 
ATOM     49  C   UNL     1      23.791  40.851   9.428  1.00  0.00     0.217 C 
ATOM     50  H   UNL     1      23.990  40.726   7.303  1.00  0.00     0.163 HD
ATOM     51  C   UNL     1      22.379  41.264   9.445  1.00  0.00     0.114 C 
ATOM     52  O   UNL     1      24.420  40.703  10.485  1.00  0.00    -0.275 OA
ENDBRANCH   7  48
ENDBRANCH   1   2
BRANCH   1  53
ATOM     53  O   UNL     1      25.625  38.287   9.554  1.00  0.00    -0.388 OA
ATOM     54  H   UNL     1      24.881  38.874   9.805  1.00  0.00     0.211 HD
ENDBRANCH   1  53
BRANCH   1  55
ATOM     55  C   UNL     1      24.260  37.185   7.877  1.00  0.00     0.165 C 
BRANCH  55  56
ATOM     56  O   UNL     1      23.562  38.119   7.106  1.00  0.00    -0.388 OA
ATOM     57  H   UNL     1      22.657  38.257   7.425  1.00  0.00     0.211 HD
ENDBRANCH  55  56
BRANCH  55  58
ATOM     58  C   UNL     1      23.440  36.742   9.064  1.00  0.00     0.154 C 
BRANCH  58  59
ATOM     59  N   UNL     1      23.966  35.616   9.763  1.00  0.00    -0.319 N 
ATOM     60  C   UNL     1      24.333  35.625  11.134  1.00  0.00     0.407 C 
ATOM     61  H   UNL     1      24.099  34.705   9.246  1.00  0.00     0.167 HD
ATOM     62  O   UNL     1      24.189  36.698  11.771  1.00  0.00    -0.225 OA
BRANCH  60  63
ATOM     63  O   UNL     1      24.839  34.532  11.796  1.00  0.00    -0.443 OA
BRANCH  63  64
ATOM     64  C   UNL     1      25.387  34.615  13.111  1.00  0.00     0.294 C 
BRANCH  64  65
ATOM     65  C   UNL     1      26.792  35.047  13.083  1.00  0.00     0.120 A 
ATOM     66  C   UNL     1      27.418  35.694  14.122  1.00  0.00     0.138 A 
ATOM     67  N   UNL     1      27.715  34.920  12.122  1.00  0.00    -0.132 NA
ATOM     68  N   UNL     1      28.683  35.941  13.778  1.00  0.00    -0.248 N 
ATOM     69  N   UNL     1      28.832  35.449  12.533  1.00  0.00    -0.067 NA
BRANCH  68  70
ATOM     70  C   UNL     1      29.742  36.604  14.514  1.00  0.00     0.185 C 
BRANCH  70  71
ATOM     71  C   UNL     1      31.012  35.878  14.416  1.00  0.00     0.016 A 
ATOM     72  C   UNL     1      31.354  34.902  15.287  1.00  0.00     0.135 A 
ATOM     73  C   UNL     1      31.860  36.230  13.362  1.00  0.00     0.009 A 
ATOM     74  C   UNL     1      32.574  34.245  15.119  1.00  0.00     0.047 A 
ATOM     75  C   UNL     1      33.056  35.579  13.207  1.00  0.00     0.001 A 
ATOM     76  C   UNL     1      33.423  34.582  14.082  1.00  0.00     0.004 A 
BRANCH  72  77
ATOM     77  O   UNL     1      30.552  34.521  16.343  1.00  0.00    -0.426 OA
BRANCH  77  78
ATOM     78  C   UNL     1      30.119  33.192  16.389  1.00  0.00     0.308 C 
ATOM     79  O   UNL     1      30.515  32.462  17.324  1.00  0.00    -0.252 OA
ATOM     80  C   UNL     1      29.218  32.681  15.352  1.00  0.00     0.139 C 
ENDBRANCH  77  78
ENDBRANCH  72  77
ENDBRANCH  70  71
ENDBRANCH  68  70
ENDBRANCH  64  65
ENDBRANCH  63  64
ENDBRANCH  60  63
ENDBRANCH  58  59
ENDBRANCH  55  58
ENDBRANCH   1  55
TORSDOF 33
BEGIN_RES LYS A 131
REMARK  4 active torsions:
REMARK  status: ('A' for Active; 'I' for Inactive)
REMARK    1  A    between atoms: CA   and  CB  
REMARK    2  A    between atoms: CB   and  CG  
REMARK    3  A    between atoms: CG   and  CD  
REMARK    4  A    between atoms: CD   and  CE  
ROOT
ATOM      1  CA  LYS A 131      29.867  25.555  16.977  1.00 20.52     0.186 C 
ENDROOT
BRANCH   1   2
ATOM      2  CB  LYS A 131      28.345  25.722  17.026  1.00 20.94     0.034 C 
BRANCH   2   3
ATOM      3  CG  LYS A 131      27.602  24.398  16.936  1.00 22.96     0.005 C 
BRANCH   3   4
ATOM      4  CD  LYS A 131      26.523  24.282  17.976  1.00 24.33     0.041 C 
BRANCH   4   5
ATOM      5  CE  LYS A 131      25.268  23.688  17.343  1.00 26.91     0.338 C 
ATOM      6  NZ  LYS A 131      24.271  23.350  18.387  1.00 27.40     0.618 N 
ENDBRANCH   4   5
ENDBRANCH   3   4
ENDBRANCH   2   3
ENDBRANCH   1   2
END_RES LYS A 131
BEGIN_RES LYS A 135
REMARK  4 active torsions:
REMARK  status: ('A' for Active; 'I' for Inactive)
REMARK    5  A    between atoms: CA   and  CB  
REMARK    6  A    between atoms: CB   and  CG  
REMARK    7  A    between atoms: CG   and  CD  
REMARK    8  A    between atoms: CD   and  CE  
ROOT
ATOM      7  CA  LYS A 135      33.193  34.663   9.290  1.00 25.02     0.186 C 
ENDROOT
BRANCH   7   8
ATOM      8  CB  LYS A 135      32.060  35.360  10.034  1.00 26.63     0.034 C 
BRANCH   8   9
ATOM      9  CG  LYS A 135      30.748  34.621   9.963  1.00 29.45     0.005 C 
BRANCH   9  10
ATOM     10  CD  LYS A 135      30.341  34.388   8.517  1.00 32.00     0.041 C 
BRANCH  10  11
ATOM     11  CE  LYS A 135      28.835  34.484   8.365  1.00 34.25     0.338 C 
ATOM     12  NZ  LYS A 135      28.467  35.305   7.178  1.00 35.99     0.618 N 
ENDBRANCH  10  11
ENDBRANCH   9  10
ENDBRANCH   8   9
ENDBRANCH   7   8
END_RES LYS A 135
