REMARK VINA RESULT:    -3.649      3.328      8.083
REMARK INTER + INTRA:         -21.661
REMARK INTER:                  -8.693
REMARK INTRA:                 -12.968
REMARK UNBOUND:               -12.359
REMARK SMILES CC(=O)N[C@@H]1[C@@H](O)C[C@](OC[C@H]2O[C@@H](O[C@H]3[C@H](O)[C@@H](O)[C@H](OCCN=[N+]=[N-])O[C@@H]3CO)[C@H](O)[C@@H](O)[C@H]2O)(C(=O)O)O[C@H]1C(O)[C@H](O)CNC(=O)OCc1cn(CC(=O)O)nn1
REMARK SMILES IDX 9 1 8 2 6 3 5 4 42 5 41 6 10 7 11 8 12 9 14 10 13 11 32 12
REMARK SMILES IDX 34 13 36 14 15 15 16 16 29 17 28 18 21 19 17 20 19 21 30 22
REMARK SMILES IDX 31 23 22 25 23 26 24 27 25 28 26 29 27 30 18 31 20 33 33 35
REMARK SMILES IDX 35 37 37 39 38 41 39 42 40 43 7 45 43 47 44 48 45 50 46 51
REMARK SMILES IDX 47 53 48 54 49 55 50 57 51 58 52 59 53 60 54 61 61 62 55 63
REMARK SMILES IDX 60 64 56 65 57 66 58 67 59 68 4 70 2 71 1 73 3 74
REMARK H PARENT 31 24 18 32 20 34 33 36 35 38 37 40 40 44 7 46 44 49 46 52
REMARK H PARENT 48 56 59 69 4 72
REMARK Flexibility Score: inf
ROOT
ATOM      1  C   UNL     1      24.593  37.150   8.646  1.00  0.00     0.272 C 
ATOM      2  C   UNL     1      23.260  37.633   8.151  1.00  0.00     0.113 C 
ATOM      3  C   UNL     1      22.961  39.061   8.341  1.00  0.00     0.145 C 
ATOM      4  C   UNL     1      23.829  39.800   9.353  1.00  0.00     0.142 C 
ATOM      5  C   UNL     1      24.373  38.758  10.280  1.00  0.00     0.178 C 
ATOM      6  O   UNL     1      25.259  38.029   9.442  1.00  0.00    -0.332 OA
ENDROOT
BRANCH   1   7
ATOM      7  O   UNL     1      25.442  36.783   7.579  1.00  0.00    -0.338 OA
BRANCH   7   8
ATOM      8  C   UNL     1      26.725  37.222   7.692  1.00  0.00     0.199 C 
BRANCH   8   9
ATOM      9  C   UNL     1      26.925  38.452   6.792  1.00  0.00     0.179 C 
ATOM     10  C   UNL     1      28.662  39.964   6.645  1.00  0.00     0.282 C 
ATOM     11  O   UNL     1      27.573  39.477   7.435  1.00  0.00    -0.341 OA
ATOM     12  C   UNL     1      29.624  38.835   6.599  1.00  0.00     0.202 C 
ATOM     13  C   UNL     1      29.049  37.832   5.584  1.00  0.00     0.179 C 
ATOM     14  C   UNL     1      27.562  38.035   5.481  1.00  0.00     0.177 C 
BRANCH  10  15
ATOM     15  O   UNL     1      29.084  41.133   7.204  1.00  0.00    -0.341 OA
BRANCH  15  16
ATOM     16  C   UNL     1      28.507  42.272   6.640  1.00  0.00     0.184 C 
ATOM     17  C   UNL     1      29.602  43.242   6.311  1.00  0.00     0.178 C 
ATOM     18  O   UNL     1      29.160  44.535   6.384  1.00  0.00    -0.341 OA
ATOM     19  C   UNL     1      27.877  44.780   5.964  1.00  0.00     0.281 C 
ATOM     20  C   UNL     1      27.553  42.940   7.607  1.00  0.00     0.180 C 
ATOM     21  C   UNL     1      26.857  44.059   6.828  1.00  0.00     0.202 C 
BRANCH  17  22
ATOM     22  C   UNL     1      30.118  42.960   4.912  1.00  0.00     0.191 C 
BRANCH  22  23
ATOM     23  O   UNL     1      31.009  41.891   5.038  1.00  0.00    -0.394 OA
ATOM     24  H   UNL     1      30.529  41.056   5.233  1.00  0.00     0.210 HD
ENDBRANCH  22  23
ENDBRANCH  17  22
BRANCH  19  25
ATOM     25  O   UNL     1      27.733  44.500   4.633  1.00  0.00    -0.350 OA
BRANCH  25  26
ATOM     26  C   UNL     1      26.470  44.106   4.267  1.00  0.00     0.169 C 
BRANCH  26  27
ATOM     27  C   UNL     1      26.425  43.094   3.153  1.00  0.00     0.119 C 
BRANCH  27  28
ATOM     28  N   UNL     1      25.408  42.072   3.411  1.00  0.00    -0.092 NA
ATOM     29  N   UNL     1      25.229  41.784   4.611  1.00  0.00     0.001 N 
ATOM     30  N   UNL     1      25.061  41.028   5.587  1.00  0.00    -0.003 NA
ENDBRANCH  27  28
ENDBRANCH  26  27
ENDBRANCH  25  26
ENDBRANCH  19  25
BRANCH  20  31
ATOM     31  O   UNL     1      26.571  42.103   8.077  1.00  0.00    -0.387 OA
ATOM     32  H   UNL     1      26.136  42.384   8.898  1.00  0.00     0.211 HD
ENDBRANCH  20  31
BRANCH  21  33
ATOM     33  O   UNL     1      26.252  44.962   7.682  1.00  0.00    -0.385 OA
ATOM     34  H   UNL     1      26.803  45.131   8.489  1.00  0.00     0.211 HD
ENDBRANCH  21  33
ENDBRANCH  15  16
ENDBRANCH  10  15
BRANCH  12  35
ATOM     35  O   UNL     1      30.933  39.135   6.355  1.00  0.00    -0.385 OA
ATOM     36  H   UNL     1      31.223  39.876   6.911  1.00  0.00     0.211 HD
ENDBRANCH  12  35
BRANCH  13  37
ATOM     37  O   UNL     1      29.345  36.564   6.061  1.00  0.00    -0.387 OA
ATOM     38  H   UNL     1      28.863  36.346   6.907  1.00  0.00     0.211 HD
ENDBRANCH  13  37
BRANCH  14  39
ATOM     39  O   UNL     1      27.021  36.802   5.118  1.00  0.00    -0.387 OA
ATOM     40  H   UNL     1      26.049  36.848   4.960  1.00  0.00     0.211 HD
ENDBRANCH  14  39
ENDBRANCH   8   9
ENDBRANCH   7   8
ENDBRANCH   1   7
BRANCH   1  41
ATOM     41  C   UNL     1      24.374  35.898   9.406  1.00  0.00     0.364 C 
ATOM     42  O   UNL     1      23.338  35.221   9.267  1.00  0.00    -0.246 OA
BRANCH  41  43
ATOM     43  O   UNL     1      25.311  35.419  10.306  1.00  0.00    -0.477 OA
ATOM     44  H   UNL     1      26.226  35.865  10.448  1.00  0.00     0.296 HD
ENDBRANCH  41  43
ENDBRANCH   1  41
BRANCH   3  45
ATOM     45  O   UNL     1      22.823  39.785   7.152  1.00  0.00    -0.391 OA
ATOM     46  H   UNL     1      23.121  40.708   7.216  1.00  0.00     0.211 HD
ENDBRANCH   3  45
BRANCH   5  47
ATOM     47  C   UNL     1      25.127  39.229  11.477  1.00  0.00     0.176 C 
BRANCH  47  48
ATOM     48  O   UNL     1      24.112  39.715  12.366  1.00  0.00    -0.388 OA
ATOM     49  H   UNL     1      24.203  39.255  13.249  1.00  0.00     0.211 HD
ENDBRANCH  47  48
BRANCH  47  50
ATOM     50  C   UNL     1      26.083  40.368  11.203  1.00  0.00     0.165 C 
BRANCH  50  51
ATOM     51  O   UNL     1      27.083  39.917  10.302  1.00  0.00    -0.388 OA
ATOM     52  H   UNL     1      27.301  40.672   9.713  1.00  0.00     0.211 HD
ENDBRANCH  50  51
BRANCH  50  53
ATOM     53  C   UNL     1      26.729  40.904  12.420  1.00  0.00     0.154 C 
BRANCH  53  54
ATOM     54  N   UNL     1      27.636  39.971  13.023  1.00  0.00    -0.319 N 
ATOM     55  C   UNL     1      27.367  39.084  14.090  1.00  0.00     0.407 C 
ATOM     56  H   UNL     1      28.654  39.891  12.662  1.00  0.00     0.167 HD
ATOM     57  O   UNL     1      26.261  39.043  14.634  1.00  0.00    -0.225 OA
BRANCH  55  58
ATOM     58  O   UNL     1      28.337  38.207  14.589  1.00  0.00    -0.443 OA
BRANCH  58  59
ATOM     59  C   UNL     1      28.700  37.038  13.875  1.00  0.00     0.294 C 
BRANCH  59  60
ATOM     60  C   UNL     1      29.149  37.386  12.491  1.00  0.00     0.120 A 
ATOM     61  C   UNL     1      30.402  37.851  12.120  1.00  0.00     0.139 A 
ATOM     62  N   UNL     1      28.440  37.318  11.355  1.00  0.00    -0.132 NA
ATOM     63  N   UNL     1      30.399  38.044  10.788  1.00  0.00    -0.241 N 
ATOM     64  N   UNL     1      29.196  37.713  10.346  1.00  0.00    -0.066 NA
BRANCH  63  65
ATOM     65  C   UNL     1      31.502  38.525   9.950  1.00  0.00     0.268 C 
BRANCH  65  66
ATOM     66  C   UNL     1      31.214  39.921   9.575  1.00  0.00     0.325 C 
ATOM     67  O   UNL     1      32.034  40.573   8.913  1.00  0.00    -0.250 OA
BRANCH  66  68
ATOM     68  O   UNL     1      30.025  40.502   9.965  1.00  0.00    -0.480 OA
ATOM     69  H   UNL     1      29.138  40.055   9.864  1.00  0.00     0.296 HD
ENDBRANCH  66  68
ENDBRANCH  65  66
ENDBRANCH  63  65
ENDBRANCH  59  60
ENDBRANCH  58  59
ENDBRANCH  55  58
ENDBRANCH  53  54
ENDBRANCH  50  53
ENDBRANCH  47  50
ENDBRANCH   5  47
BRANCH   4  70
ATOM     70  N   UNL     1      23.134  40.901   9.925  1.00  0.00    -0.348 N 
ATOM     71  C   UNL     1      23.198  42.225   9.370  1.00  0.00     0.217 C 
ATOM     72  H   UNL     1      22.536  40.779  10.766  1.00  0.00     0.163 HD
ATOM     73  C   UNL     1      22.439  43.312  10.032  1.00  0.00     0.114 C 
ATOM     74  O   UNL     1      23.879  42.464   8.346  1.00  0.00    -0.275 OA
ENDBRANCH   4  70
TORSDOF 32
BEGIN_RES LYS A 131
REMARK  4 active torsions:
REMARK  status: ('A' for Active; 'I' for Inactive)
REMARK    1  A    between atoms: CA   and  CB  
REMARK    2  A    between atoms: CB   and  CG  
REMARK    3  A    between atoms: CG   and  CD  
REMARK    4  A    between atoms: CD   and  CE  
ROOT
ATOM      1  CA  LYS A 131      29.867  25.555  16.977  1.00 20.52     0.186 C 
ENDROOT
BRANCH   1   2
ATOM      2  CB  LYS A 131      28.345  25.722  17.026  1.00 20.94     0.034 C 
BRANCH   2   3
ATOM      3  CG  LYS A 131      27.599  24.477  16.570  1.00 22.96     0.005 C 
BRANCH   3   4
ATOM      4  CD  LYS A 131      26.719  23.916  17.652  1.00 24.33     0.041 C 
BRANCH   4   5
ATOM      5  CE  LYS A 131      25.260  24.230  17.335  1.00 26.91     0.338 C 
ATOM      6  NZ  LYS A 131      24.740  25.267  18.258  1.00 27.40     0.618 N 
ENDBRANCH   4   5
ENDBRANCH   3   4
ENDBRANCH   2   3
ENDBRANCH   1   2
END_RES LYS A 131
BEGIN_RES LYS A 135
REMARK  4 active torsions:
REMARK  status: ('A' for Active; 'I' for Inactive)
REMARK    5  A    between atoms: CA   and  CB  
REMARK    6  A    between atoms: CB   and  CG  
REMARK    7  A    between atoms: CG   and  CD  
REMARK    8  A    between atoms: CD   and  CE  
ROOT
ATOM      7  CA  LYS A 135      33.193  34.663   9.290  1.00 25.02     0.186 C 
ENDROOT
BRANCH   7   8
ATOM      8  CB  LYS A 135      32.060  35.360  10.034  1.00 26.63     0.034 C 
BRANCH   8   9
ATOM      9  CG  LYS A 135      30.778  34.568  10.058  1.00 29.45     0.005 C 
BRANCH   9  10
ATOM     10  CD  LYS A 135      30.281  34.309   8.645  1.00 32.00     0.041 C 
BRANCH  10  11
ATOM     11  CE  LYS A 135      28.770  34.429   8.582  1.00 34.25     0.338 C 
ATOM     12  NZ  LYS A 135      28.129  33.744   9.739  1.00 35.99     0.618 N 
ENDBRANCH  10  11
ENDBRANCH   9  10
ENDBRANCH   8   9
ENDBRANCH   7   8
END_RES LYS A 135
