REMARK VINA RESULT:    -4.069      4.710      8.739
REMARK INTER + INTRA:         -23.053
REMARK INTER:                 -11.956
REMARK INTRA:                 -11.097
REMARK UNBOUND:               -13.037
REMARK SMILES CC(=O)N[C@@H]1[C@@H](O)C[C@](OC[C@H]2O[C@@H](O[C@H]3[C@H](O)[C@@H](O)[C@H](OCCN=[N+]=[N-])O[C@@H]3CO)[C@H](O)[C@@H](O)[C@H]2O)(C(=O)O)O[C@H]1C(O)[C@H](O)CNC(=O)OCc1cn([C@H]2C[C@H]3CC[C@@H](C2)N3C)nn1
REMARK SMILES IDX 9 1 8 2 6 3 5 4 42 5 41 6 10 7 11 8 12 9 14 10 13 11 32 12
REMARK SMILES IDX 34 13 36 14 15 15 16 16 29 17 28 18 21 19 17 20 19 21 30 22
REMARK SMILES IDX 31 23 22 25 23 26 24 27 25 28 26 29 27 30 18 31 20 33 33 35
REMARK SMILES IDX 35 37 37 39 38 41 39 42 40 43 7 45 43 47 44 48 45 50 46 51
REMARK SMILES IDX 47 53 48 54 49 55 50 57 51 58 52 59 53 60 54 61 66 62 55 63
REMARK SMILES IDX 65 64 56 65 62 66 57 67 61 68 58 69 63 70 60 71 59 72 64 73
REMARK SMILES IDX 4 74 2 75 1 77 3 78
REMARK H PARENT 31 24 18 32 20 34 33 36 35 38 37 40 40 44 7 46 44 49 46 52
REMARK H PARENT 48 56 4 76
REMARK Flexibility Score: inf
ROOT
ATOM      1  C   UNL     1      23.374  30.511  14.112  1.00  0.00     0.272 C 
ATOM      2  C   UNL     1      24.405  31.132  13.186  1.00  0.00     0.113 C 
ATOM      3  C   UNL     1      24.554  32.617  13.318  1.00  0.00     0.145 C 
ATOM      4  C   UNL     1      23.240  33.190  13.700  1.00  0.00     0.142 C 
ATOM      5  C   UNL     1      22.156  32.260  13.148  1.00  0.00     0.178 C 
ATOM      6  O   UNL     1      22.185  31.186  14.130  1.00  0.00    -0.332 OA
ENDROOT
BRANCH   1   7
ATOM      7  O   UNL     1      23.950  30.347  15.336  1.00  0.00    -0.338 OA
BRANCH   7   8
ATOM      8  C   UNL     1      25.075  29.617  15.466  1.00  0.00     0.199 C 
BRANCH   8   9
ATOM      9  C   UNL     1      26.120  30.059  16.420  1.00  0.00     0.179 C 
ATOM     10  C   UNL     1      28.288  30.690  16.378  1.00  0.00     0.282 C 
ATOM     11  O   UNL     1      27.069  30.862  15.710  1.00  0.00    -0.341 OA
ATOM     12  C   UNL     1      28.228  30.983  17.817  1.00  0.00     0.202 C 
ATOM     13  C   UNL     1      26.900  31.106  18.462  1.00  0.00     0.179 C 
ATOM     14  C   UNL     1      25.705  30.946  17.548  1.00  0.00     0.177 C 
BRANCH  10  15
ATOM     15  O   UNL     1      29.209  31.448  15.696  1.00  0.00    -0.341 OA
BRANCH  15  16
ATOM     16  C   UNL     1      29.146  32.802  16.035  1.00  0.00     0.184 C 
ATOM     17  C   UNL     1      28.927  33.725  14.883  1.00  0.00     0.178 C 
ATOM     18  O   UNL     1      29.994  33.993  14.087  1.00  0.00    -0.341 OA
ATOM     19  C   UNL     1      31.156  34.234  14.734  1.00  0.00     0.281 C 
ATOM     20  C   UNL     1      30.456  33.094  16.733  1.00  0.00     0.180 C 
ATOM     21  C   UNL     1      31.513  33.050  15.632  1.00  0.00     0.202 C 
BRANCH  17  22
ATOM     22  C   UNL     1      28.130  34.965  15.308  1.00  0.00     0.191 C 
BRANCH  22  23
ATOM     23  O   UNL     1      26.915  34.671  15.884  1.00  0.00    -0.394 OA
ATOM     24  H   UNL     1      26.878  33.766  16.260  1.00  0.00     0.210 HD
ENDBRANCH  22  23
ENDBRANCH  17  22
BRANCH  19  25
ATOM     25  O   UNL     1      31.302  35.431  15.368  1.00  0.00    -0.350 OA
BRANCH  25  26
ATOM     26  C   UNL     1      32.192  36.327  14.861  1.00  0.00     0.169 C 
BRANCH  26  27
ATOM     27  C   UNL     1      31.526  37.466  14.168  1.00  0.00     0.119 C 
BRANCH  27  28
ATOM     28  N   UNL     1      31.483  37.265  12.713  1.00  0.00    -0.092 NA
ATOM     29  N   UNL     1      30.443  37.523  12.081  1.00  0.00     0.001 N 
ATOM     30  N   UNL     1      29.594  38.272  11.560  1.00  0.00    -0.003 NA
ENDBRANCH  27  28
ENDBRANCH  26  27
ENDBRANCH  25  26
ENDBRANCH  19  25
BRANCH  20  31
ATOM     31  O   UNL     1      30.495  34.322  17.349  1.00  0.00    -0.387 OA
ATOM     32  H   UNL     1      29.632  34.762  17.391  1.00  0.00     0.211 HD
ENDBRANCH  20  31
BRANCH  21  33
ATOM     33  O   UNL     1      31.431  31.865  14.906  1.00  0.00    -0.385 OA
ATOM     34  H   UNL     1      30.465  31.698  14.738  1.00  0.00     0.211 HD
ENDBRANCH  21  33
ENDBRANCH  15  16
ENDBRANCH  10  15
BRANCH  12  35
ATOM     35  O   UNL     1      28.933  29.949  18.485  1.00  0.00    -0.385 OA
ATOM     36  H   UNL     1      29.318  30.249  19.336  1.00  0.00     0.211 HD
ENDBRANCH  12  35
BRANCH  13  37
ATOM     37  O   UNL     1      26.749  32.367  19.090  1.00  0.00    -0.387 OA
ATOM     38  H   UNL     1      27.491  32.444  19.772  1.00  0.00     0.211 HD
ENDBRANCH  13  37
BRANCH  14  39
ATOM     39  O   UNL     1      25.431  32.242  17.049  1.00  0.00    -0.387 OA
ATOM     40  H   UNL     1      24.424  32.288  17.069  1.00  0.00     0.211 HD
ENDBRANCH  14  39
ENDBRANCH   8   9
ENDBRANCH   7   8
ENDBRANCH   1   7
BRANCH   1  41
ATOM     41  C   UNL     1      23.099  29.175  13.494  1.00  0.00     0.364 C 
ATOM     42  O   UNL     1      23.618  28.829  12.437  1.00  0.00    -0.246 OA
BRANCH  41  43
ATOM     43  O   UNL     1      22.227  28.272  14.116  1.00  0.00    -0.477 OA
ATOM     44  H   UNL     1      21.326  28.104  13.648  1.00  0.00     0.296 HD
ENDBRANCH  41  43
ENDBRANCH   1  41
BRANCH   3  45
ATOM     45  O   UNL     1      25.543  32.831  14.307  1.00  0.00    -0.391 OA
ATOM     46  H   UNL     1      26.360  33.212  13.895  1.00  0.00     0.211 HD
ENDBRANCH   3  45
BRANCH   5  47
ATOM     47  C   UNL     1      20.789  32.816  13.178  1.00  0.00     0.176 C 
BRANCH  47  48
ATOM     48  O   UNL     1      20.555  33.228  14.561  1.00  0.00    -0.388 OA
ATOM     49  H   UNL     1      21.394  33.062  15.060  1.00  0.00     0.211 HD
ENDBRANCH  47  48
BRANCH  47  50
ATOM     50  C   UNL     1      19.659  31.805  13.053  1.00  0.00     0.165 C 
BRANCH  50  51
ATOM     51  O   UNL     1      20.125  30.826  12.142  1.00  0.00    -0.388 OA
ATOM     52  H   UNL     1      19.841  31.034  11.217  1.00  0.00     0.211 HD
ENDBRANCH  50  51
BRANCH  50  53
ATOM     53  C   UNL     1      18.335  32.303  12.633  1.00  0.00     0.154 C 
BRANCH  53  54
ATOM     54  N   UNL     1      18.572  33.552  11.880  1.00  0.00    -0.319 N 
ATOM     55  C   UNL     1      18.200  33.674  10.518  1.00  0.00     0.407 C 
ATOM     56  H   UNL     1      19.022  34.345  12.370  1.00  0.00     0.167 HD
ATOM     57  O   UNL     1      17.638  32.686   9.947  1.00  0.00    -0.225 OA
BRANCH  55  58
ATOM     58  O   UNL     1      18.441  34.848   9.823  1.00  0.00    -0.443 OA
BRANCH  58  59
ATOM     59  C   UNL     1      19.579  34.913   8.994  1.00  0.00     0.294 C 
BRANCH  59  60
ATOM     60  C   UNL     1      20.788  35.401   9.687  1.00  0.00     0.120 A 
ATOM     61  C   UNL     1      21.942  35.817   9.055  1.00  0.00     0.138 A 
ATOM     62  N   UNL     1      21.034  35.524  10.995  1.00  0.00    -0.132 NA
ATOM     63  N   UNL     1      22.848  36.175   9.972  1.00  0.00    -0.249 N 
ATOM     64  N   UNL     1      22.275  35.991  11.162  1.00  0.00    -0.067 NA
BRANCH  63  65
ATOM     65  C   UNL     1      24.187  36.656   9.662  1.00  0.00     0.112 C 
ATOM     66  C   UNL     1      24.945  35.508   9.088  1.00  0.00     0.046 C 
ATOM     67  C   UNL     1      24.763  37.269  10.896  1.00  0.00     0.046 C 
ATOM     68  C   UNL     1      26.343  35.359   9.597  1.00  0.00     0.058 C 
ATOM     69  C   UNL     1      26.210  36.974  11.144  1.00  0.00     0.058 C 
ATOM     70  N   UNL     1      26.932  36.615   9.943  1.00  0.00    -0.300 NA
ATOM     71  C   UNL     1      26.297  34.630  10.938  1.00  0.00     0.021 C 
ATOM     72  C   UNL     1      26.304  35.718  11.985  1.00  0.00     0.021 C 
ATOM     73  C   UNL     1      26.856  37.627   8.917  1.00  0.00     0.105 C 
ENDBRANCH  63  65
ENDBRANCH  59  60
ENDBRANCH  58  59
ENDBRANCH  55  58
ENDBRANCH  53  54
ENDBRANCH  50  53
ENDBRANCH  47  50
ENDBRANCH   5  47
BRANCH   4  74
ATOM     74  N   UNL     1      23.079  34.575  13.565  1.00  0.00    -0.348 N 
ATOM     75  C   UNL     1      23.491  35.508  14.578  1.00  0.00     0.217 C 
ATOM     76  H   UNL     1      22.679  34.996  12.697  1.00  0.00     0.163 HD
ATOM     77  C   UNL     1      23.289  36.975  14.335  1.00  0.00     0.114 C 
ATOM     78  O   UNL     1      24.006  35.127  15.635  1.00  0.00    -0.275 OA
ENDBRANCH   4  74
TORSDOF 30
BEGIN_RES LYS A 131
REMARK  4 active torsions:
REMARK  status: ('A' for Active; 'I' for Inactive)
REMARK    1  A    between atoms: CA   and  CB  
REMARK    2  A    between atoms: CB   and  CG  
REMARK    3  A    between atoms: CG   and  CD  
REMARK    4  A    between atoms: CD   and  CE  
ROOT
ATOM      1  CA  LYS A 131      29.867  25.555  16.977  1.00 20.52     0.186 C 
ENDROOT
BRANCH   1   2
ATOM      2  CB  LYS A 131      28.345  25.722  17.026  1.00 20.94     0.034 C 
BRANCH   2   3
ATOM      3  CG  LYS A 131      27.602  24.399  16.922  1.00 22.96     0.005 C 
BRANCH   3   4
ATOM      4  CD  LYS A 131      26.470  24.306  17.907  1.00 24.33     0.041 C 
BRANCH   4   5
ATOM      5  CE  LYS A 131      26.228  25.675  18.535  1.00 26.91     0.338 C 
ATOM      6  NZ  LYS A 131      24.977  26.272  18.013  1.00 27.40     0.618 N 
ENDBRANCH   4   5
ENDBRANCH   3   4
ENDBRANCH   2   3
ENDBRANCH   1   2
END_RES LYS A 131
BEGIN_RES LYS A 135
REMARK  4 active torsions:
REMARK  status: ('A' for Active; 'I' for Inactive)
REMARK    5  A    between atoms: CA   and  CB  
REMARK    6  A    between atoms: CB   and  CG  
REMARK    7  A    between atoms: CG   and  CD  
REMARK    8  A    between atoms: CD   and  CE  
ROOT
ATOM      7  CA  LYS A 135      33.193  34.663   9.290  1.00 25.02     0.186 C 
ENDROOT
BRANCH   7   8
ATOM      8  CB  LYS A 135      32.060  35.360  10.034  1.00 26.63     0.034 C 
BRANCH   8   9
ATOM      9  CG  LYS A 135      30.691  34.860   9.652  1.00 29.45     0.005 C 
BRANCH   9  10
ATOM     10  CD  LYS A 135      30.085  35.732   8.563  1.00 32.00     0.041 C 
BRANCH  10  11
ATOM     11  CE  LYS A 135      29.316  34.884   7.568  1.00 34.25     0.338 C 
ATOM     12  NZ  LYS A 135      28.749  35.722   6.475  1.00 35.99     0.618 N 
ENDBRANCH  10  11
ENDBRANCH   9  10
ENDBRANCH   8   9
ENDBRANCH   7   8
END_RES LYS A 135
