REMARK VINA RESULT:    -4.205      3.561      5.992
REMARK INTER + INTRA:         -20.967
REMARK INTER:                 -12.145
REMARK INTRA:                  -8.823
REMARK UNBOUND:               -10.616
REMARK SMILES CC(=O)N[C@@H]1[C@@H](O)C[C@](OC[C@H]2O[C@@H](O[C@H]3[C@H](O)[C@@H](O)[C@H](OCCN=[N+]=[N-])O[C@@H]3CO)[C@H](O)[C@@H](O)[C@H]2O)(C(=O)O)O[C@H]1C(O)[C@H](O)CNC(=O)OCc1cn(C2CCCC2)nn1
REMARK SMILES IDX 9 1 8 2 6 3 5 4 42 5 41 6 10 7 11 8 12 9 14 10 13 11 32 12
REMARK SMILES IDX 34 13 36 14 15 15 16 16 29 17 28 18 21 19 17 20 19 21 30 22
REMARK SMILES IDX 31 23 22 25 23 26 24 27 25 28 26 29 27 30 18 31 20 33 33 35
REMARK SMILES IDX 35 37 37 39 38 41 39 42 40 43 7 45 43 47 44 48 45 50 46 51
REMARK SMILES IDX 47 53 48 54 49 55 50 57 51 58 52 59 53 60 54 61 62 62 55 63
REMARK SMILES IDX 61 64 56 65 57 66 60 67 58 68 59 69 4 70 2 71 1 73 3 74
REMARK H PARENT 31 24 18 32 20 34 33 36 35 38 37 40 40 44 7 46 44 49 46 52
REMARK H PARENT 48 56 4 72
REMARK Flexibility Score: inf
ROOT
ATOM      1  C   UNL     1      25.550  37.640   9.154  1.00  0.00     0.272 C 
ATOM      2  C   UNL     1      25.986  38.799   8.336  1.00  0.00     0.113 C 
ATOM      3  C   UNL     1      25.220  40.052   8.578  1.00  0.00     0.145 C 
ATOM      4  C   UNL     1      23.699  39.768   8.528  1.00  0.00     0.142 C 
ATOM      5  C   UNL     1      23.525  38.321   8.229  1.00  0.00     0.178 C 
ATOM      6  O   UNL     1      24.149  37.665   9.345  1.00  0.00    -0.332 OA
ENDROOT
BRANCH   1   7
ATOM      7  O   UNL     1      26.128  37.577  10.371  1.00  0.00    -0.338 OA
BRANCH   7   8
ATOM      8  C   UNL     1      27.491  37.672  10.483  1.00  0.00     0.199 C 
BRANCH   8   9
ATOM      9  C   UNL     1      27.790  38.358  11.814  1.00  0.00     0.179 C 
ATOM     10  C   UNL     1      29.555  37.100  12.664  1.00  0.00     0.282 C 
ATOM     11  O   UNL     1      28.234  37.515  12.780  1.00  0.00    -0.341 OA
ATOM     12  C   UNL     1      30.454  38.117  12.051  1.00  0.00     0.202 C 
ATOM     13  C   UNL     1      29.965  39.527  12.171  1.00  0.00     0.179 C 
ATOM     14  C   UNL     1      28.580  39.589  11.578  1.00  0.00     0.177 C 
BRANCH  10  15
ATOM     15  O   UNL     1      29.650  35.841  12.077  1.00  0.00    -0.341 OA
BRANCH  15  16
ATOM     16  C   UNL     1      29.954  34.848  13.008  1.00  0.00     0.184 C 
ATOM     17  C   UNL     1      29.063  34.831  14.204  1.00  0.00     0.178 C 
ATOM     18  O   UNL     1      29.521  33.857  15.088  1.00  0.00    -0.341 OA
ATOM     19  C   UNL     1      30.644  34.316  15.752  1.00  0.00     0.281 C 
ATOM     20  C   UNL     1      31.358  35.165  13.508  1.00  0.00     0.180 C 
ATOM     21  C   UNL     1      31.752  34.378  14.716  1.00  0.00     0.202 C 
BRANCH  17  22
ATOM     22  C   UNL     1      27.625  34.431  13.888  1.00  0.00     0.191 C 
BRANCH  22  23
ATOM     23  O   UNL     1      27.183  33.711  15.010  1.00  0.00    -0.394 OA
ATOM     24  H   UNL     1      27.746  33.883  15.783  1.00  0.00     0.210 HD
ENDBRANCH  22  23
ENDBRANCH  17  22
BRANCH  19  25
ATOM     25  O   UNL     1      31.024  33.374  16.703  1.00  0.00    -0.350 OA
BRANCH  25  26
ATOM     26  C   UNL     1      30.872  32.080  16.176  1.00  0.00     0.169 C 
BRANCH  26  27
ATOM     27  C   UNL     1      30.323  31.137  17.233  1.00  0.00     0.119 C 
BRANCH  27  28
ATOM     28  N   UNL     1      28.911  31.317  17.402  1.00  0.00    -0.092 NA
ATOM     29  N   UNL     1      28.081  30.808  16.622  1.00  0.00     0.001 N 
ATOM     30  N   UNL     1      27.393  30.705  15.609  1.00  0.00    -0.003 NA
ENDBRANCH  27  28
ENDBRANCH  26  27
ENDBRANCH  25  26
ENDBRANCH  19  25
BRANCH  20  31
ATOM     31  O   UNL     1      32.223  34.840  12.466  1.00  0.00    -0.387 OA
ATOM     32  H   UNL     1      31.773  34.364  11.725  1.00  0.00     0.211 HD
ENDBRANCH  20  31
BRANCH  21  33
ATOM     33  O   UNL     1      32.837  35.030  15.324  1.00  0.00    -0.385 OA
ATOM     34  H   UNL     1      32.860  35.936  14.922  1.00  0.00     0.211 HD
ENDBRANCH  21  33
ENDBRANCH  15  16
ENDBRANCH  10  15
BRANCH  12  35
ATOM     35  O   UNL     1      31.733  38.099  12.655  1.00  0.00    -0.385 OA
ATOM     36  H   UNL     1      31.692  38.684  13.435  1.00  0.00     0.211 HD
ENDBRANCH  12  35
BRANCH  13  37
ATOM     37  O   UNL     1      30.791  40.364  11.444  1.00  0.00    -0.387 OA
ATOM     38  H   UNL     1      31.717  40.055  11.564  1.00  0.00     0.211 HD
ENDBRANCH  13  37
BRANCH  14  39
ATOM     39  O   UNL     1      28.694  39.945  10.241  1.00  0.00    -0.387 OA
ATOM     40  H   UNL     1      29.470  40.494  10.059  1.00  0.00     0.211 HD
ENDBRANCH  14  39
ENDBRANCH   8   9
ENDBRANCH   7   8
ENDBRANCH   1   7
BRANCH   1  41
ATOM     41  C   UNL     1      25.766  36.378   8.349  1.00  0.00     0.364 C 
ATOM     42  O   UNL     1      26.392  36.368   7.278  1.00  0.00    -0.246 OA
BRANCH  41  43
ATOM     43  O   UNL     1      25.213  35.213   8.889  1.00  0.00    -0.477 OA
ATOM     44  H   UNL     1      25.305  35.044   9.899  1.00  0.00     0.296 HD
ENDBRANCH  41  43
ENDBRANCH   1  41
BRANCH   3  45
ATOM     45  O   UNL     1      25.568  40.760   9.701  1.00  0.00    -0.391 OA
ATOM     46  H   UNL     1      25.450  41.725   9.546  1.00  0.00     0.211 HD
ENDBRANCH   3  45
BRANCH   5  47
ATOM     47  C   UNL     1      22.103  37.820   8.272  1.00  0.00     0.176 C 
BRANCH  47  48
ATOM     48  O   UNL     1      21.678  37.985   9.656  1.00  0.00    -0.388 OA
ATOM     49  H   UNL     1      21.337  37.089   9.881  1.00  0.00     0.211 HD
ENDBRANCH  47  48
BRANCH  47  50
ATOM     50  C   UNL     1      21.921  36.341   8.070  1.00  0.00     0.165 C 
BRANCH  50  51
ATOM     51  O   UNL     1      21.072  35.931   7.105  1.00  0.00    -0.388 OA
ATOM     52  H   UNL     1      21.360  36.099   6.181  1.00  0.00     0.211 HD
ENDBRANCH  50  51
BRANCH  50  53
ATOM     53  C   UNL     1      21.451  35.748   9.393  1.00  0.00     0.154 C 
BRANCH  53  54
ATOM     54  N   UNL     1      22.604  35.106  10.040  1.00  0.00    -0.319 N 
ATOM     55  C   UNL     1      22.764  35.142  11.448  1.00  0.00     0.407 C 
ATOM     56  H   UNL     1      23.339  34.606   9.477  1.00  0.00     0.167 HD
ATOM     57  O   UNL     1      21.900  35.734  12.146  1.00  0.00    -0.225 OA
BRANCH  55  58
ATOM     58  O   UNL     1      23.839  34.547  12.068  1.00  0.00    -0.443 OA
BRANCH  58  59
ATOM     59  C   UNL     1      23.966  34.490  13.476  1.00  0.00     0.294 C 
BRANCH  59  60
ATOM     60  C   UNL     1      23.960  33.108  14.006  1.00  0.00     0.120 A 
ATOM     61  C   UNL     1      23.828  31.899  13.359  1.00  0.00     0.138 A 
ATOM     62  N   UNL     1      24.094  32.788  15.311  1.00  0.00    -0.132 NA
ATOM     63  N   UNL     1      23.882  30.916  14.261  1.00  0.00    -0.249 N 
ATOM     64  N   UNL     1      24.046  31.493  15.440  1.00  0.00    -0.067 NA
BRANCH  63  65
ATOM     65  C   UNL     1      23.788  29.477  14.042  1.00  0.00     0.109 C 
ATOM     66  C   UNL     1      22.664  28.848  14.797  1.00  0.00     0.027 C 
ATOM     67  C   UNL     1      23.449  29.236  12.587  1.00  0.00     0.027 C 
ATOM     68  C   UNL     1      21.468  28.799  13.882  1.00  0.00     0.002 C 
ATOM     69  C   UNL     1      21.955  29.155  12.501  1.00  0.00     0.002 C 
ENDBRANCH  63  65
ENDBRANCH  59  60
ENDBRANCH  58  59
ENDBRANCH  55  58
ENDBRANCH  53  54
ENDBRANCH  50  53
ENDBRANCH  47  50
ENDBRANCH   5  47
BRANCH   4  70
ATOM     70  N   UNL     1      23.092  40.697   7.602  1.00  0.00    -0.348 N 
ATOM     71  C   UNL     1      21.827  41.320   7.930  1.00  0.00     0.217 C 
ATOM     72  H   UNL     1      23.522  40.974   6.696  1.00  0.00     0.163 HD
ATOM     73  C   UNL     1      21.186  42.277   6.995  1.00  0.00     0.114 C 
ATOM     74  O   UNL     1      21.244  41.062   9.018  1.00  0.00    -0.275 OA
ENDBRANCH   4  70
TORSDOF 30
BEGIN_RES LYS A 131
REMARK  4 active torsions:
REMARK  status: ('A' for Active; 'I' for Inactive)
REMARK    1  A    between atoms: CA   and  CB  
REMARK    2  A    between atoms: CB   and  CG  
REMARK    3  A    between atoms: CG   and  CD  
REMARK    4  A    between atoms: CD   and  CE  
ROOT
ATOM      1  CA  LYS A 131      29.867  25.555  16.977  1.00 20.52     0.186 C 
ENDROOT
BRANCH   1   2
ATOM      2  CB  LYS A 131      28.345  25.722  17.026  1.00 20.94     0.034 C 
BRANCH   2   3
ATOM      3  CG  LYS A 131      27.601  24.401  16.902  1.00 22.96     0.005 C 
BRANCH   3   4
ATOM      4  CD  LYS A 131      26.532  24.252  17.948  1.00 24.33     0.041 C 
BRANCH   4   5
ATOM      5  CE  LYS A 131      25.160  24.312  17.286  1.00 26.91     0.338 C 
ATOM      6  NZ  LYS A 131      24.537  22.967  17.260  1.00 27.40     0.618 N 
ENDBRANCH   4   5
ENDBRANCH   3   4
ENDBRANCH   2   3
ENDBRANCH   1   2
END_RES LYS A 131
BEGIN_RES LYS A 135
REMARK  4 active torsions:
REMARK  status: ('A' for Active; 'I' for Inactive)
REMARK    5  A    between atoms: CA   and  CB  
REMARK    6  A    between atoms: CB   and  CG  
REMARK    7  A    between atoms: CG   and  CD  
REMARK    8  A    between atoms: CD   and  CE  
ROOT
ATOM      7  CA  LYS A 135      33.193  34.663   9.290  1.00 25.02     0.186 C 
ENDROOT
BRANCH   7   8
ATOM      8  CB  LYS A 135      32.060  35.360  10.034  1.00 26.63     0.034 C 
BRANCH   8   9
ATOM      9  CG  LYS A 135      30.810  35.526   9.209  1.00 29.45     0.005 C 
BRANCH   9  10
ATOM     10  CD  LYS A 135      30.242  34.170   8.817  1.00 32.00     0.041 C 
BRANCH  10  11
ATOM     11  CE  LYS A 135      28.736  34.250   8.655  1.00 34.25     0.338 C 
ATOM     12  NZ  LYS A 135      28.038  33.788   9.886  1.00 35.99     0.618 N 
ENDBRANCH  10  11
ENDBRANCH   9  10
ENDBRANCH   8   9
ENDBRANCH   7   8
END_RES LYS A 135
