REMARK VINA RESULT:    -4.762      0.000      0.000
REMARK INTER + INTRA:         -23.293
REMARK INTER:                 -13.608
REMARK INTRA:                  -9.685
REMARK UNBOUND:               -11.571
REMARK SMILES CC(=O)N[C@@H]1[C@@H](O)C[C@](OC[C@H]2O[C@@H](O[C@H]3[C@H](O)[C@@H](O)[C@H](OCCN=[N+]=[N-])O[C@@H]3CO)[C@H](O)[C@@H](O)[C@H]2O)(C(=O)O)O[C@H]1C(O)[C@H](O)CNC(=O)OCc1cn(-c2ccc3[nH]ncc3c2)nn1
REMARK SMILES IDX 9 1 8 2 6 3 5 4 42 5 41 6 10 7 11 8 12 9 14 10 13 11 32 12
REMARK SMILES IDX 34 13 36 14 15 15 16 16 29 17 28 18 21 19 17 20 19 21 30 22
REMARK SMILES IDX 31 23 22 25 23 26 24 27 25 28 26 29 27 30 18 31 20 33 33 35
REMARK SMILES IDX 35 37 37 39 38 41 39 42 40 43 7 45 43 47 44 48 45 50 46 51
REMARK SMILES IDX 47 53 48 54 49 55 50 57 51 58 52 59 53 60 54 61 66 62 55 63
REMARK SMILES IDX 65 64 56 65 57 66 64 67 58 68 63 69 59 70 62 71 60 72 61 73
REMARK SMILES IDX 4 75 2 76 1 78 3 79
REMARK H PARENT 31 24 18 32 20 34 33 36 35 38 37 40 40 44 7 46 44 49 46 52
REMARK H PARENT 48 56 60 74 4 77
REMARK Flexibility Score: inf
ROOT
ATOM      1  C   UNL     1      30.597  30.897  21.652  1.00  0.00     0.272 C 
ATOM      2  C   UNL     1      31.744  31.823  21.842  1.00  0.00     0.113 C 
ATOM      3  C   UNL     1      32.741  31.413  22.895  1.00  0.00     0.145 C 
ATOM      4  C   UNL     1      33.242  30.018  22.435  1.00  0.00     0.142 C 
ATOM      5  C   UNL     1      32.019  29.196  22.302  1.00  0.00     0.178 C 
ATOM      6  O   UNL     1      31.052  29.597  21.448  1.00  0.00    -0.332 OA
ENDROOT
BRANCH   1   7
ATOM      7  O   UNL     1      29.891  31.302  20.498  1.00  0.00    -0.338 OA
BRANCH   7   8
ATOM      8  C   UNL     1      30.646  31.490  19.388  1.00  0.00     0.199 C 
BRANCH   8   9
ATOM      9  C   UNL     1      30.263  32.789  18.644  1.00  0.00     0.179 C 
ATOM     10  C   UNL     1      31.251  33.621  16.721  1.00  0.00     0.282 C 
ATOM     11  O   UNL     1      31.359  33.390  18.103  1.00  0.00    -0.341 OA
ATOM     12  C   UNL     1      31.137  32.277  16.078  1.00  0.00     0.202 C 
ATOM     13  C   UNL     1      29.741  31.744  16.433  1.00  0.00     0.179 C 
ATOM     14  C   UNL     1      29.185  32.476  17.624  1.00  0.00     0.177 C 
BRANCH  10  15
ATOM     15  O   UNL     1      32.316  34.396  16.298  1.00  0.00    -0.341 OA
BRANCH  15  16
ATOM     16  C   UNL     1      31.849  35.621  15.840  1.00  0.00     0.184 C 
ATOM     17  C   UNL     1      32.611  36.188  14.681  1.00  0.00     0.178 C 
ATOM     18  O   UNL     1      32.050  37.325  14.236  1.00  0.00    -0.341 OA
ATOM     19  C   UNL     1      31.192  38.045  15.004  1.00  0.00     0.281 C 
ATOM     20  C   UNL     1      32.043  36.682  16.941  1.00  0.00     0.180 C 
ATOM     21  C   UNL     1      31.348  37.917  16.481  1.00  0.00     0.202 C 
BRANCH  17  22
ATOM     22  C   UNL     1      32.789  35.228  13.522  1.00  0.00     0.191 C 
BRANCH  22  23
ATOM     23  O   UNL     1      31.631  34.523  13.248  1.00  0.00    -0.394 OA
ATOM     24  H   UNL     1      30.877  35.124  13.533  1.00  0.00     0.210 HD
ENDBRANCH  22  23
ENDBRANCH  17  22
BRANCH  19  25
ATOM     25  O   UNL     1      29.915  37.717  14.619  1.00  0.00    -0.350 OA
BRANCH  25  26
ATOM     26  C   UNL     1      28.925  37.915  15.517  1.00  0.00     0.169 C 
BRANCH  26  27
ATOM     27  C   UNL     1      27.719  37.057  15.310  1.00  0.00     0.119 C 
BRANCH  27  28
ATOM     28  N   UNL     1      27.910  35.655  15.536  1.00  0.00    -0.092 NA
ATOM     29  N   UNL     1      28.533  34.926  14.789  1.00  0.00     0.001 N 
ATOM     30  N   UNL     1      28.844  34.121  13.883  1.00  0.00    -0.003 NA
ENDBRANCH  27  28
ENDBRANCH  26  27
ENDBRANCH  25  26
ENDBRANCH  19  25
BRANCH  20  31
ATOM     31  O   UNL     1      31.597  36.243  18.158  1.00  0.00    -0.387 OA
ATOM     32  H   UNL     1      32.320  35.951  18.770  1.00  0.00     0.211 HD
ENDBRANCH  20  31
BRANCH  21  33
ATOM     33  O   UNL     1      32.047  39.013  17.018  1.00  0.00    -0.385 OA
ATOM     34  H   UNL     1      33.016  38.821  17.098  1.00  0.00     0.211 HD
ENDBRANCH  21  33
ENDBRANCH  15  16
ENDBRANCH  10  15
BRANCH  12  35
ATOM     35  O   UNL     1      31.351  32.237  14.724  1.00  0.00    -0.385 OA
ATOM     36  H   UNL     1      32.113  31.628  14.480  1.00  0.00     0.211 HD
ENDBRANCH  12  35
BRANCH  13  37
ATOM     37  O   UNL     1      29.728  30.370  16.548  1.00  0.00    -0.387 OA
ATOM     38  H   UNL     1      29.819  30.158  17.525  1.00  0.00     0.211 HD
ENDBRANCH  13  37
BRANCH  14  39
ATOM     39  O   UNL     1      28.273  31.588  18.248  1.00  0.00    -0.387 OA
ATOM     40  H   UNL     1      27.727  31.104  17.610  1.00  0.00     0.211 HD
ENDBRANCH  14  39
ENDBRANCH   8   9
ENDBRANCH   7   8
ENDBRANCH   1   7
BRANCH   1  41
ATOM     41  C   UNL     1      29.671  30.815  22.814  1.00  0.00     0.364 C 
ATOM     42  O   UNL     1      29.812  31.700  23.722  1.00  0.00    -0.246 OA
BRANCH  41  43
ATOM     43  O   UNL     1      28.687  29.899  23.022  1.00  0.00    -0.477 OA
ATOM     44  H   UNL     1      27.952  29.695  22.345  1.00  0.00     0.296 HD
ENDBRANCH  41  43
ENDBRANCH   1  41
BRANCH   3  45
ATOM     45  O   UNL     1      33.784  32.319  22.883  1.00  0.00    -0.391 OA
ATOM     46  H   UNL     1      34.506  32.049  22.239  1.00  0.00     0.211 HD
ENDBRANCH   3  45
BRANCH   5  47
ATOM     47  C   UNL     1      32.340  27.734  22.222  1.00  0.00     0.176 C 
BRANCH  47  48
ATOM     48  O   UNL     1      31.862  27.214  23.481  1.00  0.00    -0.388 OA
ATOM     49  H   UNL     1      31.883  26.236  23.474  1.00  0.00     0.211 HD
ENDBRANCH  47  48
BRANCH  47  50
ATOM     50  C   UNL     1      31.578  26.952  21.181  1.00  0.00     0.165 C 
BRANCH  50  51
ATOM     51  O   UNL     1      32.058  27.435  19.932  1.00  0.00    -0.388 OA
ATOM     52  H   UNL     1      31.844  26.834  19.198  1.00  0.00     0.211 HD
ENDBRANCH  50  51
BRANCH  50  53
ATOM     53  C   UNL     1      30.103  27.098  21.212  1.00  0.00     0.154 C 
BRANCH  53  54
ATOM     54  N   UNL     1      29.461  27.621  20.058  1.00  0.00    -0.319 N 
ATOM     55  C   UNL     1      28.193  28.245  19.988  1.00  0.00     0.407 C 
ATOM     56  H   UNL     1      29.966  27.555  19.117  1.00  0.00     0.167 HD
ATOM     57  O   UNL     1      27.500  28.409  20.997  1.00  0.00    -0.225 OA
BRANCH  55  58
ATOM     58  O   UNL     1      27.704  28.690  18.764  1.00  0.00    -0.443 OA
BRANCH  58  59
ATOM     59  C   UNL     1      26.542  28.242  18.136  1.00  0.00     0.294 C 
BRANCH  59  60
ATOM     60  C   UNL     1      26.119  29.035  16.973  1.00  0.00     0.121 A 
ATOM     61  C   UNL     1      24.875  29.025  16.384  1.00  0.00     0.144 A 
ATOM     62  N   UNL     1      26.885  29.901  16.276  1.00  0.00    -0.131 NA
ATOM     63  N   UNL     1      24.951  29.883  15.364  1.00  0.00    -0.220 N 
ATOM     64  N   UNL     1      26.165  30.399  15.317  1.00  0.00    -0.062 NA
BRANCH  63  65
ATOM     65  C   UNL     1      23.877  30.183  14.472  1.00  0.00     0.067 A 
ATOM     66  C   UNL     1      23.724  29.496  13.288  1.00  0.00     0.030 A 
ATOM     67  C   UNL     1      22.973  31.173  14.781  1.00  0.00     0.040 A 
ATOM     68  C   UNL     1      22.693  29.788  12.430  1.00  0.00     0.030 A 
ATOM     69  C   UNL     1      21.932  31.456  13.900  1.00  0.00     0.022 A 
ATOM     70  C   UNL     1      21.766  30.774  12.707  1.00  0.00     0.065 A 
ATOM     71  C   UNL     1      20.919  32.382  13.985  1.00  0.00     0.143 A 
ATOM     72  N   UNL     1      20.681  31.279  12.095  1.00  0.00    -0.278 N 
ATOM     73  N   UNL     1      20.195  32.226  12.864  1.00  0.00    -0.183 NA
ATOM     74  H   UNL     1      20.316  30.952  11.167  1.00  0.00     0.190 HD
ENDBRANCH  63  65
ENDBRANCH  59  60
ENDBRANCH  58  59
ENDBRANCH  55  58
ENDBRANCH  53  54
ENDBRANCH  50  53
ENDBRANCH  47  50
ENDBRANCH   5  47
BRANCH   4  75
ATOM     75  N   UNL     1      34.005  29.561  23.601  1.00  0.00    -0.348 N 
ATOM     76  C   UNL     1      35.397  29.671  23.586  1.00  0.00     0.217 C 
ATOM     77  H   UNL     1      33.544  29.157  24.433  1.00  0.00     0.163 HD
ATOM     78  C   UNL     1      36.251  29.221  24.735  1.00  0.00     0.114 C 
ATOM     79  O   UNL     1      35.975  30.174  22.567  1.00  0.00    -0.275 OA
ENDBRANCH   4  75
TORSDOF 30
BEGIN_RES LYS A 131
REMARK  4 active torsions:
REMARK  status: ('A' for Active; 'I' for Inactive)
REMARK    1  A    between atoms: CA   and  CB  
REMARK    2  A    between atoms: CB   and  CG  
REMARK    3  A    between atoms: CG   and  CD  
REMARK    4  A    between atoms: CD   and  CE  
ROOT
ATOM      1  CA  LYS A 131      29.867  25.555  16.977  1.00 20.52     0.186 C 
ENDROOT
BRANCH   1   2
ATOM      2  CB  LYS A 131      28.345  25.722  17.026  1.00 20.94     0.034 C 
BRANCH   2   3
ATOM      3  CG  LYS A 131      27.601  24.405  16.871  1.00 22.96     0.005 C 
BRANCH   3   4
ATOM      4  CD  LYS A 131      26.685  24.132  18.032  1.00 24.33     0.041 C 
BRANCH   4   5
ATOM      5  CE  LYS A 131      25.433  23.416  17.535  1.00 26.91     0.338 C 
ATOM      6  NZ  LYS A 131      24.549  24.360  16.811  1.00 27.40     0.618 N 
ENDBRANCH   4   5
ENDBRANCH   3   4
ENDBRANCH   2   3
ENDBRANCH   1   2
END_RES LYS A 131
BEGIN_RES LYS A 135
REMARK  4 active torsions:
REMARK  status: ('A' for Active; 'I' for Inactive)
REMARK    5  A    between atoms: CA   and  CB  
REMARK    6  A    between atoms: CB   and  CG  
REMARK    7  A    between atoms: CG   and  CD  
REMARK    8  A    between atoms: CD   and  CE  
ROOT
ATOM      7  CA  LYS A 135      33.193  34.663   9.290  1.00 25.02     0.186 C 
ENDROOT
BRANCH   7   8
ATOM      8  CB  LYS A 135      32.060  35.360  10.034  1.00 26.63     0.034 C 
BRANCH   8   9
ATOM      9  CG  LYS A 135      30.803  35.507   9.216  1.00 29.45     0.005 C 
BRANCH   9  10
ATOM     10  CD  LYS A 135      30.144  34.154   8.997  1.00 32.00     0.041 C 
BRANCH  10  11
ATOM     11  CE  LYS A 135      28.683  34.327   8.626  1.00 34.25     0.338 C 
ATOM     12  NZ  LYS A 135      27.793  33.737   9.664  1.00 35.99     0.618 N 
ENDBRANCH  10  11
ENDBRANCH   9  10
ENDBRANCH   8   9
ENDBRANCH   7   8
END_RES LYS A 135
