REMARK VINA RESULT:    -4.275      3.237      7.632
REMARK INTER + INTRA:         -24.256
REMARK INTER:                 -11.572
REMARK INTRA:                 -12.684
REMARK UNBOUND:               -13.108
REMARK SMILES CC(=O)N[C@@H]1[C@@H](O)C[C@](OC[C@H]2O[C@@H](O[C@H]3[C@H](O)[C@@H](O)[C@H](OCCN=[N+]=[N-])O[C@@H]3CO)[C@H](O)[C@@H](O)[C@H]2O)(C(=O)O)O[C@H]1C(O)[C@H](O)CNC(=O)OCc1cn(-c2cccc(C=CC(=O)O)c2)nn1
REMARK SMILES IDX 43 1 42 2 9 3 8 4 41 5 6 6 5 7 10 8 11 9 12 10 14 11 13 12
REMARK SMILES IDX 32 13 34 14 36 15 15 16 16 17 29 18 28 19 21 20 17 21 19 22
REMARK SMILES IDX 30 23 31 24 22 26 23 27 24 28 25 29 26 30 27 31 18 32 20 34
REMARK SMILES IDX 33 36 35 38 37 40 38 42 39 43 40 44 7 46 4 48 2 49 1 51 3 52
REMARK SMILES IDX 44 53 45 55 46 56 47 58 48 59 49 60 50 62 51 63 52 64 53 65
REMARK SMILES IDX 54 66 68 67 55 68 67 69 56 70 66 71 57 72 60 73 58 74 59 75
REMARK SMILES IDX 61 76 62 77 63 78 64 79 65 80
REMARK H PARENT 31 25 18 33 20 35 33 37 35 39 37 41 40 45 7 47 4 50 44 54
REMARK H PARENT 46 57 48 61 65 81
REMARK Flexibility Score: inf
ROOT
ATOM      1  C   UNL     1      22.095  36.518   8.301  1.00  0.00     0.176 C 
ENDROOT
BRANCH   1   2
ATOM      2  C   UNL     1      21.224  37.123   9.384  1.00  0.00     0.178 C 
ATOM      3  C   UNL     1      21.503  38.521  11.262  1.00  0.00     0.272 C 
ATOM      4  C   UNL     1      19.940  38.161  11.251  1.00  0.00     0.113 C 
ATOM      5  O   UNL     1      22.062  37.785  10.238  1.00  0.00    -0.332 OA
ATOM      6  C   UNL     1      19.882  36.679  11.367  1.00  0.00     0.145 C 
ATOM      7  C   UNL     1      20.477  36.049  10.124  1.00  0.00     0.142 C 
BRANCH   3   8
ATOM      8  O   UNL     1      21.900  38.024  12.439  1.00  0.00    -0.338 OA
BRANCH   8   9
ATOM      9  C   UNL     1      22.834  38.517  13.231  1.00  0.00     0.199 C 
BRANCH   9  10
ATOM     10  C   UNL     1      23.388  37.660  14.350  1.00  0.00     0.179 C 
ATOM     11  C   UNL     1      23.089  35.347  14.743  1.00  0.00     0.282 C 
ATOM     12  O   UNL     1      22.570  36.605  14.511  1.00  0.00    -0.341 OA
ATOM     13  C   UNL     1      24.352  35.454  15.500  1.00  0.00     0.202 C 
ATOM     14  C   UNL     1      25.408  36.314  14.877  1.00  0.00     0.179 C 
ATOM     15  C   UNL     1      24.760  37.218  13.861  1.00  0.00     0.177 C 
BRANCH  11  16
ATOM     16  O   UNL     1      23.116  34.709  13.523  1.00  0.00    -0.341 OA
BRANCH  16  17
ATOM     17  C   UNL     1      22.808  33.392  13.529  1.00  0.00     0.184 C 
ATOM     18  C   UNL     1      23.821  32.586  12.777  1.00  0.00     0.178 C 
ATOM     19  O   UNL     1      23.599  31.249  13.182  1.00  0.00    -0.341 OA
ATOM     20  C   UNL     1      22.420  30.774  12.603  1.00  0.00     0.281 C 
ATOM     21  C   UNL     1      21.475  33.094  12.834  1.00  0.00     0.180 C 
ATOM     22  C   UNL     1      21.225  31.604  12.938  1.00  0.00     0.202 C 
BRANCH  18  23
ATOM     23  C   UNL     1      25.239  32.948  13.039  1.00  0.00     0.191 C 
BRANCH  23  24
ATOM     24  O   UNL     1      25.624  33.957  12.160  1.00  0.00    -0.394 OA
ATOM     25  H   UNL     1      25.104  33.885  11.300  1.00  0.00     0.210 HD
ENDBRANCH  23  24
ENDBRANCH  18  23
BRANCH  20  26
ATOM     26  O   UNL     1      22.216  29.481  13.077  1.00  0.00    -0.350 OA
BRANCH  26  27
ATOM     27  C   UNL     1      21.875  29.470  14.428  1.00  0.00     0.169 C 
BRANCH  27  28
ATOM     28  C   UNL     1      22.844  28.557  15.145  1.00  0.00     0.119 C 
BRANCH  28  29
ATOM     29  N   UNL     1      23.630  29.330  16.076  1.00  0.00    -0.092 NA
ATOM     30  N   UNL     1      24.671  28.856  16.567  1.00  0.00     0.001 N 
ATOM     31  N   UNL     1      25.444  28.283  17.351  1.00  0.00    -0.003 NA
ENDBRANCH  28  29
ENDBRANCH  27  28
ENDBRANCH  26  27
ENDBRANCH  20  26
BRANCH  21  32
ATOM     32  O   UNL     1      20.405  33.728  13.453  1.00  0.00    -0.387 OA
ATOM     33  H   UNL     1      20.595  34.697  13.381  1.00  0.00     0.211 HD
ENDBRANCH  21  32
BRANCH  22  34
ATOM     34  O   UNL     1      20.236  31.314  11.970  1.00  0.00    -0.385 OA
ATOM     35  H   UNL     1      20.627  31.018  11.119  1.00  0.00     0.211 HD
ENDBRANCH  22  34
ENDBRANCH  16  17
ENDBRANCH  11  16
BRANCH  13  36
ATOM     36  O   UNL     1      24.078  36.008  16.785  1.00  0.00    -0.385 OA
ATOM     37  H   UNL     1      24.000  35.267  17.450  1.00  0.00     0.211 HD
ENDBRANCH  13  36
BRANCH  14  38
ATOM     38  O   UNL     1      26.470  35.594  14.324  1.00  0.00    -0.387 OA
ATOM     39  H   UNL     1      27.302  36.132  14.288  1.00  0.00     0.211 HD
ENDBRANCH  14  38
BRANCH  15  40
ATOM     40  O   UNL     1      24.662  36.550  12.656  1.00  0.00    -0.387 OA
ATOM     41  H   UNL     1      24.946  37.125  11.880  1.00  0.00     0.211 HD
ENDBRANCH  15  40
ENDBRANCH   9  10
ENDBRANCH   8   9
ENDBRANCH   3   8
BRANCH   3  42
ATOM     42  C   UNL     1      21.562  39.945  10.977  1.00  0.00     0.364 C 
ATOM     43  O   UNL     1      20.815  40.855  11.382  1.00  0.00    -0.246 OA
BRANCH  42  44
ATOM     44  O   UNL     1      22.601  40.393  10.125  1.00  0.00    -0.477 OA
ATOM     45  H   UNL     1      23.494  39.877  10.158  1.00  0.00     0.296 HD
ENDBRANCH  42  44
ENDBRANCH   3  42
BRANCH   6  46
ATOM     46  O   UNL     1      20.717  36.341  12.484  1.00  0.00    -0.391 OA
ATOM     47  H   UNL     1      20.841  37.146  13.058  1.00  0.00     0.211 HD
ENDBRANCH   6  46
BRANCH   7  48
ATOM     48  N   UNL     1      19.584  35.265   9.350  1.00  0.00    -0.348 N 
ATOM     49  C   UNL     1      18.783  34.196   9.764  1.00  0.00     0.217 C 
ATOM     50  H   UNL     1      19.511  35.483   8.290  1.00  0.00     0.163 HD
ATOM     51  C   UNL     1      17.913  33.492   8.740  1.00  0.00     0.114 C 
ATOM     52  O   UNL     1      18.727  33.766  10.947  1.00  0.00    -0.275 OA
ENDBRANCH   7  48
ENDBRANCH   1   2
BRANCH   1  53
ATOM     53  O   UNL     1      21.387  36.469   7.114  1.00  0.00    -0.388 OA
ATOM     54  H   UNL     1      21.464  35.633   6.621  1.00  0.00     0.211 HD
ENDBRANCH   1  53
BRANCH   1  55
ATOM     55  C   UNL     1      23.332  37.372   8.022  1.00  0.00     0.165 C 
BRANCH  55  56
ATOM     56  O   UNL     1      23.340  37.940   6.778  1.00  0.00    -0.388 OA
ATOM     57  H   UNL     1      24.202  38.334   6.510  1.00  0.00     0.211 HD
ENDBRANCH  55  56
BRANCH  55  58
ATOM     58  C   UNL     1      24.589  36.611   8.299  1.00  0.00     0.154 C 
BRANCH  58  59
ATOM     59  N   UNL     1      25.146  36.937   9.562  1.00  0.00    -0.319 N 
ATOM     60  C   UNL     1      26.019  38.032   9.754  1.00  0.00     0.407 C 
ATOM     61  H   UNL     1      24.922  36.360  10.417  1.00  0.00     0.167 HD
ATOM     62  O   UNL     1      26.349  38.777   8.790  1.00  0.00    -0.225 OA
BRANCH  60  63
ATOM     63  O   UNL     1      26.558  38.349  10.998  1.00  0.00    -0.443 OA
BRANCH  63  64
ATOM     64  C   UNL     1      27.986  38.299  11.107  1.00  0.00     0.294 C 
BRANCH  64  65
ATOM     65  C   UNL     1      28.330  36.978  11.663  1.00  0.00     0.121 A 
ATOM     66  C   UNL     1      29.365  36.665  12.542  1.00  0.00     0.144 A 
ATOM     67  N   UNL     1      27.688  35.824  11.421  1.00  0.00    -0.131 NA
ATOM     68  N   UNL     1      29.305  35.338  12.798  1.00  0.00    -0.220 N 
ATOM     69  N   UNL     1      28.288  34.862  12.109  1.00  0.00    -0.062 NA
BRANCH  68  70
ATOM     70  C   UNL     1      30.202  34.665  13.666  1.00  0.00     0.067 A 
ATOM     71  C   UNL     1      29.772  33.535  14.363  1.00  0.00     0.036 A 
ATOM     72  C   UNL     1      31.476  35.091  13.837  1.00  0.00     0.028 A 
ATOM     73  C   UNL     1      30.594  32.855  15.206  1.00  0.00    -0.023 A 
ATOM     74  C   UNL     1      32.354  34.426  14.689  1.00  0.00     0.003 A 
ATOM     75  C   UNL     1      31.887  33.317  15.356  1.00  0.00     0.008 A 
BRANCH  73  76
ATOM     76  C   UNL     1      30.150  31.685  15.933  1.00  0.00     0.015 C 
ATOM     77  C   UNL     1      28.880  31.479  16.178  1.00  0.00     0.094 C 
BRANCH  77  78
ATOM     78  C   UNL     1      28.476  30.281  16.917  1.00  0.00     0.328 C 
ATOM     79  O   UNL     1      28.450  30.264  18.153  1.00  0.00    -0.247 OA
BRANCH  78  80
ATOM     80  O   UNL     1      28.110  29.125  16.233  1.00  0.00    -0.478 OA
ATOM     81  H   UNL     1      27.972  29.203  15.223  1.00  0.00     0.297 HD
ENDBRANCH  78  80
ENDBRANCH  77  78
ENDBRANCH  73  76
ENDBRANCH  68  70
ENDBRANCH  64  65
ENDBRANCH  63  64
ENDBRANCH  60  63
ENDBRANCH  58  59
ENDBRANCH  55  58
ENDBRANCH   1  55
TORSDOF 33
BEGIN_RES LYS A 131
REMARK  4 active torsions:
REMARK  status: ('A' for Active; 'I' for Inactive)
REMARK    1  A    between atoms: CA   and  CB  
REMARK    2  A    between atoms: CB   and  CG  
REMARK    3  A    between atoms: CG   and  CD  
REMARK    4  A    between atoms: CD   and  CE  
ROOT
ATOM      1  CA  LYS A 131      29.867  25.555  16.977  1.00 20.52     0.186 C 
ENDROOT
BRANCH   1   2
ATOM      2  CB  LYS A 131      28.345  25.722  17.026  1.00 20.94     0.034 C 
BRANCH   2   3
ATOM      3  CG  LYS A 131      27.601  24.403  16.885  1.00 22.96     0.005 C 
BRANCH   3   4
ATOM      4  CD  LYS A 131      26.522  24.248  17.920  1.00 24.33     0.041 C 
BRANCH   4   5
ATOM      5  CE  LYS A 131      25.176  24.061  17.229  1.00 26.91     0.338 C 
ATOM      6  NZ  LYS A 131      24.687  22.674  17.408  1.00 27.40     0.618 N 
ENDBRANCH   4   5
ENDBRANCH   3   4
ENDBRANCH   2   3
ENDBRANCH   1   2
END_RES LYS A 131
BEGIN_RES LYS A 135
REMARK  4 active torsions:
REMARK  status: ('A' for Active; 'I' for Inactive)
REMARK    5  A    between atoms: CA   and  CB  
REMARK    6  A    between atoms: CB   and  CG  
REMARK    7  A    between atoms: CG   and  CD  
REMARK    8  A    between atoms: CD   and  CE  
ROOT
ATOM      7  CA  LYS A 135      33.193  34.663   9.290  1.00 25.02     0.186 C 
ENDROOT
BRANCH   7   8
ATOM      8  CB  LYS A 135      32.060  35.360  10.034  1.00 26.63     0.034 C 
BRANCH   8   9
ATOM      9  CG  LYS A 135      30.830  35.579   9.191  1.00 29.45     0.005 C 
BRANCH   9  10
ATOM     10  CD  LYS A 135      30.146  34.255   8.887  1.00 32.00     0.041 C 
BRANCH  10  11
ATOM     11  CE  LYS A 135      28.745  34.490   8.356  1.00 34.25     0.338 C 
ATOM     12  NZ  LYS A 135      28.539  35.921   7.998  1.00 35.99     0.618 N 
ENDBRANCH  10  11
ENDBRANCH   9  10
ENDBRANCH   8   9
ENDBRANCH   7   8
END_RES LYS A 135
