REMARK VINA RESULT:    -4.552      3.999      6.755
REMARK INTER + INTRA:         -22.355
REMARK INTER:                 -11.870
REMARK INTRA:                 -10.485
REMARK UNBOUND:               -10.485
REMARK SMILES CC(=O)N[C@@H]1[C@@H](O)C[C@](OC[C@H]2O[C@@H](O[C@H]3[C@H](O)[C@@H](O)[C@H](OCCN=[N+]=[N-])O[C@@H]3CO)[C@H](O)[C@@H](O)[C@H]2O)(C(=O)O)O[C@H]1C(O)[C@H](O)CNC(=O)OCc1cn(CC(O)c2ccccc2)nn1
REMARK SMILES IDX 9 1 8 2 6 3 5 4 42 5 41 6 10 7 11 8 12 9 14 10 13 11 32 12
REMARK SMILES IDX 34 13 36 14 15 15 16 16 29 17 28 18 21 19 17 20 19 21 30 22
REMARK SMILES IDX 31 23 22 25 23 26 24 27 25 28 26 29 27 30 18 31 20 33 33 35
REMARK SMILES IDX 35 37 37 39 38 41 39 42 40 43 7 45 43 47 44 48 45 50 46 51
REMARK SMILES IDX 47 53 48 54 49 55 50 57 51 58 52 59 53 60 54 61 66 62 55 63
REMARK SMILES IDX 65 64 56 65 57 66 58 67 59 69 60 70 64 71 61 72 63 73 62 74
REMARK SMILES IDX 4 75 2 76 1 78 3 79
REMARK H PARENT 31 24 18 32 20 34 33 36 35 38 37 40 40 44 7 46 44 49 46 52
REMARK H PARENT 48 56 58 68 4 77
REMARK Flexibility Score: inf
ROOT
ATOM      1  C   UNL     1      18.094  33.664  10.582  1.00  0.00     0.272 C 
ATOM      2  C   UNL     1      17.270  34.243  11.670  1.00  0.00     0.113 C 
ATOM      3  C   UNL     1      17.911  34.366  13.007  1.00  0.00     0.145 C 
ATOM      4  C   UNL     1      19.157  33.538  13.032  1.00  0.00     0.142 C 
ATOM      5  C   UNL     1      18.868  32.254  12.275  1.00  0.00     0.178 C 
ATOM      6  O   UNL     1      18.600  32.413  10.950  1.00  0.00    -0.332 OA
ENDROOT
BRANCH   1   7
ATOM      7  O   UNL     1      19.148  34.398  10.126  1.00  0.00    -0.338 OA
BRANCH   7   8
ATOM      8  C   UNL     1      18.943  35.713   9.844  1.00  0.00     0.199 C 
BRANCH   8   9
ATOM      9  C   UNL     1      20.225  36.506   9.957  1.00  0.00     0.179 C 
ATOM     10  C   UNL     1      22.478  36.093  10.172  1.00  0.00     0.282 C 
ATOM     11  O   UNL     1      21.211  35.756  10.567  1.00  0.00    -0.341 OA
ATOM     12  C   UNL     1      22.777  35.841   8.710  1.00  0.00     0.202 C 
ATOM     13  C   UNL     1      21.506  36.083   7.926  1.00  0.00     0.179 C 
ATOM     14  C   UNL     1      20.706  37.121   8.686  1.00  0.00     0.177 C 
BRANCH  10  15
ATOM     15  O   UNL     1      23.448  35.384  10.873  1.00  0.00    -0.341 OA
BRANCH  15  16
ATOM     16  C   UNL     1      24.568  36.093  11.210  1.00  0.00     0.184 C 
ATOM     17  C   UNL     1      25.496  35.126  11.936  1.00  0.00     0.178 C 
ATOM     18  O   UNL     1      25.414  35.286  13.303  1.00  0.00    -0.341 OA
ATOM     19  C   UNL     1      24.053  35.258  13.658  1.00  0.00     0.281 C 
ATOM     20  C   UNL     1      24.114  37.221  12.128  1.00  0.00     0.180 C 
ATOM     21  C   UNL     1      23.509  36.660  13.404  1.00  0.00     0.202 C 
BRANCH  17  22
ATOM     22  C   UNL     1      26.923  35.269  11.434  1.00  0.00     0.191 C 
BRANCH  22  23
ATOM     23  O   UNL     1      27.080  36.425  10.676  1.00  0.00    -0.394 OA
ATOM     24  H   UNL     1      26.686  37.220  11.121  1.00  0.00     0.210 HD
ENDBRANCH  22  23
ENDBRANCH  17  22
BRANCH  19  25
ATOM     25  O   UNL     1      23.994  34.892  14.980  1.00  0.00    -0.350 OA
BRANCH  25  26
ATOM     26  C   UNL     1      24.264  35.892  15.884  1.00  0.00     0.169 C 
BRANCH  26  27
ATOM     27  C   UNL     1      25.465  35.637  16.751  1.00  0.00     0.119 C 
BRANCH  27  28
ATOM     28  N   UNL     1      26.309  36.836  16.797  1.00  0.00    -0.092 NA
ATOM     29  N   UNL     1      26.718  37.222  15.690  1.00  0.00     0.001 N 
ATOM     30  N   UNL     1      27.099  37.873  14.718  1.00  0.00    -0.003 NA
ENDBRANCH  27  28
ENDBRANCH  26  27
ENDBRANCH  25  26
ENDBRANCH  19  25
BRANCH  20  31
ATOM     31  O   UNL     1      25.181  38.058  12.426  1.00  0.00    -0.387 OA
ATOM     32  H   UNL     1      25.092  38.911  11.914  1.00  0.00     0.211 HD
ENDBRANCH  20  31
BRANCH  21  33
ATOM     33  O   UNL     1      22.128  36.693  13.356  1.00  0.00    -0.385 OA
ATOM     34  H   UNL     1      21.843  36.244  12.522  1.00  0.00     0.211 HD
ENDBRANCH  21  33
ENDBRANCH  15  16
ENDBRANCH  10  15
BRANCH  12  35
ATOM     35  O   UNL     1      23.755  36.751   8.293  1.00  0.00    -0.385 OA
ATOM     36  H   UNL     1      23.405  37.205   7.479  1.00  0.00     0.211 HD
ENDBRANCH  12  35
BRANCH  13  37
ATOM     37  O   UNL     1      20.836  34.863   7.887  1.00  0.00    -0.387 OA
ATOM     38  H   UNL     1      21.121  34.273   7.167  1.00  0.00     0.211 HD
ENDBRANCH  13  37
BRANCH  14  39
ATOM     39  O   UNL     1      19.718  37.723   7.943  1.00  0.00    -0.387 OA
ATOM     40  H   UNL     1      20.025  38.520   7.438  1.00  0.00     0.211 HD
ENDBRANCH  14  39
ENDBRANCH   8   9
ENDBRANCH   7   8
ENDBRANCH   1   7
BRANCH   1  41
ATOM     41  C   UNL     1      17.117  33.340   9.462  1.00  0.00     0.364 C 
ATOM     42  O   UNL     1      15.921  33.511   9.629  1.00  0.00    -0.246 OA
BRANCH  41  43
ATOM     43  O   UNL     1      17.675  32.857   8.292  1.00  0.00    -0.477 OA
ATOM     44  H   UNL     1      17.646  33.460   7.497  1.00  0.00     0.296 HD
ENDBRANCH  41  43
ENDBRANCH   1  41
BRANCH   3  45
ATOM     45  O   UNL     1      18.121  35.698  13.367  1.00  0.00    -0.391 OA
ATOM     46  H   UNL     1      17.266  36.007  13.778  1.00  0.00     0.211 HD
ENDBRANCH   3  45
BRANCH   5  47
ATOM     47  C   UNL     1      20.015  31.325  12.583  1.00  0.00     0.176 C 
BRANCH  47  48
ATOM     48  O   UNL     1      21.204  31.922  12.138  1.00  0.00    -0.388 OA
ATOM     49  H   UNL     1      21.626  32.342  12.938  1.00  0.00     0.211 HD
ENDBRANCH  47  48
BRANCH  47  50
ATOM     50  C   UNL     1      19.817  29.962  12.010  1.00  0.00     0.165 C 
BRANCH  50  51
ATOM     51  O   UNL     1      18.521  29.532  12.094  1.00  0.00    -0.388 OA
ATOM     52  H   UNL     1      18.315  28.732  11.585  1.00  0.00     0.211 HD
ENDBRANCH  50  51
BRANCH  50  53
ATOM     53  C   UNL     1      20.865  28.955  12.410  1.00  0.00     0.154 C 
BRANCH  53  54
ATOM     54  N   UNL     1      21.814  29.399  13.387  1.00  0.00    -0.319 N 
ATOM     55  C   UNL     1      23.221  29.180  13.309  1.00  0.00     0.407 C 
ATOM     56  H   UNL     1      21.468  29.943  14.240  1.00  0.00     0.167 HD
ATOM     57  O   UNL     1      23.718  28.574  12.344  1.00  0.00    -0.225 OA
BRANCH  55  58
ATOM     58  O   UNL     1      24.069  29.633  14.297  1.00  0.00    -0.443 OA
BRANCH  58  59
ATOM     59  C   UNL     1      24.053  30.972  14.791  1.00  0.00     0.294 C 
BRANCH  59  60
ATOM     60  C   UNL     1      25.392  31.303  15.372  1.00  0.00     0.120 A 
ATOM     61  C   UNL     1      26.161  30.603  16.265  1.00  0.00     0.138 A 
ATOM     62  N   UNL     1      26.087  32.419  15.059  1.00  0.00    -0.132 NA
ATOM     63  N   UNL     1      27.316  31.299  16.485  1.00  0.00    -0.249 N 
ATOM     64  N   UNL     1      27.208  32.372  15.735  1.00  0.00    -0.067 NA
BRANCH  63  65
ATOM     65  C   UNL     1      28.400  30.892  17.367  1.00  0.00     0.182 C 
BRANCH  65  66
ATOM     66  C   UNL     1      29.701  30.816  16.588  1.00  0.00     0.166 C 
BRANCH  66  67
ATOM     67  O   UNL     1      29.305  30.560  15.253  1.00  0.00    -0.386 OA
ATOM     68  H   UNL     1      29.071  29.597  15.152  1.00  0.00     0.211 HD
ENDBRANCH  66  67
BRANCH  66  69
ATOM     69  C   UNL     1      30.513  32.034  16.652  1.00  0.00    -0.018 A 
ATOM     70  C   UNL     1      30.656  32.774  17.785  1.00  0.00     0.006 A 
ATOM     71  C   UNL     1      31.132  32.410  15.451  1.00  0.00     0.006 A 
ATOM     72  C   UNL     1      31.434  33.920  17.731  1.00  0.00     0.000 A 
ATOM     73  C   UNL     1      31.895  33.546  15.424  1.00  0.00     0.000 A 
ATOM     74  C   UNL     1      32.050  34.308  16.565  1.00  0.00     0.000 A 
ENDBRANCH  66  69
ENDBRANCH  65  66
ENDBRANCH  63  65
ENDBRANCH  59  60
ENDBRANCH  58  59
ENDBRANCH  55  58
ENDBRANCH  53  54
ENDBRANCH  50  53
ENDBRANCH  47  50
ENDBRANCH   5  47
BRANCH   4  75
ATOM     75  N   UNL     1      19.450  33.104  14.408  1.00  0.00    -0.348 N 
ATOM     76  C   UNL     1      20.225  33.886  15.301  1.00  0.00     0.217 C 
ATOM     77  H   UNL     1      19.085  32.193  14.758  1.00  0.00     0.163 HD
ATOM     78  C   UNL     1      20.542  33.482  16.695  1.00  0.00     0.114 C 
ATOM     79  O   UNL     1      20.670  34.991  14.883  1.00  0.00    -0.275 OA
ENDBRANCH   4  75
TORSDOF 33
BEGIN_RES LYS A 131
REMARK  4 active torsions:
REMARK  status: ('A' for Active; 'I' for Inactive)
REMARK    1  A    between atoms: CA   and  CB  
REMARK    2  A    between atoms: CB   and  CG  
REMARK    3  A    between atoms: CG   and  CD  
REMARK    4  A    between atoms: CD   and  CE  
ROOT
ATOM      1  CA  LYS A 131      29.867  25.555  16.977  1.00 20.52     0.186 C 
ENDROOT
BRANCH   1   2
ATOM      2  CB  LYS A 131      28.345  25.722  17.026  1.00 20.94     0.034 C 
BRANCH   2   3
ATOM      3  CG  LYS A 131      27.602  24.399  16.927  1.00 22.96     0.005 C 
BRANCH   3   4
ATOM      4  CD  LYS A 131      26.527  24.273  17.970  1.00 24.33     0.041 C 
BRANCH   4   5
ATOM      5  CE  LYS A 131      25.165  24.184  17.289  1.00 26.91     0.338 C 
ATOM      6  NZ  LYS A 131      24.670  22.787  17.298  1.00 27.40     0.618 N 
ENDBRANCH   4   5
ENDBRANCH   3   4
ENDBRANCH   2   3
ENDBRANCH   1   2
END_RES LYS A 131
BEGIN_RES LYS A 135
REMARK  4 active torsions:
REMARK  status: ('A' for Active; 'I' for Inactive)
REMARK    5  A    between atoms: CA   and  CB  
REMARK    6  A    between atoms: CB   and  CG  
REMARK    7  A    between atoms: CG   and  CD  
REMARK    8  A    between atoms: CD   and  CE  
ROOT
ATOM      7  CA  LYS A 135      33.193  34.663   9.290  1.00 25.02     0.186 C 
ENDROOT
BRANCH   7   8
ATOM      8  CB  LYS A 135      32.060  35.360  10.034  1.00 26.63     0.034 C 
BRANCH   8   9
ATOM      9  CG  LYS A 135      30.884  35.702   9.156  1.00 29.45     0.005 C 
BRANCH   9  10
ATOM     10  CD  LYS A 135      30.400  34.473   8.404  1.00 32.00     0.041 C 
BRANCH  10  11
ATOM     11  CE  LYS A 135      28.884  34.439   8.358  1.00 34.25     0.338 C 
ATOM     12  NZ  LYS A 135      28.362  35.277   7.244  1.00 35.99     0.618 N 
ENDBRANCH  10  11
ENDBRANCH   9  10
ENDBRANCH   8   9
ENDBRANCH   7   8
END_RES LYS A 135
