REMARK VINA RESULT:    -5.494      2.996      8.515
REMARK INTER + INTRA:         -23.126
REMARK INTER:                 -12.042
REMARK INTRA:                 -11.085
REMARK UNBOUND:                -8.960
REMARK SMILES CC(=O)N[C@@H]1[C@@H](O)C[C@](OC[C@H]2O[C@@H](O[C@H]3[C@H](O)[C@@H](O)[C@H](OCCN=[N+]=[N-])O[C@@H]3CO)[C@H](O)[C@@H](O)[C@H]2O)(C(=O)O)O[C@H]1C(O)[C@H](O)CNC(=O)OCc1cn(Cc2cccc(C#N)c2)nn1
REMARK SMILES IDX 9 1 8 2 6 3 5 4 42 5 41 6 10 7 11 8 12 9 14 10 13 11 32 12
REMARK SMILES IDX 34 13 36 14 15 15 16 16 29 17 28 18 21 19 17 20 19 21 30 22
REMARK SMILES IDX 31 23 22 25 23 26 24 27 25 28 26 29 27 30 18 31 20 33 33 35
REMARK SMILES IDX 35 37 37 39 38 41 39 42 40 43 7 45 43 47 44 48 45 50 46 51
REMARK SMILES IDX 47 53 48 54 49 55 50 57 51 58 52 59 53 60 54 61 66 62 55 63
REMARK SMILES IDX 65 64 56 65 57 66 58 67 64 68 59 69 61 70 60 71 62 72 63 73
REMARK SMILES IDX 4 74 2 75 1 77 3 78
REMARK H PARENT 31 24 18 32 20 34 33 36 35 38 37 40 40 44 7 46 44 49 46 52
REMARK H PARENT 48 56 4 76
REMARK Flexibility Score: inf
ROOT
ATOM      1  C   UNL     1      26.514  33.222  18.076  1.00  0.00     0.272 C 
ATOM      2  C   UNL     1      25.243  32.408  18.103  1.00  0.00     0.113 C 
ATOM      3  C   UNL     1      25.249  31.119  17.395  1.00  0.00     0.145 C 
ATOM      4  C   UNL     1      26.173  31.140  16.172  1.00  0.00     0.142 C 
ATOM      5  C   UNL     1      27.479  31.735  16.450  1.00  0.00     0.178 C 
ATOM      6  O   UNL     1      27.569  32.692  17.407  1.00  0.00    -0.332 OA
ENDROOT
BRANCH   1   7
ATOM      7  O   UNL     1      26.887  33.464  19.319  1.00  0.00    -0.338 OA
BRANCH   7   8
ATOM      8  C   UNL     1      27.471  33.094  20.356  1.00  0.00     0.199 C 
BRANCH   8   9
ATOM      9  C   UNL     1      28.908  33.309  20.739  1.00  0.00     0.179 C 
ATOM     10  C   UNL     1      30.904  32.265  20.786  1.00  0.00     0.282 C 
ATOM     11  O   UNL     1      29.691  32.284  20.085  1.00  0.00    -0.341 OA
ATOM     12  C   UNL     1      31.711  33.491  20.527  1.00  0.00     0.202 C 
ATOM     13  C   UNL     1      30.869  34.753  20.531  1.00  0.00     0.179 C 
ATOM     14  C   UNL     1      29.478  34.554  20.033  1.00  0.00     0.177 C 
BRANCH  10  15
ATOM     15  O   UNL     1      31.626  31.134  20.412  1.00  0.00    -0.341 OA
BRANCH  15  16
ATOM     16  C   UNL     1      31.381  30.055  21.220  1.00  0.00     0.184 C 
ATOM     17  C   UNL     1      32.622  29.426  21.739  1.00  0.00     0.178 C 
ATOM     18  O   UNL     1      32.402  28.292  22.486  1.00  0.00    -0.341 OA
ATOM     19  C   UNL     1      31.597  27.336  21.908  1.00  0.00     0.281 C 
ATOM     20  C   UNL     1      30.771  28.973  20.272  1.00  0.00     0.180 C 
ATOM     21  C   UNL     1      30.378  27.854  21.214  1.00  0.00     0.202 C 
BRANCH  17  22
ATOM     22  C   UNL     1      33.378  30.391  22.624  1.00  0.00     0.191 C 
BRANCH  22  23
ATOM     23  O   UNL     1      34.200  31.207  21.842  1.00  0.00    -0.394 OA
ATOM     24  H   UNL     1      33.802  32.069  21.636  1.00  0.00     0.210 HD
ENDBRANCH  22  23
ENDBRANCH  17  22
BRANCH  19  25
ATOM     25  O   UNL     1      31.131  26.519  22.959  1.00  0.00    -0.350 OA
BRANCH  25  26
ATOM     26  C   UNL     1      30.545  27.292  23.927  1.00  0.00     0.169 C 
BRANCH  26  27
ATOM     27  C   UNL     1      30.833  26.802  25.318  1.00  0.00     0.119 C 
BRANCH  27  28
ATOM     28  N   UNL     1      32.124  26.166  25.440  1.00  0.00    -0.092 NA
ATOM     29  N   UNL     1      32.178  25.020  25.907  1.00  0.00     0.001 N 
ATOM     30  N   UNL     1      32.377  23.906  26.444  1.00  0.00    -0.003 NA
ENDBRANCH  27  28
ENDBRANCH  26  27
ENDBRANCH  25  26
ENDBRANCH  19  25
BRANCH  20  31
ATOM     31  O   UNL     1      29.715  29.546  19.615  1.00  0.00    -0.387 OA
ATOM     32  H   UNL     1      29.368  30.353  20.094  1.00  0.00     0.211 HD
ENDBRANCH  20  31
BRANCH  21  33
ATOM     33  O   UNL     1      29.834  26.831  20.442  1.00  0.00    -0.385 OA
ATOM     34  H   UNL     1      30.010  27.071  19.486  1.00  0.00     0.211 HD
ENDBRANCH  21  33
ENDBRANCH  15  16
ENDBRANCH  10  15
BRANCH  12  35
ATOM     35  O   UNL     1      32.608  33.656  21.607  1.00  0.00    -0.385 OA
ATOM     36  H   UNL     1      32.926  34.590  21.554  1.00  0.00     0.211 HD
ENDBRANCH  12  35
BRANCH  13  37
ATOM     37  O   UNL     1      31.505  35.639  19.648  1.00  0.00    -0.387 OA
ATOM     38  H   UNL     1      30.929  35.936  18.917  1.00  0.00     0.211 HD
ENDBRANCH  13  37
BRANCH  14  39
ATOM     39  O   UNL     1      29.571  34.251  18.666  1.00  0.00    -0.387 OA
ATOM     40  H   UNL     1      30.113  34.901  18.178  1.00  0.00     0.211 HD
ENDBRANCH  14  39
ENDBRANCH   8   9
ENDBRANCH   7   8
ENDBRANCH   1   7
BRANCH   1  41
ATOM     41  C   UNL     1      26.173  34.486  17.329  1.00  0.00     0.364 C 
ATOM     42  O   UNL     1      26.868  35.545  17.490  1.00  0.00    -0.246 OA
BRANCH  41  43
ATOM     43  O   UNL     1      25.118  34.549  16.459  1.00  0.00    -0.477 OA
ATOM     44  H   UNL     1      24.614  35.449  16.398  1.00  0.00     0.296 HD
ENDBRANCH  41  43
ENDBRANCH   1  41
BRANCH   3  45
ATOM     45  O   UNL     1      25.659  30.105  18.248  1.00  0.00    -0.391 OA
ATOM     46  H   UNL     1      25.430  29.203  17.921  1.00  0.00     0.211 HD
ENDBRANCH   3  45
BRANCH   5  47
ATOM     47  C   UNL     1      28.563  30.755  16.850  1.00  0.00     0.176 C 
BRANCH  47  48
ATOM     48  O   UNL     1      28.155  29.523  16.237  1.00  0.00    -0.388 OA
ATOM     49  H   UNL     1      28.289  28.815  16.907  1.00  0.00     0.211 HD
ENDBRANCH  47  48
BRANCH  47  50
ATOM     50  C   UNL     1      29.938  30.981  16.375  1.00  0.00     0.165 C 
BRANCH  50  51
ATOM     51  O   UNL     1      30.521  31.749  17.474  1.00  0.00    -0.388 OA
ATOM     52  H   UNL     1      29.797  32.355  17.817  1.00  0.00     0.211 HD
ENDBRANCH  50  51
BRANCH  50  53
ATOM     53  C   UNL     1      30.150  31.863  15.200  1.00  0.00     0.154 C 
BRANCH  53  54
ATOM     54  N   UNL     1      31.467  32.372  14.997  1.00  0.00    -0.319 N 
ATOM     55  C   UNL     1      31.762  33.737  15.326  1.00  0.00     0.407 C 
ATOM     56  H   UNL     1      32.242  31.810  14.625  1.00  0.00     0.167 HD
ATOM     57  O   UNL     1      30.825  34.428  15.788  1.00  0.00    -0.225 OA
BRANCH  55  58
ATOM     58  O   UNL     1      32.995  34.299  15.163  1.00  0.00    -0.443 OA
BRANCH  58  59
ATOM     59  C   UNL     1      33.202  35.723  15.263  1.00  0.00     0.294 C 
BRANCH  59  60
ATOM     60  C   UNL     1      33.946  36.016  16.521  1.00  0.00     0.120 A 
ATOM     61  C   UNL     1      35.312  36.043  16.687  1.00  0.00     0.138 A 
ATOM     62  N   UNL     1      33.426  36.301  17.719  1.00  0.00    -0.132 NA
ATOM     63  N   UNL     1      35.600  36.345  17.985  1.00  0.00    -0.248 N 
ATOM     64  N   UNL     1      34.430  36.497  18.586  1.00  0.00    -0.067 NA
BRANCH  63  65
ATOM     65  C   UNL     1      36.910  36.458  18.559  1.00  0.00     0.181 C 
BRANCH  65  66
ATOM     66  C   UNL     1      37.510  35.109  18.680  1.00  0.00    -0.025 A 
ATOM     67  C   UNL     1      38.350  34.574  17.739  1.00  0.00     0.006 A 
ATOM     68  C   UNL     1      37.215  34.334  19.795  1.00  0.00     0.025 A 
ATOM     69  C   UNL     1      38.897  33.323  17.856  1.00  0.00     0.002 A 
ATOM     70  C   UNL     1      37.763  33.081  19.913  1.00  0.00     0.052 A 
ATOM     71  C   UNL     1      38.618  32.528  18.959  1.00  0.00     0.019 A 
BRANCH  70  72
ATOM     72  C   UNL     1      37.455  32.286  21.073  1.00  0.00     0.099 C 
ATOM     73  N   UNL     1      37.208  31.628  22.008  1.00  0.00    -0.192 NA
ENDBRANCH  70  72
ENDBRANCH  65  66
ENDBRANCH  63  65
ENDBRANCH  59  60
ENDBRANCH  58  59
ENDBRANCH  55  58
ENDBRANCH  53  54
ENDBRANCH  50  53
ENDBRANCH  47  50
ENDBRANCH   5  47
BRANCH   4  74
ATOM     74  N   UNL     1      25.433  31.701  15.044  1.00  0.00    -0.348 N 
ATOM     75  C   UNL     1      24.577  30.867  14.295  1.00  0.00     0.217 C 
ATOM     76  H   UNL     1      25.486  32.694  14.742  1.00  0.00     0.163 HD
ATOM     77  C   UNL     1      23.786  31.353  13.130  1.00  0.00     0.114 C 
ATOM     78  O   UNL     1      24.477  29.672  14.619  1.00  0.00    -0.275 OA
ENDBRANCH   4  74
TORSDOF 32
BEGIN_RES LYS A 131
REMARK  4 active torsions:
REMARK  status: ('A' for Active; 'I' for Inactive)
REMARK    1  A    between atoms: CA   and  CB  
REMARK    2  A    between atoms: CB   and  CG  
REMARK    3  A    between atoms: CG   and  CD  
REMARK    4  A    between atoms: CD   and  CE  
ROOT
ATOM      1  CA  LYS A 131      29.867  25.555  16.977  1.00 20.52     0.186 C 
ENDROOT
BRANCH   1   2
ATOM      2  CB  LYS A 131      28.345  25.722  17.026  1.00 20.94     0.034 C 
BRANCH   2   3
ATOM      3  CG  LYS A 131      27.601  24.403  16.887  1.00 22.96     0.005 C 
BRANCH   3   4
ATOM      4  CD  LYS A 131      26.151  24.527  17.266  1.00 24.33     0.041 C 
BRANCH   4   5
ATOM      5  CE  LYS A 131      25.580  23.143  17.555  1.00 26.91     0.338 C 
ATOM      6  NZ  LYS A 131      24.099  23.189  17.585  1.00 27.40     0.618 N 
ENDBRANCH   4   5
ENDBRANCH   3   4
ENDBRANCH   2   3
ENDBRANCH   1   2
END_RES LYS A 131
BEGIN_RES LYS A 135
REMARK  4 active torsions:
REMARK  status: ('A' for Active; 'I' for Inactive)
REMARK    5  A    between atoms: CA   and  CB  
REMARK    6  A    between atoms: CB   and  CG  
REMARK    7  A    between atoms: CG   and  CD  
REMARK    8  A    between atoms: CD   and  CE  
ROOT
ATOM      7  CA  LYS A 135      33.193  34.663   9.290  1.00 25.02     0.186 C 
ENDROOT
BRANCH   7   8
ATOM      8  CB  LYS A 135      32.060  35.360  10.034  1.00 26.63     0.034 C 
BRANCH   8   9
ATOM      9  CG  LYS A 135      30.738  34.645   9.925  1.00 29.45     0.005 C 
BRANCH   9  10
ATOM     10  CD  LYS A 135      30.309  34.528   8.471  1.00 32.00     0.041 C 
BRANCH  10  11
ATOM     11  CE  LYS A 135      29.603  35.793   8.021  1.00 34.25     0.338 C 
ATOM     12  NZ  LYS A 135      28.861  35.570   6.750  1.00 35.99     0.618 N 
ENDBRANCH  10  11
ENDBRANCH   9  10
ENDBRANCH   8   9
ENDBRANCH   7   8
END_RES LYS A 135
