REMARK VINA RESULT:    -4.857      3.045      6.584
REMARK INTER + INTRA:         -23.181
REMARK INTER:                  -9.725
REMARK INTRA:                 -13.456
REMARK UNBOUND:               -10.372
REMARK SMILES CC(=O)N[C@@H]1[C@@H](O)C[C@](OC[C@H]2O[C@@H](O[C@H]3[C@H](O)[C@@H](O)[C@H](OCCN=[N+]=[N-])O[C@@H]3CO)[C@H](O)[C@@H](O)[C@H]2O)(C(=O)O)O[C@H]1C(O)[C@H](O)CNC(=O)OCc1cn(CC(=O)NCc2cccs2)nn1
REMARK SMILES IDX 43 1 42 2 9 3 8 4 41 5 6 6 5 7 10 8 11 9 12 10 14 11 13 12
REMARK SMILES IDX 32 13 34 14 36 15 15 16 16 17 29 18 28 19 21 20 17 21 19 22
REMARK SMILES IDX 30 23 31 24 22 26 23 27 24 28 25 29 26 30 27 31 18 32 20 34
REMARK SMILES IDX 33 36 35 38 37 40 38 42 39 43 40 44 7 46 4 48 2 49 1 51 3 52
REMARK SMILES IDX 44 53 45 55 46 56 47 58 48 59 49 60 50 62 51 63 52 64 53 65
REMARK SMILES IDX 54 66 67 67 55 68 66 69 56 70 57 71 58 72 59 73 60 75 61 76
REMARK SMILES IDX 62 77 65 78 63 79 64 80
REMARK H PARENT 31 25 18 33 20 35 33 37 35 39 37 41 40 45 7 47 4 50 44 54
REMARK H PARENT 46 57 48 61 59 74
REMARK Flexibility Score: inf
ROOT
ATOM      1  C   UNL     1      27.777  38.449  10.246  1.00  0.00     0.176 C 
ENDROOT
BRANCH   1   2
ATOM      2  C   UNL     1      28.004  39.463   9.156  1.00  0.00     0.178 C 
ATOM      3  C   UNL     1      26.480  39.311   7.353  1.00  0.00     0.272 C 
ATOM      4  C   UNL     1      27.412  38.245   6.753  1.00  0.00     0.113 C 
ATOM      5  O   UNL     1      26.814  39.736   8.576  1.00  0.00    -0.332 OA
ATOM      6  C   UNL     1      28.806  38.705   6.896  1.00  0.00     0.145 C 
ATOM      7  C   UNL     1      29.160  39.215   8.268  1.00  0.00     0.142 C 
BRANCH   3   8
ATOM      8  O   UNL     1      25.244  38.708   7.352  1.00  0.00    -0.338 OA
BRANCH   8   9
ATOM      9  C   UNL     1      25.109  37.393   7.533  1.00  0.00     0.199 C 
BRANCH   9  10
ATOM     10  C   UNL     1      23.775  36.828   7.930  1.00  0.00     0.179 C 
ATOM     11  C   UNL     1      23.009  35.315   9.476  1.00  0.00     0.282 C 
ATOM     12  O   UNL     1      23.978  36.297   9.227  1.00  0.00    -0.341 OA
ATOM     13  C   UNL     1      21.648  35.761   9.057  1.00  0.00     0.202 C 
ATOM     14  C   UNL     1      21.513  37.218   8.766  1.00  0.00     0.179 C 
ATOM     15  C   UNL     1      22.697  37.871   8.127  1.00  0.00     0.177 C 
BRANCH  11  16
ATOM     16  O   UNL     1      23.005  34.895  10.777  1.00  0.00    -0.341 OA
BRANCH  16  17
ATOM     17  C   UNL     1      23.941  35.550  11.575  1.00  0.00     0.184 C 
ATOM     18  C   UNL     1      24.894  34.656  12.238  1.00  0.00     0.178 C 
ATOM     19  O   UNL     1      24.814  34.502  13.596  1.00  0.00    -0.341 OA
ATOM     20  C   UNL     1      23.727  35.004  14.235  1.00  0.00     0.281 C 
ATOM     21  C   UNL     1      23.189  36.518  12.444  1.00  0.00     0.180 C 
ATOM     22  C   UNL     1      23.648  36.499  13.880  1.00  0.00     0.202 C 
BRANCH  18  23
ATOM     23  C   UNL     1      26.337  35.137  11.981  1.00  0.00     0.191 C 
BRANCH  23  24
ATOM     24  O   UNL     1      27.177  34.861  13.038  1.00  0.00    -0.394 OA
ATOM     25  H   UNL     1      26.681  35.047  13.880  1.00  0.00     0.210 HD
ENDBRANCH  23  24
ENDBRANCH  18  23
BRANCH  20  26
ATOM     26  O   UNL     1      23.980  34.997  15.617  1.00  0.00    -0.350 OA
BRANCH  26  27
ATOM     27  C   UNL     1      25.332  35.015  15.894  1.00  0.00     0.169 C 
BRANCH  27  28
ATOM     28  C   UNL     1      25.516  35.794  17.200  1.00  0.00     0.119 C 
BRANCH  28  29
ATOM     29  N   UNL     1      26.500  36.845  16.995  1.00  0.00    -0.092 NA
ATOM     30  N   UNL     1      26.355  37.640  16.067  1.00  0.00     0.001 N 
ATOM     31  N   UNL     1      26.162  38.585  15.280  1.00  0.00    -0.003 NA
ENDBRANCH  28  29
ENDBRANCH  27  28
ENDBRANCH  26  27
ENDBRANCH  20  26
BRANCH  21  32
ATOM     32  O   UNL     1      23.184  37.820  11.935  1.00  0.00    -0.387 OA
ATOM     33  H   UNL     1      22.680  38.442  12.544  1.00  0.00     0.211 HD
ENDBRANCH  21  32
BRANCH  22  34
ATOM     34  O   UNL     1      22.695  37.138  14.649  1.00  0.00    -0.385 OA
ATOM     35  H   UNL     1      21.983  37.524  14.078  1.00  0.00     0.211 HD
ENDBRANCH  22  34
ENDBRANCH  16  17
ENDBRANCH  11  16
BRANCH  13  36
ATOM     36  O   UNL     1      21.167  35.006   7.963  1.00  0.00    -0.385 OA
ATOM     37  H   UNL     1      20.275  34.649   8.100  1.00  0.00     0.211 HD
ENDBRANCH  13  36
BRANCH  14  38
ATOM     38  O   UNL     1      21.093  37.919   9.921  1.00  0.00    -0.387 OA
ATOM     39  H   UNL     1      21.852  38.011  10.548  1.00  0.00     0.211 HD
ENDBRANCH  14  38
BRANCH  15  40
ATOM     40  O   UNL     1      23.166  38.835   9.051  1.00  0.00    -0.387 OA
ATOM     41  H   UNL     1      22.706  39.700   8.953  1.00  0.00     0.211 HD
ENDBRANCH  15  40
ENDBRANCH   9  10
ENDBRANCH   8   9
ENDBRANCH   3   8
BRANCH   3  42
ATOM     42  C   UNL     1      26.539  40.441   6.374  1.00  0.00     0.364 C 
ATOM     43  O   UNL     1      26.289  40.335   5.152  1.00  0.00    -0.246 OA
BRANCH  42  44
ATOM     44  O   UNL     1      26.890  41.707   6.824  1.00  0.00    -0.477 OA
ATOM     45  H   UNL     1      26.711  41.979   7.783  1.00  0.00     0.296 HD
ENDBRANCH  42  44
ENDBRANCH   3  42
BRANCH   6  46
ATOM     46  O   UNL     1      29.687  37.658   6.500  1.00  0.00    -0.391 OA
ATOM     47  H   UNL     1      29.409  36.796   6.879  1.00  0.00     0.211 HD
ENDBRANCH   6  46
BRANCH   7  48
ATOM     48  N   UNL     1      30.034  40.367   8.181  1.00  0.00    -0.348 N 
ATOM     49  C   UNL     1      31.160  40.471   9.025  1.00  0.00     0.217 C 
ATOM     50  H   UNL     1      29.857  41.152   7.500  1.00  0.00     0.163 HD
ATOM     51  C   UNL     1      32.048  41.666   8.921  1.00  0.00     0.114 C 
ATOM     52  O   UNL     1      31.474  39.609   9.878  1.00  0.00    -0.275 OA
ENDBRANCH   7  48
ENDBRANCH   1   2
BRANCH   1  53
ATOM     53  O   UNL     1      28.893  38.040  10.917  1.00  0.00    -0.388 OA
ATOM     54  H   UNL     1      29.064  37.075  10.935  1.00  0.00     0.211 HD
ENDBRANCH   1  53
BRANCH   1  55
ATOM     55  C   UNL     1      26.603  38.740  11.157  1.00  0.00     0.165 C 
BRANCH  55  56
ATOM     56  O   UNL     1      25.393  38.575  10.555  1.00  0.00    -0.388 OA
ATOM     57  H   UNL     1      24.909  37.758  10.804  1.00  0.00     0.211 HD
ENDBRANCH  55  56
BRANCH  55  58
ATOM     58  C   UNL     1      26.737  40.131  11.751  1.00  0.00     0.154 C 
BRANCH  58  59
ATOM     59  N   UNL     1      27.504  40.151  12.962  1.00  0.00    -0.319 N 
ATOM     60  C   UNL     1      28.851  40.565  13.111  1.00  0.00     0.407 C 
ATOM     61  H   UNL     1      27.062  39.828  13.895  1.00  0.00     0.167 HD
ATOM     62  O   UNL     1      29.519  40.975  12.162  1.00  0.00    -0.225 OA
BRANCH  60  63
ATOM     63  O   UNL     1      29.494  40.525  14.364  1.00  0.00    -0.443 OA
BRANCH  63  64
ATOM     64  C   UNL     1      29.651  39.387  15.147  1.00  0.00     0.294 C 
BRANCH  64  65
ATOM     65  C   UNL     1      29.978  38.165  14.400  1.00  0.00     0.120 A 
ATOM     66  C   UNL     1      31.234  37.662  14.139  1.00  0.00     0.138 A 
ATOM     67  N   UNL     1      29.103  37.295  13.829  1.00  0.00    -0.132 NA
ATOM     68  N   UNL     1      31.103  36.531  13.435  1.00  0.00    -0.243 N 
ATOM     69  N   UNL     1      29.815  36.341  13.269  1.00  0.00    -0.067 NA
BRANCH  68  70
ATOM     70  C   UNL     1      32.104  35.623  12.918  1.00  0.00     0.245 C 
BRANCH  70  71
ATOM     71  C   UNL     1      32.377  34.598  13.942  1.00  0.00     0.242 C 
ATOM     72  O   UNL     1      33.510  34.502  14.448  1.00  0.00    -0.273 OA
ATOM     73  N   UNL     1      31.356  33.712  14.361  1.00  0.00    -0.350 N 
ATOM     74  H   UNL     1      30.379  33.759  13.956  1.00  0.00     0.163 HD
BRANCH  73  75
ATOM     75  C   UNL     1      31.580  32.705  15.353  1.00  0.00     0.162 C 
BRANCH  75  76
ATOM     76  C   UNL     1      30.517  32.778  16.366  1.00  0.00     0.024 A 
ATOM     77  C   UNL     1      30.434  32.273  17.623  1.00  0.00     0.017 A 
ATOM     78  S   UNL     1      28.986  33.615  16.160  1.00  0.00    -0.147 S 
ATOM     79  C   UNL     1      29.330  32.497  18.351  1.00  0.00     0.012 A 
ATOM     80  C   UNL     1      28.315  33.215  17.837  1.00  0.00     0.065 A 
ENDBRANCH  75  76
ENDBRANCH  73  75
ENDBRANCH  70  71
ENDBRANCH  68  70
ENDBRANCH  64  65
ENDBRANCH  63  64
ENDBRANCH  60  63
ENDBRANCH  58  59
ENDBRANCH  55  58
ENDBRANCH   1  55
TORSDOF 33
BEGIN_RES LYS A 131
REMARK  4 active torsions:
REMARK  status: ('A' for Active; 'I' for Inactive)
REMARK    1  A    between atoms: CA   and  CB  
REMARK    2  A    between atoms: CB   and  CG  
REMARK    3  A    between atoms: CG   and  CD  
REMARK    4  A    between atoms: CD   and  CE  
ROOT
ATOM      1  CA  LYS A 131      29.867  25.555  16.977  1.00 20.52     0.186 C 
ENDROOT
BRANCH   1   2
ATOM      2  CB  LYS A 131      28.345  25.722  17.026  1.00 20.94     0.034 C 
BRANCH   2   3
ATOM      3  CG  LYS A 131      27.599  24.434  16.712  1.00 22.96     0.005 C 
BRANCH   3   4
ATOM      4  CD  LYS A 131      26.965  23.834  17.936  1.00 24.33     0.041 C 
BRANCH   4   5
ATOM      5  CE  LYS A 131      25.585  23.291  17.579  1.00 26.91     0.338 C 
ATOM      6  NZ  LYS A 131      24.782  24.326  16.887  1.00 27.40     0.618 N 
ENDBRANCH   4   5
ENDBRANCH   3   4
ENDBRANCH   2   3
ENDBRANCH   1   2
END_RES LYS A 131
BEGIN_RES LYS A 135
REMARK  4 active torsions:
REMARK  status: ('A' for Active; 'I' for Inactive)
REMARK    5  A    between atoms: CA   and  CB  
REMARK    6  A    between atoms: CB   and  CG  
REMARK    7  A    between atoms: CG   and  CD  
REMARK    8  A    between atoms: CD   and  CE  
ROOT
ATOM      7  CA  LYS A 135      33.193  34.663   9.290  1.00 25.02     0.186 C 
ENDROOT
BRANCH   7   8
ATOM      8  CB  LYS A 135      32.060  35.360  10.034  1.00 26.63     0.034 C 
BRANCH   8   9
ATOM      9  CG  LYS A 135      30.864  35.658   9.167  1.00 29.45     0.005 C 
BRANCH   9  10
ATOM     10  CD  LYS A 135      30.072  34.389   8.891  1.00 32.00     0.041 C 
BRANCH  10  11
ATOM     11  CE  LYS A 135      28.891  34.685   7.986  1.00 34.25     0.338 C 
ATOM     12  NZ  LYS A 135      27.659  34.944   8.781  1.00 35.99     0.618 N 
ENDBRANCH  10  11
ENDBRANCH   9  10
ENDBRANCH   8   9
ENDBRANCH   7   8
END_RES LYS A 135
