REMARK VINA RESULT:    -4.703      3.430     11.161
REMARK INTER + INTRA:         -24.424
REMARK INTER:                 -14.011
REMARK INTRA:                 -10.413
REMARK UNBOUND:               -11.748
REMARK SMILES CC(=O)N[C@@H]1[C@@H](O)C[C@](OC[C@H]2O[C@@H](O[C@H]3[C@H](O)[C@@H](O)[C@H](OCCN=[N+]=[N-])O[C@@H]3CO)[C@H](O)[C@@H](O)[C@H]2O)(C(=O)O)O[C@H]1C(O)[C@H](O)CNC(=O)OCc1cn([C@@H](C)C(=O)OCc2ccccc2)nn1
REMARK SMILES IDX 43 1 42 2 9 3 8 4 41 5 6 6 5 7 10 8 11 9 12 10 14 11 13 12
REMARK SMILES IDX 32 13 34 14 36 15 15 16 16 17 29 18 28 19 21 20 17 21 19 22
REMARK SMILES IDX 30 23 31 24 22 26 23 27 24 28 25 29 26 30 27 31 18 32 20 34
REMARK SMILES IDX 33 36 35 38 37 40 38 42 39 43 40 44 7 46 4 48 2 49 1 51 3 52
REMARK SMILES IDX 44 53 45 55 46 56 47 58 48 59 49 60 50 62 51 63 52 64 53 65
REMARK SMILES IDX 54 66 69 67 55 68 68 69 56 70 57 71 58 72 59 73 60 74 61 75
REMARK SMILES IDX 62 76 63 77 67 78 64 79 66 80 65 81
REMARK H PARENT 31 25 18 33 20 35 33 37 35 39 37 41 40 45 7 47 4 50 44 54
REMARK H PARENT 46 57 48 61
REMARK Flexibility Score: inf
ROOT
ATOM      1  C   UNL     1      26.992  36.389   7.476  1.00  0.00     0.176 C 
ENDROOT
BRANCH   1   2
ATOM      2  C   UNL     1      27.268  37.361   8.556  1.00  0.00     0.178 C 
ATOM      3  C   UNL     1      25.161  38.272   8.981  1.00  0.00     0.272 C 
ATOM      4  C   UNL     1      25.648  39.571   8.465  1.00  0.00     0.113 C 
ATOM      5  O   UNL     1      26.281  37.524   9.492  1.00  0.00    -0.332 OA
ATOM      6  C   UNL     1      26.727  39.446   7.416  1.00  0.00     0.145 C 
ATOM      7  C   UNL     1      27.846  38.635   7.997  1.00  0.00     0.142 C 
BRANCH   3   8
ATOM      8  O   UNL     1      24.509  37.432   8.219  1.00  0.00    -0.338 OA
BRANCH   8   9
ATOM      9  C   UNL     1      23.386  37.506   7.565  1.00  0.00     0.199 C 
BRANCH   9  10
ATOM     10  C   UNL     1      22.199  36.632   7.857  1.00  0.00     0.179 C 
ATOM     11  C   UNL     1      21.420  35.256   9.565  1.00  0.00     0.282 C 
ATOM     12  O   UNL     1      22.511  35.775   8.871  1.00  0.00    -0.341 OA
ATOM     13  C   UNL     1      20.162  35.298   8.774  1.00  0.00     0.202 C 
ATOM     14  C   UNL     1      19.772  36.715   8.453  1.00  0.00     0.179 C 
ATOM     15  C   UNL     1      20.997  37.526   8.233  1.00  0.00     0.177 C 
BRANCH  11  16
ATOM     16  O   UNL     1      21.405  35.856  10.794  1.00  0.00    -0.341 OA
BRANCH  16  17
ATOM     17  C   UNL     1      21.167  35.031  11.853  1.00  0.00     0.184 C 
ATOM     18  C   UNL     1      21.059  35.854  13.111  1.00  0.00     0.178 C 
ATOM     19  O   UNL     1      20.970  35.012  14.225  1.00  0.00    -0.341 OA
ATOM     20  C   UNL     1      22.313  34.675  14.528  1.00  0.00     0.281 C 
ATOM     21  C   UNL     1      22.282  34.023  12.078  1.00  0.00     0.180 C 
ATOM     22  C   UNL     1      23.070  34.226  13.318  1.00  0.00     0.202 C 
BRANCH  18  23
ATOM     23  C   UNL     1      19.960  36.874  13.093  1.00  0.00     0.191 C 
BRANCH  23  24
ATOM     24  O   UNL     1      18.980  36.391  12.221  1.00  0.00    -0.394 OA
ATOM     25  H   UNL     1      18.078  36.384  12.620  1.00  0.00     0.210 HD
ENDBRANCH  23  24
ENDBRANCH  18  23
BRANCH  20  26
ATOM     26  O   UNL     1      22.294  33.781  15.551  1.00  0.00    -0.350 OA
BRANCH  26  27
ATOM     27  C   UNL     1      23.081  32.680  15.482  1.00  0.00     0.169 C 
BRANCH  27  28
ATOM     28  C   UNL     1      22.494  31.374  15.883  1.00  0.00     0.119 C 
BRANCH  28  29
ATOM     29  N   UNL     1      22.849  30.234  15.119  1.00  0.00    -0.092 NA
ATOM     30  N   UNL     1      23.155  30.306  13.934  1.00  0.00     0.001 N 
ATOM     31  N   UNL     1      23.637  30.331  12.787  1.00  0.00    -0.003 NA
ENDBRANCH  28  29
ENDBRANCH  27  28
ENDBRANCH  26  27
ENDBRANCH  20  26
BRANCH  21  32
ATOM     32  O   UNL     1      21.793  32.713  12.064  1.00  0.00    -0.387 OA
ATOM     33  H   UNL     1      21.144  32.551  11.343  1.00  0.00     0.211 HD
ENDBRANCH  21  32
BRANCH  22  34
ATOM     34  O   UNL     1      24.178  35.032  13.037  1.00  0.00    -0.385 OA
ATOM     35  H   UNL     1      24.396  34.887  12.077  1.00  0.00     0.211 HD
ENDBRANCH  22  34
ENDBRANCH  16  17
ENDBRANCH  11  16
BRANCH  13  36
ATOM     36  O   UNL     1      20.359  34.549   7.589  1.00  0.00    -0.385 OA
ATOM     37  H   UNL     1      19.467  34.120   7.415  1.00  0.00     0.211 HD
ENDBRANCH  13  36
BRANCH  14  38
ATOM     38  O   UNL     1      18.963  37.192   9.464  1.00  0.00    -0.387 OA
ATOM     39  H   UNL     1      18.233  36.556   9.698  1.00  0.00     0.211 HD
ENDBRANCH  14  38
BRANCH  15  40
ATOM     40  O   UNL     1      21.296  38.352   9.308  1.00  0.00    -0.387 OA
ATOM     41  H   UNL     1      21.051  39.300   9.072  1.00  0.00     0.211 HD
ENDBRANCH  15  40
ENDBRANCH   9  10
ENDBRANCH   8   9
ENDBRANCH   3   8
BRANCH   3  42
ATOM     42  C   UNL     1      24.453  38.544  10.293  1.00  0.00     0.364 C 
ATOM     43  O   UNL     1      24.417  39.679  10.788  1.00  0.00    -0.246 OA
BRANCH  42  44
ATOM     44  O   UNL     1      23.817  37.514  10.985  1.00  0.00    -0.477 OA
ATOM     45  H   UNL     1      23.949  37.333  11.975  1.00  0.00     0.296 HD
ENDBRANCH  42  44
ENDBRANCH   3  42
BRANCH   6  46
ATOM     46  O   UNL     1      26.256  38.929   6.212  1.00  0.00    -0.391 OA
ATOM     47  H   UNL     1      25.336  38.618   6.379  1.00  0.00     0.211 HD
ENDBRANCH   6  46
BRANCH   7  48
ATOM     48  N   UNL     1      28.502  39.422   9.033  1.00  0.00    -0.348 N 
ATOM     49  C   UNL     1      29.923  39.326   9.162  1.00  0.00     0.217 C 
ATOM     50  H   UNL     1      27.997  40.051   9.688  1.00  0.00     0.163 HD
ATOM     51  C   UNL     1      30.596  40.133  10.224  1.00  0.00     0.114 C 
ATOM     52  O   UNL     1      30.583  38.576   8.392  1.00  0.00    -0.275 OA
ENDBRANCH   7  48
ENDBRANCH   1   2
BRANCH   1  53
ATOM     53  O   UNL     1      28.069  36.419   6.557  1.00  0.00    -0.388 OA
ATOM     54  H   UNL     1      28.286  37.359   6.310  1.00  0.00     0.211 HD
ENDBRANCH   1  53
BRANCH   1  55
ATOM     55  C   UNL     1      26.967  34.928   7.953  1.00  0.00     0.165 C 
BRANCH  55  56
ATOM     56  O   UNL     1      25.934  34.674   8.800  1.00  0.00    -0.388 OA
ATOM     57  H   UNL     1      26.245  34.609   9.734  1.00  0.00     0.211 HD
ENDBRANCH  55  56
BRANCH  55  58
ATOM     58  C   UNL     1      28.319  34.497   8.422  1.00  0.00     0.154 C 
BRANCH  58  59
ATOM     59  N   UNL     1      28.281  34.112   9.806  1.00  0.00    -0.319 N 
ATOM     60  C   UNL     1      28.685  34.909  10.903  1.00  0.00     0.407 C 
ATOM     61  H   UNL     1      27.922  33.144  10.084  1.00  0.00     0.167 HD
ATOM     62  O   UNL     1      29.138  36.044  10.736  1.00  0.00    -0.225 OA
BRANCH  60  63
ATOM     63  O   UNL     1      28.583  34.434  12.220  1.00  0.00    -0.443 OA
BRANCH  63  64
ATOM     64  C   UNL     1      28.597  35.297  13.329  1.00  0.00     0.294 C 
BRANCH  64  65
ATOM     65  C   UNL     1      27.672  34.740  14.343  1.00  0.00     0.120 A 
ATOM     66  C   UNL     1      27.763  33.537  15.007  1.00  0.00     0.139 A 
ATOM     67  N   UNL     1      26.559  35.336  14.785  1.00  0.00    -0.132 NA
ATOM     68  N   UNL     1      26.694  33.427  15.844  1.00  0.00    -0.238 N 
ATOM     69  N   UNL     1      25.985  34.529  15.689  1.00  0.00    -0.066 NA
BRANCH  68  70
ATOM     70  C   UNL     1      26.488  32.270  16.680  1.00  0.00     0.215 C 
ATOM     71  C   UNL     1      26.737  30.986  15.912  1.00  0.00     0.046 C 
BRANCH  70  72
ATOM     72  C   UNL     1      27.396  32.321  17.881  1.00  0.00     0.331 C 
ATOM     73  O   UNL     1      27.371  33.324  18.613  1.00  0.00    -0.250 OA
BRANCH  72  74
ATOM     74  O   UNL     1      28.246  31.282  18.180  1.00  0.00    -0.459 OA
BRANCH  74  75
ATOM     75  C   UNL     1      29.605  31.420  18.514  1.00  0.00     0.268 C 
BRANCH  75  76
ATOM     76  C   UNL     1      30.397  32.134  17.491  1.00  0.00    -0.011 A 
ATOM     77  C   UNL     1      30.600  31.630  16.233  1.00  0.00     0.007 A 
ATOM     78  C   UNL     1      30.964  33.349  17.789  1.00  0.00     0.007 A 
ATOM     79  C   UNL     1      31.340  32.291  15.279  1.00  0.00     0.000 A 
ATOM     80  C   UNL     1      31.710  34.047  16.867  1.00  0.00     0.000 A 
ATOM     81  C   UNL     1      31.895  33.503  15.602  1.00  0.00     0.000 A 
ENDBRANCH  75  76
ENDBRANCH  74  75
ENDBRANCH  72  74
ENDBRANCH  70  72
ENDBRANCH  68  70
ENDBRANCH  64  65
ENDBRANCH  63  64
ENDBRANCH  60  63
ENDBRANCH  58  59
ENDBRANCH  55  58
ENDBRANCH   1  55
TORSDOF 34
BEGIN_RES LYS A 131
REMARK  4 active torsions:
REMARK  status: ('A' for Active; 'I' for Inactive)
REMARK    1  A    between atoms: CA   and  CB  
REMARK    2  A    between atoms: CB   and  CG  
REMARK    3  A    between atoms: CG   and  CD  
REMARK    4  A    between atoms: CD   and  CE  
ROOT
ATOM      1  CA  LYS A 131      29.867  25.555  16.977  1.00 20.52     0.186 C 
ENDROOT
BRANCH   1   2
ATOM      2  CB  LYS A 131      28.345  25.722  17.026  1.00 20.94     0.034 C 
BRANCH   2   3
ATOM      3  CG  LYS A 131      27.602  24.399  16.919  1.00 22.96     0.005 C 
BRANCH   3   4
ATOM      4  CD  LYS A 131      26.154  24.530  17.303  1.00 24.33     0.041 C 
BRANCH   4   5
ATOM      5  CE  LYS A 131      26.026  25.480  18.490  1.00 26.91     0.338 C 
ATOM      6  NZ  LYS A 131      24.605  25.631  18.883  1.00 27.40     0.618 N 
ENDBRANCH   4   5
ENDBRANCH   3   4
ENDBRANCH   2   3
ENDBRANCH   1   2
END_RES LYS A 131
BEGIN_RES LYS A 135
REMARK  4 active torsions:
REMARK  status: ('A' for Active; 'I' for Inactive)
REMARK    5  A    between atoms: CA   and  CB  
REMARK    6  A    between atoms: CB   and  CG  
REMARK    7  A    between atoms: CG   and  CD  
REMARK    8  A    between atoms: CD   and  CE  
ROOT
ATOM      7  CA  LYS A 135      33.193  34.663   9.290  1.00 25.02     0.186 C 
ENDROOT
BRANCH   7   8
ATOM      8  CB  LYS A 135      32.060  35.360  10.034  1.00 26.63     0.034 C 
BRANCH   8   9
ATOM      9  CG  LYS A 135      32.400  35.707  11.460  1.00 29.45     0.005 C 
BRANCH   9  10
ATOM     10  CD  LYS A 135      32.272  37.205  11.693  1.00 32.00     0.041 C 
BRANCH  10  11
ATOM     11  CE  LYS A 135      31.509  37.481  12.974  1.00 34.25     0.338 C 
ATOM     12  NZ  LYS A 135      32.180  36.851  14.145  1.00 35.99     0.618 N 
ENDBRANCH  10  11
ENDBRANCH   9  10
ENDBRANCH   8   9
ENDBRANCH   7   8
END_RES LYS A 135
