REMARK VINA RESULT:    -5.147      2.619      7.914
REMARK INTER + INTRA:         -25.590
REMARK INTER:                 -15.305
REMARK INTRA:                 -10.285
REMARK UNBOUND:                -9.760
REMARK SMILES CC(=O)N[C@@H]1[C@@H](O)C[C@](OC[C@H]2O[C@@H](O[C@H]3[C@H](O)[C@@H](O)[C@H](OCCN=[N+]=[N-])O[C@@H]3CO)[C@H](O)[C@@H](O)[C@H]2O)(C(=O)O)O[C@H]1C(O)[C@H](O)CNC(=O)OCc1cn(CCCCCCCCCCC(=O)O)nn1
REMARK SMILES IDX 51 1 49 2 48 3 50 5 47 6 45 7 43 8 42 9 9 10 8 11 41 12 6 13
REMARK SMILES IDX 5 14 10 15 11 16 12 17 14 18 13 19 32 20 34 21 36 22 15 23
REMARK SMILES IDX 16 24 29 25 28 26 21 27 17 28 19 29 30 30 31 31 22 33 23 34
REMARK SMILES IDX 24 35 25 36 26 37 27 38 18 39 20 41 33 43 35 45 37 47 38 49
REMARK SMILES IDX 39 50 40 51 7 53 4 55 2 56 1 58 3 59 44 60 46 62 52 64 53 65
REMARK SMILES IDX 54 66 70 67 55 68 69 69 56 70 57 71 58 72 59 73 60 74 61 75
REMARK SMILES IDX 62 76 63 77 64 78 65 79 66 80 67 81 68 82
REMARK H PARENT 48 4 31 32 18 40 20 42 33 44 35 46 37 48 40 52 7 54 4 57 44 61
REMARK H PARENT 46 63 68 83
REMARK Flexibility Score: inf
ROOT
ATOM      1  O   UNL     1      27.837  34.459  11.768  1.00  0.00    -0.443 OA
ENDROOT
BRANCH   1   2
ATOM      2  C   UNL     1      28.199  34.222  10.424  1.00  0.00     0.407 C 
ATOM      3  N   UNL     1      29.496  34.544   9.953  1.00  0.00    -0.319 N 
ATOM      4  H   UNL     1      30.183  34.972  10.629  1.00  0.00     0.167 HD
ATOM      5  O   UNL     1      27.385  33.721   9.616  1.00  0.00    -0.225 OA
BRANCH   3   6
ATOM      6  C   UNL     1      29.907  34.313   8.602  1.00  0.00     0.154 C 
BRANCH   6   7
ATOM      7  C   UNL     1      29.558  35.441   7.636  1.00  0.00     0.165 C 
BRANCH   7   8
ATOM      8  C   UNL     1      29.693  36.703   8.413  1.00  0.00     0.176 C 
BRANCH   8   9
ATOM      9  C   UNL     1      28.494  37.622   8.403  1.00  0.00     0.178 C 
ATOM     10  C   UNL     1      26.234  37.594   8.951  1.00  0.00     0.272 C 
ATOM     11  C   UNL     1      26.024  38.502   7.758  1.00  0.00     0.113 C 
ATOM     12  O   UNL     1      27.394  36.877   8.725  1.00  0.00    -0.332 OA
ATOM     13  C   UNL     1      26.976  38.250   6.633  1.00  0.00     0.145 C 
ATOM     14  C   UNL     1      28.390  38.428   7.147  1.00  0.00     0.142 C 
BRANCH  10  15
ATOM     15  O   UNL     1      25.144  36.721   9.106  1.00  0.00    -0.338 OA
BRANCH  15  16
ATOM     16  C   UNL     1      23.919  37.218   8.815  1.00  0.00     0.199 C 
BRANCH  16  17
ATOM     17  C   UNL     1      23.010  36.000   8.547  1.00  0.00     0.179 C 
ATOM     18  C   UNL     1      21.834  35.528  10.546  1.00  0.00     0.282 C 
ATOM     19  O   UNL     1      22.793  35.246   9.632  1.00  0.00    -0.341 OA
ATOM     20  C   UNL     1      20.824  36.508  10.083  1.00  0.00     0.202 C 
ATOM     21  C   UNL     1      20.529  36.255   8.610  1.00  0.00     0.179 C 
ATOM     22  C   UNL     1      21.782  36.434   7.778  1.00  0.00     0.177 C 
BRANCH  18  23
ATOM     23  O   UNL     1      22.508  35.918  11.731  1.00  0.00    -0.341 OA
BRANCH  23  24
ATOM     24  C   UNL     1      22.889  34.757  12.391  1.00  0.00     0.184 C 
ATOM     25  C   UNL     1      22.271  34.558  13.736  1.00  0.00     0.178 C 
ATOM     26  O   UNL     1      22.833  33.492  14.373  1.00  0.00    -0.341 OA
ATOM     27  C   UNL     1      23.677  32.664  13.732  1.00  0.00     0.281 C 
ATOM     28  C   UNL     1      24.409  34.769  12.617  1.00  0.00     0.180 C 
ATOM     29  C   UNL     1      24.787  33.349  12.970  1.00  0.00     0.202 C 
BRANCH  25  30
ATOM     30  C   UNL     1      20.763  34.396  13.694  1.00  0.00     0.191 C 
BRANCH  30  31
ATOM     31  O   UNL     1      20.082  35.578  13.560  1.00  0.00    -0.394 OA
ATOM     32  H   UNL     1      19.704  35.825  14.444  1.00  0.00     0.210 HD
ENDBRANCH  30  31
ENDBRANCH  25  30
BRANCH  27  33
ATOM     33  O   UNL     1      22.978  31.858  12.843  1.00  0.00    -0.350 OA
BRANCH  33  34
ATOM     34  C   UNL     1      23.461  30.550  12.827  1.00  0.00     0.169 C 
BRANCH  34  35
ATOM     35  C   UNL     1      22.383  29.553  12.509  1.00  0.00     0.119 C 
BRANCH  35  36
ATOM     36  N   UNL     1      21.902  28.971  13.764  1.00  0.00    -0.092 NA
ATOM     37  N   UNL     1      21.157  29.626  14.526  1.00  0.00     0.001 N 
ATOM     38  N   UNL     1      20.457  30.497  15.087  1.00  0.00    -0.003 NA
ENDBRANCH  35  36
ENDBRANCH  34  35
ENDBRANCH  33  34
ENDBRANCH  27  33
BRANCH  28  39
ATOM     39  O   UNL     1      25.109  35.175  11.501  1.00  0.00    -0.387 OA
ATOM     40  H   UNL     1      24.663  34.945  10.648  1.00  0.00     0.211 HD
ENDBRANCH  28  39
BRANCH  29  41
ATOM     41  O   UNL     1      25.896  33.409  13.808  1.00  0.00    -0.385 OA
ATOM     42  H   UNL     1      26.231  32.467  13.927  1.00  0.00     0.211 HD
ENDBRANCH  29  41
ENDBRANCH  23  24
ENDBRANCH  18  23
BRANCH  20  43
ATOM     43  O   UNL     1      19.588  36.356  10.726  1.00  0.00    -0.385 OA
ATOM     44  H   UNL     1      19.781  36.457  11.705  1.00  0.00     0.211 HD
ENDBRANCH  20  43
BRANCH  21  45
ATOM     45  O   UNL     1      19.538  37.120   8.152  1.00  0.00    -0.387 OA
ATOM     46  H   UNL     1      19.155  37.557   8.955  1.00  0.00     0.211 HD
ENDBRANCH  21  45
BRANCH  22  47
ATOM     47  O   UNL     1      21.875  37.760   7.436  1.00  0.00    -0.387 OA
ATOM     48  H   UNL     1      21.174  37.962   6.764  1.00  0.00     0.211 HD
ENDBRANCH  22  47
ENDBRANCH  16  17
ENDBRANCH  15  16
ENDBRANCH  10  15
BRANCH  10  49
ATOM     49  C   UNL     1      26.299  38.341  10.210  1.00  0.00     0.364 C 
ATOM     50  O   UNL     1      26.256  37.793  11.323  1.00  0.00    -0.246 OA
BRANCH  49  51
ATOM     51  O   UNL     1      26.413  39.721  10.202  1.00  0.00    -0.477 OA
ATOM     52  H   UNL     1      26.719  40.249  11.023  1.00  0.00     0.296 HD
ENDBRANCH  49  51
ENDBRANCH  10  49
BRANCH  13  53
ATOM     53  O   UNL     1      26.803  37.061   5.959  1.00  0.00    -0.391 OA
ATOM     54  H   UNL     1      25.853  36.752   5.924  1.00  0.00     0.211 HD
ENDBRANCH  13  53
BRANCH  14  55
ATOM     55  N   UNL     1      28.615  39.827   7.302  1.00  0.00    -0.348 N 
ATOM     56  C   UNL     1      29.828  40.490   6.960  1.00  0.00     0.217 C 
ATOM     57  H   UNL     1      27.863  40.446   7.691  1.00  0.00     0.163 HD
ATOM     58  C   UNL     1      29.985  41.943   7.150  1.00  0.00     0.114 C 
ATOM     59  O   UNL     1      30.752  39.798   6.495  1.00  0.00    -0.275 OA
ENDBRANCH  14  55
ENDBRANCH   8   9
BRANCH   8  60
ATOM     60  O   UNL     1      30.875  37.309   8.080  1.00  0.00    -0.388 OA
ATOM     61  H   UNL     1      31.007  37.474   7.133  1.00  0.00     0.211 HD
ENDBRANCH   8  60
ENDBRANCH   7   8
BRANCH   7  62
ATOM     62  O   UNL     1      28.278  35.184   7.160  1.00  0.00    -0.388 OA
ATOM     63  H   UNL     1      27.669  35.951   7.292  1.00  0.00     0.211 HD
ENDBRANCH   7  62
ENDBRANCH   6   7
ENDBRANCH   3   6
ENDBRANCH   1   2
BRANCH   1  64
ATOM     64  C   UNL     1      28.490  35.557  12.420  1.00  0.00     0.294 C 
BRANCH  64  65
ATOM     65  C   UNL     1      28.847  35.106  13.781  1.00  0.00     0.120 A 
ATOM     66  C   UNL     1      29.969  34.363  14.101  1.00  0.00     0.138 A 
ATOM     67  N   UNL     1      28.186  35.326  14.926  1.00  0.00    -0.132 NA
ATOM     68  N   UNL     1      29.930  34.169  15.432  1.00  0.00    -0.252 N 
ATOM     69  N   UNL     1      28.825  34.770  15.917  1.00  0.00    -0.067 NA
BRANCH  68  70
ATOM     70  C   UNL     1      30.856  33.468  16.266  1.00  0.00     0.146 C 
BRANCH  70  71
ATOM     71  C   UNL     1      31.081  32.036  15.930  1.00  0.00     0.024 C 
BRANCH  71  72
ATOM     72  C   UNL     1      29.877  31.161  15.937  1.00  0.00     0.002 C 
BRANCH  72  73
ATOM     73  C   UNL     1      29.250  30.930  17.267  1.00  0.00     0.000 C 
BRANCH  73  74
ATOM     74  C   UNL     1      27.950  31.619  17.498  1.00  0.00     0.000 C 
BRANCH  74  75
ATOM     75  C   UNL     1      27.104  31.563  16.256  1.00  0.00     0.000 C 
BRANCH  75  76
ATOM     76  C   UNL     1      25.979  30.555  16.347  1.00  0.00     0.000 C 
BRANCH  76  77
ATOM     77  C   UNL     1      25.828  29.954  17.706  1.00  0.00     0.001 C 
BRANCH  77  78
ATOM     78  C   UNL     1      25.809  28.457  17.732  1.00  0.00     0.012 C 
BRANCH  78  79
ATOM     79  C   UNL     1      27.236  27.965  17.895  1.00  0.00     0.122 C 
BRANCH  79  80
ATOM     80  C   UNL     1      27.412  27.452  19.264  1.00  0.00     0.303 C 
ATOM     81  O   UNL     1      26.536  27.641  20.133  1.00  0.00    -0.252 OA
BRANCH  80  82
ATOM     82  O   UNL     1      28.550  26.748  19.632  1.00  0.00    -0.481 OA
ATOM     83  H   UNL     1      29.450  27.187  19.711  1.00  0.00     0.296 HD
ENDBRANCH  80  82
ENDBRANCH  79  80
ENDBRANCH  78  79
ENDBRANCH  77  78
ENDBRANCH  76  77
ENDBRANCH  75  76
ENDBRANCH  74  75
ENDBRANCH  73  74
ENDBRANCH  72  73
ENDBRANCH  71  72
ENDBRANCH  70  71
ENDBRANCH  68  70
ENDBRANCH  64  65
ENDBRANCH   1  64
TORSDOF 41
BEGIN_RES LYS A 131
REMARK  4 active torsions:
REMARK  status: ('A' for Active; 'I' for Inactive)
REMARK    1  A    between atoms: CA   and  CB  
REMARK    2  A    between atoms: CB   and  CG  
REMARK    3  A    between atoms: CG   and  CD  
REMARK    4  A    between atoms: CD   and  CE  
ROOT
ATOM      1  CA  LYS A 131      29.867  25.555  16.977  1.00 20.52     0.186 C 
ENDROOT
BRANCH   1   2
ATOM      2  CB  LYS A 131      28.345  25.722  17.026  1.00 20.94     0.034 C 
BRANCH   2   3
ATOM      3  CG  LYS A 131      27.602  24.397  16.945  1.00 22.96     0.005 C 
BRANCH   3   4
ATOM      4  CD  LYS A 131      26.160  24.530  17.349  1.00 24.33     0.041 C 
BRANCH   4   5
ATOM      5  CE  LYS A 131      25.962  23.924  18.735  1.00 26.91     0.338 C 
ATOM      6  NZ  LYS A 131      24.798  24.544  19.411  1.00 27.40     0.618 N 
ENDBRANCH   4   5
ENDBRANCH   3   4
ENDBRANCH   2   3
ENDBRANCH   1   2
END_RES LYS A 131
BEGIN_RES LYS A 135
REMARK  4 active torsions:
REMARK  status: ('A' for Active; 'I' for Inactive)
REMARK    5  A    between atoms: CA   and  CB  
REMARK    6  A    between atoms: CB   and  CG  
REMARK    7  A    between atoms: CG   and  CD  
REMARK    8  A    between atoms: CD   and  CE  
ROOT
ATOM      7  CA  LYS A 135      33.193  34.663   9.290  1.00 25.02     0.186 C 
ENDROOT
BRANCH   7   8
ATOM      8  CB  LYS A 135      32.060  35.360  10.034  1.00 26.63     0.034 C 
BRANCH   8   9
ATOM      9  CG  LYS A 135      32.501  36.035  11.307  1.00 29.45     0.005 C 
BRANCH   9  10
ATOM     10  CD  LYS A 135      32.132  37.510  11.288  1.00 32.00     0.041 C 
BRANCH  10  11
ATOM     11  CE  LYS A 135      31.331  37.876  12.523  1.00 34.25     0.338 C 
ATOM     12  NZ  LYS A 135      31.905  37.240  13.741  1.00 35.99     0.618 N 
ENDBRANCH  10  11
ENDBRANCH   9  10
ENDBRANCH   8   9
ENDBRANCH   7   8
END_RES LYS A 135
