REMARK VINA RESULT:    -4.996      2.769      8.439
REMARK INTER + INTRA:         -25.125
REMARK INTER:                 -15.186
REMARK INTRA:                  -9.939
REMARK UNBOUND:                -9.760
REMARK SMILES CC(=O)N[C@@H]1[C@@H](O)C[C@](OC[C@H]2O[C@@H](O[C@H]3[C@H](O)[C@@H](O)[C@H](OCCN=[N+]=[N-])O[C@@H]3CO)[C@H](O)[C@@H](O)[C@H]2O)(C(=O)O)O[C@H]1C(O)[C@H](O)CNC(=O)OCc1cn(CCCCCCCCCCC(=O)O)nn1
REMARK SMILES IDX 51 1 49 2 48 3 50 5 47 6 45 7 43 8 42 9 9 10 8 11 41 12 6 13
REMARK SMILES IDX 5 14 10 15 11 16 12 17 14 18 13 19 32 20 34 21 36 22 15 23
REMARK SMILES IDX 16 24 29 25 28 26 21 27 17 28 19 29 30 30 31 31 22 33 23 34
REMARK SMILES IDX 24 35 25 36 26 37 27 38 18 39 20 41 33 43 35 45 37 47 38 49
REMARK SMILES IDX 39 50 40 51 7 53 4 55 2 56 1 58 3 59 44 60 46 62 52 64 53 65
REMARK SMILES IDX 54 66 70 67 55 68 69 69 56 70 57 71 58 72 59 73 60 74 61 75
REMARK SMILES IDX 62 76 63 77 64 78 65 79 66 80 67 81 68 82
REMARK H PARENT 48 4 31 32 18 40 20 42 33 44 35 46 37 48 40 52 7 54 4 57 44 61
REMARK H PARENT 46 63 68 83
REMARK Flexibility Score: inf
ROOT
ATOM      1  O   UNL     1      28.580  33.760   9.262  1.00  0.00    -0.443 OA
ENDROOT
BRANCH   1   2
ATOM      2  C   UNL     1      29.142  34.487   8.189  1.00  0.00     0.407 C 
ATOM      3  N   UNL     1      28.321  35.247   7.319  1.00  0.00    -0.319 N 
ATOM      4  H   UNL     1      27.280  35.249   7.486  1.00  0.00     0.167 HD
ATOM      5  O   UNL     1      30.376  34.482   7.983  1.00  0.00    -0.225 OA
BRANCH   3   6
ATOM      6  C   UNL     1      28.848  36.005   6.225  1.00  0.00     0.154 C 
BRANCH   6   7
ATOM      7  C   UNL     1      28.861  37.513   6.454  1.00  0.00     0.165 C 
BRANCH   7   8
ATOM      8  C   UNL     1      27.464  37.975   6.228  1.00  0.00     0.176 C 
BRANCH   8   9
ATOM      9  C   UNL     1      26.747  38.538   7.433  1.00  0.00     0.178 C 
ATOM     10  C   UNL     1      25.406  37.822   9.193  1.00  0.00     0.272 C 
ATOM     11  C   UNL     1      24.672  39.139   9.051  1.00  0.00     0.113 C 
ATOM     12  O   UNL     1      25.984  37.539   7.970  1.00  0.00    -0.332 OA
ATOM     13  C   UNL     1      24.615  39.650   7.648  1.00  0.00     0.145 C 
ATOM     14  C   UNL     1      26.031  39.818   7.137  1.00  0.00     0.142 C 
BRANCH  10  15
ATOM     15  O   UNL     1      24.519  36.798   9.562  1.00  0.00    -0.338 OA
BRANCH  15  16
ATOM     16  C   UNL     1      23.201  37.031   9.364  1.00  0.00     0.199 C 
BRANCH  16  17
ATOM     17  C   UNL     1      22.550  35.656   9.105  1.00  0.00     0.179 C 
ATOM     18  C   UNL     1      20.960  35.280  10.817  1.00  0.00     0.282 C 
ATOM     19  O   UNL     1      22.152  35.035  10.223  1.00  0.00    -0.341 OA
ATOM     20  C   UNL     1      19.994  36.008   9.962  1.00  0.00     0.202 C 
ATOM     21  C   UNL     1      20.128  35.507   8.530  1.00  0.00     0.179 C 
ATOM     22  C   UNL     1      21.523  35.770   8.001  1.00  0.00     0.177 C 
BRANCH  18  23
ATOM     23  O   UNL     1      21.247  35.937  12.041  1.00  0.00    -0.341 OA
BRANCH  23  24
ATOM     24  C   UNL     1      21.724  34.976  12.923  1.00  0.00     0.184 C 
ATOM     25  C   UNL     1      20.851  34.707  14.104  1.00  0.00     0.178 C 
ATOM     26  O   UNL     1      21.478  33.886  14.993  1.00  0.00    -0.341 OA
ATOM     27  C   UNL     1      22.639  33.283  14.683  1.00  0.00     0.281 C 
ATOM     28  C   UNL     1      23.081  35.426  13.490  1.00  0.00     0.180 C 
ATOM     29  C   UNL     1      23.699  34.194  14.110  1.00  0.00     0.202 C 
BRANCH  25  30
ATOM     30  C   UNL     1      19.495  34.130  13.739  1.00  0.00     0.191 C 
BRANCH  30  31
ATOM     31  O   UNL     1      18.601  35.063  13.284  1.00  0.00    -0.394 OA
ATOM     32  H   UNL     1      18.014  35.330  14.038  1.00  0.00     0.210 HD
ENDBRANCH  30  31
ENDBRANCH  25  30
BRANCH  27  33
ATOM     33  O   UNL     1      22.420  32.255  13.776  1.00  0.00    -0.350 OA
BRANCH  33  34
ATOM     34  C   UNL     1      23.612  31.712  13.297  1.00  0.00     0.169 C 
BRANCH  34  35
ATOM     35  C   UNL     1      23.747  30.255  13.636  1.00  0.00     0.119 C 
BRANCH  35  36
ATOM     36  N   UNL     1      23.339  29.465  12.473  1.00  0.00    -0.092 NA
ATOM     37  N   UNL     1      22.141  29.148  12.306  1.00  0.00     0.001 N 
ATOM     38  N   UNL     1      20.908  28.965  12.404  1.00  0.00    -0.003 NA
ENDBRANCH  35  36
ENDBRANCH  34  35
ENDBRANCH  33  34
ENDBRANCH  27  33
BRANCH  28  39
ATOM     39  O   UNL     1      23.919  35.931  12.519  1.00  0.00    -0.387 OA
ATOM     40  H   UNL     1      23.525  36.680  12.005  1.00  0.00     0.211 HD
ENDBRANCH  28  39
BRANCH  29  41
ATOM     41  O   UNL     1      24.502  34.619  15.165  1.00  0.00    -0.385 OA
ATOM     42  H   UNL     1      23.893  34.816  15.942  1.00  0.00     0.211 HD
ENDBRANCH  29  41
ENDBRANCH  23  24
ENDBRANCH  18  23
BRANCH  20  43
ATOM     43  O   UNL     1      18.661  35.746  10.309  1.00  0.00    -0.385 OA
ATOM     44  H   UNL     1      18.705  35.110  11.083  1.00  0.00     0.211 HD
ENDBRANCH  20  43
BRANCH  21  45
ATOM     45  O   UNL     1      19.192  36.126   7.703  1.00  0.00    -0.387 OA
ATOM     46  H   UNL     1      18.913  35.445   7.040  1.00  0.00     0.211 HD
ENDBRANCH  21  45
BRANCH  22  47
ATOM     47  O   UNL     1      21.538  37.034   7.463  1.00  0.00    -0.387 OA
ATOM     48  H   UNL     1      22.054  37.627   8.067  1.00  0.00     0.211 HD
ENDBRANCH  22  47
ENDBRANCH  16  17
ENDBRANCH  15  16
ENDBRANCH  10  15
BRANCH  10  49
ATOM     49  C   UNL     1      26.404  37.859  10.265  1.00  0.00     0.364 C 
ATOM     50  O   UNL     1      26.104  38.000  11.462  1.00  0.00    -0.246 OA
BRANCH  49  51
ATOM     51  O   UNL     1      27.752  37.735   9.974  1.00  0.00    -0.477 OA
ATOM     52  H   UNL     1      28.439  38.441  10.252  1.00  0.00     0.296 HD
ENDBRANCH  49  51
ENDBRANCH  10  49
BRANCH  13  53
ATOM     53  O   UNL     1      23.820  38.932   6.782  1.00  0.00    -0.391 OA
ATOM     54  H   UNL     1      23.280  38.218   7.227  1.00  0.00     0.211 HD
ENDBRANCH  13  53
BRANCH  14  55
ATOM     55  N   UNL     1      26.575  40.978   7.761  1.00  0.00    -0.348 N 
ATOM     56  C   UNL     1      27.569  41.814   7.176  1.00  0.00     0.217 C 
ATOM     57  H   UNL     1      26.251  41.270   8.714  1.00  0.00     0.163 HD
ATOM     58  C   UNL     1      28.084  42.999   7.885  1.00  0.00     0.114 C 
ATOM     59  O   UNL     1      27.988  41.509   6.045  1.00  0.00    -0.275 OA
ENDBRANCH  14  55
ENDBRANCH   8   9
BRANCH   8  60
ATOM     60  O   UNL     1      26.773  37.000   5.560  1.00  0.00    -0.388 OA
ATOM     61  H   UNL     1      26.230  37.307   4.818  1.00  0.00     0.211 HD
ENDBRANCH   8  60
ENDBRANCH   7   8
BRANCH   7  62
ATOM     62  O   UNL     1      29.800  38.046   5.578  1.00  0.00    -0.388 OA
ATOM     63  H   UNL     1      30.694  37.645   5.700  1.00  0.00     0.211 HD
ENDBRANCH   7  62
ENDBRANCH   6   7
ENDBRANCH   3   6
ENDBRANCH   1   2
BRANCH   1  64
ATOM     64  C   UNL     1      27.277  34.172   9.699  1.00  0.00     0.294 C 
BRANCH  64  65
ATOM     65  C   UNL     1      27.386  34.507  11.134  1.00  0.00     0.120 A 
ATOM     66  C   UNL     1      28.572  34.740  11.806  1.00  0.00     0.138 A 
ATOM     67  N   UNL     1      26.397  34.655  12.026  1.00  0.00    -0.132 NA
ATOM     68  N   UNL     1      28.239  35.018  13.080  1.00  0.00    -0.252 N 
ATOM     69  N   UNL     1      26.897  34.960  13.191  1.00  0.00    -0.067 NA
BRANCH  68  70
ATOM     70  C   UNL     1      29.092  35.336  14.183  1.00  0.00     0.146 C 
BRANCH  70  71
ATOM     71  C   UNL     1      30.408  34.642  14.210  1.00  0.00     0.024 C 
BRANCH  71  72
ATOM     72  C   UNL     1      31.192  34.763  15.469  1.00  0.00     0.002 C 
BRANCH  72  73
ATOM     73  C   UNL     1      31.620  33.481  16.093  1.00  0.00     0.000 C 
BRANCH  73  74
ATOM     74  C   UNL     1      31.197  32.242  15.381  1.00  0.00     0.000 C 
BRANCH  74  75
ATOM     75  C   UNL     1      30.582  31.270  16.350  1.00  0.00     0.000 C 
BRANCH  75  76
ATOM     76  C   UNL     1      30.439  31.833  17.747  1.00  0.00     0.000 C 
BRANCH  76  77
ATOM     77  C   UNL     1      29.138  31.491  18.396  1.00  0.00     0.001 C 
BRANCH  77  78
ATOM     78  C   UNL     1      28.352  32.667  18.885  1.00  0.00     0.012 C 
BRANCH  78  79
ATOM     79  C   UNL     1      28.294  33.698  17.771  1.00  0.00     0.122 C 
BRANCH  79  80
ATOM     80  C   UNL     1      27.046  33.511  17.011  1.00  0.00     0.303 C 
ATOM     81  O   UNL     1      27.060  32.970  15.886  1.00  0.00    -0.252 OA
BRANCH  80  82
ATOM     82  O   UNL     1      25.822  33.929  17.516  1.00  0.00    -0.481 OA
ATOM     83  H   UNL     1      25.067  34.216  16.921  1.00  0.00     0.296 HD
ENDBRANCH  80  82
ENDBRANCH  79  80
ENDBRANCH  78  79
ENDBRANCH  77  78
ENDBRANCH  76  77
ENDBRANCH  75  76
ENDBRANCH  74  75
ENDBRANCH  73  74
ENDBRANCH  72  73
ENDBRANCH  71  72
ENDBRANCH  70  71
ENDBRANCH  68  70
ENDBRANCH  64  65
ENDBRANCH   1  64
TORSDOF 41
BEGIN_RES LYS A 131
REMARK  4 active torsions:
REMARK  status: ('A' for Active; 'I' for Inactive)
REMARK    1  A    between atoms: CA   and  CB  
REMARK    2  A    between atoms: CB   and  CG  
REMARK    3  A    between atoms: CG   and  CD  
REMARK    4  A    between atoms: CD   and  CE  
ROOT
ATOM      1  CA  LYS A 131      29.867  25.555  16.977  1.00 20.52     0.186 C 
ENDROOT
BRANCH   1   2
ATOM      2  CB  LYS A 131      28.345  25.722  17.026  1.00 20.94     0.034 C 
BRANCH   2   3
ATOM      3  CG  LYS A 131      27.602  24.400  16.917  1.00 22.96     0.005 C 
BRANCH   3   4
ATOM      4  CD  LYS A 131      26.525  24.267  17.958  1.00 24.33     0.041 C 
BRANCH   4   5
ATOM      5  CE  LYS A 131      26.267  25.627  18.600  1.00 26.91     0.338 C 
ATOM      6  NZ  LYS A 131      24.946  26.153  18.185  1.00 27.40     0.618 N 
ENDBRANCH   4   5
ENDBRANCH   3   4
ENDBRANCH   2   3
ENDBRANCH   1   2
END_RES LYS A 131
BEGIN_RES LYS A 135
REMARK  4 active torsions:
REMARK  status: ('A' for Active; 'I' for Inactive)
REMARK    5  A    between atoms: CA   and  CB  
REMARK    6  A    between atoms: CB   and  CG  
REMARK    7  A    between atoms: CG   and  CD  
REMARK    8  A    between atoms: CD   and  CE  
ROOT
ATOM      7  CA  LYS A 135      33.193  34.663   9.290  1.00 25.02     0.186 C 
ENDROOT
BRANCH   7   8
ATOM      8  CB  LYS A 135      32.060  35.360  10.034  1.00 26.63     0.034 C 
BRANCH   8   9
ATOM      9  CG  LYS A 135      32.504  36.050  11.298  1.00 29.45     0.005 C 
BRANCH   9  10
ATOM     10  CD  LYS A 135      32.129  37.524  11.264  1.00 32.00     0.041 C 
BRANCH  10  11
ATOM     11  CE  LYS A 135      30.856  37.768  12.052  1.00 34.25     0.338 C 
ATOM     12  NZ  LYS A 135      31.161  38.194  13.446  1.00 35.99     0.618 N 
ENDBRANCH  10  11
ENDBRANCH   9  10
ENDBRANCH   8   9
ENDBRANCH   7   8
END_RES LYS A 135
