REMARK VINA RESULT:    -3.838      4.856      9.429
REMARK INTER + INTRA:         -23.116
REMARK INTER:                 -11.450
REMARK INTRA:                 -11.666
REMARK UNBOUND:               -13.108
REMARK SMILES CC(=O)N[C@@H]1[C@@H](O)C[C@](OC[C@H]2O[C@@H](O[C@H]3[C@H](O)[C@@H](O)[C@H](OCCN=[N+]=[N-])O[C@@H]3CO)[C@H](O)[C@@H](O)[C@H]2O)(C(=O)O)O[C@H]1C(O)[C@H](O)CNC(=O)OCc1cn(-c2cccc(C=CC(=O)O)c2)nn1
REMARK SMILES IDX 43 1 42 2 9 3 8 4 41 5 6 6 5 7 10 8 11 9 12 10 14 11 13 12
REMARK SMILES IDX 32 13 34 14 36 15 15 16 16 17 29 18 28 19 21 20 17 21 19 22
REMARK SMILES IDX 30 23 31 24 22 26 23 27 24 28 25 29 26 30 27 31 18 32 20 34
REMARK SMILES IDX 33 36 35 38 37 40 38 42 39 43 40 44 7 46 4 48 2 49 1 51 3 52
REMARK SMILES IDX 44 53 45 55 46 56 47 58 48 59 49 60 50 62 51 63 52 64 53 65
REMARK SMILES IDX 54 66 68 67 55 68 67 69 56 70 66 71 57 72 60 73 58 74 59 75
REMARK SMILES IDX 61 76 62 77 63 78 64 79 65 80
REMARK H PARENT 31 25 18 33 20 35 33 37 35 39 37 41 40 45 7 47 4 50 44 54
REMARK H PARENT 46 57 48 61 65 81
REMARK Flexibility Score: inf
ROOT
ATOM      1  C   UNL     1      28.990  38.870   5.898  1.00  0.00     0.176 C 
ENDROOT
BRANCH   1   2
ATOM      2  C   UNL     1      29.974  39.930   5.446  1.00  0.00     0.178 C 
ATOM      3  C   UNL     1      31.973  40.899   6.237  1.00  0.00     0.272 C 
ATOM      4  C   UNL     1      31.662  41.670   4.866  1.00  0.00     0.113 C 
ATOM      5  O   UNL     1      30.895  40.064   6.448  1.00  0.00    -0.332 OA
ATOM      6  C   UNL     1      30.335  42.310   5.071  1.00  0.00     0.145 C 
ATOM      7  C   UNL     1      29.272  41.238   5.214  1.00  0.00     0.142 C 
BRANCH   3   8
ATOM      8  O   UNL     1      31.950  41.894   7.132  1.00  0.00    -0.338 OA
BRANCH   8   9
ATOM      9  C   UNL     1      32.888  42.185   8.016  1.00  0.00     0.199 C 
BRANCH   9  10
ATOM     10  C   UNL     1      32.488  42.583   9.421  1.00  0.00     0.179 C 
ATOM     11  C   UNL     1      30.326  42.949  10.306  1.00  0.00     0.282 C 
ATOM     12  O   UNL     1      31.295  43.199   9.355  1.00  0.00    -0.341 OA
ATOM     13  C   UNL     1      30.960  42.653  11.607  1.00  0.00     0.202 C 
ATOM     14  C   UNL     1      31.947  41.525  11.602  1.00  0.00     0.179 C 
ATOM     15  C   UNL     1      32.384  41.269  10.183  1.00  0.00     0.177 C 
BRANCH  11  16
ATOM     16  O   UNL     1      29.485  42.002   9.764  1.00  0.00    -0.341 OA
BRANCH  16  17
ATOM     17  C   UNL     1      28.160  42.240   9.882  1.00  0.00     0.184 C 
ATOM     18  C   UNL     1      27.428  41.035  10.388  1.00  0.00     0.178 C 
ATOM     19  O   UNL     1      26.172  41.526  10.821  1.00  0.00    -0.341 OA
ATOM     20  C   UNL     1      25.388  41.849   9.711  1.00  0.00     0.281 C 
ATOM     21  C   UNL     1      27.496  42.568   8.541  1.00  0.00     0.180 C 
ATOM     22  C   UNL     1      26.032  42.849   8.808  1.00  0.00     0.202 C 
BRANCH  18  23
ATOM     23  C   UNL     1      28.087  40.319  11.512  1.00  0.00     0.191 C 
BRANCH  23  24
ATOM     24  O   UNL     1      29.026  39.428  10.997  1.00  0.00    -0.394 OA
ATOM     25  H   UNL     1      29.953  39.815  11.083  1.00  0.00     0.210 HD
ENDBRANCH  23  24
ENDBRANCH  18  23
BRANCH  20  26
ATOM     26  O   UNL     1      24.193  42.378  10.188  1.00  0.00    -0.350 OA
BRANCH  26  27
ATOM     27  C   UNL     1      23.197  41.410  10.287  1.00  0.00     0.169 C 
BRANCH  27  28
ATOM     28  C   UNL     1      23.560  40.272   9.360  1.00  0.00     0.119 C 
BRANCH  28  29
ATOM     29  N   UNL     1      22.586  40.191   8.298  1.00  0.00    -0.092 NA
ATOM     30  N   UNL     1      22.680  40.928   7.299  1.00  0.00     0.001 N 
ATOM     31  N   UNL     1      22.520  41.888   6.530  1.00  0.00    -0.003 NA
ENDBRANCH  28  29
ENDBRANCH  27  28
ENDBRANCH  26  27
ENDBRANCH  20  26
BRANCH  21  32
ATOM     32  O   UNL     1      28.026  43.711   7.956  1.00  0.00    -0.387 OA
ATOM     33  H   UNL     1      27.245  44.267   7.707  1.00  0.00     0.211 HD
ENDBRANCH  21  32
BRANCH  22  34
ATOM     34  O   UNL     1      25.388  42.747   7.554  1.00  0.00    -0.385 OA
ATOM     35  H   UNL     1      25.858  43.253   6.854  1.00  0.00     0.211 HD
ENDBRANCH  22  34
ENDBRANCH  16  17
ENDBRANCH  11  16
BRANCH  13  36
ATOM     36  O   UNL     1      31.661  43.809  12.056  1.00  0.00    -0.385 OA
ATOM     37  H   UNL     1      31.438  44.578  11.461  1.00  0.00     0.211 HD
ENDBRANCH  13  36
BRANCH  14  38
ATOM     38  O   UNL     1      31.478  40.361  12.215  1.00  0.00    -0.387 OA
ATOM     39  H   UNL     1      30.695  39.982  11.740  1.00  0.00     0.211 HD
ENDBRANCH  14  38
BRANCH  15  40
ATOM     40  O   UNL     1      31.481  40.417   9.577  1.00  0.00    -0.387 OA
ATOM     41  H   UNL     1      31.709  39.449   9.735  1.00  0.00     0.211 HD
ENDBRANCH  15  40
ENDBRANCH   9  10
ENDBRANCH   8   9
ENDBRANCH   3   8
BRANCH   3  42
ATOM     42  C   UNL     1      33.183  40.138   5.974  1.00  0.00     0.364 C 
ATOM     43  O   UNL     1      34.093  40.375   5.160  1.00  0.00    -0.246 OA
BRANCH  42  44
ATOM     44  O   UNL     1      33.384  38.960   6.733  1.00  0.00    -0.477 OA
ATOM     45  H   UNL     1      34.129  38.978   7.447  1.00  0.00     0.296 HD
ENDBRANCH  42  44
ENDBRANCH   3  42
BRANCH   6  46
ATOM     46  O   UNL     1      30.429  43.015   6.318  1.00  0.00    -0.391 OA
ATOM     47  H   UNL     1      30.587  42.362   7.054  1.00  0.00     0.211 HD
ENDBRANCH   6  46
BRANCH   7  48
ATOM     48  N   UNL     1      28.269  41.238   4.211  1.00  0.00    -0.348 N 
ATOM     49  C   UNL     1      26.880  41.233   4.369  1.00  0.00     0.217 C 
ATOM     50  H   UNL     1      28.593  41.211   3.175  1.00  0.00     0.163 HD
ATOM     51  C   UNL     1      26.000  41.215   3.134  1.00  0.00     0.114 C 
ATOM     52  O   UNL     1      26.292  41.245   5.484  1.00  0.00    -0.275 OA
ENDBRANCH   7  48
ENDBRANCH   1   2
BRANCH   1  53
ATOM     53  O   UNL     1      29.632  37.646   5.969  1.00  0.00    -0.388 OA
ATOM     54  H   UNL     1      29.056  36.870   5.849  1.00  0.00     0.211 HD
ENDBRANCH   1  53
BRANCH   1  55
ATOM     55  C   UNL     1      28.458  39.151   7.304  1.00  0.00     0.165 C 
BRANCH  55  56
ATOM     56  O   UNL     1      29.355  38.874   8.298  1.00  0.00    -0.388 OA
ATOM     57  H   UNL     1      29.118  39.239   9.182  1.00  0.00     0.211 HD
ENDBRANCH  55  56
BRANCH  55  58
ATOM     58  C   UNL     1      27.144  38.473   7.530  1.00  0.00     0.154 C 
BRANCH  58  59
ATOM     59  N   UNL     1      26.994  38.029   8.869  1.00  0.00    -0.319 N 
ATOM     60  C   UNL     1      25.859  37.315   9.316  1.00  0.00     0.407 C 
ATOM     61  H   UNL     1      27.740  38.223   9.590  1.00  0.00     0.167 HD
ATOM     62  O   UNL     1      24.912  37.040   8.528  1.00  0.00    -0.225 OA
BRANCH  60  63
ATOM     63  O   UNL     1      25.720  36.878  10.631  1.00  0.00    -0.443 OA
BRANCH  63  64
ATOM     64  C   UNL     1      26.223  35.569  10.924  1.00  0.00     0.294 C 
BRANCH  64  65
ATOM     65  C   UNL     1      27.460  35.747  11.706  1.00  0.00     0.121 A 
ATOM     66  C   UNL     1      28.138  34.792  12.460  1.00  0.00     0.144 A 
ATOM     67  N   UNL     1      28.168  36.882  11.822  1.00  0.00    -0.131 NA
ATOM     68  N   UNL     1      29.228  35.385  12.999  1.00  0.00    -0.220 N 
ATOM     69  N   UNL     1      29.217  36.640  12.598  1.00  0.00    -0.062 NA
BRANCH  68  70
ATOM     70  C   UNL     1      30.163  34.710  13.823  1.00  0.00     0.067 A 
ATOM     71  C   UNL     1      29.741  33.647  14.622  1.00  0.00     0.036 A 
ATOM     72  C   UNL     1      31.468  35.070  13.854  1.00  0.00     0.028 A 
ATOM     73  C   UNL     1      30.600  32.967  15.427  1.00  0.00    -0.023 A 
ATOM     74  C   UNL     1      32.385  34.404  14.663  1.00  0.00     0.003 A 
ATOM     75  C   UNL     1      31.924  33.361  15.434  1.00  0.00     0.008 A 
BRANCH  73  76
ATOM     76  C   UNL     1      30.164  31.867  16.260  1.00  0.00     0.015 C 
ATOM     77  C   UNL     1      30.263  31.921  17.564  1.00  0.00     0.094 C 
BRANCH  77  78
ATOM     78  C   UNL     1      29.809  30.784  18.367  1.00  0.00     0.328 C 
ATOM     79  O   UNL     1      28.643  30.378  18.310  1.00  0.00    -0.247 OA
BRANCH  78  80
ATOM     80  O   UNL     1      30.694  30.131  19.222  1.00  0.00    -0.478 OA
ATOM     81  H   UNL     1      31.531  30.642  19.508  1.00  0.00     0.297 HD
ENDBRANCH  78  80
ENDBRANCH  77  78
ENDBRANCH  73  76
ENDBRANCH  68  70
ENDBRANCH  64  65
ENDBRANCH  63  64
ENDBRANCH  60  63
ENDBRANCH  58  59
ENDBRANCH  55  58
ENDBRANCH   1  55
TORSDOF 33
BEGIN_RES LYS A 131
REMARK  4 active torsions:
REMARK  status: ('A' for Active; 'I' for Inactive)
REMARK    1  A    between atoms: CA   and  CB  
REMARK    2  A    between atoms: CB   and  CG  
REMARK    3  A    between atoms: CG   and  CD  
REMARK    4  A    between atoms: CD   and  CE  
ROOT
ATOM      1  CA  LYS A 131      29.867  25.555  16.977  1.00 20.52     0.186 C 
ENDROOT
BRANCH   1   2
ATOM      2  CB  LYS A 131      28.345  25.722  17.026  1.00 20.94     0.034 C 
BRANCH   2   3
ATOM      3  CG  LYS A 131      27.602  24.400  16.914  1.00 22.96     0.005 C 
BRANCH   3   4
ATOM      4  CD  LYS A 131      26.451  24.313  17.878  1.00 24.33     0.041 C 
BRANCH   4   5
ATOM      5  CE  LYS A 131      25.136  24.367  17.108  1.00 26.91     0.338 C 
ATOM      6  NZ  LYS A 131      24.327  23.155  17.378  1.00 27.40     0.618 N 
ENDBRANCH   4   5
ENDBRANCH   3   4
ENDBRANCH   2   3
ENDBRANCH   1   2
END_RES LYS A 131
BEGIN_RES LYS A 135
REMARK  4 active torsions:
REMARK  status: ('A' for Active; 'I' for Inactive)
REMARK    5  A    between atoms: CA   and  CB  
REMARK    6  A    between atoms: CB   and  CG  
REMARK    7  A    between atoms: CG   and  CD  
REMARK    8  A    between atoms: CD   and  CE  
ROOT
ATOM      7  CA  LYS A 135      33.193  34.663   9.290  1.00 25.02     0.186 C 
ENDROOT
BRANCH   7   8
ATOM      8  CB  LYS A 135      32.060  35.360  10.034  1.00 26.63     0.034 C 
BRANCH   8   9
ATOM      9  CG  LYS A 135      30.714  34.715   9.823  1.00 29.45     0.005 C 
BRANCH   9  10
ATOM     10  CD  LYS A 135      29.820  35.605   8.974  1.00 32.00     0.041 C 
BRANCH  10  11
ATOM     11  CE  LYS A 135      29.312  34.847   7.762  1.00 34.25     0.338 C 
ATOM     12  NZ  LYS A 135      27.825  34.876   7.696  1.00 35.99     0.618 N 
ENDBRANCH  10  11
ENDBRANCH   9  10
ENDBRANCH   8   9
ENDBRANCH   7   8
END_RES LYS A 135
