REMARK VINA RESULT:    -5.431      2.811      6.557
REMARK INTER + INTRA:         -24.780
REMARK INTER:                 -13.360
REMARK INTRA:                 -11.420
REMARK UNBOUND:               -10.617
REMARK SMILES CC(=O)N[C@@H]1[C@@H](O)C[C@](OC[C@H]2O[C@@H](O[C@H]3[C@H](O)[C@@H](O)[C@H](OCCN=[N+]=[N-])O[C@@H]3CO)[C@H](O)[C@@H](O)[C@H]2O)(C(=O)O)O[C@H]1C(O)[C@H](O)CNC(=O)OCc1cn(-c2ccc(S(=O)(=O)c3ccc(N)cc3)cc2)nn1
REMARK SMILES IDX 43 1 42 2 9 3 8 4 41 5 6 6 5 7 10 8 11 9 12 10 14 11 13 12
REMARK SMILES IDX 32 13 34 14 36 15 15 16 16 17 29 18 28 19 21 20 17 21 19 22
REMARK SMILES IDX 30 23 31 24 22 26 23 27 24 28 25 29 26 30 27 31 18 32 20 34
REMARK SMILES IDX 33 36 35 38 37 40 38 42 39 43 40 44 7 46 4 48 2 49 1 51 3 52
REMARK SMILES IDX 44 53 45 55 46 56 47 58 48 59 49 60 50 62 51 63 52 64 53 65
REMARK SMILES IDX 54 66 73 67 55 68 72 69 56 70 57 71 71 72 58 73 70 74 59 75
REMARK SMILES IDX 60 76 61 77 62 78 63 79 64 80 69 81 65 82 68 83 66 84 67 85
REMARK H PARENT 31 25 18 33 20 35 33 37 35 39 37 41 40 45 7 47 4 50 44 54
REMARK H PARENT 46 57 48 61 67 86 67 87
REMARK Flexibility Score: inf
ROOT
ATOM      1  C   UNL     1      29.308  41.112   8.735  1.00  0.00     0.176 C 
ENDROOT
BRANCH   1   2
ATOM      2  C   UNL     1      28.985  40.305   7.478  1.00  0.00     0.178 C 
ATOM      3  C   UNL     1      27.289  39.218   6.342  1.00  0.00     0.272 C 
ATOM      4  C   UNL     1      28.190  38.057   6.074  1.00  0.00     0.113 C 
ATOM      5  O   UNL     1      27.686  39.897   7.508  1.00  0.00    -0.332 OA
ATOM      6  C   UNL     1      29.126  37.887   7.260  1.00  0.00     0.145 C 
ATOM      7  C   UNL     1      29.958  39.118   7.387  1.00  0.00     0.142 C 
BRANCH   3   8
ATOM      8  O   UNL     1      25.953  38.884   6.584  1.00  0.00    -0.338 OA
BRANCH   8   9
ATOM      9  C   UNL     1      25.511  39.043   7.862  1.00  0.00     0.199 C 
BRANCH   9  10
ATOM     10  C   UNL     1      24.670  37.849   8.255  1.00  0.00     0.179 C 
ATOM     11  C   UNL     1      23.763  36.737  10.032  1.00  0.00     0.282 C 
ATOM     12  O   UNL     1      24.418  37.932   9.630  1.00  0.00    -0.341 OA
ATOM     13  C   UNL     1      22.372  36.842   9.477  1.00  0.00     0.202 C 
ATOM     14  C   UNL     1      22.441  36.769   7.968  1.00  0.00     0.179 C 
ATOM     15  C   UNL     1      23.410  37.824   7.461  1.00  0.00     0.177 C 
BRANCH  11  16
ATOM     16  O   UNL     1      23.851  36.654  11.397  1.00  0.00    -0.341 OA
BRANCH  16  17
ATOM     17  C   UNL     1      24.474  35.446  11.789  1.00  0.00     0.184 C 
ATOM     18  C   UNL     1      23.785  34.954  13.022  1.00  0.00     0.178 C 
ATOM     19  O   UNL     1      24.604  34.683  14.085  1.00  0.00    -0.341 OA
ATOM     20  C   UNL     1      25.503  35.641  14.452  1.00  0.00     0.281 C 
ATOM     21  C   UNL     1      25.919  35.838  12.067  1.00  0.00     0.180 C 
ATOM     22  C   UNL     1      25.876  36.622  13.364  1.00  0.00     0.202 C 
BRANCH  18  23
ATOM     23  C   UNL     1      23.147  33.607  12.634  1.00  0.00     0.191 C 
BRANCH  23  24
ATOM     24  O   UNL     1      22.135  33.742  11.716  1.00  0.00    -0.394 OA
ATOM     25  H   UNL     1      21.351  34.253  12.036  1.00  0.00     0.210 HD
ENDBRANCH  23  24
ENDBRANCH  18  23
BRANCH  20  26
ATOM     26  O   UNL     1      26.677  34.996  14.825  1.00  0.00    -0.350 OA
BRANCH  26  27
ATOM     27  C   UNL     1      26.554  34.097  15.848  1.00  0.00     0.169 C 
BRANCH  27  28
ATOM     28  C   UNL     1      27.446  32.919  15.642  1.00  0.00     0.119 C 
BRANCH  28  29
ATOM     29  N   UNL     1      26.644  31.684  15.674  1.00  0.00    -0.092 NA
ATOM     30  N   UNL     1      27.182  30.580  15.743  1.00  0.00     0.001 N 
ATOM     31  N   UNL     1      27.649  29.542  16.245  1.00  0.00    -0.003 NA
ENDBRANCH  28  29
ENDBRANCH  27  28
ENDBRANCH  26  27
ENDBRANCH  20  26
BRANCH  21  32
ATOM     32  O   UNL     1      26.692  34.715  12.247  1.00  0.00    -0.387 OA
ATOM     33  H   UNL     1      27.341  34.612  11.500  1.00  0.00     0.211 HD
ENDBRANCH  21  32
BRANCH  22  34
ATOM     34  O   UNL     1      25.041  37.713  13.297  1.00  0.00    -0.385 OA
ATOM     35  H   UNL     1      25.395  38.438  12.717  1.00  0.00     0.211 HD
ENDBRANCH  22  34
ENDBRANCH  16  17
ENDBRANCH  11  16
BRANCH  13  36
ATOM     36  O   UNL     1      21.513  35.876   9.998  1.00  0.00    -0.385 OA
ATOM     37  H   UNL     1      22.066  35.039  10.111  1.00  0.00     0.211 HD
ENDBRANCH  13  36
BRANCH  14  38
ATOM     38  O   UNL     1      21.188  37.130   7.451  1.00  0.00    -0.387 OA
ATOM     39  H   UNL     1      20.642  37.542   8.146  1.00  0.00     0.211 HD
ENDBRANCH  14  38
BRANCH  15  40
ATOM     40  O   UNL     1      22.802  39.070   7.408  1.00  0.00    -0.387 OA
ATOM     41  H   UNL     1      23.452  39.756   7.131  1.00  0.00     0.211 HD
ENDBRANCH  15  40
ENDBRANCH   9  10
ENDBRANCH   8   9
ENDBRANCH   3   8
BRANCH   3  42
ATOM     42  C   UNL     1      27.271  40.221   5.244  1.00  0.00     0.364 C 
ATOM     43  O   UNL     1      27.985  40.185   4.215  1.00  0.00    -0.246 OA
BRANCH  42  44
ATOM     44  O   UNL     1      26.405  41.298   5.337  1.00  0.00    -0.477 OA
ATOM     45  H   UNL     1      26.046  41.778   4.496  1.00  0.00     0.296 HD
ENDBRANCH  42  44
ENDBRANCH   3  42
BRANCH   6  46
ATOM     46  O   UNL     1      28.303  37.814   8.389  1.00  0.00    -0.391 OA
ATOM     47  H   UNL     1      28.566  38.479   9.082  1.00  0.00     0.211 HD
ENDBRANCH   6  46
BRANCH   7  48
ATOM     48  N   UNL     1      30.899  39.338   6.336  1.00  0.00    -0.348 N 
ATOM     49  C   UNL     1      32.204  39.876   6.524  1.00  0.00     0.217 C 
ATOM     50  H   UNL     1      30.631  39.088   5.353  1.00  0.00     0.163 HD
ATOM     51  C   UNL     1      33.093  40.057   5.350  1.00  0.00     0.114 C 
ATOM     52  O   UNL     1      32.547  40.175   7.676  1.00  0.00    -0.275 OA
ENDBRANCH   7  48
ENDBRANCH   1   2
BRANCH   1  53
ATOM     53  O   UNL     1      30.009  40.347   9.652  1.00  0.00    -0.388 OA
ATOM     54  H   UNL     1      29.453  39.567   9.949  1.00  0.00     0.211 HD
ENDBRANCH   1  53
BRANCH   1  55
ATOM     55  C   UNL     1      29.928  42.422   8.430  1.00  0.00     0.165 C 
BRANCH  55  56
ATOM     56  O   UNL     1      31.180  42.540   9.039  1.00  0.00    -0.388 OA
ATOM     57  H   UNL     1      31.144  42.770   9.981  1.00  0.00     0.211 HD
ENDBRANCH  55  56
BRANCH  55  58
ATOM     58  C   UNL     1      29.098  43.564   8.975  1.00  0.00     0.154 C 
BRANCH  58  59
ATOM     59  N   UNL     1      28.014  43.138   9.816  1.00  0.00    -0.319 N 
ATOM     60  C   UNL     1      28.239  43.021  11.210  1.00  0.00     0.407 C 
ATOM     61  H   UNL     1      27.083  42.917   9.430  1.00  0.00     0.167 HD
ATOM     62  O   UNL     1      29.384  43.307  11.665  1.00  0.00    -0.225 OA
BRANCH  60  63
ATOM     63  O   UNL     1      27.292  42.612  12.122  1.00  0.00    -0.443 OA
BRANCH  63  64
ATOM     64  C   UNL     1      26.474  41.472  11.966  1.00  0.00     0.294 C 
BRANCH  64  65
ATOM     65  C   UNL     1      27.339  40.266  11.974  1.00  0.00     0.121 A 
ATOM     66  C   UNL     1      28.231  39.812  12.924  1.00  0.00     0.144 A 
ATOM     67  N   UNL     1      27.388  39.324  10.980  1.00  0.00    -0.131 NA
ATOM     68  N   UNL     1      28.781  38.636  12.492  1.00  0.00    -0.220 N 
ATOM     69  N   UNL     1      28.244  38.387  11.323  1.00  0.00    -0.062 NA
BRANCH  68  70
ATOM     70  C   UNL     1      29.725  37.822  13.154  1.00  0.00     0.066 A 
ATOM     71  C   UNL     1      29.739  36.439  12.948  1.00  0.00     0.030 A 
ATOM     72  C   UNL     1      30.665  38.316  14.022  1.00  0.00     0.030 A 
ATOM     73  C   UNL     1      30.636  35.605  13.568  1.00  0.00     0.023 A 
ATOM     74  C   UNL     1      31.580  37.473  14.657  1.00  0.00     0.023 A 
ATOM     75  C   UNL     1      31.575  36.113  14.437  1.00  0.00     0.072 A 
BRANCH  75  76
ATOM     76  S   UNL     1      32.726  35.059  15.231  1.00  0.00     0.206 S 
ATOM     77  O   UNL     1      33.427  35.853  16.321  1.00  0.00    -0.219 OA
ATOM     78  O   UNL     1      33.702  34.442  14.287  1.00  0.00    -0.219 OA
BRANCH  76  79
ATOM     79  C   UNL     1      31.839  33.789  16.075  1.00  0.00     0.072 A 
ATOM     80  C   UNL     1      31.500  33.942  17.392  1.00  0.00     0.023 A 
ATOM     81  C   UNL     1      31.479  32.632  15.425  1.00  0.00     0.023 A 
ATOM     82  C   UNL     1      30.815  32.952  18.036  1.00  0.00     0.027 A 
ATOM     83  C   UNL     1      30.792  31.646  16.085  1.00  0.00     0.027 A 
ATOM     84  C   UNL     1      30.440  31.770  17.400  1.00  0.00     0.031 A 
BRANCH  84  85
ATOM     85  N   UNL     1      29.735  30.771  18.105  1.00  0.00    -0.399 N 
ATOM     86  H   UNL     1      29.024  30.189  17.640  1.00  0.00     0.156 HD
ATOM     87  H   UNL     1      29.933  30.618  19.109  1.00  0.00     0.156 HD
ENDBRANCH  84  85
ENDBRANCH  76  79
ENDBRANCH  75  76
ENDBRANCH  68  70
ENDBRANCH  64  65
ENDBRANCH  63  64
ENDBRANCH  60  63
ENDBRANCH  58  59
ENDBRANCH  55  58
ENDBRANCH   1  55
TORSDOF 33
BEGIN_RES LYS A 131
REMARK  4 active torsions:
REMARK  status: ('A' for Active; 'I' for Inactive)
REMARK    1  A    between atoms: CA   and  CB  
REMARK    2  A    between atoms: CB   and  CG  
REMARK    3  A    between atoms: CG   and  CD  
REMARK    4  A    between atoms: CD   and  CE  
ROOT
ATOM      1  CA  LYS A 131      29.867  25.555  16.977  1.00 20.52     0.186 C 
ENDROOT
BRANCH   1   2
ATOM      2  CB  LYS A 131      28.345  25.722  17.026  1.00 20.94     0.034 C 
BRANCH   2   3
ATOM      3  CG  LYS A 131      27.601  24.403  16.885  1.00 22.96     0.005 C 
BRANCH   3   4
ATOM      4  CD  LYS A 131      26.583  24.207  17.974  1.00 24.33     0.041 C 
BRANCH   4   5
ATOM      5  CE  LYS A 131      25.265  23.746  17.361  1.00 26.91     0.338 C 
ATOM      6  NZ  LYS A 131      24.756  22.546  18.068  1.00 27.40     0.618 N 
ENDBRANCH   4   5
ENDBRANCH   3   4
ENDBRANCH   2   3
ENDBRANCH   1   2
END_RES LYS A 131
BEGIN_RES LYS A 135
REMARK  4 active torsions:
REMARK  status: ('A' for Active; 'I' for Inactive)
REMARK    5  A    between atoms: CA   and  CB  
REMARK    6  A    between atoms: CB   and  CG  
REMARK    7  A    between atoms: CG   and  CD  
REMARK    8  A    between atoms: CD   and  CE  
ROOT
ATOM      7  CA  LYS A 135      33.193  34.663   9.290  1.00 25.02     0.186 C 
ENDROOT
BRANCH   7   8
ATOM      8  CB  LYS A 135      32.060  35.360  10.034  1.00 26.63     0.034 C 
BRANCH   8   9
ATOM      9  CG  LYS A 135      30.733  35.278   9.324  1.00 29.45     0.005 C 
BRANCH   9  10
ATOM     10  CD  LYS A 135      29.758  34.413  10.108  1.00 32.00     0.041 C 
BRANCH  10  11
ATOM     11  CE  LYS A 135      28.517  34.130   9.283  1.00 34.25     0.338 C 
ATOM     12  NZ  LYS A 135      28.695  34.575   7.874  1.00 35.99     0.618 N 
ENDBRANCH  10  11
ENDBRANCH   9  10
ENDBRANCH   8   9
ENDBRANCH   7   8
END_RES LYS A 135
