REMARK VINA RESULT:    -4.959      3.156      7.947
REMARK INTER + INTRA:         -22.624
REMARK INTER:                 -10.634
REMARK INTRA:                 -11.990
REMARK UNBOUND:               -10.416
REMARK SMILES CC(=O)N[C@@H]1[C@@H](O)C[C@](OC[C@H]2O[C@@H](O[C@H]3[C@H](O)[C@@H](O)[C@H](OCCN=[N+]=[N-])O[C@@H]3CO)[C@H](O)[C@@H](O)[C@H]2O)(C(=O)O)O[C@H]1C(O)[C@H](O)CNC(=O)OCc1cn(-c2ccc3c(c2)OCO3)nn1
REMARK SMILES IDX 9 1 8 2 6 3 5 4 42 5 41 6 10 7 11 8 12 9 14 10 13 11 32 12
REMARK SMILES IDX 34 13 36 14 15 15 16 16 29 17 28 18 21 19 17 20 19 21 30 22
REMARK SMILES IDX 31 23 22 25 23 26 24 27 25 28 26 29 27 30 18 31 20 33 33 35
REMARK SMILES IDX 35 37 37 39 38 41 39 42 40 43 7 45 43 47 44 48 45 50 46 51
REMARK SMILES IDX 47 53 48 54 49 55 50 57 51 58 52 59 53 60 54 61 66 62 55 63
REMARK SMILES IDX 65 64 56 65 57 66 61 67 58 68 60 69 59 70 62 71 64 72 63 73
REMARK SMILES IDX 4 74 2 75 1 77 3 78
REMARK H PARENT 31 24 18 32 20 34 33 36 35 38 37 40 40 44 7 46 44 49 46 52
REMARK H PARENT 48 56 4 76
REMARK Flexibility Score: inf
ROOT
ATOM      1  C   UNL     1      30.078  33.101  19.390  1.00  0.00     0.272 C 
ATOM      2  C   UNL     1      30.607  34.488  19.626  1.00  0.00     0.113 C 
ATOM      3  C   UNL     1      29.483  35.483  19.972  1.00  0.00     0.145 C 
ATOM      4  C   UNL     1      28.666  35.612  18.703  1.00  0.00     0.142 C 
ATOM      5  C   UNL     1      28.288  34.197  18.315  1.00  0.00     0.178 C 
ATOM      6  O   UNL     1      28.675  33.233  19.183  1.00  0.00    -0.332 OA
ENDROOT
BRANCH   1   7
ATOM      7  O   UNL     1      30.198  32.283  20.424  1.00  0.00    -0.338 OA
BRANCH   7   8
ATOM      8  C   UNL     1      31.211  31.781  21.062  1.00  0.00     0.199 C 
BRANCH   8   9
ATOM      9  C   UNL     1      31.164  30.417  21.696  1.00  0.00     0.179 C 
ATOM     10  C   UNL     1      29.571  28.828  22.296  1.00  0.00     0.282 C 
ATOM     11  O   UNL     1      29.862  30.138  22.022  1.00  0.00    -0.341 OA
ATOM     12  C   UNL     1      30.771  27.955  22.455  1.00  0.00     0.202 C 
ATOM     13  C   UNL     1      31.687  28.028  21.245  1.00  0.00     0.179 C 
ATOM     14  C   UNL     1      31.661  29.395  20.641  1.00  0.00     0.177 C 
BRANCH  10  15
ATOM     15  O   UNL     1      28.854  28.328  21.190  1.00  0.00    -0.341 OA
BRANCH  15  16
ATOM     16  C   UNL     1      27.517  28.164  21.443  1.00  0.00     0.184 C 
ATOM     17  C   UNL     1      26.991  27.006  20.636  1.00  0.00     0.178 C 
ATOM     18  O   UNL     1      26.606  27.345  19.360  1.00  0.00    -0.341 OA
ATOM     19  C   UNL     1      27.314  28.433  18.848  1.00  0.00     0.281 C 
ATOM     20  C   UNL     1      26.832  29.464  21.091  1.00  0.00     0.180 C 
ATOM     21  C   UNL     1      27.018  29.702  19.608  1.00  0.00     0.202 C 
BRANCH  17  22
ATOM     22  C   UNL     1      25.794  26.353  21.312  1.00  0.00     0.191 C 
BRANCH  22  23
ATOM     23  O   UNL     1      25.964  24.978  21.422  1.00  0.00    -0.394 OA
ATOM     24  H   UNL     1      25.877  24.510  20.535  1.00  0.00     0.210 HD
ENDBRANCH  22  23
ENDBRANCH  17  22
BRANCH  19  25
ATOM     25  O   UNL     1      26.861  28.598  17.546  1.00  0.00    -0.350 OA
BRANCH  25  26
ATOM     26  C   UNL     1      25.498  28.327  17.509  1.00  0.00     0.169 C 
BRANCH  26  27
ATOM     27  C   UNL     1      24.715  29.525  16.981  1.00  0.00     0.119 C 
BRANCH  27  28
ATOM     28  N   UNL     1      25.391  29.955  15.748  1.00  0.00    -0.092 NA
ATOM     29  N   UNL     1      24.754  29.935  14.673  1.00  0.00     0.001 N 
ATOM     30  N   UNL     1      23.972  29.794  13.716  1.00  0.00    -0.003 NA
ENDBRANCH  27  28
ENDBRANCH  26  27
ENDBRANCH  25  26
ENDBRANCH  19  25
BRANCH  20  31
ATOM     31  O   UNL     1      25.506  29.507  21.472  1.00  0.00    -0.387 OA
ATOM     32  H   UNL     1      25.122  28.610  21.701  1.00  0.00     0.211 HD
ENDBRANCH  20  31
BRANCH  21  33
ATOM     33  O   UNL     1      28.116  30.550  19.454  1.00  0.00    -0.385 OA
ATOM     34  H   UNL     1      28.599  30.714  20.304  1.00  0.00     0.211 HD
ENDBRANCH  21  33
ENDBRANCH  15  16
ENDBRANCH  10  15
BRANCH  12  35
ATOM     35  O   UNL     1      31.524  28.213  23.598  1.00  0.00    -0.385 OA
ATOM     36  H   UNL     1      31.994  27.360  23.856  1.00  0.00     0.211 HD
ENDBRANCH  12  35
BRANCH  13  37
ATOM     37  O   UNL     1      31.256  27.071  20.324  1.00  0.00    -0.387 OA
ATOM     38  H   UNL     1      30.576  27.395  19.705  1.00  0.00     0.211 HD
ENDBRANCH  13  37
BRANCH  14  39
ATOM     39  O   UNL     1      30.790  29.383  19.556  1.00  0.00    -0.387 OA
ATOM     40  H   UNL     1      29.909  29.743  19.750  1.00  0.00     0.211 HD
ENDBRANCH  14  39
ENDBRANCH   8   9
ENDBRANCH   7   8
ENDBRANCH   1   7
BRANCH   1  41
ATOM     41  C   UNL     1      30.613  32.535  18.110  1.00  0.00     0.364 C 
ATOM     42  O   UNL     1      31.506  33.241  17.523  1.00  0.00    -0.246 OA
BRANCH  41  43
ATOM     43  O   UNL     1      30.240  31.366  17.529  1.00  0.00    -0.477 OA
ATOM     44  H   UNL     1      29.476  31.276  16.878  1.00  0.00     0.296 HD
ENDBRANCH  41  43
ENDBRANCH   1  41
BRANCH   3  45
ATOM     45  O   UNL     1      28.744  34.865  20.989  1.00  0.00    -0.391 OA
ATOM     46  H   UNL     1      28.468  35.525  21.663  1.00  0.00     0.211 HD
ENDBRANCH   3  45
BRANCH   5  47
ATOM     47  C   UNL     1      26.746  34.186  18.354  1.00  0.00     0.176 C 
BRANCH  47  48
ATOM     48  O   UNL     1      26.185  35.254  17.716  1.00  0.00    -0.388 OA
ATOM     49  H   UNL     1      26.241  35.220  16.729  1.00  0.00     0.211 HD
ENDBRANCH  47  48
BRANCH  47  50
ATOM     50  C   UNL     1      26.194  32.888  17.776  1.00  0.00     0.165 C 
BRANCH  50  51
ATOM     51  O   UNL     1      27.111  32.199  17.056  1.00  0.00    -0.388 OA
ATOM     52  H   UNL     1      27.449  31.366  17.445  1.00  0.00     0.211 HD
ENDBRANCH  50  51
BRANCH  50  53
ATOM     53  C   UNL     1      25.003  33.271  16.955  1.00  0.00     0.154 C 
BRANCH  53  54
ATOM     54  N   UNL     1      25.274  33.247  15.551  1.00  0.00    -0.319 N 
ATOM     55  C   UNL     1      24.317  33.419  14.518  1.00  0.00     0.407 C 
ATOM     56  H   UNL     1      26.280  33.088  15.187  1.00  0.00     0.167 HD
ATOM     57  O   UNL     1      23.117  33.627  14.785  1.00  0.00    -0.225 OA
BRANCH  55  58
ATOM     58  O   UNL     1      24.684  33.361  13.170  1.00  0.00    -0.443 OA
BRANCH  58  59
ATOM     59  C   UNL     1      24.445  34.396  12.255  1.00  0.00     0.294 C 
BRANCH  59  60
ATOM     60  C   UNL     1      25.719  35.171  12.069  1.00  0.00     0.121 A 
ATOM     61  C   UNL     1      26.924  34.926  12.729  1.00  0.00     0.144 A 
ATOM     62  N   UNL     1      25.960  36.209  11.259  1.00  0.00    -0.131 NA
ATOM     63  N   UNL     1      27.840  35.820  12.297  1.00  0.00    -0.220 N 
ATOM     64  N   UNL     1      27.209  36.572  11.409  1.00  0.00    -0.062 NA
BRANCH  63  65
ATOM     65  C   UNL     1      29.187  35.942  12.684  1.00  0.00     0.070 A 
ATOM     66  C   UNL     1      29.922  37.033  12.312  1.00  0.00     0.032 A 
ATOM     67  C   UNL     1      29.783  34.967  13.446  1.00  0.00     0.079 A 
ATOM     68  C   UNL     1      31.263  37.143  12.709  1.00  0.00     0.053 A 
ATOM     69  C   UNL     1      31.099  35.058  13.845  1.00  0.00     0.167 A 
ATOM     70  C   UNL     1      31.834  36.154  13.470  1.00  0.00     0.165 A 
ATOM     71  O   UNL     1      31.888  34.216  14.597  1.00  0.00    -0.454 OA
ATOM     72  O   UNL     1      33.113  36.008  13.993  1.00  0.00    -0.454 OA
ATOM     73  C   UNL     1      33.233  34.685  14.437  1.00  0.00     0.468 C 
ENDBRANCH  63  65
ENDBRANCH  59  60
ENDBRANCH  58  59
ENDBRANCH  55  58
ENDBRANCH  53  54
ENDBRANCH  50  53
ENDBRANCH  47  50
ENDBRANCH   5  47
BRANCH   4  74
ATOM     74  N   UNL     1      29.431  36.310  17.715  1.00  0.00    -0.348 N 
ATOM     75  C   UNL     1      28.855  37.368  16.921  1.00  0.00     0.217 C 
ATOM     76  H   UNL     1      30.430  36.119  17.491  1.00  0.00     0.163 HD
ATOM     77  C   UNL     1      29.661  38.086  15.898  1.00  0.00     0.114 C 
ATOM     78  O   UNL     1      27.672  37.679  17.100  1.00  0.00    -0.275 OA
ENDBRANCH   4  74
TORSDOF 30
BEGIN_RES LYS A 131
REMARK  4 active torsions:
REMARK  status: ('A' for Active; 'I' for Inactive)
REMARK    1  A    between atoms: CA   and  CB  
REMARK    2  A    between atoms: CB   and  CG  
REMARK    3  A    between atoms: CG   and  CD  
REMARK    4  A    between atoms: CD   and  CE  
ROOT
ATOM      1  CA  LYS A 131      29.867  25.555  16.977  1.00 20.52     0.186 C 
ENDROOT
BRANCH   1   2
ATOM      2  CB  LYS A 131      28.345  25.722  17.026  1.00 20.94     0.034 C 
BRANCH   2   3
ATOM      3  CG  LYS A 131      27.600  24.410  16.834  1.00 22.96     0.005 C 
BRANCH   3   4
ATOM      4  CD  LYS A 131      26.684  24.105  17.987  1.00 24.33     0.041 C 
BRANCH   4   5
ATOM      5  CE  LYS A 131      25.280  24.609  17.669  1.00 26.91     0.338 C 
ATOM      6  NZ  LYS A 131      24.484  23.547  17.010  1.00 27.40     0.618 N 
ENDBRANCH   4   5
ENDBRANCH   3   4
ENDBRANCH   2   3
ENDBRANCH   1   2
END_RES LYS A 131
BEGIN_RES LYS A 135
REMARK  4 active torsions:
REMARK  status: ('A' for Active; 'I' for Inactive)
REMARK    5  A    between atoms: CA   and  CB  
REMARK    6  A    between atoms: CB   and  CG  
REMARK    7  A    between atoms: CG   and  CD  
REMARK    8  A    between atoms: CD   and  CE  
ROOT
ATOM      7  CA  LYS A 135      33.193  34.663   9.290  1.00 25.02     0.186 C 
ENDROOT
BRANCH   7   8
ATOM      8  CB  LYS A 135      32.060  35.360  10.034  1.00 26.63     0.034 C 
BRANCH   8   9
ATOM      9  CG  LYS A 135      30.803  35.507   9.216  1.00 29.45     0.005 C 
BRANCH   9  10
ATOM     10  CD  LYS A 135      30.030  34.198   9.180  1.00 32.00     0.041 C 
BRANCH  10  11
ATOM     11  CE  LYS A 135      28.625  34.424   8.654  1.00 34.25     0.338 C 
ATOM     12  NZ  LYS A 135      27.628  33.642   9.436  1.00 35.99     0.618 N 
ENDBRANCH  10  11
ENDBRANCH   9  10
ENDBRANCH   8   9
ENDBRANCH   7   8
END_RES LYS A 135
