REMARK VINA RESULT:    -3.928      5.252     10.545
REMARK INTER + INTRA:         -21.749
REMARK INTER:                  -9.898
REMARK INTRA:                 -11.851
REMARK UNBOUND:               -11.851
REMARK SMILES CC(=O)N[C@@H]1[C@@H](O)C[C@](OC[C@H]2O[C@@H](O[C@H]3[C@H](O)[C@@H](O)[C@H](OCCN=[N+]=[N-])O[C@@H]3CO)[C@H](O)[C@@H](O)[C@H]2O)(C(=O)O)O[C@H]1C(O)[C@H](O)CNC(=O)OCc1cn(Cc2ccccc2)nn1
REMARK SMILES IDX 9 1 8 2 6 3 5 4 42 5 41 6 10 7 11 8 12 9 14 10 13 11 32 12
REMARK SMILES IDX 34 13 36 14 15 15 16 16 29 17 28 18 21 19 17 20 19 21 30 22
REMARK SMILES IDX 31 23 22 25 23 26 24 27 25 28 26 29 27 30 18 31 20 33 33 35
REMARK SMILES IDX 35 37 37 39 38 41 39 42 40 43 7 45 43 47 44 48 45 50 46 51
REMARK SMILES IDX 47 53 48 54 49 55 50 57 51 58 52 59 53 60 54 61 64 62 55 63
REMARK SMILES IDX 63 64 56 65 57 66 58 67 62 68 59 69 61 70 60 71 4 72 2 73
REMARK SMILES IDX 1 75 3 76
REMARK H PARENT 31 24 18 32 20 34 33 36 35 38 37 40 40 44 7 46 44 49 46 52
REMARK H PARENT 48 56 4 74
REMARK Flexibility Score: inf
ROOT
ATOM      1  C   UNL     1      24.798  36.642   8.887  1.00  0.00     0.272 C 
ATOM      2  C   UNL     1      24.945  35.355   9.611  1.00  0.00     0.113 C 
ATOM      3  C   UNL     1      26.367  34.941   9.596  1.00  0.00     0.145 C 
ATOM      4  C   UNL     1      27.278  35.852   8.760  1.00  0.00     0.142 C 
ATOM      5  C   UNL     1      26.634  36.236   7.496  1.00  0.00     0.178 C 
ATOM      6  O   UNL     1      25.241  36.422   7.570  1.00  0.00    -0.332 OA
ENDROOT
BRANCH   1   7
ATOM      7  O   UNL     1      25.419  37.736   9.453  1.00  0.00    -0.338 OA
BRANCH   7   8
ATOM      8  C   UNL     1      24.931  37.954  10.730  1.00  0.00     0.199 C 
BRANCH   8   9
ATOM      9  C   UNL     1      26.036  38.070  11.756  1.00  0.00     0.179 C 
ATOM     10  C   UNL     1      28.288  38.667  11.878  1.00  0.00     0.282 C 
ATOM     11  O   UNL     1      27.290  37.963  11.200  1.00  0.00    -0.341 OA
ATOM     12  C   UNL     1      28.143  38.609  13.352  1.00  0.00     0.202 C 
ATOM     13  C   UNL     1      26.858  39.244  13.779  1.00  0.00     0.179 C 
ATOM     14  C   UNL     1      25.882  39.289  12.627  1.00  0.00     0.177 C 
BRANCH  10  15
ATOM     15  O   UNL     1      28.362  39.979  11.440  1.00  0.00    -0.341 OA
BRANCH  15  16
ATOM     16  C   UNL     1      28.801  40.108  10.128  1.00  0.00     0.184 C 
ATOM     17  C   UNL     1      30.160  40.701  10.088  1.00  0.00     0.178 C 
ATOM     18  O   UNL     1      30.516  40.844   8.730  1.00  0.00    -0.341 OA
ATOM     19  C   UNL     1      29.818  41.987   8.289  1.00  0.00     0.281 C 
ATOM     20  C   UNL     1      27.827  41.110   9.487  1.00  0.00     0.180 C 
ATOM     21  C   UNL     1      28.334  41.662   8.196  1.00  0.00     0.202 C 
BRANCH  17  22
ATOM     22  C   UNL     1      31.197  39.829  10.790  1.00  0.00     0.191 C 
BRANCH  22  23
ATOM     23  O   UNL     1      31.647  38.889   9.837  1.00  0.00    -0.394 OA
ATOM     24  H   UNL     1      31.173  39.054   8.987  1.00  0.00     0.210 HD
ENDBRANCH  22  23
ENDBRANCH  17  22
BRANCH  19  25
ATOM     25  O   UNL     1      30.298  42.361   7.059  1.00  0.00    -0.350 OA
BRANCH  25  26
ATOM     26  C   UNL     1      31.582  42.855   7.184  1.00  0.00     0.169 C 
BRANCH  26  27
ATOM     27  C   UNL     1      32.499  42.528   6.044  1.00  0.00     0.119 C 
BRANCH  27  28
ATOM     28  N   UNL     1      32.773  41.086   6.135  1.00  0.00    -0.092 NA
ATOM     29  N   UNL     1      33.397  40.702   7.124  1.00  0.00     0.001 N 
ATOM     30  N   UNL     1      33.840  39.992   8.037  1.00  0.00    -0.003 NA
ENDBRANCH  27  28
ENDBRANCH  26  27
ENDBRANCH  25  26
ENDBRANCH  19  25
BRANCH  20  31
ATOM     31  O   UNL     1      26.664  40.356   9.226  1.00  0.00    -0.387 OA
ATOM     32  H   UNL     1      26.854  39.561   8.661  1.00  0.00     0.211 HD
ENDBRANCH  20  31
BRANCH  21  33
ATOM     33  O   UNL     1      27.665  42.850   7.907  1.00  0.00    -0.385 OA
ATOM     34  H   UNL     1      27.547  43.428   8.708  1.00  0.00     0.211 HD
ENDBRANCH  21  33
ENDBRANCH  15  16
ENDBRANCH  10  15
BRANCH  12  35
ATOM     35  O   UNL     1      28.264  37.299  13.850  1.00  0.00    -0.385 OA
ATOM     36  H   UNL     1      27.347  37.014  14.091  1.00  0.00     0.211 HD
ENDBRANCH  12  35
BRANCH  13  37
ATOM     37  O   UNL     1      27.122  40.527  14.242  1.00  0.00    -0.387 OA
ATOM     38  H   UNL     1      26.574  40.764  15.037  1.00  0.00     0.211 HD
ENDBRANCH  13  37
BRANCH  14  39
ATOM     39  O   UNL     1      25.858  40.483  11.960  1.00  0.00    -0.387 OA
ATOM     40  H   UNL     1      26.515  40.612  11.248  1.00  0.00     0.211 HD
ENDBRANCH  14  39
ENDBRANCH   8   9
ENDBRANCH   7   8
ENDBRANCH   1   7
BRANCH   1  41
ATOM     41  C   UNL     1      23.355  37.013   8.678  1.00  0.00     0.364 C 
ATOM     42  O   UNL     1      22.494  36.548   9.426  1.00  0.00    -0.246 OA
BRANCH  41  43
ATOM     43  O   UNL     1      23.007  37.870   7.658  1.00  0.00    -0.477 OA
ATOM     44  H   UNL     1      22.454  37.569   6.853  1.00  0.00     0.296 HD
ENDBRANCH  41  43
ENDBRANCH   1  41
BRANCH   3  45
ATOM     45  O   UNL     1      26.963  34.883  10.870  1.00  0.00    -0.391 OA
ATOM     46  H   UNL     1      27.865  34.529  10.856  1.00  0.00     0.211 HD
ENDBRANCH   3  45
BRANCH   5  47
ATOM     47  C   UNL     1      27.143  37.385   6.730  1.00  0.00     0.176 C 
BRANCH  47  48
ATOM     48  O   UNL     1      27.696  38.402   7.476  1.00  0.00    -0.388 OA
ATOM     49  H   UNL     1      28.355  38.956   7.003  1.00  0.00     0.211 HD
ENDBRANCH  47  48
BRANCH  47  50
ATOM     50  C   UNL     1      28.014  37.115   5.537  1.00  0.00     0.165 C 
BRANCH  50  51
ATOM     51  O   UNL     1      29.243  36.616   5.842  1.00  0.00    -0.388 OA
ATOM     52  H   UNL     1      29.985  37.231   5.685  1.00  0.00     0.211 HD
ENDBRANCH  50  51
BRANCH  50  53
ATOM     53  C   UNL     1      27.941  38.204   4.508  1.00  0.00     0.154 C 
BRANCH  53  54
ATOM     54  N   UNL     1      27.156  39.346   4.900  1.00  0.00    -0.319 N 
ATOM     55  C   UNL     1      27.534  40.711   4.681  1.00  0.00     0.407 C 
ATOM     56  H   UNL     1      26.218  39.244   5.391  1.00  0.00     0.167 HD
ATOM     57  O   UNL     1      28.622  40.964   4.115  1.00  0.00    -0.225 OA
BRANCH  55  58
ATOM     58  O   UNL     1      26.726  41.758   5.083  1.00  0.00    -0.443 OA
BRANCH  58  59
ATOM     59  C   UNL     1      25.330  41.645   4.949  1.00  0.00     0.294 C 
BRANCH  59  60
ATOM     60  C   UNL     1      24.692  41.312   6.241  1.00  0.00     0.120 A 
ATOM     61  C   UNL     1      23.701  42.096   6.847  1.00  0.00     0.138 A 
ATOM     62  N   UNL     1      24.875  40.283   7.074  1.00  0.00    -0.132 NA
ATOM     63  N   UNL     1      23.340  41.508   7.998  1.00  0.00    -0.248 N 
ATOM     64  N   UNL     1      24.050  40.425   8.121  1.00  0.00    -0.067 NA
BRANCH  63  65
ATOM     65  C   UNL     1      22.337  42.008   8.912  1.00  0.00     0.181 C 
BRANCH  65  66
ATOM     66  C   UNL     1      21.547  40.871   9.446  1.00  0.00    -0.026 A 
ATOM     67  C   UNL     1      21.765  40.358  10.712  1.00  0.00     0.005 A 
ATOM     68  C   UNL     1      20.562  40.312   8.646  1.00  0.00     0.005 A 
ATOM     69  C   UNL     1      21.002  39.295  11.165  1.00  0.00     0.000 A 
ATOM     70  C   UNL     1      19.806  39.251   9.109  1.00  0.00     0.000 A 
ATOM     71  C   UNL     1      20.029  38.749  10.365  1.00  0.00     0.000 A 
ENDBRANCH  65  66
ENDBRANCH  63  65
ENDBRANCH  59  60
ENDBRANCH  58  59
ENDBRANCH  55  58
ENDBRANCH  53  54
ENDBRANCH  50  53
ENDBRANCH  47  50
ENDBRANCH   5  47
BRANCH   4  72
ATOM     72  N   UNL     1      28.412  34.944   8.497  1.00  0.00    -0.348 N 
ATOM     73  C   UNL     1      29.762  35.361   8.535  1.00  0.00     0.217 C 
ATOM     74  H   UNL     1      28.216  33.945   8.269  1.00  0.00     0.163 HD
ATOM     75  C   UNL     1      30.889  34.419   8.259  1.00  0.00     0.114 C 
ATOM     76  O   UNL     1      30.010  36.559   8.811  1.00  0.00    -0.275 OA
ENDBRANCH   4  72
TORSDOF 31
BEGIN_RES LYS A 131
REMARK  4 active torsions:
REMARK  status: ('A' for Active; 'I' for Inactive)
REMARK    1  A    between atoms: CA   and  CB  
REMARK    2  A    between atoms: CB   and  CG  
REMARK    3  A    between atoms: CG   and  CD  
REMARK    4  A    between atoms: CD   and  CE  
ROOT
ATOM      1  CA  LYS A 131      29.867  25.555  16.977  1.00 20.52     0.186 C 
ENDROOT
BRANCH   1   2
ATOM      2  CB  LYS A 131      28.345  25.722  17.026  1.00 20.94     0.034 C 
BRANCH   2   3
ATOM      3  CG  LYS A 131      27.601  24.401  16.901  1.00 22.96     0.005 C 
BRANCH   3   4
ATOM      4  CD  LYS A 131      26.155  24.526  17.291  1.00 24.33     0.041 C 
BRANCH   4   5
ATOM      5  CE  LYS A 131      25.971  25.754  18.178  1.00 26.91     0.338 C 
ATOM      6  NZ  LYS A 131      24.781  26.528  17.752  1.00 27.40     0.618 N 
ENDBRANCH   4   5
ENDBRANCH   3   4
ENDBRANCH   2   3
ENDBRANCH   1   2
END_RES LYS A 131
BEGIN_RES LYS A 135
REMARK  4 active torsions:
REMARK  status: ('A' for Active; 'I' for Inactive)
REMARK    5  A    between atoms: CA   and  CB  
REMARK    6  A    between atoms: CB   and  CG  
REMARK    7  A    between atoms: CG   and  CD  
REMARK    8  A    between atoms: CD   and  CE  
ROOT
ATOM      7  CA  LYS A 135      33.193  34.663   9.290  1.00 25.02     0.186 C 
ENDROOT
BRANCH   7   8
ATOM      8  CB  LYS A 135      32.060  35.360  10.034  1.00 26.63     0.034 C 
BRANCH   8   9
ATOM      9  CG  LYS A 135      32.486  35.974  11.343  1.00 29.45     0.005 C 
BRANCH   9  10
ATOM     10  CD  LYS A 135      31.302  36.095  12.289  1.00 32.00     0.041 C 
BRANCH  10  11
ATOM     11  CE  LYS A 135      30.373  34.906  12.135  1.00 34.25     0.338 C 
ATOM     12  NZ  LYS A 135      30.096  34.268  13.452  1.00 35.99     0.618 N 
ENDBRANCH  10  11
ENDBRANCH   9  10
ENDBRANCH   8   9
ENDBRANCH   7   8
END_RES LYS A 135
