REMARK VINA RESULT:    -4.647      6.367     12.272
REMARK INTER + INTRA:         -22.914
REMARK INTER:                 -10.260
REMARK INTRA:                 -12.654
REMARK UNBOUND:               -11.068
REMARK SMILES CC(=O)N[C@@H]1[C@@H](O)C[C@](OC[C@H]2O[C@@H](O[C@H]3[C@H](O)[C@@H](O)[C@H](OCCN=[N+]=[N-])O[C@@H]3CO)[C@H](O)[C@@H](O)[C@H]2O)(C(=O)O)O[C@H]1C(O)[C@H](O)CNC(=O)OCc1cn(Cc2cc(Br)cc(Br)c2O)nn1
REMARK SMILES IDX 9 1 8 2 6 3 5 4 42 5 41 6 10 7 11 8 12 9 14 10 13 11 32 12
REMARK SMILES IDX 34 13 36 14 15 15 16 16 29 17 28 18 21 19 17 20 19 21 30 22
REMARK SMILES IDX 31 23 22 25 23 26 24 27 25 28 26 29 27 30 18 31 20 33 33 35
REMARK SMILES IDX 35 37 37 39 38 41 39 42 40 43 7 45 43 47 44 48 45 50 46 51
REMARK SMILES IDX 47 53 48 54 49 55 50 57 51 58 52 59 53 60 54 61 67 62 55 63
REMARK SMILES IDX 66 64 56 65 57 66 58 67 64 68 59 69 62 70 60 71 61 72 63 73
REMARK SMILES IDX 65 74 4 76 2 77 1 79 3 80
REMARK H PARENT 31 24 18 32 20 34 33 36 35 38 37 40 40 44 7 46 44 49 46 52
REMARK H PARENT 48 56 65 75 4 78
REMARK Flexibility Score: inf
ROOT
ATOM      1  C   UNL     1      30.909  33.192  20.560  1.00  0.00     0.272 C 
ATOM      2  C   UNL     1      29.610  34.032  20.981  1.00  0.00     0.113 C 
ATOM      3  C   UNL     1      29.401  35.144  20.036  1.00  0.00     0.145 C 
ATOM      4  C   UNL     1      29.312  34.623  18.626  1.00  0.00     0.142 C 
ATOM      5  C   UNL     1      29.906  33.264  18.404  1.00  0.00     0.178 C 
ATOM      6  O   UNL     1      30.681  32.701  19.324  1.00  0.00    -0.332 OA
ENDROOT
BRANCH   1   7
ATOM      7  O   UNL     1      30.852  32.212  21.492  1.00  0.00    -0.338 OA
BRANCH   7   8
ATOM      8  C   UNL     1      31.427  31.027  21.422  1.00  0.00     0.199 C 
BRANCH   8   9
ATOM      9  C   UNL     1      31.263  30.009  22.496  1.00  0.00     0.179 C 
ATOM     10  C   UNL     1      29.532  28.788  21.527  1.00  0.00     0.282 C 
ATOM     11  O   UNL     1      30.012  29.500  22.577  1.00  0.00    -0.341 OA
ATOM     12  C   UNL     1      30.540  27.842  20.960  1.00  0.00     0.202 C 
ATOM     13  C   UNL     1      31.669  27.621  21.929  1.00  0.00     0.179 C 
ATOM     14  C   UNL     1      32.309  28.897  22.390  1.00  0.00     0.177 C 
BRANCH  10  15
ATOM     15  O   UNL     1      28.952  29.631  20.566  1.00  0.00    -0.341 OA
BRANCH  15  16
ATOM     16  C   UNL     1      27.578  29.687  20.618  1.00  0.00     0.184 C 
ATOM     17  C   UNL     1      26.962  29.513  19.249  1.00  0.00     0.178 C 
ATOM     18  O   UNL     1      25.630  29.808  19.186  1.00  0.00    -0.341 OA
ATOM     19  C   UNL     1      24.970  29.923  20.396  1.00  0.00     0.281 C 
ATOM     20  C   UNL     1      27.094  31.068  21.073  1.00  0.00     0.180 C 
ATOM     21  C   UNL     1      25.613  30.915  21.327  1.00  0.00     0.202 C 
BRANCH  17  22
ATOM     22  C   UNL     1      27.224  28.142  18.661  1.00  0.00     0.191 C 
BRANCH  22  23
ATOM     23  O   UNL     1      27.196  27.163  19.631  1.00  0.00    -0.394 OA
ATOM     24  H   UNL     1      26.419  27.326  20.215  1.00  0.00     0.210 HD
ENDBRANCH  22  23
ENDBRANCH  17  22
BRANCH  19  25
ATOM     25  O   UNL     1      24.842  28.664  20.958  1.00  0.00    -0.350 OA
BRANCH  25  26
ATOM     26  C   UNL     1      24.500  28.743  22.281  1.00  0.00     0.169 C 
BRANCH  26  27
ATOM     27  C   UNL     1      24.766  27.526  23.100  1.00  0.00     0.119 C 
BRANCH  27  28
ATOM     28  N   UNL     1      25.926  27.663  23.956  1.00  0.00    -0.092 NA
ATOM     29  N   UNL     1      26.561  28.695  24.046  1.00  0.00     0.001 N 
ATOM     30  N   UNL     1      27.130  29.712  24.435  1.00  0.00    -0.003 NA
ENDBRANCH  27  28
ENDBRANCH  26  27
ENDBRANCH  25  26
ENDBRANCH  19  25
BRANCH  20  31
ATOM     31  O   UNL     1      27.781  31.565  22.147  1.00  0.00    -0.387 OA
ATOM     32  H   UNL     1      28.158  30.763  22.632  1.00  0.00     0.211 HD
ENDBRANCH  20  31
BRANCH  21  33
ATOM     33  O   UNL     1      24.948  32.132  21.235  1.00  0.00    -0.385 OA
ATOM     34  H   UNL     1      24.054  32.065  21.612  1.00  0.00     0.211 HD
ENDBRANCH  21  33
ENDBRANCH  15  16
ENDBRANCH  10  15
BRANCH  12  35
ATOM     35  O   UNL     1      29.877  26.617  20.704  1.00  0.00    -0.385 OA
ATOM     36  H   UNL     1      30.321  25.963  21.293  1.00  0.00     0.211 HD
ENDBRANCH  12  35
BRANCH  13  37
ATOM     37  O   UNL     1      32.621  26.734  21.429  1.00  0.00    -0.387 OA
ATOM     38  H   UNL     1      32.798  26.087  22.159  1.00  0.00     0.211 HD
ENDBRANCH  13  37
BRANCH  14  39
ATOM     39  O   UNL     1      33.290  29.278  21.492  1.00  0.00    -0.387 OA
ATOM     40  H   UNL     1      33.620  28.493  20.976  1.00  0.00     0.211 HD
ENDBRANCH  14  39
ENDBRANCH   8   9
ENDBRANCH   7   8
ENDBRANCH   1   7
BRANCH   1  41
ATOM     41  C   UNL     1      32.014  34.141  20.634  1.00  0.00     0.364 C 
ATOM     42  O   UNL     1      32.380  34.648  21.760  1.00  0.00    -0.246 OA
BRANCH  41  43
ATOM     43  O   UNL     1      32.750  34.569  19.560  1.00  0.00    -0.477 OA
ATOM     44  H   UNL     1      33.478  35.260  19.670  1.00  0.00     0.296 HD
ENDBRANCH  41  43
ENDBRANCH   1  41
BRANCH   3  45
ATOM     45  O   UNL     1      28.231  35.834  20.404  1.00  0.00    -0.391 OA
ATOM     46  H   UNL     1      27.502  35.607  19.782  1.00  0.00     0.211 HD
ENDBRANCH   3  45
BRANCH   5  47
ATOM     47  C   UNL     1      28.806  32.365  17.873  1.00  0.00     0.176 C 
BRANCH  47  48
ATOM     48  O   UNL     1      27.894  33.143  17.115  1.00  0.00    -0.388 OA
ATOM     49  H   UNL     1      26.996  33.096  17.499  1.00  0.00     0.211 HD
ENDBRANCH  47  48
BRANCH  47  50
ATOM     50  C   UNL     1      29.249  31.168  17.139  1.00  0.00     0.165 C 
BRANCH  50  51
ATOM     51  O   UNL     1      30.149  30.409  17.853  1.00  0.00    -0.388 OA
ATOM     52  H   UNL     1      29.904  30.295  18.805  1.00  0.00     0.211 HD
ENDBRANCH  50  51
BRANCH  50  53
ATOM     53  C   UNL     1      29.705  31.336  15.731  1.00  0.00     0.154 C 
BRANCH  53  54
ATOM     54  N   UNL     1      31.031  31.813  15.539  1.00  0.00    -0.319 N 
ATOM     55  C   UNL     1      31.194  33.196  15.182  1.00  0.00     0.407 C 
ATOM     56  H   UNL     1      31.882  31.233  15.616  1.00  0.00     0.167 HD
ATOM     57  O   UNL     1      30.152  33.927  15.057  1.00  0.00    -0.225 OA
BRANCH  55  58
ATOM     58  O   UNL     1      32.445  33.709  14.987  1.00  0.00    -0.443 OA
BRANCH  58  59
ATOM     59  C   UNL     1      32.679  35.072  14.742  1.00  0.00     0.294 C 
BRANCH  59  60
ATOM     60  C   UNL     1      33.231  35.730  15.947  1.00  0.00     0.120 A 
ATOM     61  C   UNL     1      34.554  35.987  16.287  1.00  0.00     0.138 A 
ATOM     62  N   UNL     1      32.525  36.230  16.974  1.00  0.00    -0.132 NA
ATOM     63  N   UNL     1      34.614  36.612  17.472  1.00  0.00    -0.248 N 
ATOM     64  N   UNL     1      33.346  36.746  17.868  1.00  0.00    -0.067 NA
BRANCH  63  65
ATOM     65  C   UNL     1      35.780  37.076  18.232  1.00  0.00     0.185 C 
BRANCH  65  66
ATOM     66  C   UNL     1      36.524  35.877  18.682  1.00  0.00     0.018 A 
ATOM     67  C   UNL     1      36.082  35.200  19.802  1.00  0.00     0.025 A 
ATOM     68  C   UNL     1      37.651  35.407  18.017  1.00  0.00     0.134 A 
ATOM     69  C   UNL     1      36.728  34.069  20.278  1.00  0.00     0.019 A 
ATOM     70  C   UNL     1      38.319  34.280  18.468  1.00  0.00     0.061 A 
ATOM     71  Br  UNL     1      36.083  33.169  21.826  1.00  0.00    -0.051 Br
ATOM     72  C   UNL     1      37.840  33.626  19.602  1.00  0.00     0.035 A 
ATOM     73  Br  UNL     1      39.846  33.662  17.546  1.00  0.00    -0.047 Br
BRANCH  68  74
ATOM     74  O   UNL     1      38.041  36.129  16.906  1.00  0.00    -0.506 OA
ATOM     75  H   UNL     1      37.424  36.828  16.528  1.00  0.00     0.293 HD
ENDBRANCH  68  74
ENDBRANCH  65  66
ENDBRANCH  63  65
ENDBRANCH  59  60
ENDBRANCH  58  59
ENDBRANCH  55  58
ENDBRANCH  53  54
ENDBRANCH  50  53
ENDBRANCH  47  50
ENDBRANCH   5  47
BRANCH   4  76
ATOM     76  N   UNL     1      29.777  35.634  17.701  1.00  0.00    -0.348 N 
ATOM     77  C   UNL     1      28.826  36.455  17.043  1.00  0.00     0.217 C 
ATOM     78  H   UNL     1      30.790  35.791  17.488  1.00  0.00     0.163 HD
ATOM     79  C   UNL     1      29.308  37.501  16.087  1.00  0.00     0.114 C 
ATOM     80  O   UNL     1      27.580  36.296  17.271  1.00  0.00    -0.275 OA
ENDBRANCH   4  76
TORSDOF 32
BEGIN_RES LYS A 131
REMARK  4 active torsions:
REMARK  status: ('A' for Active; 'I' for Inactive)
REMARK    1  A    between atoms: CA   and  CB  
REMARK    2  A    between atoms: CB   and  CG  
REMARK    3  A    between atoms: CG   and  CD  
REMARK    4  A    between atoms: CD   and  CE  
ROOT
ATOM      1  CA  LYS A 131      29.867  25.555  16.977  1.00 20.52     0.186 C 
ENDROOT
BRANCH   1   2
ATOM      2  CB  LYS A 131      28.345  25.722  17.026  1.00 20.94     0.034 C 
BRANCH   2   3
ATOM      3  CG  LYS A 131      27.602  24.399  16.925  1.00 22.96     0.005 C 
BRANCH   3   4
ATOM      4  CD  LYS A 131      26.555  24.254  17.994  1.00 24.33     0.041 C 
BRANCH   4   5
ATOM      5  CE  LYS A 131      25.211  23.929  17.349  1.00 26.91     0.338 C 
ATOM      6  NZ  LYS A 131      24.885  22.494  17.524  1.00 27.40     0.618 N 
ENDBRANCH   4   5
ENDBRANCH   3   4
ENDBRANCH   2   3
ENDBRANCH   1   2
END_RES LYS A 131
BEGIN_RES LYS A 135
REMARK  4 active torsions:
REMARK  status: ('A' for Active; 'I' for Inactive)
REMARK    5  A    between atoms: CA   and  CB  
REMARK    6  A    between atoms: CB   and  CG  
REMARK    7  A    between atoms: CG   and  CD  
REMARK    8  A    between atoms: CD   and  CE  
ROOT
ATOM      7  CA  LYS A 135      33.193  34.663   9.290  1.00 25.02     0.186 C 
ENDROOT
BRANCH   7   8
ATOM      8  CB  LYS A 135      32.060  35.360  10.034  1.00 26.63     0.034 C 
BRANCH   8   9
ATOM      9  CG  LYS A 135      30.713  34.720   9.817  1.00 29.45     0.005 C 
BRANCH   9  10
ATOM     10  CD  LYS A 135      30.414  34.588   8.332  1.00 32.00     0.041 C 
BRANCH  10  11
ATOM     11  CE  LYS A 135      28.924  34.705   8.076  1.00 34.25     0.338 C 
ATOM     12  NZ  LYS A 135      28.510  36.131   7.961  1.00 35.99     0.618 N 
ENDBRANCH  10  11
ENDBRANCH   9  10
ENDBRANCH   8   9
ENDBRANCH   7   8
END_RES LYS A 135
