REMARK VINA RESULT:    -4.659      3.018      8.210
REMARK INTER + INTRA:         -25.097
REMARK INTER:                 -11.682
REMARK INTRA:                 -13.415
REMARK UNBOUND:               -12.132
REMARK SMILES CCOCCc1c(-c2ccccc2)nc(N)nc1-n1cc(COC(=O)NC[C@@H](O)C(O)[C@@H]2O[C@@](OC[C@H]3O[C@@H](O[C@H]4[C@H](O)[C@@H](O)[C@H](OCCN=[N+]=[N-])O[C@@H]4CO)[C@H](O)[C@@H](O)[C@H]3O)(C(=O)O)C[C@H](O)[C@H]2NC(C)=O)nn1
REMARK SMILES IDX 30 1 32 2 34 3 66 4 33 5 67 6 69 7 35 8 36 9 37 10 39 11
REMARK SMILES IDX 38 12 57 13 59 14 61 15 40 16 41 17 54 18 53 19 46 20 42 21
REMARK SMILES IDX 44 22 55 23 56 24 47 26 48 27 49 28 50 29 51 30 52 31 43 32
REMARK SMILES IDX 45 34 58 36 60 38 62 40 63 42 64 43 65 44 68 46 70 48 71 49
REMARK SMILES IDX 72 51 73 52 31 53 28 55 29 56 27 58 26 59 24 60 25 62 23 63
REMARK SMILES IDX 22 64 21 65 20 66 74 67 19 68 75 69 18 70 17 71 6 72 15 73
REMARK SMILES IDX 7 74 14 75 5 76 4 77 3 78 2 79 1 80 16 81 8 84 9 85 13 86
REMARK SMILES IDX 10 87 12 88 11 89
REMARK H PARENT 56 25 43 33 45 35 58 37 60 39 62 41 65 45 68 47 70 50 31 54
REMARK H PARENT 29 57 26 61 16 82 16 83
REMARK Flexibility Score: inf
ROOT
ATOM      1  C   UNL     1      30.274  30.095  24.263  1.00  0.00     0.176 C 
ENDROOT
BRANCH   1   2
ATOM      2  C   UNL     1      30.964  29.747  22.978  1.00  0.00     0.178 C 
ATOM      3  C   UNL     1      30.376  29.683  20.714  1.00  0.00     0.272 C 
ATOM      4  C   UNL     1      31.843  29.270  20.584  1.00  0.00     0.113 C 
ATOM      5  O   UNL     1      30.064  30.142  21.943  1.00  0.00    -0.332 OA
ATOM      6  C   UNL     1      32.232  28.217  21.576  1.00  0.00     0.145 C 
ATOM      7  C   UNL     1      31.266  28.307  22.744  1.00  0.00     0.142 C 
BRANCH   3   8
ATOM      8  O   UNL     1      29.618  28.621  20.274  1.00  0.00    -0.338 OA
BRANCH   8   9
ATOM      9  C   UNL     1      28.260  28.770  20.370  1.00  0.00     0.199 C 
BRANCH   9  10
ATOM     10  C   UNL     1      27.505  27.597  19.761  1.00  0.00     0.179 C 
ATOM     11  C   UNL     1      25.369  26.713  20.074  1.00  0.00     0.282 C 
ATOM     12  O   UNL     1      26.501  27.250  20.617  1.00  0.00    -0.341 OA
ATOM     13  C   UNL     1      24.827  27.759  19.090  1.00  0.00     0.202 C 
ATOM     14  C   UNL     1      25.784  27.676  17.901  1.00  0.00     0.179 C 
ATOM     15  C   UNL     1      27.211  27.713  18.321  1.00  0.00     0.177 C 
BRANCH  11  16
ATOM     16  O   UNL     1      24.465  26.408  21.065  1.00  0.00    -0.341 OA
BRANCH  16  17
ATOM     17  C   UNL     1      24.939  26.722  22.328  1.00  0.00     0.184 C 
ATOM     18  C   UNL     1      24.971  25.521  23.211  1.00  0.00     0.178 C 
ATOM     19  O   UNL     1      24.081  25.491  24.238  1.00  0.00    -0.341 OA
ATOM     20  C   UNL     1      23.890  26.615  24.978  1.00  0.00     0.281 C 
ATOM     21  C   UNL     1      24.208  27.890  22.917  1.00  0.00     0.180 C 
ATOM     22  C   UNL     1      24.400  27.898  24.411  1.00  0.00     0.202 C 
BRANCH  18  23
ATOM     23  C   UNL     1      26.394  25.190  23.664  1.00  0.00     0.191 C 
BRANCH  23  24
ATOM     24  O   UNL     1      27.330  25.949  22.984  1.00  0.00    -0.394 OA
ATOM     25  H   UNL     1      27.766  26.543  23.647  1.00  0.00     0.210 HD
ENDBRANCH  23  24
ENDBRANCH  18  23
BRANCH  20  26
ATOM     26  O   UNL     1      24.471  26.406  26.224  1.00  0.00    -0.350 OA
BRANCH  26  27
ATOM     27  C   UNL     1      24.049  25.264  26.860  1.00  0.00     0.169 C 
BRANCH  27  28
ATOM     28  C   UNL     1      25.042  24.706  27.850  1.00  0.00     0.119 C 
BRANCH  28  29
ATOM     29  N   UNL     1      26.058  23.949  27.121  1.00  0.00    -0.092 NA
ATOM     30  N   UNL     1      27.215  24.369  27.001  1.00  0.00     0.001 N 
ATOM     31  N   UNL     1      28.277  24.974  26.860  1.00  0.00    -0.003 NA
ENDBRANCH  28  29
ENDBRANCH  27  28
ENDBRANCH  26  27
ENDBRANCH  20  26
BRANCH  21  32
ATOM     32  O   UNL     1      24.664  29.112  22.417  1.00  0.00    -0.387 OA
ATOM     33  H   UNL     1      25.587  29.315  22.727  1.00  0.00     0.211 HD
ENDBRANCH  21  32
BRANCH  22  34
ATOM     34  O   UNL     1      23.636  28.943  24.927  1.00  0.00    -0.385 OA
ATOM     35  H   UNL     1      24.074  29.384  25.699  1.00  0.00     0.211 HD
ENDBRANCH  22  34
ENDBRANCH  16  17
ENDBRANCH  11  16
BRANCH  13  36
ATOM     36  O   UNL     1      23.545  27.487  18.678  1.00  0.00    -0.385 OA
ATOM     37  H   UNL     1      22.927  27.363  19.450  1.00  0.00     0.211 HD
ENDBRANCH  13  36
BRANCH  14  38
ATOM     38  O   UNL     1      25.452  28.534  16.878  1.00  0.00    -0.387 OA
ATOM     39  H   UNL     1      26.266  28.950  16.460  1.00  0.00     0.211 HD
ENDBRANCH  14  38
BRANCH  15  40
ATOM     40  O   UNL     1      27.761  28.922  17.842  1.00  0.00    -0.387 OA
ATOM     41  H   UNL     1      28.330  29.321  18.549  1.00  0.00     0.211 HD
ENDBRANCH  15  40
ENDBRANCH   9  10
ENDBRANCH   8   9
ENDBRANCH   3   8
BRANCH   3  42
ATOM     42  C   UNL     1      30.250  30.812  19.737  1.00  0.00     0.364 C 
ATOM     43  O   UNL     1      30.140  31.972  20.271  1.00  0.00    -0.246 OA
BRANCH  42  44
ATOM     44  O   UNL     1      30.247  30.691  18.377  1.00  0.00    -0.477 OA
ATOM     45  H   UNL     1      31.046  30.268  17.912  1.00  0.00     0.296 HD
ENDBRANCH  42  44
ENDBRANCH   3  42
BRANCH   6  46
ATOM     46  O   UNL     1      32.135  26.980  20.919  1.00  0.00    -0.391 OA
ATOM     47  H   UNL     1      31.596  26.341  21.424  1.00  0.00     0.211 HD
ENDBRANCH   6  46
BRANCH   7  48
ATOM     48  N   UNL     1      31.724  27.549  23.866  1.00  0.00    -0.348 N 
ATOM     49  C   UNL     1      31.047  26.414  24.383  1.00  0.00     0.217 C 
ATOM     50  H   UNL     1      32.620  27.855  24.305  1.00  0.00     0.163 HD
ATOM     51  C   UNL     1      31.614  25.704  25.547  1.00  0.00     0.114 C 
ATOM     52  O   UNL     1      29.985  26.025  23.852  1.00  0.00    -0.275 OA
ENDBRANCH   7  48
ENDBRANCH   1   2
BRANCH   1  53
ATOM     53  O   UNL     1      28.949  29.554  24.134  1.00  0.00    -0.388 OA
ATOM     54  H   UNL     1      28.838  29.360  23.180  1.00  0.00     0.211 HD
ENDBRANCH   1  53
BRANCH   1  55
ATOM     55  C   UNL     1      30.116  31.517  24.624  1.00  0.00     0.165 C 
BRANCH  55  56
ATOM     56  O   UNL     1      30.468  31.589  26.003  1.00  0.00    -0.388 OA
ATOM     57  H   UNL     1      30.212  30.744  26.425  1.00  0.00     0.211 HD
ENDBRANCH  55  56
BRANCH  55  58
ATOM     58  C   UNL     1      28.792  32.133  24.450  1.00  0.00     0.154 C 
BRANCH  58  59
ATOM     59  N   UNL     1      28.438  32.499  23.134  1.00  0.00    -0.319 N 
ATOM     60  C   UNL     1      27.346  32.000  22.399  1.00  0.00     0.407 C 
ATOM     61  H   UNL     1      29.022  33.228  22.577  1.00  0.00     0.167 HD
ATOM     62  O   UNL     1      26.558  31.148  22.865  1.00  0.00    -0.225 OA
BRANCH  60  63
ATOM     63  O   UNL     1      27.065  32.424  21.096  1.00  0.00    -0.443 OA
BRANCH  63  64
ATOM     64  C   UNL     1      25.932  31.969  20.388  1.00  0.00     0.294 C 
BRANCH  64  65
ATOM     65  C   UNL     1      26.202  31.864  18.934  1.00  0.00     0.121 A 
ATOM     66  C   UNL     1      27.193  32.494  18.229  1.00  0.00     0.146 A 
ATOM     67  N   UNL     1      25.515  31.148  18.015  1.00  0.00    -0.131 NA
ATOM     68  N   UNL     1      27.090  32.152  16.889  1.00  0.00    -0.202 N 
ATOM     69  N   UNL     1      26.070  31.349  16.834  1.00  0.00    -0.060 NA
BRANCH  68  70
ATOM     70  C   UNL     1      28.000  32.707  15.973  1.00  0.00     0.164 A 
ATOM     71  N   UNL     1      29.248  32.180  15.900  1.00  0.00    -0.193 NA
ATOM     72  C   UNL     1      27.685  33.727  15.064  1.00  0.00     0.026 A 
ATOM     73  C   UNL     1      30.166  32.579  15.017  1.00  0.00     0.222 A 
ATOM     74  C   UNL     1      28.605  34.147  14.151  1.00  0.00     0.081 A 
ATOM     75  N   UNL     1      29.843  33.548  14.159  1.00  0.00    -0.213 NA
BRANCH  72  76
ATOM     76  C   UNL     1      26.375  34.362  15.248  1.00  0.00     0.070 C 
BRANCH  76  77
ATOM     77  C   UNL     1      25.318  33.906  14.265  1.00  0.00     0.165 C 
BRANCH  77  78
ATOM     78  O   UNL     1      25.277  32.577  13.971  1.00  0.00    -0.381 OA
BRANCH  78  79
ATOM     79  C   UNL     1      24.233  32.114  13.228  1.00  0.00     0.156 C 
ATOM     80  C   UNL     1      24.218  30.576  13.185  1.00  0.00     0.035 C 
ENDBRANCH  78  79
ENDBRANCH  77  78
ENDBRANCH  76  77
ENDBRANCH  72  76
BRANCH  73  81
ATOM     81  N   UNL     1      31.471  31.992  14.982  1.00  0.00    -0.368 N 
ATOM     82  H   UNL     1      31.859  31.527  15.827  1.00  0.00     0.159 HD
ATOM     83  H   UNL     1      32.067  32.003  14.138  1.00  0.00     0.159 HD
ENDBRANCH  73  81
BRANCH  74  84
ATOM     84  C   UNL     1      28.352  35.173  13.164  1.00  0.00     0.001 A 
ATOM     85  C   UNL     1      28.720  36.481  13.474  1.00  0.00     0.010 A 
ATOM     86  C   UNL     1      27.788  34.898  11.932  1.00  0.00     0.010 A 
ATOM     87  C   UNL     1      28.534  37.517  12.568  1.00  0.00     0.001 A 
ATOM     88  C   UNL     1      27.612  35.938  11.050  1.00  0.00     0.001 A 
ATOM     89  C   UNL     1      27.973  37.229  11.346  1.00  0.00     0.000 A 
ENDBRANCH  74  84
ENDBRANCH  68  70
ENDBRANCH  64  65
ENDBRANCH  63  64
ENDBRANCH  60  63
ENDBRANCH  58  59
ENDBRANCH  55  58
ENDBRANCH   1  55
TORSDOF 36
BEGIN_RES LYS A 131
REMARK  4 active torsions:
REMARK  status: ('A' for Active; 'I' for Inactive)
REMARK    1  A    between atoms: CA   and  CB  
REMARK    2  A    between atoms: CB   and  CG  
REMARK    3  A    between atoms: CG   and  CD  
REMARK    4  A    between atoms: CD   and  CE  
ROOT
ATOM      1  CA  LYS A 131      29.867  25.555  16.977  1.00 20.52     0.186 C 
ENDROOT
BRANCH   1   2
ATOM      2  CB  LYS A 131      28.345  25.722  17.026  1.00 20.94     0.034 C 
BRANCH   2   3
ATOM      3  CG  LYS A 131      27.600  24.411  16.827  1.00 22.96     0.005 C 
BRANCH   3   4
ATOM      4  CD  LYS A 131      26.822  24.011  18.050  1.00 24.33     0.041 C 
BRANCH   4   5
ATOM      5  CE  LYS A 131      25.349  23.855  17.687  1.00 26.91     0.338 C 
ATOM      6  NZ  LYS A 131      25.008  22.424  17.504  1.00 27.40     0.618 N 
ENDBRANCH   4   5
ENDBRANCH   3   4
ENDBRANCH   2   3
ENDBRANCH   1   2
END_RES LYS A 131
BEGIN_RES LYS A 135
REMARK  4 active torsions:
REMARK  status: ('A' for Active; 'I' for Inactive)
REMARK    5  A    between atoms: CA   and  CB  
REMARK    6  A    between atoms: CB   and  CG  
REMARK    7  A    between atoms: CG   and  CD  
REMARK    8  A    between atoms: CD   and  CE  
ROOT
ATOM      7  CA  LYS A 135      33.193  34.663   9.290  1.00 25.02     0.186 C 
ENDROOT
BRANCH   7   8
ATOM      8  CB  LYS A 135      32.060  35.360  10.034  1.00 26.63     0.034 C 
BRANCH   8   9
ATOM      9  CG  LYS A 135      30.868  35.667   9.165  1.00 29.45     0.005 C 
BRANCH   9  10
ATOM     10  CD  LYS A 135      30.173  34.384   8.735  1.00 32.00     0.041 C 
BRANCH  10  11
ATOM     11  CE  LYS A 135      28.951  34.697   7.893  1.00 34.25     0.338 C 
ATOM     12  NZ  LYS A 135      28.821  36.162   7.658  1.00 35.99     0.618 N 
ENDBRANCH  10  11
ENDBRANCH   9  10
ENDBRANCH   8   9
ENDBRANCH   7   8
END_RES LYS A 135
