REMARK VINA RESULT:    -4.341      3.236      6.540
REMARK INTER + INTRA:         -22.791
REMARK INTER:                 -11.069
REMARK INTRA:                 -11.722
REMARK UNBOUND:               -11.851
REMARK SMILES CC(=O)N[C@@H]1[C@@H](O)C[C@](OC[C@H]2O[C@@H](O[C@H]3[C@H](O)[C@@H](O)[C@H](OCCN=[N+]=[N-])O[C@@H]3CO)[C@H](O)[C@@H](O)[C@H]2O)(C(=O)O)O[C@H]1C(O)[C@H](O)CNC(=O)OCc1cn(Cc2ccccc2)nn1
REMARK SMILES IDX 9 1 8 2 6 3 5 4 42 5 41 6 10 7 11 8 12 9 14 10 13 11 32 12
REMARK SMILES IDX 34 13 36 14 15 15 16 16 29 17 28 18 21 19 17 20 19 21 30 22
REMARK SMILES IDX 31 23 22 25 23 26 24 27 25 28 26 29 27 30 18 31 20 33 33 35
REMARK SMILES IDX 35 37 37 39 38 41 39 42 40 43 7 45 43 47 44 48 45 50 46 51
REMARK SMILES IDX 47 53 48 54 49 55 50 57 51 58 52 59 53 60 54 61 64 62 55 63
REMARK SMILES IDX 63 64 56 65 57 66 58 67 62 68 59 69 61 70 60 71 4 72 2 73
REMARK SMILES IDX 1 75 3 76
REMARK H PARENT 31 24 18 32 20 34 33 36 35 38 37 40 40 44 7 46 44 49 46 52
REMARK H PARENT 48 56 4 74
REMARK Flexibility Score: inf
ROOT
ATOM      1  C   UNL     1      29.455  36.221  14.511  1.00  0.00     0.272 C 
ATOM      2  C   UNL     1      30.390  36.607  13.425  1.00  0.00     0.113 C 
ATOM      3  C   UNL     1      31.730  36.870  13.997  1.00  0.00     0.145 C 
ATOM      4  C   UNL     1      31.782  36.799  15.532  1.00  0.00     0.142 C 
ATOM      5  C   UNL     1      30.609  37.445  16.136  1.00  0.00     0.178 C 
ATOM      6  O   UNL     1      29.410  37.300  15.413  1.00  0.00    -0.332 OA
ENDROOT
BRANCH   1   7
ATOM      7  O   UNL     1      29.727  35.033  15.157  1.00  0.00    -0.338 OA
BRANCH   7   8
ATOM      8  C   UNL     1      29.716  33.984  14.253  1.00  0.00     0.199 C 
BRANCH   8   9
ATOM      9  C   UNL     1      29.309  32.677  14.893  1.00  0.00     0.179 C 
ATOM     10  C   UNL     1      29.876  31.347  16.725  1.00  0.00     0.282 C 
ATOM     11  O   UNL     1      30.317  32.120  15.648  1.00  0.00    -0.341 OA
ATOM     12  C   UNL     1      28.676  30.535  16.408  1.00  0.00     0.202 C 
ATOM     13  C   UNL     1      27.521  31.420  16.062  1.00  0.00     0.179 C 
ATOM     14  C   UNL     1      28.008  32.787  15.642  1.00  0.00     0.177 C 
BRANCH  10  15
ATOM     15  O   UNL     1      29.662  32.129  17.848  1.00  0.00    -0.341 OA
BRANCH  15  16
ATOM     16  C   UNL     1      30.778  32.253  18.665  1.00  0.00     0.184 C 
ATOM     17  C   UNL     1      30.450  31.868  20.060  1.00  0.00     0.178 C 
ATOM     18  O   UNL     1      31.613  32.066  20.834  1.00  0.00    -0.341 OA
ATOM     19  C   UNL     1      31.674  33.458  21.052  1.00  0.00     0.281 C 
ATOM     20  C   UNL     1      31.105  33.756  18.653  1.00  0.00     0.180 C 
ATOM     21  C   UNL     1      32.039  34.152  19.748  1.00  0.00     0.202 C 
BRANCH  17  22
ATOM     22  C   UNL     1      30.012  30.411  20.173  1.00  0.00     0.191 C 
BRANCH  22  23
ATOM     23  O   UNL     1      31.131  29.624  19.822  1.00  0.00    -0.394 OA
ATOM     24  H   UNL     1      31.938  30.035  20.214  1.00  0.00     0.210 HD
ENDBRANCH  22  23
ENDBRANCH  17  22
BRANCH  19  25
ATOM     25  O   UNL     1      32.620  33.723  22.009  1.00  0.00    -0.350 OA
BRANCH  25  26
ATOM     26  C   UNL     1      33.225  32.549  22.414  1.00  0.00     0.169 C 
BRANCH  26  27
ATOM     27  C   UNL     1      34.708  32.496  22.207  1.00  0.00     0.119 C 
BRANCH  27  28
ATOM     28  N   UNL     1      35.055  31.075  22.058  1.00  0.00    -0.092 NA
ATOM     29  N   UNL     1      34.118  30.279  22.010  1.00  0.00     0.001 N 
ATOM     30  N   UNL     1      33.435  29.273  21.771  1.00  0.00    -0.003 NA
ENDBRANCH  27  28
ENDBRANCH  26  27
ENDBRANCH  25  26
ENDBRANCH  19  25
BRANCH  20  31
ATOM     31  O   UNL     1      31.748  33.968  17.416  1.00  0.00    -0.387 OA
ATOM     32  H   UNL     1      31.303  34.678  16.881  1.00  0.00     0.211 HD
ENDBRANCH  20  31
BRANCH  21  33
ATOM     33  O   UNL     1      31.940  35.526  19.965  1.00  0.00    -0.385 OA
ATOM     34  H   UNL     1      32.095  36.056  19.138  1.00  0.00     0.211 HD
ENDBRANCH  21  33
ENDBRANCH  15  16
ENDBRANCH  10  15
BRANCH  12  35
ATOM     35  O   UNL     1      28.923  29.588  15.399  1.00  0.00    -0.385 OA
ATOM     36  H   UNL     1      29.820  29.802  15.039  1.00  0.00     0.211 HD
ENDBRANCH  12  35
BRANCH  13  37
ATOM     37  O   UNL     1      26.685  31.521  17.169  1.00  0.00    -0.387 OA
ATOM     38  H   UNL     1      25.730  31.371  16.937  1.00  0.00     0.211 HD
ENDBRANCH  13  37
BRANCH  14  39
ATOM     39  O   UNL     1      27.986  33.720  16.642  1.00  0.00    -0.387 OA
ATOM     40  H   UNL     1      28.354  33.456  17.509  1.00  0.00     0.211 HD
ENDBRANCH  14  39
ENDBRANCH   8   9
ENDBRANCH   7   8
ENDBRANCH   1   7
BRANCH   1  41
ATOM     41  C   UNL     1      28.030  36.147  14.033  1.00  0.00     0.364 C 
ATOM     42  O   UNL     1      27.117  36.073  14.857  1.00  0.00    -0.246 OA
BRANCH  41  43
ATOM     43  O   UNL     1      27.757  36.166  12.684  1.00  0.00    -0.477 OA
ATOM     44  H   UNL     1      27.090  35.525  12.250  1.00  0.00     0.296 HD
ENDBRANCH  41  43
ENDBRANCH   1  41
BRANCH   3  45
ATOM     45  O   UNL     1      32.732  35.989  13.548  1.00  0.00    -0.391 OA
ATOM     46  H   UNL     1      33.411  36.422  13.010  1.00  0.00     0.211 HD
ENDBRANCH   3  45
BRANCH   5  47
ATOM     47  C   UNL     1      30.257  37.169  17.538  1.00  0.00     0.176 C 
BRANCH  47  48
ATOM     48  O   UNL     1      31.019  37.820  18.483  1.00  0.00    -0.388 OA
ATOM     49  H   UNL     1      31.504  37.234  19.104  1.00  0.00     0.211 HD
ENDBRANCH  47  48
BRANCH  47  50
ATOM     50  C   UNL     1      28.811  37.234  17.935  1.00  0.00     0.165 C 
BRANCH  50  51
ATOM     51  O   UNL     1      28.279  38.486  17.907  1.00  0.00    -0.388 OA
ATOM     52  H   UNL     1      28.377  38.991  18.738  1.00  0.00     0.211 HD
ENDBRANCH  50  51
BRANCH  50  53
ATOM     53  C   UNL     1      28.496  36.369  19.120  1.00  0.00     0.154 C 
BRANCH  53  54
ATOM     54  N   UNL     1      27.408  35.449  18.918  1.00  0.00    -0.319 N 
ATOM     55  C   UNL     1      26.024  35.816  18.873  1.00  0.00     0.407 C 
ATOM     56  H   UNL     1      27.570  34.406  18.782  1.00  0.00     0.167 HD
ATOM     57  O   UNL     1      25.702  37.017  19.024  1.00  0.00    -0.225 OA
BRANCH  55  58
ATOM     58  O   UNL     1      25.032  34.876  18.671  1.00  0.00    -0.443 OA
BRANCH  58  59
ATOM     59  C   UNL     1      24.123  35.047  17.610  1.00  0.00     0.294 C 
BRANCH  59  60
ATOM     60  C   UNL     1      24.124  33.875  16.708  1.00  0.00     0.120 A 
ATOM     61  C   UNL     1      24.407  33.944  15.337  1.00  0.00     0.138 A 
ATOM     62  N   UNL     1      23.883  32.581  16.945  1.00  0.00    -0.132 NA
ATOM     63  N   UNL     1      24.324  32.707  14.823  1.00  0.00    -0.248 N 
ATOM     64  N   UNL     1      24.010  31.902  15.795  1.00  0.00    -0.067 NA
BRANCH  63  65
ATOM     65  C   UNL     1      24.555  32.362  13.438  1.00  0.00     0.181 C 
BRANCH  65  66
ATOM     66  C   UNL     1      23.651  31.250  13.051  1.00  0.00    -0.026 A 
ATOM     67  C   UNL     1      24.097  29.944  12.952  1.00  0.00     0.005 A 
ATOM     68  C   UNL     1      22.322  31.536  12.783  1.00  0.00     0.005 A 
ATOM     69  C   UNL     1      23.215  28.941  12.587  1.00  0.00     0.000 A 
ATOM     70  C   UNL     1      21.450  30.527  12.420  1.00  0.00     0.000 A 
ATOM     71  C   UNL     1      21.901  29.236  12.323  1.00  0.00     0.000 A 
ENDBRANCH  65  66
ENDBRANCH  63  65
ENDBRANCH  59  60
ENDBRANCH  58  59
ENDBRANCH  55  58
ENDBRANCH  53  54
ENDBRANCH  50  53
ENDBRANCH  47  50
ENDBRANCH   5  47
BRANCH   4  72
ATOM     72  N   UNL     1      32.997  37.594  15.804  1.00  0.00    -0.348 N 
ATOM     73  C   UNL     1      33.903  37.290  16.845  1.00  0.00     0.217 C 
ATOM     74  H   UNL     1      33.202  38.424  15.206  1.00  0.00     0.163 HD
ATOM     75  C   UNL     1      35.121  38.116  17.100  1.00  0.00     0.114 C 
ATOM     76  O   UNL     1      33.668  36.292  17.570  1.00  0.00    -0.275 OA
ENDBRANCH   4  72
TORSDOF 31
BEGIN_RES LYS A 131
REMARK  4 active torsions:
REMARK  status: ('A' for Active; 'I' for Inactive)
REMARK    1  A    between atoms: CA   and  CB  
REMARK    2  A    between atoms: CB   and  CG  
REMARK    3  A    between atoms: CG   and  CD  
REMARK    4  A    between atoms: CD   and  CE  
ROOT
ATOM      1  CA  LYS A 131      29.867  25.555  16.977  1.00 20.52     0.186 C 
ENDROOT
BRANCH   1   2
ATOM      2  CB  LYS A 131      28.345  25.722  17.026  1.00 20.94     0.034 C 
BRANCH   2   3
ATOM      3  CG  LYS A 131      27.602  24.399  16.920  1.00 22.96     0.005 C 
BRANCH   3   4
ATOM      4  CD  LYS A 131      26.153  24.531  17.301  1.00 24.33     0.041 C 
BRANCH   4   5
ATOM      5  CE  LYS A 131      25.719  23.299  18.088  1.00 26.91     0.338 C 
ATOM      6  NZ  LYS A 131      24.585  22.625  17.412  1.00 27.40     0.618 N 
ENDBRANCH   4   5
ENDBRANCH   3   4
ENDBRANCH   2   3
ENDBRANCH   1   2
END_RES LYS A 131
BEGIN_RES LYS A 135
REMARK  4 active torsions:
REMARK  status: ('A' for Active; 'I' for Inactive)
REMARK    5  A    between atoms: CA   and  CB  
REMARK    6  A    between atoms: CB   and  CG  
REMARK    7  A    between atoms: CG   and  CD  
REMARK    8  A    between atoms: CD   and  CE  
ROOT
ATOM      7  CA  LYS A 135      33.193  34.663   9.290  1.00 25.02     0.186 C 
ENDROOT
BRANCH   7   8
ATOM      8  CB  LYS A 135      32.060  35.360  10.034  1.00 26.63     0.034 C 
BRANCH   8   9
ATOM      9  CG  LYS A 135      30.864  35.659   9.167  1.00 29.45     0.005 C 
BRANCH   9  10
ATOM     10  CD  LYS A 135      30.338  34.387   8.521  1.00 32.00     0.041 C 
BRANCH  10  11
ATOM     11  CE  LYS A 135      28.940  34.075   9.018  1.00 34.25     0.338 C 
ATOM     12  NZ  LYS A 135      28.175  35.325   9.285  1.00 35.99     0.618 N 
ENDBRANCH  10  11
ENDBRANCH   9  10
ENDBRANCH   8   9
ENDBRANCH   7   8
END_RES LYS A 135
