REMARK VINA RESULT:    -4.035      3.824      7.014
REMARK INTER + INTRA:         -21.847
REMARK INTER:                 -11.628
REMARK INTRA:                 -10.219
REMARK UNBOUND:               -10.971
REMARK SMILES C=CCCCCn1cc(COC(=O)NC[C@@H](O)C(O)[C@@H]2O[C@@](OC[C@H]3O[C@@H](O[C@H]4[C@H](O)[C@@H](O)[C@H](OCCN=[N+]=[N-])O[C@@H]4CO)[C@H](O)[C@@H](O)[C@H]3O)(C(=O)O)C[C@H](O)[C@H]2NC(C)=O)nn1
REMARK SMILES IDX 18 1 20 2 22 3 54 4 21 5 55 6 57 7 23 8 24 9 25 10 27 11
REMARK SMILES IDX 26 12 45 13 47 14 49 15 28 16 29 17 42 18 41 19 34 20 30 21
REMARK SMILES IDX 32 22 43 23 44 24 35 26 36 27 37 28 38 29 39 30 40 31 31 32
REMARK SMILES IDX 33 34 46 36 48 38 50 40 51 42 52 43 53 44 56 46 58 48 59 49
REMARK SMILES IDX 60 51 61 52 19 53 16 55 17 56 15 58 14 59 12 60 13 62 11 63
REMARK SMILES IDX 10 64 9 65 8 66 62 67 7 68 63 69 6 70 5 71 4 72 3 73 2 74
REMARK SMILES IDX 1 75
REMARK H PARENT 44 25 31 33 33 35 46 37 48 39 50 41 53 45 56 47 58 50 19 54
REMARK H PARENT 17 57 14 61
REMARK Flexibility Score: inf
ROOT
ATOM      1  C   UNL     1      29.463  32.415  17.345  1.00  0.00     0.176 C 
ENDROOT
BRANCH   1   2
ATOM      2  C   UNL     1      28.578  31.345  17.991  1.00  0.00     0.178 C 
ATOM      3  C   UNL     1      26.439  30.504  17.928  1.00  0.00     0.272 C 
ATOM      4  C   UNL     1      26.441  30.351  19.392  1.00  0.00     0.113 C 
ATOM      5  O   UNL     1      27.307  31.623  17.634  1.00  0.00    -0.332 OA
ATOM      6  C   UNL     1      27.756  30.167  20.015  1.00  0.00     0.145 C 
ATOM      7  C   UNL     1      28.894  30.918  19.344  1.00  0.00     0.142 C 
BRANCH   3   8
ATOM      8  O   UNL     1      25.251  31.001  17.414  1.00  0.00    -0.338 OA
BRANCH   8   9
ATOM      9  C   UNL     1      24.204  30.246  17.146  1.00  0.00     0.199 C 
BRANCH   9  10
ATOM     10  C   UNL     1      23.395  30.436  15.921  1.00  0.00     0.179 C 
ATOM     11  C   UNL     1      23.035  32.033  14.246  1.00  0.00     0.282 C 
ATOM     12  O   UNL     1      23.371  31.802  15.551  1.00  0.00    -0.341 OA
ATOM     13  C   UNL     1      22.373  30.896  13.572  1.00  0.00     0.202 C 
ATOM     14  C   UNL     1      23.114  29.590  13.671  1.00  0.00     0.179 C 
ATOM     15  C   UNL     1      24.100  29.692  14.793  1.00  0.00     0.177 C 
BRANCH  11  16
ATOM     16  O   UNL     1      24.112  32.614  13.631  1.00  0.00    -0.341 OA
BRANCH  16  17
ATOM     17  C   UNL     1      24.237  33.966  13.740  1.00  0.00     0.184 C 
ATOM     18  C   UNL     1      25.318  34.438  12.796  1.00  0.00     0.178 C 
ATOM     19  O   UNL     1      26.093  35.452  13.383  1.00  0.00    -0.341 OA
ATOM     20  C   UNL     1      26.960  34.836  14.280  1.00  0.00     0.281 C 
ATOM     21  C   UNL     1      24.717  34.373  15.152  1.00  0.00     0.180 C 
ATOM     22  C   UNL     1      26.187  34.058  15.303  1.00  0.00     0.202 C 
BRANCH  18  23
ATOM     23  C   UNL     1      24.776  34.895  11.452  1.00  0.00     0.191 C 
BRANCH  23  24
ATOM     24  O   UNL     1      23.407  34.700  11.380  1.00  0.00    -0.394 OA
ATOM     25  H   UNL     1      22.971  35.565  11.194  1.00  0.00     0.210 HD
ENDBRANCH  23  24
ENDBRANCH  18  23
BRANCH  20  26
ATOM     26  O   UNL     1      27.694  35.855  14.889  1.00  0.00    -0.350 OA
BRANCH  26  27
ATOM     27  C   UNL     1      27.960  35.624  16.226  1.00  0.00     0.169 C 
BRANCH  27  28
ATOM     28  C   UNL     1      28.856  36.750  16.711  1.00  0.00     0.119 C 
BRANCH  28  29
ATOM     29  N   UNL     1      29.926  36.264  17.541  1.00  0.00    -0.092 NA
ATOM     30  N   UNL     1      29.712  35.788  18.649  1.00  0.00     0.001 N 
ATOM     31  N   UNL     1      29.350  35.174  19.652  1.00  0.00    -0.003 NA
ENDBRANCH  28  29
ENDBRANCH  27  28
ENDBRANCH  26  27
ENDBRANCH  20  26
BRANCH  21  32
ATOM     32  O   UNL     1      24.580  35.759  15.213  1.00  0.00    -0.387 OA
ATOM     33  H   UNL     1      23.848  36.066  15.784  1.00  0.00     0.211 HD
ENDBRANCH  21  32
BRANCH  22  34
ATOM     34  O   UNL     1      26.402  32.684  15.236  1.00  0.00    -0.385 OA
ATOM     35  H   UNL     1      25.562  32.242  15.535  1.00  0.00     0.211 HD
ENDBRANCH  22  34
ENDBRANCH  16  17
ENDBRANCH  11  16
BRANCH  13  36
ATOM     36  O   UNL     1      21.117  30.721  14.169  1.00  0.00    -0.385 OA
ATOM     37  H   UNL     1      20.821  29.793  14.153  1.00  0.00     0.211 HD
ENDBRANCH  13  36
BRANCH  14  38
ATOM     38  O   UNL     1      23.738  29.243  12.471  1.00  0.00    -0.387 OA
ATOM     39  H   UNL     1      24.457  28.617  12.692  1.00  0.00     0.211 HD
ENDBRANCH  14  38
BRANCH  15  40
ATOM     40  O   UNL     1      25.268  30.366  14.414  1.00  0.00    -0.387 OA
ATOM     41  H   UNL     1      25.443  30.322  13.455  1.00  0.00     0.211 HD
ENDBRANCH  15  40
ENDBRANCH   9  10
ENDBRANCH   8   9
ENDBRANCH   3   8
BRANCH   3  42
ATOM     42  C   UNL     1      27.050  29.375  17.239  1.00  0.00     0.364 C 
ATOM     43  O   UNL     1      27.540  29.502  16.096  1.00  0.00    -0.246 OA
BRANCH  42  44
ATOM     44  O   UNL     1      27.112  28.129  17.790  1.00  0.00    -0.477 OA
ATOM     45  H   UNL     1      26.866  27.951  18.748  1.00  0.00     0.296 HD
ENDBRANCH  42  44
ENDBRANCH   3  42
BRANCH   6  46
ATOM     46  O   UNL     1      27.670  30.549  21.377  1.00  0.00    -0.391 OA
ATOM     47  H   UNL     1      27.909  31.501  21.507  1.00  0.00     0.211 HD
ENDBRANCH   6  46
BRANCH   7  48
ATOM     48  N   UNL     1      30.087  30.049  19.327  1.00  0.00    -0.348 N 
ATOM     49  C   UNL     1      30.934  29.878  20.446  1.00  0.00     0.217 C 
ATOM     50  H   UNL     1      30.367  29.510  18.463  1.00  0.00     0.163 HD
ATOM     51  C   UNL     1      32.147  28.981  20.363  1.00  0.00     0.114 C 
ATOM     52  O   UNL     1      30.662  30.485  21.512  1.00  0.00    -0.275 OA
ENDBRANCH   7  48
ENDBRANCH   1   2
BRANCH   1  53
ATOM     53  O   UNL     1      30.552  32.598  18.351  1.00  0.00    -0.388 OA
ATOM     54  H   UNL     1      30.002  32.956  19.120  1.00  0.00     0.211 HD
ENDBRANCH   1  53
BRANCH   1  55
ATOM     55  C   UNL     1      30.237  31.980  16.184  1.00  0.00     0.165 C 
BRANCH  55  56
ATOM     56  O   UNL     1      30.391  30.582  16.043  1.00  0.00    -0.388 OA
ATOM     57  H   UNL     1      30.384  30.231  16.967  1.00  0.00     0.211 HD
ENDBRANCH  55  56
BRANCH  55  58
ATOM     58  C   UNL     1      31.507  32.646  15.857  1.00  0.00     0.154 C 
BRANCH  58  59
ATOM     59  N   UNL     1      31.426  34.018  15.532  1.00  0.00    -0.319 N 
ATOM     60  C   UNL     1      30.989  34.677  14.377  1.00  0.00     0.407 C 
ATOM     61  H   UNL     1      31.761  34.693  16.319  1.00  0.00     0.167 HD
ATOM     62  O   UNL     1      30.580  34.044  13.390  1.00  0.00    -0.225 OA
BRANCH  60  63
ATOM     63  O   UNL     1      30.993  36.076  14.290  1.00  0.00    -0.443 OA
BRANCH  63  64
ATOM     64  C   UNL     1      31.837  36.683  13.311  1.00  0.00     0.294 C 
BRANCH  64  65
ATOM     65  C   UNL     1      31.058  37.604  12.445  1.00  0.00     0.120 A 
ATOM     66  C   UNL     1      29.699  37.469  12.166  1.00  0.00     0.138 A 
ATOM     67  N   UNL     1      31.461  38.696  11.778  1.00  0.00    -0.132 NA
ATOM     68  N   UNL     1      29.355  38.475  11.355  1.00  0.00    -0.252 N 
ATOM     69  N   UNL     1      30.413  39.207  11.125  1.00  0.00    -0.067 NA
BRANCH  68  70
ATOM     70  C   UNL     1      27.993  38.671  10.841  1.00  0.00     0.146 C 
BRANCH  70  71
ATOM     71  C   UNL     1      27.381  37.325  10.558  1.00  0.00     0.024 C 
BRANCH  71  72
ATOM     72  C   UNL     1      26.740  37.372   9.188  1.00  0.00     0.006 C 
BRANCH  72  73
ATOM     73  C   UNL     1      27.811  37.390   8.120  1.00  0.00     0.027 C 
BRANCH  73  74
ATOM     74  C   UNL     1      27.569  36.348   7.097  1.00  0.00    -0.035 C 
ATOM     75  C   UNL     1      27.741  36.616   5.818  1.00  0.00     0.004 C 
ENDBRANCH  73  74
ENDBRANCH  72  73
ENDBRANCH  71  72
ENDBRANCH  70  71
ENDBRANCH  68  70
ENDBRANCH  64  65
ENDBRANCH  63  64
ENDBRANCH  60  63
ENDBRANCH  58  59
ENDBRANCH  55  58
ENDBRANCH   1  55
TORSDOF 34
BEGIN_RES LYS A 131
REMARK  4 active torsions:
REMARK  status: ('A' for Active; 'I' for Inactive)
REMARK    1  A    between atoms: CA   and  CB  
REMARK    2  A    between atoms: CB   and  CG  
REMARK    3  A    between atoms: CG   and  CD  
REMARK    4  A    between atoms: CD   and  CE  
ROOT
ATOM      1  CA  LYS A 131      29.867  25.555  16.977  1.00 20.52     0.186 C 
ENDROOT
BRANCH   1   2
ATOM      2  CB  LYS A 131      28.345  25.722  17.026  1.00 20.94     0.034 C 
BRANCH   2   3
ATOM      3  CG  LYS A 131      27.612  24.403  17.213  1.00 22.96     0.005 C 
BRANCH   3   4
ATOM      4  CD  LYS A 131      26.157  24.604  17.538  1.00 24.33     0.041 C 
BRANCH   4   5
ATOM      5  CE  LYS A 131      25.409  23.287  17.362  1.00 26.91     0.338 C 
ATOM      6  NZ  LYS A 131      24.011  23.537  16.940  1.00 27.40     0.618 N 
ENDBRANCH   4   5
ENDBRANCH   3   4
ENDBRANCH   2   3
ENDBRANCH   1   2
END_RES LYS A 131
BEGIN_RES LYS A 135
REMARK  4 active torsions:
REMARK  status: ('A' for Active; 'I' for Inactive)
REMARK    5  A    between atoms: CA   and  CB  
REMARK    6  A    between atoms: CB   and  CG  
REMARK    7  A    between atoms: CG   and  CD  
REMARK    8  A    between atoms: CD   and  CE  
ROOT
ATOM      7  CA  LYS A 135      33.193  34.663   9.290  1.00 25.02     0.186 C 
ENDROOT
BRANCH   7   8
ATOM      8  CB  LYS A 135      32.060  35.360  10.034  1.00 26.63     0.034 C 
BRANCH   8   9
ATOM      9  CG  LYS A 135      30.814  35.537   9.205  1.00 29.45     0.005 C 
BRANCH   9  10
ATOM     10  CD  LYS A 135      30.051  34.226   9.096  1.00 32.00     0.041 C 
BRANCH  10  11
ATOM     11  CE  LYS A 135      28.938  34.171  10.125  1.00 34.25     0.338 C 
ATOM     12  NZ  LYS A 135      27.653  33.747   9.502  1.00 35.99     0.618 N 
ENDBRANCH  10  11
ENDBRANCH   9  10
ENDBRANCH   8   9
ENDBRANCH   7   8
END_RES LYS A 135
