REMARK VINA RESULT:    -4.216      3.669     10.426
REMARK INTER + INTRA:         -21.926
REMARK INTER:                 -11.117
REMARK INTRA:                 -10.809
REMARK UNBOUND:               -10.809
REMARK SMILES COc1ccc(Cn2cc(COC(=O)NC[C@@H](O)C(O)[C@@H]3O[C@@](OC[C@H]4O[C@@H](O[C@H]5[C@H](O)[C@@H](O)[C@H](OCCN=[N+]=[N-])O[C@@H]5CO)[C@H](O)[C@@H](O)[C@H]4O)(C(=O)O)C[C@H](O)[C@H]3NC(C)=O)nn2)cc1OC
REMARK SMILES IDX 23 1 55 2 56 3 58 4 21 5 22 6 24 7 25 8 26 9 28 10 27 11
REMARK SMILES IDX 46 12 48 13 50 14 29 15 30 16 43 17 42 18 35 19 31 20 33 21
REMARK SMILES IDX 44 22 45 23 36 25 37 26 38 27 39 28 40 29 41 30 32 31 34 33
REMARK SMILES IDX 47 35 49 37 51 39 52 41 53 42 54 43 57 45 19 47 20 48 17 50
REMARK SMILES IDX 18 51 16 53 15 54 13 55 14 57 12 58 11 59 10 60 9 61 63 62
REMARK SMILES IDX 8 63 64 64 7 65 6 66 65 67 5 68 66 69 4 70 3 71 67 72 68 73
REMARK SMILES IDX 2 74 1 75 59 76 60 77 61 79 62 80
REMARK H PARENT 45 24 32 32 34 34 47 36 49 38 51 40 54 44 57 46 20 49 18 52
REMARK H PARENT 15 56 59 78
REMARK Flexibility Score: inf
ROOT
ATOM      1  C   UNL     1      24.084  36.812   9.405  1.00  0.00     0.272 C 
ATOM      2  C   UNL     1      25.260  37.013   8.465  1.00  0.00     0.113 C 
ATOM      3  C   UNL     1      26.262  38.059   8.794  1.00  0.00     0.145 C 
ATOM      4  C   UNL     1      25.642  39.086   9.737  1.00  0.00     0.142 C 
ATOM      5  C   UNL     1      24.209  39.129   9.379  1.00  0.00     0.178 C 
ATOM      6  O   UNL     1      23.571  38.024   9.909  1.00  0.00    -0.332 OA
ENDROOT
BRANCH   1   7
ATOM      7  O   UNL     1      24.613  36.097  10.471  1.00  0.00    -0.338 OA
BRANCH   7   8
ATOM      8  C   UNL     1      24.220  36.452  11.724  1.00  0.00     0.199 C 
BRANCH   8   9
ATOM      9  C   UNL     1      25.373  36.403  12.689  1.00  0.00     0.179 C 
ATOM     10  C   UNL     1      27.631  36.421  12.944  1.00  0.00     0.282 C 
ATOM     11  O   UNL     1      26.554  36.881  12.092  1.00  0.00    -0.341 OA
ATOM     12  C   UNL     1      27.639  37.191  14.182  1.00  0.00     0.202 C 
ATOM     13  C   UNL     1      26.252  37.352  14.782  1.00  0.00     0.179 C 
ATOM     14  C   UNL     1      25.133  37.415  13.818  1.00  0.00     0.177 C 
BRANCH  10  15
ATOM     15  O   UNL     1      28.780  36.507  12.184  1.00  0.00    -0.341 OA
BRANCH  15  16
ATOM     16  C   UNL     1      29.908  36.385  12.997  1.00  0.00     0.184 C 
ATOM     17  C   UNL     1      30.952  37.390  12.712  1.00  0.00     0.178 C 
ATOM     18  O   UNL     1      31.882  37.349  13.747  1.00  0.00    -0.341 OA
ATOM     19  C   UNL     1      32.127  36.102  14.202  1.00  0.00     0.281 C 
ATOM     20  C   UNL     1      30.468  34.976  12.770  1.00  0.00     0.180 C 
ATOM     21  C   UNL     1      31.941  34.985  13.200  1.00  0.00     0.202 C 
BRANCH  17  22
ATOM     22  C   UNL     1      30.401  38.783  12.517  1.00  0.00     0.191 C 
BRANCH  22  23
ATOM     23  O   UNL     1      31.489  39.651  12.587  1.00  0.00    -0.394 OA
ATOM     24  H   UNL     1      31.149  40.595  12.614  1.00  0.00     0.210 HD
ENDBRANCH  22  23
ENDBRANCH  17  22
BRANCH  19  25
ATOM     25  O   UNL     1      31.192  35.824  15.263  1.00  0.00    -0.350 OA
BRANCH  25  26
ATOM     26  C   UNL     1      31.947  35.321  16.342  1.00  0.00     0.169 C 
BRANCH  26  27
ATOM     27  C   UNL     1      31.353  34.056  16.936  1.00  0.00     0.119 C 
BRANCH  27  28
ATOM     28  N   UNL     1      31.548  32.972  16.014  1.00  0.00    -0.092 NA
ATOM     29  N   UNL     1      30.890  31.930  16.073  1.00  0.00     0.001 N 
ATOM     30  N   UNL     1      30.217  30.966  16.490  1.00  0.00    -0.003 NA
ENDBRANCH  27  28
ENDBRANCH  26  27
ENDBRANCH  25  26
ENDBRANCH  19  25
BRANCH  20  31
ATOM     31  O   UNL     1      29.797  34.123  13.631  1.00  0.00    -0.387 OA
ATOM     32  H   UNL     1      30.378  33.978  14.438  1.00  0.00     0.211 HD
ENDBRANCH  20  31
BRANCH  21  33
ATOM     33  O   UNL     1      32.712  35.225  12.087  1.00  0.00    -0.385 OA
ATOM     34  H   UNL     1      33.643  35.490  12.320  1.00  0.00     0.211 HD
ENDBRANCH  21  33
ENDBRANCH  15  16
ENDBRANCH  10  15
BRANCH  12  35
ATOM     35  O   UNL     1      28.409  36.585  15.161  1.00  0.00    -0.385 OA
ATOM     36  H   UNL     1      27.972  35.761  15.526  1.00  0.00     0.211 HD
ENDBRANCH  12  35
BRANCH  13  37
ATOM     37  O   UNL     1      26.282  38.508  15.608  1.00  0.00    -0.387 OA
ATOM     38  H   UNL     1      25.523  38.419  16.242  1.00  0.00     0.211 HD
ENDBRANCH  13  37
BRANCH  14  39
ATOM     39  O   UNL     1      25.068  38.673  13.180  1.00  0.00    -0.387 OA
ATOM     40  H   UNL     1      25.393  38.604  12.218  1.00  0.00     0.211 HD
ENDBRANCH  14  39
ENDBRANCH   8   9
ENDBRANCH   7   8
ENDBRANCH   1   7
BRANCH   1  41
ATOM     41  C   UNL     1      23.003  36.127   8.651  1.00  0.00     0.364 C 
ATOM     42  O   UNL     1      22.525  36.609   7.621  1.00  0.00    -0.246 OA
BRANCH  41  43
ATOM     43  O   UNL     1      22.439  34.885   9.049  1.00  0.00    -0.477 OA
ATOM     44  H   UNL     1      23.132  34.133   9.271  1.00  0.00     0.296 HD
ENDBRANCH  41  43
ENDBRANCH   1  41
BRANCH   3  45
ATOM     45  O   UNL     1      27.374  37.528   9.403  1.00  0.00    -0.391 OA
ATOM     46  H   UNL     1      27.477  37.906  10.324  1.00  0.00     0.211 HD
ENDBRANCH   3  45
BRANCH   5  47
ATOM     47  C   UNL     1      23.573  40.427   9.574  1.00  0.00     0.176 C 
BRANCH  47  48
ATOM     48  O   UNL     1      24.214  41.523   9.009  1.00  0.00    -0.388 OA
ATOM     49  H   UNL     1      23.724  41.983   8.318  1.00  0.00     0.211 HD
ENDBRANCH  47  48
BRANCH  47  50
ATOM     50  C   UNL     1      22.244  40.458   8.643  1.00  0.00     0.165 C 
BRANCH  50  51
ATOM     51  O   UNL     1      22.225  39.314   7.944  1.00  0.00    -0.388 OA
ATOM     52  H   UNL     1      22.609  39.405   7.023  1.00  0.00     0.211 HD
ENDBRANCH  50  51
BRANCH  50  53
ATOM     53  C   UNL     1      22.084  41.762   8.045  1.00  0.00     0.154 C 
BRANCH  53  54
ATOM     54  N   UNL     1      22.192  42.038   6.652  1.00  0.00    -0.319 N 
ATOM     55  C   UNL     1      23.077  43.082   6.284  1.00  0.00     0.407 C 
ATOM     56  H   UNL     1      21.690  41.577   5.897  1.00  0.00     0.167 HD
ATOM     57  O   UNL     1      23.721  43.729   7.174  1.00  0.00    -0.225 OA
BRANCH  55  58
ATOM     58  O   UNL     1      23.333  43.499   4.982  1.00  0.00    -0.443 OA
BRANCH  58  59
ATOM     59  C   UNL     1      24.593  44.225   4.772  1.00  0.00     0.294 C 
BRANCH  59  60
ATOM     60  C   UNL     1      25.504  43.151   4.280  1.00  0.00     0.120 A 
ATOM     61  C   UNL     1      26.917  43.199   4.347  1.00  0.00     0.138 A 
ATOM     62  N   UNL     1      25.174  41.968   3.779  1.00  0.00    -0.132 NA
ATOM     63  N   UNL     1      27.340  42.003   3.873  1.00  0.00    -0.248 N 
ATOM     64  N   UNL     1      26.319  41.293   3.543  1.00  0.00    -0.067 NA
BRANCH  63  65
ATOM     65  C   UNL     1      28.768  41.588   3.823  1.00  0.00     0.181 C 
BRANCH  65  66
ATOM     66  C   UNL     1      28.959  40.878   5.164  1.00  0.00    -0.023 A 
ATOM     67  C   UNL     1      28.769  39.521   5.309  1.00  0.00     0.056 A 
ATOM     68  C   UNL     1      29.450  41.617   6.192  1.00  0.00     0.010 A 
ATOM     69  C   UNL     1      29.126  38.989   6.581  1.00  0.00     0.161 A 
ATOM     70  C   UNL     1      29.801  41.063   7.461  1.00  0.00     0.051 A 
ATOM     71  C   UNL     1      29.614  39.712   7.592  1.00  0.00     0.160 A 
BRANCH  69  72
ATOM     72  O   UNL     1      28.950  37.620   6.796  1.00  0.00    -0.493 OA
ATOM     73  C   UNL     1      28.217  36.800   5.879  1.00  0.00     0.278 C 
ENDBRANCH  69  72
BRANCH  71  74
ATOM     74  O   UNL     1      29.962  39.062   8.809  1.00  0.00    -0.493 OA
ATOM     75  C   UNL     1      31.362  38.948   9.141  1.00  0.00     0.278 C 
ENDBRANCH  71  74
ENDBRANCH  65  66
ENDBRANCH  63  65
ENDBRANCH  59  60
ENDBRANCH  58  59
ENDBRANCH  55  58
ENDBRANCH  53  54
ENDBRANCH  50  53
ENDBRANCH  47  50
ENDBRANCH   5  47
BRANCH   4  76
ATOM     76  N   UNL     1      26.348  40.329   9.584  1.00  0.00    -0.348 N 
ATOM     77  C   UNL     1      27.234  40.746  10.584  1.00  0.00     0.217 C 
ATOM     78  H   UNL     1      26.255  40.954   8.736  1.00  0.00     0.163 HD
ATOM     79  C   UNL     1      28.022  42.016  10.590  1.00  0.00     0.114 C 
ATOM     80  O   UNL     1      27.463  40.039  11.648  1.00  0.00    -0.275 OA
ENDBRANCH   4  76
TORSDOF 33
BEGIN_RES LYS A 131
REMARK  4 active torsions:
REMARK  status: ('A' for Active; 'I' for Inactive)
REMARK    1  A    between atoms: CA   and  CB  
REMARK    2  A    between atoms: CB   and  CG  
REMARK    3  A    between atoms: CG   and  CD  
REMARK    4  A    between atoms: CD   and  CE  
ROOT
ATOM      1  CA  LYS A 131      29.867  25.555  16.977  1.00 20.52     0.186 C 
ENDROOT
BRANCH   1   2
ATOM      2  CB  LYS A 131      28.345  25.722  17.026  1.00 20.94     0.034 C 
BRANCH   2   3
ATOM      3  CG  LYS A 131      27.601  24.401  16.898  1.00 22.96     0.005 C 
BRANCH   3   4
ATOM      4  CD  LYS A 131      26.518  24.259  17.931  1.00 24.33     0.041 C 
BRANCH   4   5
ATOM      5  CE  LYS A 131      25.154  24.354  17.254  1.00 26.91     0.338 C 
ATOM      6  NZ  LYS A 131      24.500  23.025  17.216  1.00 27.40     0.618 N 
ENDBRANCH   4   5
ENDBRANCH   3   4
ENDBRANCH   2   3
ENDBRANCH   1   2
END_RES LYS A 131
BEGIN_RES LYS A 135
REMARK  4 active torsions:
REMARK  status: ('A' for Active; 'I' for Inactive)
REMARK    5  A    between atoms: CA   and  CB  
REMARK    6  A    between atoms: CB   and  CG  
REMARK    7  A    between atoms: CG   and  CD  
REMARK    8  A    between atoms: CD   and  CE  
ROOT
ATOM      7  CA  LYS A 135      33.193  34.663   9.290  1.00 25.02     0.186 C 
ENDROOT
BRANCH   7   8
ATOM      8  CB  LYS A 135      32.060  35.360  10.034  1.00 26.63     0.034 C 
BRANCH   8   9
ATOM      9  CG  LYS A 135      30.797  35.491   9.223  1.00 29.45     0.005 C 
BRANCH   9  10
ATOM     10  CD  LYS A 135      30.110  34.142   9.079  1.00 32.00     0.041 C 
BRANCH  10  11
ATOM     11  CE  LYS A 135      28.647  34.324   8.720  1.00 34.25     0.338 C 
ATOM     12  NZ  LYS A 135      27.761  33.803   9.798  1.00 35.99     0.618 N 
ENDBRANCH  10  11
ENDBRANCH   9  10
ENDBRANCH   8   9
ENDBRANCH   7   8
END_RES LYS A 135
