REMARK VINA RESULT:    -4.517      3.431      8.614
REMARK INTER + INTRA:         -24.766
REMARK INTER:                 -12.557
REMARK INTRA:                 -12.209
REMARK UNBOUND:               -11.931
REMARK SMILES CC(=O)N[C@@H]1[C@@H](O)C[C@](OC[C@H]2O[C@@H](O[C@H]3[C@H](O)[C@@H](O)[C@H](OCCN=[N+]=[N-])O[C@@H]3CO)[C@H](O)[C@@H](O)[C@H]2O)(C(=O)O)O[C@H]1C(O)[C@H](O)CNC(=O)OCc1cn(CC(=O)NCC(O)Cn2ccnc2[N+](=O)[O-])nn1
REMARK SMILES IDX 47 1 45 2 43 3 42 4 9 5 8 6 41 7 6 8 5 9 10 10 11 11 12 12
REMARK SMILES IDX 14 13 13 14 32 15 34 16 36 17 15 18 16 19 29 20 28 21 21 22
REMARK SMILES IDX 17 23 19 24 30 25 31 26 22 28 23 29 24 30 25 31 26 32 27 33
REMARK SMILES IDX 18 34 20 36 33 38 35 40 37 42 38 44 39 45 40 46 7 48 4 50
REMARK SMILES IDX 2 51 1 53 3 54 44 55 46 57 48 59 49 60 50 62 51 63 52 64
REMARK SMILES IDX 53 65 54 66 73 67 55 68 72 69 56 70 57 71 58 72 59 73 60 75
REMARK SMILES IDX 61 76 62 77 63 79 64 80 65 81 68 82 66 83 67 84 69 85 70 86
REMARK SMILES IDX 71 87
REMARK H PARENT 31 27 18 35 20 37 33 39 35 41 37 43 40 47 7 49 4 52 44 56
REMARK H PARENT 46 58 48 61 59 74 62 78
REMARK Flexibility Score: inf
ROOT
ATOM      1  C   UNL     1      31.160  39.023   9.779  1.00  0.00     0.154 C 
ENDROOT
BRANCH   1   2
ATOM      2  C   UNL     1      31.305  37.968  10.824  1.00  0.00     0.165 C 
BRANCH   2   3
ATOM      3  C   UNL     1      30.575  38.195  12.095  1.00  0.00     0.176 C 
BRANCH   3   4
ATOM      4  C   UNL     1      31.119  37.641  13.346  1.00  0.00     0.178 C 
ATOM      5  C   UNL     1      32.088  35.806  14.392  1.00  0.00     0.272 C 
ATOM      6  C   UNL     1      32.532  36.876  15.326  1.00  0.00     0.113 C 
ATOM      7  O   UNL     1      31.435  36.303  13.249  1.00  0.00    -0.332 OA
ATOM      8  C   UNL     1      31.470  37.847  15.719  1.00  0.00     0.145 C 
ATOM      9  C   UNL     1      30.385  37.901  14.607  1.00  0.00     0.142 C 
BRANCH   5  10
ATOM     10  O   UNL     1      31.309  34.814  14.912  1.00  0.00    -0.338 OA
BRANCH  10  11
ATOM     11  C   UNL     1      31.576  34.393  16.177  1.00  0.00     0.199 C 
BRANCH  11  12
ATOM     12  C   UNL     1      30.534  33.430  16.714  1.00  0.00     0.179 C 
ATOM     13  C   UNL     1      28.231  33.074  16.774  1.00  0.00     0.282 C 
ATOM     14  O   UNL     1      29.299  33.963  16.831  1.00  0.00    -0.341 OA
ATOM     15  C   UNL     1      28.564  31.754  17.423  1.00  0.00     0.202 C 
ATOM     16  C   UNL     1      29.780  31.117  16.792  1.00  0.00     0.179 C 
ATOM     17  C   UNL     1      30.524  32.135  15.948  1.00  0.00     0.177 C 
BRANCH  13  18
ATOM     18  O   UNL     1      27.751  32.861  15.531  1.00  0.00    -0.341 OA
BRANCH  18  19
ATOM     19  C   UNL     1      26.877  33.696  14.948  1.00  0.00     0.184 C 
ATOM     20  C   UNL     1      25.637  33.093  14.344  1.00  0.00     0.178 C 
ATOM     21  O   UNL     1      24.717  34.137  14.219  1.00  0.00    -0.341 OA
ATOM     22  C   UNL     1      25.107  35.034  13.231  1.00  0.00     0.281 C 
ATOM     23  C   UNL     1      27.503  34.492  13.791  1.00  0.00     0.180 C 
ATOM     24  C   UNL     1      26.495  35.561  13.435  1.00  0.00     0.202 C 
BRANCH  20  25
ATOM     25  C   UNL     1      25.043  32.091  15.289  1.00  0.00     0.191 C 
BRANCH  25  26
ATOM     26  O   UNL     1      24.829  32.640  16.561  1.00  0.00    -0.394 OA
ATOM     27  H   UNL     1      24.595  33.604  16.379  1.00  0.00     0.210 HD
ENDBRANCH  25  26
ENDBRANCH  20  25
BRANCH  22  28
ATOM     28  O   UNL     1      24.234  36.118  13.292  1.00  0.00    -0.350 OA
BRANCH  28  29
ATOM     29  C   UNL     1      24.182  36.657  14.578  1.00  0.00     0.169 C 
BRANCH  29  30
ATOM     30  C   UNL     1      24.092  38.175  14.397  1.00  0.00     0.119 C 
BRANCH  30  31
ATOM     31  N   UNL     1      24.695  38.568  13.135  1.00  0.00    -0.092 NA
ATOM     32  N   UNL     1      24.200  39.562  12.563  1.00  0.00     0.001 N 
ATOM     33  N   UNL     1      23.961  40.674  12.109  1.00  0.00    -0.003 NA
ENDBRANCH  30  31
ENDBRANCH  29  30
ENDBRANCH  28  29
ENDBRANCH  22  28
BRANCH  23  34
ATOM     34  O   UNL     1      28.660  35.147  14.199  1.00  0.00    -0.387 OA
ATOM     35  H   UNL     1      28.412  35.576  15.079  1.00  0.00     0.211 HD
ENDBRANCH  23  34
BRANCH  24  36
ATOM     36  O   UNL     1      26.853  36.282  12.296  1.00  0.00    -0.385 OA
ATOM     37  H   UNL     1      26.749  35.677  11.504  1.00  0.00     0.211 HD
ENDBRANCH  24  36
ENDBRANCH  18  19
ENDBRANCH  13  18
BRANCH  15  38
ATOM     38  O   UNL     1      28.716  31.884  18.810  1.00  0.00    -0.385 OA
ATOM     39  H   UNL     1      28.760  30.937  19.154  1.00  0.00     0.211 HD
ENDBRANCH  15  38
BRANCH  16  40
ATOM     40  O   UNL     1      29.417  30.070  15.949  1.00  0.00    -0.387 OA
ATOM     41  H   UNL     1      29.046  29.289  16.455  1.00  0.00     0.211 HD
ENDBRANCH  16  40
BRANCH  17  42
ATOM     42  O   UNL     1      30.063  32.241  14.658  1.00  0.00    -0.387 OA
ATOM     43  H   UNL     1      30.726  31.931  13.982  1.00  0.00     0.211 HD
ENDBRANCH  17  42
ENDBRANCH  11  12
ENDBRANCH  10  11
ENDBRANCH   5  10
BRANCH   5  44
ATOM     44  C   UNL     1      33.342  35.193  13.815  1.00  0.00     0.364 C 
ATOM     45  O   UNL     1      34.249  34.908  14.618  1.00  0.00    -0.246 OA
BRANCH  44  46
ATOM     46  O   UNL     1      33.514  34.946  12.473  1.00  0.00    -0.477 OA
ATOM     47  H   UNL     1      33.989  34.082  12.154  1.00  0.00     0.296 HD
ENDBRANCH  44  46
ENDBRANCH   5  44
BRANCH   8  48
ATOM     48  O   UNL     1      30.895  37.687  16.938  1.00  0.00    -0.391 OA
ATOM     49  H   UNL     1      30.773  38.485  17.473  1.00  0.00     0.211 HD
ENDBRANCH   8  48
BRANCH   9  50
ATOM     50  N   UNL     1      29.724  39.144  14.747  1.00  0.00    -0.348 N 
ATOM     51  C   UNL     1      28.285  39.228  14.742  1.00  0.00     0.217 C 
ATOM     52  H   UNL     1      30.242  40.024  14.868  1.00  0.00     0.163 HD
ATOM     53  C   UNL     1      27.571  40.525  14.879  1.00  0.00     0.114 C 
ATOM     54  O   UNL     1      27.638  38.167  14.614  1.00  0.00    -0.275 OA
ENDBRANCH   9  50
ENDBRANCH   3   4
BRANCH   3  55
ATOM     55  O   UNL     1      29.234  37.789  11.878  1.00  0.00    -0.388 OA
ATOM     56  H   UNL     1      28.896  37.445  12.721  1.00  0.00     0.211 HD
ENDBRANCH   3  55
ENDBRANCH   2   3
BRANCH   2  57
ATOM     57  O   UNL     1      32.583  37.469  10.920  1.00  0.00    -0.388 OA
ATOM     58  H   UNL     1      33.300  38.128  10.908  1.00  0.00     0.211 HD
ENDBRANCH   2  57
ENDBRANCH   1   2
BRANCH   1  59
ATOM     59  N   UNL     1      29.926  38.856   9.060  1.00  0.00    -0.319 N 
ATOM     60  C   UNL     1      29.831  38.920   7.647  1.00  0.00     0.407 C 
ATOM     61  H   UNL     1      29.019  38.675   9.584  1.00  0.00     0.167 HD
ATOM     62  O   UNL     1      30.863  39.120   6.975  1.00  0.00    -0.225 OA
BRANCH  60  63
ATOM     63  O   UNL     1      28.655  38.777   6.942  1.00  0.00    -0.443 OA
BRANCH  63  64
ATOM     64  C   UNL     1      27.861  37.624   7.044  1.00  0.00     0.294 C 
BRANCH  64  65
ATOM     65  C   UNL     1      26.826  37.630   8.076  1.00  0.00     0.120 A 
ATOM     66  C   UNL     1      25.477  37.828   7.928  1.00  0.00     0.138 A 
ATOM     67  N   UNL     1      27.009  37.455   9.394  1.00  0.00    -0.132 NA
ATOM     68  N   UNL     1      24.887  37.767   9.145  1.00  0.00    -0.243 N 
ATOM     69  N   UNL     1      25.821  37.543  10.015  1.00  0.00    -0.067 NA
BRANCH  68  70
ATOM     70  C   UNL     1      23.461  37.902   9.417  1.00  0.00     0.245 C 
BRANCH  70  71
ATOM     71  C   UNL     1      22.789  36.622   9.110  1.00  0.00     0.241 C 
ATOM     72  O   UNL     1      23.137  35.537   9.687  1.00  0.00    -0.273 OA
ATOM     73  N   UNL     1      21.722  36.515   8.168  1.00  0.00    -0.352 N 
ATOM     74  H   UNL     1      21.403  37.366   7.674  1.00  0.00     0.163 HD
BRANCH  73  75
ATOM     75  C   UNL     1      21.124  35.214   7.936  1.00  0.00     0.151 C 
BRANCH  75  76
ATOM     76  C   UNL     1      19.633  35.285   7.814  1.00  0.00     0.168 C 
BRANCH  76  77
ATOM     77  O   UNL     1      19.146  34.487   6.794  1.00  0.00    -0.388 OA
ATOM     78  H   UNL     1      18.403  33.953   7.163  1.00  0.00     0.211 HD
ENDBRANCH  76  77
BRANCH  76  79
ATOM     79  C   UNL     1      19.265  36.742   7.577  1.00  0.00     0.239 C 
BRANCH  79  80
ATOM     80  N   UNL     1      18.232  37.182   8.469  1.00  0.00    -0.227 N 
ATOM     81  C   UNL     1      16.913  37.261   8.148  1.00  0.00     0.204 A 
ATOM     82  C   UNL     1      18.315  37.612   9.752  1.00  0.00     0.434 A 
ATOM     83  C   UNL     1      16.211  37.736   9.229  1.00  0.00     0.245 A 
ATOM     84  N   UNL     1      17.089  37.946  10.203  1.00  0.00    -0.074 NA
BRANCH  82  85
ATOM     85  N   UNL     1      19.517  37.688  10.517  1.00  0.00    -0.047 N 
ATOM     86  O   UNL     1      20.219  38.696  10.599  1.00  0.00    -0.390 OA
ATOM     87  O   UNL     1      19.928  36.553  11.203  1.00  0.00    -0.390 OA
ENDBRANCH  82  85
ENDBRANCH  79  80
ENDBRANCH  76  79
ENDBRANCH  75  76
ENDBRANCH  73  75
ENDBRANCH  70  71
ENDBRANCH  68  70
ENDBRANCH  64  65
ENDBRANCH  63  64
ENDBRANCH  60  63
ENDBRANCH   1  59
TORSDOF 37
BEGIN_RES LYS A 131
REMARK  4 active torsions:
REMARK  status: ('A' for Active; 'I' for Inactive)
REMARK    1  A    between atoms: CA   and  CB  
REMARK    2  A    between atoms: CB   and  CG  
REMARK    3  A    between atoms: CG   and  CD  
REMARK    4  A    between atoms: CD   and  CE  
ROOT
ATOM      1  CA  LYS A 131      29.867  25.555  16.977  1.00 20.52     0.186 C 
ENDROOT
BRANCH   1   2
ATOM      2  CB  LYS A 131      28.345  25.722  17.026  1.00 20.94     0.034 C 
BRANCH   2   3
ATOM      3  CG  LYS A 131      27.601  24.403  16.882  1.00 22.96     0.005 C 
BRANCH   3   4
ATOM      4  CD  LYS A 131      26.508  24.255  17.904  1.00 24.33     0.041 C 
BRANCH   4   5
ATOM      5  CE  LYS A 131      25.168  24.086  17.195  1.00 26.91     0.338 C 
ATOM      6  NZ  LYS A 131      24.209  25.123  17.644  1.00 27.40     0.618 N 
ENDBRANCH   4   5
ENDBRANCH   3   4
ENDBRANCH   2   3
ENDBRANCH   1   2
END_RES LYS A 131
BEGIN_RES LYS A 135
REMARK  4 active torsions:
REMARK  status: ('A' for Active; 'I' for Inactive)
REMARK    5  A    between atoms: CA   and  CB  
REMARK    6  A    between atoms: CB   and  CG  
REMARK    7  A    between atoms: CG   and  CD  
REMARK    8  A    between atoms: CD   and  CE  
ROOT
ATOM      7  CA  LYS A 135      33.193  34.663   9.290  1.00 25.02     0.186 C 
ENDROOT
BRANCH   7   8
ATOM      8  CB  LYS A 135      32.060  35.360  10.034  1.00 26.63     0.034 C 
BRANCH   8   9
ATOM      9  CG  LYS A 135      30.774  34.575  10.045  1.00 29.45     0.005 C 
BRANCH   9  10
ATOM     10  CD  LYS A 135      29.807  35.115   9.001  1.00 32.00     0.041 C 
BRANCH  10  11
ATOM     11  CE  LYS A 135      28.682  34.128   8.756  1.00 34.25     0.338 C 
ATOM     12  NZ  LYS A 135      27.803  34.008   9.953  1.00 35.99     0.618 N 
ENDBRANCH  10  11
ENDBRANCH   9  10
ENDBRANCH   8   9
ENDBRANCH   7   8
END_RES LYS A 135
