REMARK VINA RESULT:    -4.619      3.734      8.222
REMARK INTER + INTRA:         -22.005
REMARK INTER:                 -11.819
REMARK INTRA:                 -10.185
REMARK UNBOUND:               -10.230
REMARK SMILES CC(=O)N[C@@H]1[C@@H](O)C[C@](OC[C@H]2O[C@@H](O[C@H]3[C@H](O)[C@@H](O)[C@H](OCCN=[N+]=[N-])O[C@@H]3CO)[C@H](O)[C@@H](O)[C@H]2O)(C(=O)O)O[C@H]1C(O)[C@H](O)CNC(=O)OCc1cn(C(C)(C)CO)nn1
REMARK SMILES IDX 9 1 8 2 6 3 5 4 42 5 41 6 10 7 11 8 12 9 14 10 13 11 32 12
REMARK SMILES IDX 34 13 36 14 15 15 16 16 29 17 28 18 21 19 17 20 19 21 30 22
REMARK SMILES IDX 31 23 22 25 23 26 24 27 25 28 26 29 27 30 18 31 20 33 33 35
REMARK SMILES IDX 35 37 37 39 38 41 39 42 40 43 7 45 43 47 44 48 45 50 46 51
REMARK SMILES IDX 47 53 48 54 49 55 50 57 51 58 52 59 53 60 54 61 62 62 55 63
REMARK SMILES IDX 61 64 56 65 57 66 58 67 59 68 60 69 4 71 2 72 1 74 3 75
REMARK H PARENT 31 24 18 32 20 34 33 36 35 38 37 40 40 44 7 46 44 49 46 52
REMARK H PARENT 48 56 60 70 4 73
REMARK Flexibility Score: inf
ROOT
ATOM      1  C   UNL     1      27.677  30.801  17.122  1.00  0.00     0.272 C 
ATOM      2  C   UNL     1      27.672  30.446  18.585  1.00  0.00     0.113 C 
ATOM      3  C   UNL     1      28.460  31.506  19.317  1.00  0.00     0.145 C 
ATOM      4  C   UNL     1      29.932  31.263  18.912  1.00  0.00     0.142 C 
ATOM      5  C   UNL     1      29.971  31.273  17.413  1.00  0.00     0.178 C 
ATOM      6  O   UNL     1      28.783  31.693  16.848  1.00  0.00    -0.332 OA
ENDROOT
BRANCH   1   7
ATOM      7  O   UNL     1      26.609  31.537  16.724  1.00  0.00    -0.338 OA
BRANCH   7   8
ATOM      8  C   UNL     1      25.354  31.250  17.023  1.00  0.00     0.199 C 
BRANCH   8   9
ATOM      9  C   UNL     1      24.380  30.615  16.117  1.00  0.00     0.179 C 
ATOM     10  C   UNL     1      22.214  30.888  15.371  1.00  0.00     0.282 C 
ATOM     11  O   UNL     1      23.287  31.528  15.934  1.00  0.00    -0.341 OA
ATOM     12  C   UNL     1      22.502  29.620  14.649  1.00  0.00     0.202 C 
ATOM     13  C   UNL     1      23.861  29.578  13.987  1.00  0.00     0.179 C 
ATOM     14  C   UNL     1      24.870  30.431  14.686  1.00  0.00     0.177 C 
BRANCH  10  15
ATOM     15  O   UNL     1      21.518  31.823  14.601  1.00  0.00    -0.341 OA
BRANCH  15  16
ATOM     16  C   UNL     1      22.276  32.904  14.218  1.00  0.00     0.184 C 
ATOM     17  C   UNL     1      21.765  34.223  14.754  1.00  0.00     0.178 C 
ATOM     18  O   UNL     1      21.721  35.223  13.805  1.00  0.00    -0.341 OA
ATOM     19  C   UNL     1      20.897  35.000  12.736  1.00  0.00     0.281 C 
ATOM     20  C   UNL     1      22.186  32.958  12.682  1.00  0.00     0.180 C 
ATOM     21  C   UNL     1      20.805  33.526  12.413  1.00  0.00     0.202 C 
BRANCH  17  22
ATOM     22  C   UNL     1      22.778  34.665  15.803  1.00  0.00     0.191 C 
BRANCH  22  23
ATOM     23  O   UNL     1      24.044  34.189  15.460  1.00  0.00    -0.394 OA
ATOM     24  H   UNL     1      24.499  33.724  16.186  1.00  0.00     0.210 HD
ENDBRANCH  22  23
ENDBRANCH  17  22
BRANCH  19  25
ATOM     25  O   UNL     1      21.379  35.747  11.675  1.00  0.00    -0.350 OA
BRANCH  25  26
ATOM     26  C   UNL     1      20.439  36.276  10.848  1.00  0.00     0.169 C 
BRANCH  26  27
ATOM     27  C   UNL     1      20.620  37.760  10.569  1.00  0.00     0.119 C 
BRANCH  27  28
ATOM     28  N   UNL     1      20.531  38.039   9.148  1.00  0.00    -0.092 NA
ATOM     29  N   UNL     1      21.239  37.362   8.390  1.00  0.00     0.001 N 
ATOM     30  N   UNL     1      21.612  36.526   7.537  1.00  0.00    -0.003 NA
ENDBRANCH  27  28
ENDBRANCH  26  27
ENDBRANCH  25  26
ENDBRANCH  19  25
BRANCH  20  31
ATOM     31  O   UNL     1      23.202  33.833  12.285  1.00  0.00    -0.387 OA
ATOM     32  H   UNL     1      22.792  34.738  12.299  1.00  0.00     0.211 HD
ENDBRANCH  20  31
BRANCH  21  33
ATOM     33  O   UNL     1      19.933  32.952  13.353  1.00  0.00    -0.385 OA
ATOM     34  H   UNL     1      19.074  33.470  13.384  1.00  0.00     0.211 HD
ENDBRANCH  21  33
ENDBRANCH  15  16
ENDBRANCH  10  15
BRANCH  12  35
ATOM     35  O   UNL     1      22.267  28.463  15.395  1.00  0.00    -0.385 OA
ATOM     36  H   UNL     1      22.042  28.754  16.302  1.00  0.00     0.211 HD
ENDBRANCH  12  35
BRANCH  13  37
ATOM     37  O   UNL     1      23.767  29.918  12.626  1.00  0.00    -0.387 OA
ATOM     38  H   UNL     1      23.065  29.380  12.174  1.00  0.00     0.211 HD
ENDBRANCH  13  37
BRANCH  14  39
ATOM     39  O   UNL     1      24.815  31.705  14.076  1.00  0.00    -0.387 OA
ATOM     40  H   UNL     1      24.846  32.404  14.762  1.00  0.00     0.211 HD
ENDBRANCH  14  39
ENDBRANCH   8   9
ENDBRANCH   7   8
ENDBRANCH   1   7
BRANCH   1  41
ATOM     41  C   UNL     1      27.972  29.657  16.260  1.00  0.00     0.364 C 
ATOM     42  O   UNL     1      28.497  29.780  15.151  1.00  0.00    -0.246 OA
BRANCH  41  43
ATOM     43  O   UNL     1      27.676  28.335  16.638  1.00  0.00    -0.477 OA
ATOM     44  H   UNL     1      26.716  28.137  16.898  1.00  0.00     0.296 HD
ENDBRANCH  41  43
ENDBRANCH   1  41
BRANCH   3  45
ATOM     45  O   UNL     1      28.136  32.738  18.745  1.00  0.00    -0.391 OA
ATOM     46  H   UNL     1      27.281  33.075  19.082  1.00  0.00     0.211 HD
ENDBRANCH   3  45
BRANCH   5  47
ATOM     47  C   UNL     1      30.969  32.380  17.028  1.00  0.00     0.176 C 
BRANCH  47  48
ATOM     48  O   UNL     1      30.659  33.535  17.788  1.00  0.00    -0.388 OA
ATOM     49  H   UNL     1      30.664  33.356  18.743  1.00  0.00     0.211 HD
ENDBRANCH  47  48
BRANCH  47  50
ATOM     50  C   UNL     1      30.789  32.828  15.587  1.00  0.00     0.165 C 
BRANCH  50  51
ATOM     51  O   UNL     1      31.862  32.560  14.801  1.00  0.00    -0.388 OA
ATOM     52  H   UNL     1      32.730  32.478  15.260  1.00  0.00     0.211 HD
ENDBRANCH  50  51
BRANCH  50  53
ATOM     53  C   UNL     1      30.436  34.301  15.545  1.00  0.00     0.154 C 
BRANCH  53  54
ATOM     54  N   UNL     1      29.115  34.613  15.139  1.00  0.00    -0.319 N 
ATOM     55  C   UNL     1      28.099  35.036  16.002  1.00  0.00     0.407 C 
ATOM     56  H   UNL     1      28.852  34.525  14.098  1.00  0.00     0.167 HD
ATOM     57  O   UNL     1      28.281  35.185  17.221  1.00  0.00    -0.225 OA
BRANCH  55  58
ATOM     58  O   UNL     1      26.796  35.317  15.524  1.00  0.00    -0.443 OA
BRANCH  58  59
ATOM     59  C   UNL     1      26.580  36.257  14.496  1.00  0.00     0.294 C 
BRANCH  59  60
ATOM     60  C   UNL     1      26.337  35.644  13.174  1.00  0.00     0.120 A 
ATOM     61  C   UNL     1      26.369  36.266  11.943  1.00  0.00     0.139 A 
ATOM     62  N   UNL     1      26.042  34.360  12.919  1.00  0.00    -0.132 NA
ATOM     63  N   UNL     1      26.094  35.353  10.979  1.00  0.00    -0.244 N 
ATOM     64  N   UNL     1      25.899  34.202  11.601  1.00  0.00    -0.066 NA
BRANCH  63  65
ATOM     65  C   UNL     1      26.038  35.618   9.564  1.00  0.00     0.082 C 
ATOM     66  C   UNL     1      26.613  34.458   8.807  1.00  0.00     0.039 C 
ATOM     67  C   UNL     1      26.898  36.843   9.222  1.00  0.00     0.039 C 
BRANCH  65  68
ATOM     68  C   UNL     1      24.653  35.901   9.054  1.00  0.00     0.186 C 
BRANCH  68  69
ATOM     69  O   UNL     1      23.659  35.329   9.813  1.00  0.00    -0.394 OA
ATOM     70  H   UNL     1      23.759  35.427  10.773  1.00  0.00     0.210 HD
ENDBRANCH  68  69
ENDBRANCH  65  68
ENDBRANCH  63  65
ENDBRANCH  59  60
ENDBRANCH  58  59
ENDBRANCH  55  58
ENDBRANCH  53  54
ENDBRANCH  50  53
ENDBRANCH  47  50
ENDBRANCH   5  47
BRANCH   4  71
ATOM     71  N   UNL     1      30.301  30.029  19.530  1.00  0.00    -0.348 N 
ATOM     72  C   UNL     1      31.242  29.864  20.573  1.00  0.00     0.217 C 
ATOM     73  H   UNL     1      29.852  29.123  19.201  1.00  0.00     0.163 HD
ATOM     74  C   UNL     1      31.562  28.532  21.153  1.00  0.00     0.114 C 
ATOM     75  O   UNL     1      31.827  30.861  21.028  1.00  0.00    -0.275 OA
ENDBRANCH   4  71
TORSDOF 32
BEGIN_RES LYS A 131
REMARK  4 active torsions:
REMARK  status: ('A' for Active; 'I' for Inactive)
REMARK    1  A    between atoms: CA   and  CB  
REMARK    2  A    between atoms: CB   and  CG  
REMARK    3  A    between atoms: CG   and  CD  
REMARK    4  A    between atoms: CD   and  CE  
ROOT
ATOM      1  CA  LYS A 131      29.867  25.555  16.977  1.00 20.52     0.186 C 
ENDROOT
BRANCH   1   2
ATOM      2  CB  LYS A 131      28.345  25.722  17.026  1.00 20.94     0.034 C 
BRANCH   2   3
ATOM      3  CG  LYS A 131      27.601  24.401  16.903  1.00 22.96     0.005 C 
BRANCH   3   4
ATOM      4  CD  LYS A 131      26.452  24.306  17.867  1.00 24.33     0.041 C 
BRANCH   4   5
ATOM      5  CE  LYS A 131      26.056  25.706  18.327  1.00 26.91     0.338 C 
ATOM      6  NZ  LYS A 131      25.904  25.744  19.800  1.00 27.40     0.618 N 
ENDBRANCH   4   5
ENDBRANCH   3   4
ENDBRANCH   2   3
ENDBRANCH   1   2
END_RES LYS A 131
BEGIN_RES LYS A 135
REMARK  4 active torsions:
REMARK  status: ('A' for Active; 'I' for Inactive)
REMARK    5  A    between atoms: CA   and  CB  
REMARK    6  A    between atoms: CB   and  CG  
REMARK    7  A    between atoms: CG   and  CD  
REMARK    8  A    between atoms: CD   and  CE  
ROOT
ATOM      7  CA  LYS A 135      33.193  34.663   9.290  1.00 25.02     0.186 C 
ENDROOT
BRANCH   7   8
ATOM      8  CB  LYS A 135      32.060  35.360  10.034  1.00 26.63     0.034 C 
BRANCH   8   9
ATOM      9  CG  LYS A 135      30.690  34.874   9.637  1.00 29.45     0.005 C 
BRANCH   9  10
ATOM     10  CD  LYS A 135      29.720  34.994  10.802  1.00 32.00     0.041 C 
BRANCH  10  11
ATOM     11  CE  LYS A 135      30.427  35.533  12.031  1.00 34.25     0.338 C 
ATOM     12  NZ  LYS A 135      29.801  36.801  12.498  1.00 35.99     0.618 N 
ENDBRANCH  10  11
ENDBRANCH   9  10
ENDBRANCH   8   9
ENDBRANCH   7   8
END_RES LYS A 135
