REMARK VINA RESULT:    -4.456      6.049     11.943
REMARK INTER + INTRA:         -23.629
REMARK INTER:                 -14.366
REMARK INTRA:                  -9.263
REMARK UNBOUND:               -12.269
REMARK SMILES CC(=O)N[C@@H]1[C@@H](O)C[C@](OC[C@H]2O[C@@H](O[C@H]3[C@H](O)[C@@H](O)[C@H](OCCN=[N+]=[N-])O[C@@H]3CO)[C@H](O)[C@@H](O)[C@H]2O)(C(=O)O)O[C@H]1C(O)[C@H](O)CNC(=O)OCc1cn(-c2cccc(S(N)(=O)=O)c2)nn1
REMARK SMILES IDX 9 1 8 2 6 3 5 4 42 5 41 6 10 7 11 8 12 9 14 10 13 11 32 12
REMARK SMILES IDX 34 13 36 14 15 15 16 16 29 17 28 18 21 19 17 20 19 21 30 22
REMARK SMILES IDX 31 23 22 25 23 26 24 27 25 28 26 29 27 30 18 31 20 33 33 35
REMARK SMILES IDX 35 37 37 39 38 41 39 42 40 43 7 45 43 47 44 48 45 50 46 51
REMARK SMILES IDX 47 53 48 54 49 55 50 57 51 58 52 59 53 60 54 61 67 62 55 63
REMARK SMILES IDX 66 64 56 65 65 66 57 67 60 68 58 69 59 70 61 71 63 72 64 73
REMARK SMILES IDX 62 74 4 77 2 78 1 80 3 81
REMARK H PARENT 31 24 18 32 20 34 33 36 35 38 37 40 40 44 7 46 44 49 46 52
REMARK H PARENT 48 56 62 75 62 76 4 79
REMARK Flexibility Score: inf
ROOT
ATOM      1  C   UNL     1      32.725  30.735  22.434  1.00  0.00     0.272 C 
ATOM      2  C   UNL     1      33.135  30.594  23.913  1.00  0.00     0.113 C 
ATOM      3  C   UNL     1      31.929  30.190  24.686  1.00  0.00     0.145 C 
ATOM      4  C   UNL     1      31.373  28.908  24.177  1.00  0.00     0.142 C 
ATOM      5  C   UNL     1      31.563  28.727  22.713  1.00  0.00     0.178 C 
ATOM      6  O   UNL     1      32.330  29.547  21.986  1.00  0.00    -0.332 OA
ENDROOT
BRANCH   1   7
ATOM      7  O   UNL     1      33.934  31.152  21.815  1.00  0.00    -0.338 OA
BRANCH   7   8
ATOM      8  C   UNL     1      34.983  30.662  22.530  1.00  0.00     0.199 C 
BRANCH   8   9
ATOM      9  C   UNL     1      36.209  31.545  22.462  1.00  0.00     0.179 C 
ATOM     10  C   UNL     1      37.793  32.178  21.015  1.00  0.00     0.282 C 
ATOM     11  O   UNL     1      36.389  32.080  21.188  1.00  0.00    -0.341 OA
ATOM     12  C   UNL     1      38.454  32.800  22.190  1.00  0.00     0.202 C 
ATOM     13  C   UNL     1      37.520  33.455  23.176  1.00  0.00     0.179 C 
ATOM     14  C   UNL     1      36.268  32.643  23.451  1.00  0.00     0.177 C 
BRANCH  10  15
ATOM     15  O   UNL     1      38.109  32.699  19.786  1.00  0.00    -0.341 OA
BRANCH  15  16
ATOM     16  C   UNL     1      38.476  34.024  19.783  1.00  0.00     0.184 C 
ATOM     17  C   UNL     1      37.487  34.811  18.958  1.00  0.00     0.178 C 
ATOM     18  O   UNL     1      38.144  35.748  18.151  1.00  0.00    -0.341 OA
ATOM     19  C   UNL     1      38.753  35.068  17.124  1.00  0.00     0.281 C 
ATOM     20  C   UNL     1      39.863  34.093  19.185  1.00  0.00     0.180 C 
ATOM     21  C   UNL     1      39.859  34.241  17.697  1.00  0.00     0.202 C 
BRANCH  17  22
ATOM     22  C   UNL     1      36.486  35.568  19.771  1.00  0.00     0.191 C 
BRANCH  22  23
ATOM     23  O   UNL     1      35.597  34.695  20.428  1.00  0.00    -0.394 OA
ATOM     24  H   UNL     1      34.912  34.351  19.807  1.00  0.00     0.210 HD
ENDBRANCH  22  23
ENDBRANCH  17  22
BRANCH  19  25
ATOM     25  O   UNL     1      39.289  35.922  16.160  1.00  0.00    -0.350 OA
BRANCH  25  26
ATOM     26  C   UNL     1      38.875  35.681  14.878  1.00  0.00     0.169 C 
BRANCH  26  27
ATOM     27  C   UNL     1      37.652  34.795  14.767  1.00  0.00     0.119 C 
BRANCH  27  28
ATOM     28  N   UNL     1      37.910  33.636  13.935  1.00  0.00    -0.092 NA
ATOM     29  N   UNL     1      37.520  33.557  12.774  1.00  0.00     0.001 N 
ATOM     30  N   UNL     1      37.170  33.374  11.621  1.00  0.00    -0.003 NA
ENDBRANCH  27  28
ENDBRANCH  26  27
ENDBRANCH  25  26
ENDBRANCH  19  25
BRANCH  20  31
ATOM     31  O   UNL     1      40.522  35.216  19.719  1.00  0.00    -0.387 OA
ATOM     32  H   UNL     1      40.641  35.147  20.699  1.00  0.00     0.211 HD
ENDBRANCH  20  31
BRANCH  21  33
ATOM     33  O   UNL     1      39.796  32.968  17.084  1.00  0.00    -0.385 OA
ATOM     34  H   UNL     1      40.606  32.477  17.356  1.00  0.00     0.211 HD
ENDBRANCH  21  33
ENDBRANCH  15  16
ENDBRANCH  10  15
BRANCH  12  35
ATOM     35  O   UNL     1      39.344  31.924  22.857  1.00  0.00    -0.385 OA
ATOM     36  H   UNL     1      39.052  31.011  22.541  1.00  0.00     0.211 HD
ENDBRANCH  12  35
BRANCH  13  37
ATOM     37  O   UNL     1      37.265  34.774  22.852  1.00  0.00    -0.387 OA
ATOM     38  H   UNL     1      36.924  35.209  23.698  1.00  0.00     0.211 HD
ENDBRANCH  13  37
BRANCH  14  39
ATOM     39  O   UNL     1      35.176  33.496  23.247  1.00  0.00    -0.387 OA
ATOM     40  H   UNL     1      34.626  33.596  24.063  1.00  0.00     0.211 HD
ENDBRANCH  14  39
ENDBRANCH   8   9
ENDBRANCH   7   8
ENDBRANCH   1   7
BRANCH   1  41
ATOM     41  C   UNL     1      31.742  31.846  22.396  1.00  0.00     0.364 C 
ATOM     42  O   UNL     1      32.146  33.020  22.725  1.00  0.00    -0.246 OA
BRANCH  41  43
ATOM     43  O   UNL     1      30.428  31.763  22.041  1.00  0.00    -0.477 OA
ATOM     44  H   UNL     1      29.668  32.160  22.610  1.00  0.00     0.296 HD
ENDBRANCH  41  43
ENDBRANCH   1  41
BRANCH   3  45
ATOM     45  O   UNL     1      32.369  30.052  26.033  1.00  0.00    -0.391 OA
ATOM     46  H   UNL     1      31.950  30.840  26.502  1.00  0.00     0.211 HD
ENDBRANCH   3  45
BRANCH   5  47
ATOM     47  C   UNL     1      32.009  27.262  22.485  1.00  0.00     0.176 C 
BRANCH  47  48
ATOM     48  O   UNL     1      33.389  27.228  22.420  1.00  0.00    -0.388 OA
ATOM     49  H   UNL     1      33.784  27.549  21.592  1.00  0.00     0.211 HD
ENDBRANCH  47  48
BRANCH  47  50
ATOM     50  C   UNL     1      31.284  26.671  21.338  1.00  0.00     0.165 C 
BRANCH  50  51
ATOM     51  O   UNL     1      31.761  27.235  20.157  1.00  0.00    -0.388 OA
ATOM     52  H   UNL     1      32.122  26.463  19.634  1.00  0.00     0.211 HD
ENDBRANCH  50  51
BRANCH  50  53
ATOM     53  C   UNL     1      29.789  26.936  21.394  1.00  0.00     0.154 C 
BRANCH  53  54
ATOM     54  N   UNL     1      29.368  27.398  20.093  1.00  0.00    -0.319 N 
ATOM     55  C   UNL     1      27.958  27.435  19.775  1.00  0.00     0.407 C 
ATOM     56  H   UNL     1      30.043  27.706  19.357  1.00  0.00     0.167 HD
ATOM     57  O   UNL     1      27.094  27.070  20.613  1.00  0.00    -0.225 OA
BRANCH  55  58
ATOM     58  O   UNL     1      27.626  27.890  18.515  1.00  0.00    -0.443 OA
BRANCH  58  59
ATOM     59  C   UNL     1      27.223  29.210  18.303  1.00  0.00     0.294 C 
BRANCH  59  60
ATOM     60  C   UNL     1      28.341  30.155  18.440  1.00  0.00     0.121 A 
ATOM     61  C   UNL     1      28.922  30.838  17.361  1.00  0.00     0.144 A 
ATOM     62  N   UNL     1      28.998  30.544  19.526  1.00  0.00    -0.131 NA
ATOM     63  N   UNL     1      29.893  31.598  17.855  1.00  0.00    -0.220 N 
ATOM     64  N   UNL     1      29.920  31.408  19.144  1.00  0.00    -0.062 NA
BRANCH  63  65
ATOM     65  C   UNL     1      30.716  32.459  17.056  1.00  0.00     0.068 A 
ATOM     66  C   UNL     1      31.292  33.583  17.653  1.00  0.00     0.050 A 
ATOM     67  C   UNL     1      30.941  32.192  15.739  1.00  0.00     0.028 A 
ATOM     68  C   UNL     1      32.089  34.438  16.933  1.00  0.00     0.084 A 
ATOM     69  C   UNL     1      31.727  33.029  15.017  1.00  0.00     0.004 A 
ATOM     70  C   UNL     1      32.313  34.160  15.592  1.00  0.00     0.022 A 
BRANCH  68  71
ATOM     71  S   UNL     1      32.838  35.854  17.612  1.00  0.00     0.238 S 
ATOM     72  O   UNL     1      32.028  37.060  17.224  1.00  0.00    -0.207 OA
ATOM     73  O   UNL     1      34.225  36.016  17.081  1.00  0.00    -0.207 OA
BRANCH  71  74
ATOM     74  N   UNL     1      32.869  35.689  19.344  1.00  0.00    -0.225 NA
ATOM     75  H   UNL     1      33.371  34.804  19.580  1.00  0.00     0.137 HD
ATOM     76  H   UNL     1      31.916  35.762  19.756  1.00  0.00     0.137 HD
ENDBRANCH  71  74
ENDBRANCH  68  71
ENDBRANCH  63  65
ENDBRANCH  59  60
ENDBRANCH  58  59
ENDBRANCH  55  58
ENDBRANCH  53  54
ENDBRANCH  50  53
ENDBRANCH  47  50
ENDBRANCH   5  47
BRANCH   4  77
ATOM     77  N   UNL     1      29.929  28.925  24.462  1.00  0.00    -0.348 N 
ATOM     78  C   UNL     1      29.245  27.817  25.029  1.00  0.00     0.217 C 
ATOM     79  H   UNL     1      29.380  29.781  24.240  1.00  0.00     0.163 HD
ATOM     80  C   UNL     1      27.786  27.896  25.295  1.00  0.00     0.114 C 
ATOM     81  O   UNL     1      29.917  26.778  25.294  1.00  0.00    -0.275 OA
ENDBRANCH   4  77
TORSDOF 32
BEGIN_RES LYS A 131
REMARK  4 active torsions:
REMARK  status: ('A' for Active; 'I' for Inactive)
REMARK    1  A    between atoms: CA   and  CB  
REMARK    2  A    between atoms: CB   and  CG  
REMARK    3  A    between atoms: CG   and  CD  
REMARK    4  A    between atoms: CD   and  CE  
ROOT
ATOM      1  CA  LYS A 131      29.867  25.555  16.977  1.00 20.52     0.186 C 
ENDROOT
BRANCH   1   2
ATOM      2  CB  LYS A 131      28.345  25.722  17.026  1.00 20.94     0.034 C 
BRANCH   2   3
ATOM      3  CG  LYS A 131      27.602  24.398  16.933  1.00 22.96     0.005 C 
BRANCH   3   4
ATOM      4  CD  LYS A 131      26.595  24.235  18.037  1.00 24.33     0.041 C 
BRANCH   4   5
ATOM      5  CE  LYS A 131      25.426  25.186  17.805  1.00 26.91     0.338 C 
ATOM      6  NZ  LYS A 131      24.601  25.304  19.030  1.00 27.40     0.618 N 
ENDBRANCH   4   5
ENDBRANCH   3   4
ENDBRANCH   2   3
ENDBRANCH   1   2
END_RES LYS A 131
BEGIN_RES LYS A 135
REMARK  4 active torsions:
REMARK  status: ('A' for Active; 'I' for Inactive)
REMARK    5  A    between atoms: CA   and  CB  
REMARK    6  A    between atoms: CB   and  CG  
REMARK    7  A    between atoms: CG   and  CD  
REMARK    8  A    between atoms: CD   and  CE  
ROOT
ATOM      7  CA  LYS A 135      33.193  34.663   9.290  1.00 25.02     0.186 C 
ENDROOT
BRANCH   7   8
ATOM      8  CB  LYS A 135      32.060  35.360  10.034  1.00 26.63     0.034 C 
BRANCH   8   9
ATOM      9  CG  LYS A 135      30.737  34.648   9.920  1.00 29.45     0.005 C 
BRANCH   9  10
ATOM     10  CD  LYS A 135      29.729  35.229  10.900  1.00 32.00     0.041 C 
BRANCH  10  11
ATOM     11  CE  LYS A 135      30.060  34.805  12.318  1.00 34.25     0.338 C 
ATOM     12  NZ  LYS A 135      28.826  34.680  13.142  1.00 35.99     0.618 N 
ENDBRANCH  10  11
ENDBRANCH   9  10
ENDBRANCH   8   9
ENDBRANCH   7   8
END_RES LYS A 135
