REMARK VINA RESULT:    -3.609      4.290      8.112
REMARK INTER + INTRA:         -21.797
REMARK INTER:                 -10.975
REMARK INTRA:                 -10.822
REMARK UNBOUND:               -11.857
REMARK SMILES CC[N+](C)(CC)CCCn1cc(COC(=O)NC[C@@H](O)C(O)[C@@H]2O[C@@](OC[C@H]3O[C@@H](O[C@H]4[C@H](O)[C@@H](O)[C@H](OCCN=[N+]=[N-])O[C@@H]4CO)[C@H](O)[C@@H](O)[C@H]3O)(C(=O)O)C[C@H](O)[C@H]2NC(C)=O)nn1
REMARK SMILES IDX 21 1 23 2 25 3 57 4 24 5 58 6 60 7 26 8 27 9 28 10 30 11
REMARK SMILES IDX 29 12 48 13 50 14 52 15 31 16 32 17 45 18 44 19 37 20 33 21
REMARK SMILES IDX 35 22 46 23 47 24 38 26 39 27 40 28 41 29 42 30 43 31 34 32
REMARK SMILES IDX 36 34 49 36 51 38 53 40 54 42 55 43 56 44 59 46 61 48 62 49
REMARK SMILES IDX 63 51 64 52 22 53 19 55 20 56 18 58 17 59 15 60 16 62 14 63
REMARK SMILES IDX 13 64 12 65 11 66 65 67 10 68 66 69 9 70 8 71 7 72 3 73 4 74
REMARK SMILES IDX 2 75 1 76 5 77 6 78
REMARK H PARENT 47 25 34 33 36 35 49 37 51 39 53 41 56 45 59 47 61 50 22 54
REMARK H PARENT 20 57 17 61
REMARK Flexibility Score: inf
ROOT
ATOM      1  C   UNL     1      30.639  36.540  13.596  1.00  0.00     0.176 C 
ENDROOT
BRANCH   1   2
ATOM      2  C   UNL     1      29.667  36.482  14.771  1.00  0.00     0.178 C 
ATOM      3  C   UNL     1      27.414  35.943  15.216  1.00  0.00     0.272 C 
ATOM      4  C   UNL     1      27.543  36.991  16.270  1.00  0.00     0.113 C 
ATOM      5  O   UNL     1      28.414  36.248  14.251  1.00  0.00    -0.332 OA
ATOM      6  C   UNL     1      28.311  38.197  15.799  1.00  0.00     0.145 C 
ATOM      7  C   UNL     1      29.751  37.762  15.539  1.00  0.00     0.142 C 
BRANCH   3   8
ATOM      8  O   UNL     1      26.248  36.021  14.483  1.00  0.00    -0.338 OA
BRANCH   8   9
ATOM      9  C   UNL     1      26.290  36.202  13.153  1.00  0.00     0.199 C 
BRANCH   9  10
ATOM     10  C   UNL     1      25.673  34.991  12.406  1.00  0.00     0.179 C 
ATOM     11  C   UNL     1      24.694  36.026  10.527  1.00  0.00     0.282 C 
ATOM     12  O   UNL     1      24.574  35.302  11.706  1.00  0.00    -0.341 OA
ATOM     13  C   UNL     1      25.945  35.760   9.779  1.00  0.00     0.202 C 
ATOM     14  C   UNL     1      26.305  34.295  10.114  1.00  0.00     0.179 C 
ATOM     15  C   UNL     1      26.765  34.345  11.554  1.00  0.00     0.177 C 
BRANCH  11  16
ATOM     16  O   UNL     1      24.379  37.374  10.747  1.00  0.00    -0.341 OA
BRANCH  16  17
ATOM     17  C   UNL     1      24.663  38.166   9.673  1.00  0.00     0.184 C 
ATOM     18  C   UNL     1      25.283  39.480   9.866  1.00  0.00     0.178 C 
ATOM     19  O   UNL     1      25.728  39.965   8.650  1.00  0.00    -0.341 OA
ATOM     20  C   UNL     1      25.212  39.471   7.507  1.00  0.00     0.281 C 
ATOM     21  C   UNL     1      23.380  38.434   8.852  1.00  0.00     0.180 C 
ATOM     22  C   UNL     1      23.768  39.034   7.526  1.00  0.00     0.202 C 
BRANCH  18  23
ATOM     23  C   UNL     1      26.447  39.542  10.835  1.00  0.00     0.191 C 
BRANCH  23  24
ATOM     24  O   UNL     1      26.058  39.522  12.168  1.00  0.00    -0.394 OA
ATOM     25  H   UNL     1      25.070  39.303  12.166  1.00  0.00     0.210 HD
ENDBRANCH  23  24
ENDBRANCH  18  23
BRANCH  20  26
ATOM     26  O   UNL     1      26.046  38.519   6.947  1.00  0.00    -0.350 OA
BRANCH  26  27
ATOM     27  C   UNL     1      27.374  38.786   6.997  1.00  0.00     0.169 C 
BRANCH  27  28
ATOM     28  C   UNL     1      27.937  39.337   5.703  1.00  0.00     0.119 C 
BRANCH  28  29
ATOM     29  N   UNL     1      29.356  39.031   5.626  1.00  0.00    -0.092 NA
ATOM     30  N   UNL     1      30.134  39.222   6.557  1.00  0.00     0.001 N 
ATOM     31  N   UNL     1      30.928  39.383   7.486  1.00  0.00    -0.003 NA
ENDBRANCH  28  29
ENDBRANCH  27  28
ENDBRANCH  26  27
ENDBRANCH  20  26
BRANCH  21  32
ATOM     32  O   UNL     1      22.697  37.242   8.783  1.00  0.00    -0.387 OA
ATOM     33  H   UNL     1      22.866  36.703   7.994  1.00  0.00     0.211 HD
ENDBRANCH  21  32
BRANCH  22  34
ATOM     34  O   UNL     1      22.887  40.060   7.225  1.00  0.00    -0.385 OA
ATOM     35  H   UNL     1      21.991  39.748   6.933  1.00  0.00     0.211 HD
ENDBRANCH  22  34
ENDBRANCH  16  17
ENDBRANCH  11  16
BRANCH  13  36
ATOM     36  O   UNL     1      25.791  35.802   8.385  1.00  0.00    -0.385 OA
ATOM     37  H   UNL     1      26.323  35.064   8.015  1.00  0.00     0.211 HD
ENDBRANCH  13  36
BRANCH  14  38
ATOM     38  O   UNL     1      27.341  33.872   9.282  1.00  0.00    -0.387 OA
ATOM     39  H   UNL     1      26.956  33.226   8.655  1.00  0.00     0.211 HD
ENDBRANCH  14  38
BRANCH  15  40
ATOM     40  O   UNL     1      27.859  35.208  11.577  1.00  0.00    -0.387 OA
ATOM     41  H   UNL     1      28.197  35.475  10.709  1.00  0.00     0.211 HD
ENDBRANCH  15  40
ENDBRANCH   9  10
ENDBRANCH   8   9
ENDBRANCH   3   8
BRANCH   3  42
ATOM     42  C   UNL     1      27.609  34.563  15.691  1.00  0.00     0.364 C 
ATOM     43  O   UNL     1      27.698  33.598  14.899  1.00  0.00    -0.246 OA
BRANCH  42  44
ATOM     44  O   UNL     1      27.698  34.284  17.033  1.00  0.00    -0.477 OA
ATOM     45  H   UNL     1      28.403  33.665  17.431  1.00  0.00     0.296 HD
ENDBRANCH  42  44
ENDBRANCH   3  42
BRANCH   6  46
ATOM     46  O   UNL     1      27.794  38.768  14.660  1.00  0.00    -0.391 OA
ATOM     47  H   UNL     1      27.867  39.771  14.676  1.00  0.00     0.211 HD
ENDBRANCH   6  46
BRANCH   7  48
ATOM     48  N   UNL     1      30.297  37.475  16.876  1.00  0.00    -0.348 N 
ATOM     49  C   UNL     1      31.606  37.892  17.248  1.00  0.00     0.217 C 
ATOM     50  H   UNL     1      29.771  36.957  17.609  1.00  0.00     0.163 HD
ATOM     51  C   UNL     1      32.196  37.627  18.584  1.00  0.00     0.114 C 
ATOM     52  O   UNL     1      32.286  38.511  16.411  1.00  0.00    -0.275 OA
ENDBRANCH   7  48
ENDBRANCH   1   2
BRANCH   1  53
ATOM     53  O   UNL     1      29.886  36.829  12.407  1.00  0.00    -0.388 OA
ATOM     54  H   UNL     1      29.427  37.694  12.575  1.00  0.00     0.211 HD
ENDBRANCH   1  53
BRANCH   1  55
ATOM     55  C   UNL     1      31.285  35.213  13.369  1.00  0.00     0.165 C 
BRANCH  55  56
ATOM     56  O   UNL     1      30.144  34.319  13.227  1.00  0.00    -0.388 OA
ATOM     57  H   UNL     1      30.183  33.678  14.003  1.00  0.00     0.211 HD
ENDBRANCH  55  56
BRANCH  55  58
ATOM     58  C   UNL     1      32.142  34.665  14.450  1.00  0.00     0.154 C 
BRANCH  58  59
ATOM     59  N   UNL     1      31.798  33.534  15.187  1.00  0.00    -0.319 N 
ATOM     60  C   UNL     1      31.185  33.465  16.460  1.00  0.00     0.407 C 
ATOM     61  H   UNL     1      32.029  32.556  14.735  1.00  0.00     0.167 HD
ATOM     62  O   UNL     1      30.854  34.461  17.121  1.00  0.00    -0.225 OA
BRANCH  60  63
ATOM     63  O   UNL     1      30.929  32.202  17.049  1.00  0.00    -0.443 OA
BRANCH  63  64
ATOM     64  C   UNL     1      30.450  31.165  16.172  1.00  0.00     0.294 C 
BRANCH  64  65
ATOM     65  C   UNL     1      29.034  30.948  16.651  1.00  0.00     0.120 A 
ATOM     66  C   UNL     1      28.152  29.992  16.207  1.00  0.00     0.138 A 
ATOM     67  N   UNL     1      28.377  31.592  17.622  1.00  0.00    -0.132 NA
ATOM     68  N   UNL     1      26.990  30.092  16.929  1.00  0.00    -0.252 N 
ATOM     69  N   UNL     1      27.172  31.085  17.781  1.00  0.00    -0.067 NA
BRANCH  68  70
ATOM     70  C   UNL     1      25.830  29.229  16.792  1.00  0.00     0.152 C 
BRANCH  70  71
ATOM     71  C   UNL     1      24.706  29.887  16.117  1.00  0.00     0.085 C 
BRANCH  71  72
ATOM     72  C   UNL     1      24.823  30.323  14.715  1.00  0.00     0.265 C 
BRANCH  72  73
ATOM     73  N   UNL     1      23.691  30.908  14.076  1.00  0.00    -0.326 N 
ATOM     74  C   UNL     1      22.554  30.882  14.955  1.00  0.00     0.334 C 
BRANCH  73  75
ATOM     75  C   UNL     1      23.359  30.375  12.786  1.00  0.00     0.260 C 
ATOM     76  C   UNL     1      23.382  28.865  12.745  1.00  0.00     0.071 C 
ENDBRANCH  73  75
BRANCH  73  77
ATOM     77  C   UNL     1      24.015  32.334  13.907  1.00  0.00     0.260 C 
ATOM     78  C   UNL     1      22.907  33.255  14.277  1.00  0.00     0.071 C 
ENDBRANCH  73  77
ENDBRANCH  72  73
ENDBRANCH  71  72
ENDBRANCH  70  71
ENDBRANCH  68  70
ENDBRANCH  64  65
ENDBRANCH  63  64
ENDBRANCH  60  63
ENDBRANCH  58  59
ENDBRANCH  55  58
ENDBRANCH   1  55
TORSDOF 35
BEGIN_RES LYS A 131
REMARK  4 active torsions:
REMARK  status: ('A' for Active; 'I' for Inactive)
REMARK    1  A    between atoms: CA   and  CB  
REMARK    2  A    between atoms: CB   and  CG  
REMARK    3  A    between atoms: CG   and  CD  
REMARK    4  A    between atoms: CD   and  CE  
ROOT
ATOM      1  CA  LYS A 131      29.867  25.555  16.977  1.00 20.52     0.186 C 
ENDROOT
BRANCH   1   2
ATOM      2  CB  LYS A 131      28.345  25.722  17.026  1.00 20.94     0.034 C 
BRANCH   2   3
ATOM      3  CG  LYS A 131      27.602  24.400  16.917  1.00 22.96     0.005 C 
BRANCH   3   4
ATOM      4  CD  LYS A 131      26.154  24.530  17.300  1.00 24.33     0.041 C 
BRANCH   4   5
ATOM      5  CE  LYS A 131      26.051  25.051  18.730  1.00 26.91     0.338 C 
ATOM      6  NZ  LYS A 131      25.080  26.168  18.807  1.00 27.40     0.618 N 
ENDBRANCH   4   5
ENDBRANCH   3   4
ENDBRANCH   2   3
ENDBRANCH   1   2
END_RES LYS A 131
BEGIN_RES LYS A 135
REMARK  4 active torsions:
REMARK  status: ('A' for Active; 'I' for Inactive)
REMARK    5  A    between atoms: CA   and  CB  
REMARK    6  A    between atoms: CB   and  CG  
REMARK    7  A    between atoms: CG   and  CD  
REMARK    8  A    between atoms: CD   and  CE  
ROOT
ATOM      7  CA  LYS A 135      33.193  34.663   9.290  1.00 25.02     0.186 C 
ENDROOT
BRANCH   7   8
ATOM      8  CB  LYS A 135      32.060  35.360  10.034  1.00 26.63     0.034 C 
BRANCH   8   9
ATOM      9  CG  LYS A 135      30.708  34.743   9.786  1.00 29.45     0.005 C 
BRANCH   9  10
ATOM     10  CD  LYS A 135      30.414  34.675   8.296  1.00 32.00     0.041 C 
BRANCH  10  11
ATOM     11  CE  LYS A 135      29.582  35.866   7.862  1.00 34.25     0.338 C 
ATOM     12  NZ  LYS A 135      28.861  35.582   6.590  1.00 35.99     0.618 N 
ENDBRANCH  10  11
ENDBRANCH   9  10
ENDBRANCH   8   9
ENDBRANCH   7   8
END_RES LYS A 135
