REMARK VINA RESULT:    -4.592      2.500      6.062
REMARK INTER + INTRA:         -21.634
REMARK INTER:                 -10.061
REMARK INTRA:                 -11.573
REMARK UNBOUND:                -9.660
REMARK SMILES CC(=O)N[C@@H]1[C@@H](O)C[C@](OC[C@H]2O[C@@H](O[C@H]3[C@H](O)[C@@H](O)[C@H](OCCN=[N+]=[N-])O[C@@H]3CO)[C@H](O)[C@@H](O)[C@H]2O)(C(=O)O)O[C@H]1C(O)[C@H](O)CNC(=O)OCc1cn(CCC(=O)O)nn1
REMARK SMILES IDX 43 1 42 2 9 3 8 4 41 5 6 6 5 7 10 8 11 9 12 10 14 11 13 12
REMARK SMILES IDX 32 13 34 14 36 15 15 16 16 17 29 18 28 19 21 20 17 21 19 22
REMARK SMILES IDX 30 23 31 24 22 26 23 27 24 28 25 29 26 30 27 31 18 32 20 34
REMARK SMILES IDX 33 36 35 38 37 40 38 42 39 43 40 44 7 46 4 48 2 49 1 51 3 52
REMARK SMILES IDX 44 53 45 55 46 56 47 58 48 59 49 60 50 62 51 63 52 64 53 65
REMARK SMILES IDX 54 66 62 67 55 68 61 69 56 70 57 71 58 72 59 73 60 74
REMARK H PARENT 31 25 18 33 20 35 33 37 35 39 37 41 40 45 7 47 4 50 44 54
REMARK H PARENT 46 57 48 61 60 75
REMARK Flexibility Score: inf
ROOT
ATOM      1  C   UNL     1      29.985  39.202  14.505  1.00  0.00     0.176 C 
ENDROOT
BRANCH   1   2
ATOM      2  C   UNL     1      30.204  40.276  13.466  1.00  0.00     0.178 C 
ATOM      3  C   UNL     1      30.582  40.549  11.166  1.00  0.00     0.272 C 
ATOM      4  C   UNL     1      30.368  41.961  11.682  1.00  0.00     0.113 C 
ATOM      5  O   UNL     1      30.914  39.835  12.379  1.00  0.00    -0.332 OA
ATOM      6  C   UNL     1      31.358  42.295  12.817  1.00  0.00     0.145 C 
ATOM      7  C   UNL     1      30.981  41.457  14.032  1.00  0.00     0.142 C 
BRANCH   3   8
ATOM      8  O   UNL     1      31.636  40.500  10.331  1.00  0.00    -0.338 OA
BRANCH   8   9
ATOM      9  C   UNL     1      31.920  39.626   9.405  1.00  0.00     0.199 C 
BRANCH   9  10
ATOM     10  C   UNL     1      31.730  39.768   7.957  1.00  0.00     0.179 C 
ATOM     11  C   UNL     1      30.389  39.630   6.098  1.00  0.00     0.282 C 
ATOM     12  O   UNL     1      30.541  39.350   7.425  1.00  0.00    -0.341 OA
ATOM     13  C   UNL     1      31.551  40.311   5.431  1.00  0.00     0.202 C 
ATOM     14  C   UNL     1      32.079  41.470   6.254  1.00  0.00     0.179 C 
ATOM     15  C   UNL     1      31.706  41.321   7.711  1.00  0.00     0.177 C 
BRANCH  11  16
ATOM     16  O   UNL     1      29.264  40.404   5.816  1.00  0.00    -0.341 OA
BRANCH  16  17
ATOM     17  C   UNL     1      28.294  39.725   5.082  1.00  0.00     0.184 C 
ATOM     18  C   UNL     1      27.098  40.601   4.947  1.00  0.00     0.178 C 
ATOM     19  O   UNL     1      25.963  40.125   5.625  1.00  0.00    -0.341 OA
ATOM     20  C   UNL     1      26.406  39.887   6.942  1.00  0.00     0.281 C 
ATOM     21  C   UNL     1      28.034  38.423   5.780  1.00  0.00     0.180 C 
ATOM     22  C   UNL     1      27.059  38.524   6.911  1.00  0.00     0.202 C 
BRANCH  18  23
ATOM     23  C   UNL     1      26.719  40.800   3.487  1.00  0.00     0.191 C 
BRANCH  23  24
ATOM     24  O   UNL     1      25.423  41.301   3.389  1.00  0.00    -0.394 OA
ATOM     25  H   UNL     1      25.093  41.130   2.476  1.00  0.00     0.210 HD
ENDBRANCH  23  24
ENDBRANCH  18  23
BRANCH  20  26
ATOM     26  O   UNL     1      25.376  39.954   7.850  1.00  0.00    -0.350 OA
BRANCH  26  27
ATOM     27  C   UNL     1      24.166  39.778   7.185  1.00  0.00     0.169 C 
BRANCH  27  28
ATOM     28  C   UNL     1      23.235  38.940   8.051  1.00  0.00     0.119 C 
BRANCH  28  29
ATOM     29  N   UNL     1      23.163  37.634   7.428  1.00  0.00    -0.092 NA
ATOM     30  N   UNL     1      22.216  36.901   7.710  1.00  0.00     0.001 N 
ATOM     31  N   UNL     1      21.336  36.015   7.740  1.00  0.00    -0.003 NA
ENDBRANCH  28  29
ENDBRANCH  27  28
ENDBRANCH  26  27
ENDBRANCH  20  26
BRANCH  21  32
ATOM     32  O   UNL     1      27.524  37.539   4.834  1.00  0.00    -0.387 OA
ATOM     33  H   UNL     1      27.755  37.872   3.945  1.00  0.00     0.211 HD
ENDBRANCH  21  32
BRANCH  22  34
ATOM     34  O   UNL     1      27.674  38.234   8.130  1.00  0.00    -0.385 OA
ATOM     35  H   UNL     1      27.551  38.991   8.767  1.00  0.00     0.211 HD
ENDBRANCH  22  34
ENDBRANCH  16  17
ENDBRANCH  11  16
BRANCH  13  36
ATOM     36  O   UNL     1      32.573  39.425   5.060  1.00  0.00    -0.385 OA
ATOM     37  H   UNL     1      33.286  39.915   4.619  1.00  0.00     0.211 HD
ENDBRANCH  13  36
BRANCH  14  38
ATOM     38  O   UNL     1      31.678  42.670   5.712  1.00  0.00    -0.387 OA
ATOM     39  H   UNL     1      32.346  43.368   5.866  1.00  0.00     0.211 HD
ENDBRANCH  14  38
BRANCH  15  40
ATOM     40  O   UNL     1      30.414  41.710   7.972  1.00  0.00    -0.387 OA
ATOM     41  H   UNL     1      29.909  41.108   8.567  1.00  0.00     0.211 HD
ENDBRANCH  15  40
ENDBRANCH   9  10
ENDBRANCH   8   9
ENDBRANCH   3   8
BRANCH   3  42
ATOM     42  C   UNL     1      29.367  39.910  10.653  1.00  0.00     0.364 C 
ATOM     43  O   UNL     1      28.544  40.575   9.978  1.00  0.00    -0.246 OA
BRANCH  42  44
ATOM     44  O   UNL     1      29.098  38.587  10.891  1.00  0.00    -0.477 OA
ATOM     45  H   UNL     1      28.384  38.045  10.448  1.00  0.00     0.296 HD
ENDBRANCH  42  44
ENDBRANCH   3  42
BRANCH   6  46
ATOM     46  O   UNL     1      32.608  41.905  12.390  1.00  0.00    -0.391 OA
ATOM     47  H   UNL     1      33.281  42.521  12.804  1.00  0.00     0.211 HD
ENDBRANCH   6  46
BRANCH   7  48
ATOM     48  N   UNL     1      30.208  42.223  14.955  1.00  0.00    -0.348 N 
ATOM     49  C   UNL     1      30.642  42.342  16.301  1.00  0.00     0.217 C 
ATOM     50  H   UNL     1      29.325  42.708  14.686  1.00  0.00     0.163 HD
ATOM     51  C   UNL     1      29.899  43.115  17.325  1.00  0.00     0.114 C 
ATOM     52  O   UNL     1      31.706  41.777  16.692  1.00  0.00    -0.275 OA
ENDBRANCH   7  48
ENDBRANCH   1   2
BRANCH   1  53
ATOM     53  O   UNL     1      29.219  38.190  13.926  1.00  0.00    -0.388 OA
ATOM     54  H   UNL     1      29.114  37.429  14.531  1.00  0.00     0.211 HD
ENDBRANCH   1  53
BRANCH   1  55
ATOM     55  C   UNL     1      31.238  38.598  15.054  1.00  0.00     0.165 C 
BRANCH  55  56
ATOM     56  O   UNL     1      31.720  37.659  14.137  1.00  0.00    -0.388 OA
ATOM     57  H   UNL     1      31.298  36.787  14.329  1.00  0.00     0.211 HD
ENDBRANCH  55  56
BRANCH  55  58
ATOM     58  C   UNL     1      30.837  37.830  16.319  1.00  0.00     0.154 C 
BRANCH  58  59
ATOM     59  N   UNL     1      30.230  36.572  15.983  1.00  0.00    -0.319 N 
ATOM     60  C   UNL     1      30.908  35.323  15.983  1.00  0.00     0.407 C 
ATOM     61  H   UNL     1      29.201  36.527  15.713  1.00  0.00     0.167 HD
ATOM     62  O   UNL     1      32.125  35.321  16.298  1.00  0.00    -0.225 OA
BRANCH  60  63
ATOM     63  O   UNL     1      30.280  34.136  15.651  1.00  0.00    -0.443 OA
BRANCH  63  64
ATOM     64  C   UNL     1      30.302  33.697  14.316  1.00  0.00     0.294 C 
BRANCH  64  65
ATOM     65  C   UNL     1      29.478  34.571  13.460  1.00  0.00     0.120 A 
ATOM     66  C   UNL     1      28.095  34.473  13.388  1.00  0.00     0.138 A 
ATOM     67  N   UNL     1      29.876  35.579  12.647  1.00  0.00    -0.132 NA
ATOM     68  N   UNL     1      27.706  35.440  12.523  1.00  0.00    -0.252 N 
ATOM     69  N   UNL     1      28.787  36.079  12.100  1.00  0.00    -0.067 NA
BRANCH  68  70
ATOM     70  C   UNL     1      26.346  35.739  12.128  1.00  0.00     0.158 C 
BRANCH  70  71
ATOM     71  C   UNL     1      26.016  37.214  12.194  1.00  0.00     0.146 C 
BRANCH  71  72
ATOM     72  C   UNL     1      25.835  37.704  10.821  1.00  0.00     0.305 C 
ATOM     73  O   UNL     1      25.519  36.904   9.914  1.00  0.00    -0.252 OA
BRANCH  72  74
ATOM     74  O   UNL     1      26.008  39.048  10.491  1.00  0.00    -0.481 OA
ATOM     75  H   UNL     1      26.504  39.360   9.663  1.00  0.00     0.296 HD
ENDBRANCH  72  74
ENDBRANCH  71  72
ENDBRANCH  70  71
ENDBRANCH  68  70
ENDBRANCH  64  65
ENDBRANCH  63  64
ENDBRANCH  60  63
ENDBRANCH  58  59
ENDBRANCH  55  58
ENDBRANCH   1  55
TORSDOF 33
BEGIN_RES LYS A 131
REMARK  4 active torsions:
REMARK  status: ('A' for Active; 'I' for Inactive)
REMARK    1  A    between atoms: CA   and  CB  
REMARK    2  A    between atoms: CB   and  CG  
REMARK    3  A    between atoms: CG   and  CD  
REMARK    4  A    between atoms: CD   and  CE  
ROOT
ATOM      1  CA  LYS A 131      29.867  25.555  16.977  1.00 20.52     0.186 C 
ENDROOT
BRANCH   1   2
ATOM      2  CB  LYS A 131      28.345  25.722  17.026  1.00 20.94     0.034 C 
BRANCH   2   3
ATOM      3  CG  LYS A 131      27.601  24.404  16.873  1.00 22.96     0.005 C 
BRANCH   3   4
ATOM      4  CD  LYS A 131      26.636  24.164  18.001  1.00 24.33     0.041 C 
BRANCH   4   5
ATOM      5  CE  LYS A 131      25.623  23.102  17.587  1.00 26.91     0.338 C 
ATOM      6  NZ  LYS A 131      24.697  22.805  18.704  1.00 27.40     0.618 N 
ENDBRANCH   4   5
ENDBRANCH   3   4
ENDBRANCH   2   3
ENDBRANCH   1   2
END_RES LYS A 131
BEGIN_RES LYS A 135
REMARK  4 active torsions:
REMARK  status: ('A' for Active; 'I' for Inactive)
REMARK    5  A    between atoms: CA   and  CB  
REMARK    6  A    between atoms: CB   and  CG  
REMARK    7  A    between atoms: CG   and  CD  
REMARK    8  A    between atoms: CD   and  CE  
ROOT
ATOM      7  CA  LYS A 135      33.193  34.663   9.290  1.00 25.02     0.186 C 
ENDROOT
BRANCH   7   8
ATOM      8  CB  LYS A 135      32.060  35.360  10.034  1.00 26.63     0.034 C 
BRANCH   8   9
ATOM      9  CG  LYS A 135      30.826  35.568   9.194  1.00 29.45     0.005 C 
BRANCH   9  10
ATOM     10  CD  LYS A 135      30.036  34.274   9.073  1.00 32.00     0.041 C 
BRANCH  10  11
ATOM     11  CE  LYS A 135      28.731  34.514   8.338  1.00 34.25     0.338 C 
ATOM     12  NZ  LYS A 135      27.564  34.112   9.172  1.00 35.99     0.618 N 
ENDBRANCH  10  11
ENDBRANCH   9  10
ENDBRANCH   8   9
ENDBRANCH   7   8
END_RES LYS A 135
