REMARK VINA RESULT:    -4.916      2.409      7.375
REMARK INTER + INTRA:         -21.813
REMARK INTER:                  -9.172
REMARK INTRA:                 -12.641
REMARK UNBOUND:                -9.712
REMARK SMILES CC(=O)N[C@@H]1[C@@H](O)C[C@](OC[C@H]2O[C@@H](O[C@H]3[C@H](O)[C@@H](O)[C@H](OCCN=[N+]=[N-])O[C@@H]3CO)[C@H](O)[C@@H](O)[C@H]2O)(C(=O)O)O[C@H]1C(O)[C@H](O)CNC(=O)OCc1cn(C2CCCCC2)nn1
REMARK SMILES IDX 9 1 8 2 6 3 5 4 42 5 41 6 10 7 11 8 12 9 14 10 13 11 32 12
REMARK SMILES IDX 34 13 36 14 15 15 16 16 29 17 28 18 21 19 17 20 19 21 30 22
REMARK SMILES IDX 31 23 22 25 23 26 24 27 25 28 26 29 27 30 18 31 20 33 33 35
REMARK SMILES IDX 35 37 37 39 38 41 39 42 40 43 7 45 43 47 44 48 45 50 46 51
REMARK SMILES IDX 47 53 48 54 49 55 50 57 51 58 52 59 53 60 54 61 63 62 55 63
REMARK SMILES IDX 62 64 56 65 57 66 61 67 58 68 60 69 59 70 4 71 2 72 1 74
REMARK SMILES IDX 3 75
REMARK H PARENT 31 24 18 32 20 34 33 36 35 38 37 40 40 44 7 46 44 49 46 52
REMARK H PARENT 48 56 4 73
REMARK Flexibility Score: inf
ROOT
ATOM      1  C   UNL     1      31.759  35.886  13.731  1.00  0.00     0.272 C 
ATOM      2  C   UNL     1      31.759  36.764  15.037  1.00  0.00     0.113 C 
ATOM      3  C   UNL     1      30.566  37.670  15.024  1.00  0.00     0.145 C 
ATOM      4  C   UNL     1      30.537  38.509  13.774  1.00  0.00     0.142 C 
ATOM      5  C   UNL     1      30.989  37.782  12.556  1.00  0.00     0.178 C 
ATOM      6  O   UNL     1      31.670  36.657  12.634  1.00  0.00    -0.332 OA
ENDROOT
BRANCH   1   7
ATOM      7  O   UNL     1      30.718  35.085  13.909  1.00  0.00    -0.338 OA
BRANCH   7   8
ATOM      8  C   UNL     1      30.541  33.912  14.416  1.00  0.00     0.199 C 
BRANCH   8   9
ATOM      9  C   UNL     1      30.337  33.682  15.905  1.00  0.00     0.179 C 
ATOM     10  C   UNL     1      28.228  33.329  16.867  1.00  0.00     0.282 C 
ATOM     11  O   UNL     1      29.177  34.214  16.366  1.00  0.00    -0.341 OA
ATOM     12  C   UNL     1      28.845  32.475  17.909  1.00  0.00     0.202 C 
ATOM     13  C   UNL     1      30.137  31.824  17.480  1.00  0.00     0.179 C 
ATOM     14  C   UNL     1      30.430  32.169  16.070  1.00  0.00     0.177 C 
BRANCH  10  15
ATOM     15  O   UNL     1      27.609  32.756  15.817  1.00  0.00    -0.341 OA
BRANCH  15  16
ATOM     16  C   UNL     1      26.431  33.250  15.361  1.00  0.00     0.184 C 
ATOM     17  C   UNL     1      25.585  32.082  14.899  1.00  0.00     0.178 C 
ATOM     18  O   UNL     1      24.267  32.437  14.683  1.00  0.00    -0.341 OA
ATOM     19  C   UNL     1      24.077  33.756  14.365  1.00  0.00     0.281 C 
ATOM     20  C   UNL     1      26.566  34.140  14.143  1.00  0.00     0.180 C 
ATOM     21  C   UNL     1      25.187  34.307  13.548  1.00  0.00     0.202 C 
BRANCH  17  22
ATOM     22  C   UNL     1      25.731  30.856  15.754  1.00  0.00     0.191 C 
BRANCH  22  23
ATOM     23  O   UNL     1      25.367  31.206  17.055  1.00  0.00    -0.394 OA
ATOM     24  H   UNL     1      25.846  30.672  17.732  1.00  0.00     0.210 HD
ENDBRANCH  22  23
ENDBRANCH  17  22
BRANCH  19  25
ATOM     25  O   UNL     1      23.741  34.455  15.493  1.00  0.00    -0.350 OA
BRANCH  25  26
ATOM     26  C   UNL     1      23.410  35.783  15.268  1.00  0.00     0.169 C 
BRANCH  26  27
ATOM     27  C   UNL     1      24.065  36.744  16.223  1.00  0.00     0.119 C 
BRANCH  27  28
ATOM     28  N   UNL     1      25.092  36.029  16.952  1.00  0.00    -0.092 NA
ATOM     29  N   UNL     1      26.102  36.681  17.252  1.00  0.00     0.001 N 
ATOM     30  N   UNL     1      27.296  37.013  17.142  1.00  0.00    -0.003 NA
ENDBRANCH  27  28
ENDBRANCH  26  27
ENDBRANCH  25  26
ENDBRANCH  19  25
BRANCH  20  31
ATOM     31  O   UNL     1      27.073  35.386  14.422  1.00  0.00    -0.387 OA
ATOM     32  H   UNL     1      27.043  36.002  13.649  1.00  0.00     0.211 HD
ENDBRANCH  20  31
BRANCH  21  33
ATOM     33  O   UNL     1      25.200  33.581  12.332  1.00  0.00    -0.385 OA
ATOM     34  H   UNL     1      24.985  32.630  12.495  1.00  0.00     0.211 HD
ENDBRANCH  21  33
ENDBRANCH  15  16
ENDBRANCH  10  15
BRANCH  12  35
ATOM     35  O   UNL     1      29.187  33.346  18.976  1.00  0.00    -0.385 OA
ATOM     36  H   UNL     1      28.394  33.616  19.489  1.00  0.00     0.211 HD
ENDBRANCH  12  35
BRANCH  13  37
ATOM     37  O   UNL     1      30.072  30.424  17.629  1.00  0.00    -0.387 OA
ATOM     38  H   UNL     1      30.100  30.212  18.576  1.00  0.00     0.211 HD
ENDBRANCH  13  37
BRANCH  14  39
ATOM     39  O   UNL     1      29.760  31.467  15.106  1.00  0.00    -0.387 OA
ATOM     40  H   UNL     1      30.424  31.082  14.486  1.00  0.00     0.211 HD
ENDBRANCH  14  39
ENDBRANCH   8   9
ENDBRANCH   7   8
ENDBRANCH   1   7
BRANCH   1  41
ATOM     41  C   UNL     1      33.137  35.284  13.745  1.00  0.00     0.364 C 
ATOM     42  O   UNL     1      33.817  35.121  14.751  1.00  0.00    -0.246 OA
BRANCH  41  43
ATOM     43  O   UNL     1      33.721  34.863  12.533  1.00  0.00    -0.477 OA
ATOM     44  H   UNL     1      34.695  34.606  12.500  1.00  0.00     0.296 HD
ENDBRANCH  41  43
ENDBRANCH   1  41
BRANCH   3  45
ATOM     45  O   UNL     1      29.385  36.964  15.210  1.00  0.00    -0.391 OA
ATOM     46  H   UNL     1      28.777  37.187  14.447  1.00  0.00     0.211 HD
ENDBRANCH   3  45
BRANCH   5  47
ATOM     47  C   UNL     1      29.771  37.510  11.622  1.00  0.00     0.176 C 
BRANCH  47  48
ATOM     48  O   UNL     1      28.768  36.868  12.374  1.00  0.00    -0.388 OA
ATOM     49  H   UNL     1      28.707  37.230  13.280  1.00  0.00     0.211 HD
ENDBRANCH  47  48
BRANCH  47  50
ATOM     50  C   UNL     1      29.277  38.761  10.980  1.00  0.00     0.165 C 
BRANCH  50  51
ATOM     51  O   UNL     1      28.112  39.141  11.688  1.00  0.00    -0.388 OA
ATOM     52  H   UNL     1      27.958  38.568  12.463  1.00  0.00     0.211 HD
ENDBRANCH  50  51
BRANCH  50  53
ATOM     53  C   UNL     1      28.894  38.679   9.550  1.00  0.00     0.154 C 
BRANCH  53  54
ATOM     54  N   UNL     1      27.933  37.661   9.214  1.00  0.00    -0.319 N 
ATOM     55  C   UNL     1      26.727  37.930   8.512  1.00  0.00     0.407 C 
ATOM     56  H   UNL     1      28.122  36.682   9.490  1.00  0.00     0.167 HD
ATOM     57  O   UNL     1      26.457  39.103   8.153  1.00  0.00    -0.225 OA
BRANCH  55  58
ATOM     58  O   UNL     1      25.830  36.944   8.208  1.00  0.00    -0.443 OA
BRANCH  58  59
ATOM     59  C   UNL     1      25.170  36.095   9.115  1.00  0.00     0.294 C 
BRANCH  59  60
ATOM     60  C   UNL     1      25.216  36.704  10.462  1.00  0.00     0.120 A 
ATOM     61  C   UNL     1      24.231  37.519  10.942  1.00  0.00     0.138 A 
ATOM     62  N   UNL     1      26.148  36.605  11.416  1.00  0.00    -0.132 NA
ATOM     63  N   UNL     1      24.576  37.910  12.191  1.00  0.00    -0.249 N 
ATOM     64  N   UNL     1      25.749  37.337  12.452  1.00  0.00    -0.067 NA
BRANCH  63  65
ATOM     65  C   UNL     1      23.807  38.784  13.055  1.00  0.00     0.109 C 
ATOM     66  C   UNL     1      22.352  38.607  12.633  1.00  0.00     0.027 C 
ATOM     67  C   UNL     1      24.197  40.227  12.826  1.00  0.00     0.027 C 
ATOM     68  C   UNL     1      21.462  39.432  13.563  1.00  0.00     0.002 C 
ATOM     69  C   UNL     1      23.001  41.114  12.544  1.00  0.00     0.002 C 
ATOM     70  C   UNL     1      21.910  40.857  13.539  1.00  0.00     0.000 C 
ENDBRANCH  63  65
ENDBRANCH  59  60
ENDBRANCH  58  59
ENDBRANCH  55  58
ENDBRANCH  53  54
ENDBRANCH  50  53
ENDBRANCH  47  50
ENDBRANCH   5  47
BRANCH   4  71
ATOM     71  N   UNL     1      31.177  39.784  13.969  1.00  0.00    -0.348 N 
ATOM     72  C   UNL     1      30.527  41.026  13.883  1.00  0.00     0.217 C 
ATOM     73  H   UNL     1      32.222  39.848  14.197  1.00  0.00     0.163 HD
ATOM     74  C   UNL     1      31.255  42.321  14.112  1.00  0.00     0.114 C 
ATOM     75  O   UNL     1      29.329  41.110  13.615  1.00  0.00    -0.275 OA
ENDBRANCH   4  71
TORSDOF 30
BEGIN_RES LYS A 131
REMARK  4 active torsions:
REMARK  status: ('A' for Active; 'I' for Inactive)
REMARK    1  A    between atoms: CA   and  CB  
REMARK    2  A    between atoms: CB   and  CG  
REMARK    3  A    between atoms: CG   and  CD  
REMARK    4  A    between atoms: CD   and  CE  
ROOT
ATOM      1  CA  LYS A 131      29.867  25.555  16.977  1.00 20.52     0.186 C 
ENDROOT
BRANCH   1   2
ATOM      2  CB  LYS A 131      28.345  25.722  17.026  1.00 20.94     0.034 C 
BRANCH   2   3
ATOM      3  CG  LYS A 131      27.601  24.402  16.891  1.00 22.96     0.005 C 
BRANCH   3   4
ATOM      4  CD  LYS A 131      26.617  24.190  18.007  1.00 24.33     0.041 C 
BRANCH   4   5
ATOM      5  CE  LYS A 131      25.308  24.898  17.673  1.00 26.91     0.338 C 
ATOM      6  NZ  LYS A 131      24.436  24.020  16.857  1.00 27.40     0.618 N 
ENDBRANCH   4   5
ENDBRANCH   3   4
ENDBRANCH   2   3
ENDBRANCH   1   2
END_RES LYS A 131
BEGIN_RES LYS A 135
REMARK  4 active torsions:
REMARK  status: ('A' for Active; 'I' for Inactive)
REMARK    5  A    between atoms: CA   and  CB  
REMARK    6  A    between atoms: CB   and  CG  
REMARK    7  A    between atoms: CG   and  CD  
REMARK    8  A    between atoms: CD   and  CE  
ROOT
ATOM      7  CA  LYS A 135      33.193  34.663   9.290  1.00 25.02     0.186 C 
ENDROOT
BRANCH   7   8
ATOM      8  CB  LYS A 135      32.060  35.360  10.034  1.00 26.63     0.034 C 
BRANCH   8   9
ATOM      9  CG  LYS A 135      30.738  34.644   9.926  1.00 29.45     0.005 C 
BRANCH   9  10
ATOM     10  CD  LYS A 135      30.395  34.369   8.470  1.00 32.00     0.041 C 
BRANCH  10  11
ATOM     11  CE  LYS A 135      28.907  34.539   8.232  1.00 34.25     0.338 C 
ATOM     12  NZ  LYS A 135      28.114  33.927   9.335  1.00 35.99     0.618 N 
ENDBRANCH  10  11
ENDBRANCH   9  10
ENDBRANCH   8   9
ENDBRANCH   7   8
END_RES LYS A 135
