REMARK VINA RESULT:    -5.116      3.888     11.440
REMARK INTER + INTRA:         -24.514
REMARK INTER:                 -11.160
REMARK INTRA:                 -13.354
REMARK UNBOUND:               -11.174
REMARK SMILES CC(=O)N[C@@H]1[C@@H](O)C[C@](OC[C@H]2O[C@@H](O[C@H]3[C@H](O)[C@@H](O)[C@H](OCCN=[N+]=[N-])O[C@@H]3CO)[C@H](O)[C@@H](O)[C@H]2O)(C(=O)O)O[C@H]1C(O)[C@H](O)CNC(=O)OCc1cn(-c2cc(C(=O)O)nc(-c3ccccc3)c2)nn1
REMARK SMILES IDX 9 1 8 2 6 3 5 4 42 5 41 6 10 7 11 8 12 9 14 10 13 11 32 12
REMARK SMILES IDX 34 13 36 14 15 15 16 16 29 17 28 18 21 19 17 20 19 21 30 22
REMARK SMILES IDX 31 23 22 25 23 26 24 27 25 28 26 29 27 30 18 31 20 33 33 35
REMARK SMILES IDX 35 37 37 39 38 41 39 42 40 43 7 45 43 47 44 48 45 50 46 51
REMARK SMILES IDX 47 53 48 54 49 55 50 57 51 58 52 59 53 60 54 61 72 62 55 63
REMARK SMILES IDX 71 64 56 65 57 66 70 67 58 68 63 69 62 70 59 71 60 72 61 73
REMARK SMILES IDX 64 75 65 76 69 77 66 78 68 79 67 80 4 81 2 82 1 84 3 85
REMARK H PARENT 31 24 18 32 20 34 33 36 35 38 37 40 40 44 7 46 44 49 46 52
REMARK H PARENT 48 56 61 74 4 83
REMARK Flexibility Score: inf
ROOT
ATOM      1  C   UNL     1      25.569  36.665   9.923  1.00  0.00     0.272 C 
ATOM      2  C   UNL     1      24.236  36.373   9.205  1.00  0.00     0.113 C 
ATOM      3  C   UNL     1      23.695  37.524   8.438  1.00  0.00     0.145 C 
ATOM      4  C   UNL     1      23.849  38.857   9.161  1.00  0.00     0.142 C 
ATOM      5  C   UNL     1      24.372  38.474  10.549  1.00  0.00     0.178 C 
ATOM      6  O   UNL     1      25.646  37.992  10.341  1.00  0.00    -0.332 OA
ENDROOT
BRANCH   1   7
ATOM      7  O   UNL     1      26.533  36.425   8.997  1.00  0.00    -0.338 OA
BRANCH   7   8
ATOM      8  C   UNL     1      27.522  37.334   8.805  1.00  0.00     0.199 C 
BRANCH   8   9
ATOM      9  C   UNL     1      27.596  37.749   7.314  1.00  0.00     0.179 C 
ATOM     10  C   UNL     1      27.002  39.559   5.957  1.00  0.00     0.282 C 
ATOM     11  O   UNL     1      26.997  38.962   7.192  1.00  0.00    -0.341 OA
ATOM     12  C   UNL     1      27.980  38.821   5.061  1.00  0.00     0.202 C 
ATOM     13  C   UNL     1      29.310  38.559   5.723  1.00  0.00     0.179 C 
ATOM     14  C   UNL     1      29.083  37.893   7.033  1.00  0.00     0.177 C 
BRANCH  10  15
ATOM     15  O   UNL     1      27.370  40.881   6.127  1.00  0.00    -0.341 OA
BRANCH  15  16
ATOM     16  C   UNL     1      26.847  41.493   7.253  1.00  0.00     0.184 C 
ATOM     17  C   UNL     1      26.519  42.927   7.055  1.00  0.00     0.178 C 
ATOM     18  O   UNL     1      27.257  43.749   7.889  1.00  0.00    -0.341 OA
ATOM     19  C   UNL     1      28.624  43.496   7.809  1.00  0.00     0.281 C 
ATOM     20  C   UNL     1      27.790  41.222   8.390  1.00  0.00     0.180 C 
ATOM     21  C   UNL     1      28.871  42.225   8.591  1.00  0.00     0.202 C 
BRANCH  17  22
ATOM     22  C   UNL     1      25.059  43.161   7.386  1.00  0.00     0.191 C 
BRANCH  22  23
ATOM     23  O   UNL     1      24.708  42.626   8.612  1.00  0.00    -0.394 OA
ATOM     24  H   UNL     1      23.720  42.542   8.664  1.00  0.00     0.210 HD
ENDBRANCH  22  23
ENDBRANCH  17  22
BRANCH  19  25
ATOM     25  O   UNL     1      29.267  44.550   8.440  1.00  0.00    -0.350 OA
BRANCH  25  26
ATOM     26  C   UNL     1      28.367  45.398   9.088  1.00  0.00     0.169 C 
BRANCH  26  27
ATOM     27  C   UNL     1      28.759  45.582  10.532  1.00  0.00     0.119 C 
BRANCH  27  28
ATOM     28  N   UNL     1      28.285  44.455  11.303  1.00  0.00    -0.092 NA
ATOM     29  N   UNL     1      27.100  44.158  11.237  1.00  0.00     0.001 N 
ATOM     30  N   UNL     1      26.060  43.481  11.176  1.00  0.00    -0.003 NA
ENDBRANCH  27  28
ENDBRANCH  26  27
ENDBRANCH  25  26
ENDBRANCH  19  25
BRANCH  20  31
ATOM     31  O   UNL     1      27.014  41.216   9.573  1.00  0.00    -0.387 OA
ATOM     32  H   UNL     1      27.176  40.386  10.088  1.00  0.00     0.211 HD
ENDBRANCH  20  31
BRANCH  21  33
ATOM     33  O   UNL     1      30.099  41.630   8.232  1.00  0.00    -0.385 OA
ATOM     34  H   UNL     1      30.049  41.210   7.330  1.00  0.00     0.211 HD
ENDBRANCH  21  33
ENDBRANCH  15  16
ENDBRANCH  10  15
BRANCH  12  35
ATOM     35  O   UNL     1      27.486  37.613   4.586  1.00  0.00    -0.385 OA
ATOM     36  H   UNL     1      27.674  37.622   3.605  1.00  0.00     0.211 HD
ENDBRANCH  12  35
BRANCH  13  37
ATOM     37  O   UNL     1      29.950  39.793   5.842  1.00  0.00    -0.387 OA
ATOM     38  H   UNL     1      29.278  40.432   6.196  1.00  0.00     0.211 HD
ENDBRANCH  13  37
BRANCH  14  39
ATOM     39  O   UNL     1      29.631  38.737   8.020  1.00  0.00    -0.387 OA
ATOM     40  H   UNL     1      28.954  39.243   8.499  1.00  0.00     0.211 HD
ENDBRANCH  14  39
ENDBRANCH   8   9
ENDBRANCH   7   8
ENDBRANCH   1   7
BRANCH   1  41
ATOM     41  C   UNL     1      25.632  35.824  11.145  1.00  0.00     0.364 C 
ATOM     42  O   UNL     1      24.807  34.897  11.369  1.00  0.00    -0.246 OA
BRANCH  41  43
ATOM     43  O   UNL     1      26.614  36.033  12.086  1.00  0.00    -0.477 OA
ATOM     44  H   UNL     1      27.612  36.129  11.858  1.00  0.00     0.296 HD
ENDBRANCH  41  43
ENDBRANCH   1  41
BRANCH   3  45
ATOM     45  O   UNL     1      24.129  37.574   7.131  1.00  0.00    -0.391 OA
ATOM     46  H   UNL     1      25.104  37.493   7.113  1.00  0.00     0.211 HD
ENDBRANCH   3  45
BRANCH   5  47
ATOM     47  C   UNL     1      24.227  39.545  11.562  1.00  0.00     0.176 C 
BRANCH  47  48
ATOM     48  O   UNL     1      24.596  40.776  10.974  1.00  0.00    -0.388 OA
ATOM     49  H   UNL     1      24.109  41.530  11.434  1.00  0.00     0.211 HD
ENDBRANCH  47  48
BRANCH  47  50
ATOM     50  C   UNL     1      24.978  39.344  12.849  1.00  0.00     0.165 C 
BRANCH  50  51
ATOM     51  O   UNL     1      24.085  39.159  13.885  1.00  0.00    -0.388 OA
ATOM     52  H   UNL     1      24.478  38.646  14.640  1.00  0.00     0.211 HD
ENDBRANCH  50  51
BRANCH  50  53
ATOM     53  C   UNL     1      25.834  40.570  13.049  1.00  0.00     0.154 C 
BRANCH  53  54
ATOM     54  N   UNL     1      27.049  40.614  12.318  1.00  0.00    -0.319 N 
ATOM     55  C   UNL     1      28.286  40.926  12.938  1.00  0.00     0.407 C 
ATOM     56  H   UNL     1      27.066  40.414  11.288  1.00  0.00     0.167 HD
ATOM     57  O   UNL     1      28.310  41.189  14.155  1.00  0.00    -0.225 OA
BRANCH  55  58
ATOM     58  O   UNL     1      29.484  40.939  12.198  1.00  0.00    -0.443 OA
BRANCH  58  59
ATOM     59  C   UNL     1      29.769  39.848  11.359  1.00  0.00     0.294 C 
BRANCH  59  60
ATOM     60  C   UNL     1      29.904  38.593  12.135  1.00  0.00     0.121 A 
ATOM     61  C   UNL     1      30.736  38.287  13.187  1.00  0.00     0.144 A 
ATOM     62  N   UNL     1      29.215  37.434  11.923  1.00  0.00    -0.131 NA
ATOM     63  N   UNL     1      30.556  37.009  13.584  1.00  0.00    -0.220 N 
ATOM     64  N   UNL     1      29.611  36.519  12.782  1.00  0.00    -0.062 NA
BRANCH  63  65
ATOM     65  C   UNL     1      31.254  36.333  14.616  1.00  0.00     0.071 A 
ATOM     66  C   UNL     1      32.448  36.888  15.048  1.00  0.00     0.064 A 
ATOM     67  C   UNL     1      30.833  35.175  15.237  1.00  0.00     0.057 A 
ATOM     68  C   UNL     1      33.152  36.268  16.064  1.00  0.00     0.151 A 
ATOM     69  C   UNL     1      31.531  34.572  16.235  1.00  0.00     0.073 A 
ATOM     70  N   UNL     1      32.688  35.136  16.633  1.00  0.00    -0.241 NA
BRANCH  68  71
ATOM     71  C   UNL     1      34.408  36.828  16.543  1.00  0.00     0.354 C 
ATOM     72  O   UNL     1      34.424  38.038  16.881  1.00  0.00    -0.245 OA
BRANCH  71  73
ATOM     73  O   UNL     1      35.577  36.113  16.648  1.00  0.00    -0.477 OA
ATOM     74  H   UNL     1      35.848  35.610  17.502  1.00  0.00     0.297 HD
ENDBRANCH  71  73
ENDBRANCH  68  71
BRANCH  69  75
ATOM     75  C   UNL     1      31.064  33.351  16.882  1.00  0.00     0.000 A 
ATOM     76  C   UNL     1      30.749  32.263  16.071  1.00  0.00     0.010 A 
ATOM     77  C   UNL     1      30.918  33.212  18.232  1.00  0.00     0.010 A 
ATOM     78  C   UNL     1      30.306  31.076  16.592  1.00  0.00     0.001 A 
ATOM     79  C   UNL     1      30.468  32.009  18.747  1.00  0.00     0.001 A 
ATOM     80  C   UNL     1      30.158  30.938  17.960  1.00  0.00     0.000 A 
ENDBRANCH  69  75
ENDBRANCH  63  65
ENDBRANCH  59  60
ENDBRANCH  58  59
ENDBRANCH  55  58
ENDBRANCH  53  54
ENDBRANCH  50  53
ENDBRANCH  47  50
ENDBRANCH   5  47
BRANCH   4  81
ATOM     81  N   UNL     1      22.629  39.595   9.199  1.00  0.00    -0.348 N 
ATOM     82  C   UNL     1      22.246  40.395   8.092  1.00  0.00     0.217 C 
ATOM     83  H   UNL     1      22.028  39.535  10.053  1.00  0.00     0.163 HD
ATOM     84  C   UNL     1      20.987  41.184   8.074  1.00  0.00     0.114 C 
ATOM     85  O   UNL     1      22.986  40.462   7.052  1.00  0.00    -0.275 OA
ENDBRANCH   4  81
TORSDOF 33
BEGIN_RES LYS A 131
REMARK  4 active torsions:
REMARK  status: ('A' for Active; 'I' for Inactive)
REMARK    1  A    between atoms: CA   and  CB  
REMARK    2  A    between atoms: CB   and  CG  
REMARK    3  A    between atoms: CG   and  CD  
REMARK    4  A    between atoms: CD   and  CE  
ROOT
ATOM      1  CA  LYS A 131      29.867  25.555  16.977  1.00 20.52     0.186 C 
ENDROOT
BRANCH   1   2
ATOM      2  CB  LYS A 131      28.345  25.722  17.026  1.00 20.94     0.034 C 
BRANCH   2   3
ATOM      3  CG  LYS A 131      27.600  24.415  16.802  1.00 22.96     0.005 C 
BRANCH   3   4
ATOM      4  CD  LYS A 131      26.848  23.975  18.028  1.00 24.33     0.041 C 
BRANCH   4   5
ATOM      5  CE  LYS A 131      25.577  23.243  17.609  1.00 26.91     0.338 C 
ATOM      6  NZ  LYS A 131      24.656  24.164  16.902  1.00 27.40     0.618 N 
ENDBRANCH   4   5
ENDBRANCH   3   4
ENDBRANCH   2   3
ENDBRANCH   1   2
END_RES LYS A 131
BEGIN_RES LYS A 135
REMARK  4 active torsions:
REMARK  status: ('A' for Active; 'I' for Inactive)
REMARK    5  A    between atoms: CA   and  CB  
REMARK    6  A    between atoms: CB   and  CG  
REMARK    7  A    between atoms: CG   and  CD  
REMARK    8  A    between atoms: CD   and  CE  
ROOT
ATOM      7  CA  LYS A 135      33.193  34.663   9.290  1.00 25.02     0.186 C 
ENDROOT
BRANCH   7   8
ATOM      8  CB  LYS A 135      32.060  35.360  10.034  1.00 26.63     0.034 C 
BRANCH   8   9
ATOM      9  CG  LYS A 135      30.812  35.531   9.207  1.00 29.45     0.005 C 
BRANCH   9  10
ATOM     10  CD  LYS A 135      30.054  34.216   9.101  1.00 32.00     0.041 C 
BRANCH  10  11
ATOM     11  CE  LYS A 135      28.916  34.175  10.103  1.00 34.25     0.338 C 
ATOM     12  NZ  LYS A 135      27.720  33.500   9.527  1.00 35.99     0.618 N 
ENDBRANCH  10  11
ENDBRANCH   9  10
ENDBRANCH   8   9
ENDBRANCH   7   8
END_RES LYS A 135
