REMARK VINA RESULT:    -3.771      3.540      8.686
REMARK INTER + INTRA:         -22.437
REMARK INTER:                 -12.354
REMARK INTRA:                 -10.084
REMARK UNBOUND:               -13.046
REMARK SMILES CC(=O)N[C@@H]1[C@@H](O)C[C@](OC[C@H]2O[C@@H](O[C@H]3[C@H](O)[C@@H](O)[C@H](OCCN=[N+]=[N-])O[C@@H]3CO)[C@H](O)[C@@H](O)[C@H]2O)(C(=O)O)O[C@H]1C(O)[C@H](O)CNC(=O)OCc1cn(-c2nc(C)nc(N)n2)nn1
REMARK SMILES IDX 9 1 8 2 6 3 5 4 42 5 41 6 10 7 11 8 12 9 14 10 13 11 32 12
REMARK SMILES IDX 34 13 36 14 15 15 16 16 29 17 28 18 21 19 17 20 19 21 30 22
REMARK SMILES IDX 31 23 22 25 23 26 24 27 25 28 26 29 27 30 18 31 20 33 33 35
REMARK SMILES IDX 35 37 37 39 38 41 39 42 40 43 7 45 43 47 44 48 45 50 46 51
REMARK SMILES IDX 47 53 48 54 49 55 50 57 51 58 52 59 53 60 54 61 65 62 55 63
REMARK SMILES IDX 64 64 56 65 63 66 57 67 61 68 58 69 60 70 59 71 62 72 4 75
REMARK SMILES IDX 2 76 1 78 3 79
REMARK H PARENT 31 24 18 32 20 34 33 36 35 38 37 40 40 44 7 46 44 49 46 52
REMARK H PARENT 48 56 62 73 62 74 4 77
REMARK Flexibility Score: inf
ROOT
ATOM      1  C   UNL     1      28.529  39.429  12.426  1.00  0.00     0.272 C 
ATOM      2  C   UNL     1      29.376  40.338  13.249  1.00  0.00     0.113 C 
ATOM      3  C   UNL     1      30.694  39.709  13.582  1.00  0.00     0.145 C 
ATOM      4  C   UNL     1      30.440  38.397  14.276  1.00  0.00     0.142 C 
ATOM      5  C   UNL     1      29.378  37.563  13.597  1.00  0.00     0.178 C 
ATOM      6  O   UNL     1      28.300  38.250  13.186  1.00  0.00    -0.332 OA
ENDROOT
BRANCH   1   7
ATOM      7  O   UNL     1      28.832  39.219  11.194  1.00  0.00    -0.338 OA
BRANCH   7   8
ATOM      8  C   UNL     1      28.461  39.417   9.988  1.00  0.00     0.199 C 
BRANCH   8   9
ATOM      9  C   UNL     1      28.195  38.415   8.917  1.00  0.00     0.179 C 
ATOM     10  C   UNL     1      26.738  37.448   7.546  1.00  0.00     0.282 C 
ATOM     11  O   UNL     1      26.981  38.601   8.340  1.00  0.00    -0.341 OA
ATOM     12  C   UNL     1      27.541  37.697   6.295  1.00  0.00     0.202 C 
ATOM     13  C   UNL     1      29.010  37.688   6.641  1.00  0.00     0.179 C 
ATOM     14  C   UNL     1      29.345  38.064   8.031  1.00  0.00     0.177 C 
BRANCH  10  15
ATOM     15  O   UNL     1      25.406  37.304   7.268  1.00  0.00    -0.341 OA
BRANCH  15  16
ATOM     16  C   UNL     1      24.605  37.183   8.391  1.00  0.00     0.184 C 
ATOM     17  C   UNL     1      24.706  35.878   9.106  1.00  0.00     0.178 C 
ATOM     18  O   UNL     1      23.480  35.254   9.287  1.00  0.00    -0.341 OA
ATOM     19  C   UNL     1      22.506  36.061   9.861  1.00  0.00     0.281 C 
ATOM     20  C   UNL     1      23.165  37.351   7.871  1.00  0.00     0.180 C 
ATOM     21  C   UNL     1      22.260  37.318   9.080  1.00  0.00     0.202 C 
BRANCH  17  22
ATOM     22  C   UNL     1      25.494  35.920  10.389  1.00  0.00     0.191 C 
BRANCH  22  23
ATOM     23  O   UNL     1      25.545  37.274  10.788  1.00  0.00    -0.394 OA
ATOM     24  H   UNL     1      24.845  37.817  10.365  1.00  0.00     0.210 HD
ENDBRANCH  22  23
ENDBRANCH  17  22
BRANCH  19  25
ATOM     25  O   UNL     1      22.764  36.387  11.163  1.00  0.00    -0.350 OA
BRANCH  25  26
ATOM     26  C   UNL     1      22.052  37.412  11.711  1.00  0.00     0.169 C 
BRANCH  26  27
ATOM     27  C   UNL     1      22.562  37.852  13.055  1.00  0.00     0.119 C 
BRANCH  27  28
ATOM     28  N   UNL     1      23.826  37.149  13.314  1.00  0.00    -0.092 NA
ATOM     29  N   UNL     1      24.380  37.385  14.385  1.00  0.00     0.001 N 
ATOM     30  N   UNL     1      25.339  37.720  15.114  1.00  0.00    -0.003 NA
ENDBRANCH  27  28
ENDBRANCH  26  27
ENDBRANCH  25  26
ENDBRANCH  19  25
BRANCH  20  31
ATOM     31  O   UNL     1      23.061  38.524   7.153  1.00  0.00    -0.387 OA
ATOM     32  H   UNL     1      22.913  39.305   7.754  1.00  0.00     0.211 HD
ENDBRANCH  20  31
BRANCH  21  33
ATOM     33  O   UNL     1      20.948  37.395   8.612  1.00  0.00    -0.385 OA
ATOM     34  H   UNL     1      20.472  36.537   8.738  1.00  0.00     0.211 HD
ENDBRANCH  21  33
ENDBRANCH  15  16
ENDBRANCH  10  15
BRANCH  12  35
ATOM     35  O   UNL     1      27.262  36.783   5.282  1.00  0.00    -0.385 OA
ATOM     36  H   UNL     1      26.736  36.043   5.679  1.00  0.00     0.211 HD
ENDBRANCH  12  35
BRANCH  13  37
ATOM     37  O   UNL     1      29.658  38.462   5.675  1.00  0.00    -0.387 OA
ATOM     38  H   UNL     1      29.032  39.004   5.134  1.00  0.00     0.211 HD
ENDBRANCH  13  37
BRANCH  14  39
ATOM     39  O   UNL     1      30.396  38.974   8.036  1.00  0.00    -0.387 OA
ATOM     40  H   UNL     1      30.584  39.167   9.004  1.00  0.00     0.211 HD
ENDBRANCH  14  39
ENDBRANCH   8   9
ENDBRANCH   7   8
ENDBRANCH   1   7
BRANCH   1  41
ATOM     41  C   UNL     1      27.122  40.080  12.553  1.00  0.00     0.364 C 
ATOM     42  O   UNL     1      27.099  41.298  12.676  1.00  0.00    -0.246 OA
BRANCH  41  43
ATOM     43  O   UNL     1      26.003  39.308  12.526  1.00  0.00    -0.477 OA
ATOM     44  H   UNL     1      26.015  38.282  12.613  1.00  0.00     0.296 HD
ENDBRANCH  41  43
ENDBRANCH   1  41
BRANCH   3  45
ATOM     45  O   UNL     1      31.487  39.439  12.490  1.00  0.00    -0.391 OA
ATOM     46  H   UNL     1      32.422  39.671  12.632  1.00  0.00     0.211 HD
ENDBRANCH   3  45
BRANCH   5  47
ATOM     47  C   UNL     1      29.935  36.590  12.586  1.00  0.00     0.176 C 
BRANCH  47  48
ATOM     48  O   UNL     1      31.302  36.753  12.449  1.00  0.00    -0.388 OA
ATOM     49  H   UNL     1      31.826  35.933  12.484  1.00  0.00     0.211 HD
ENDBRANCH  47  48
BRANCH  47  50
ATOM     50  C   UNL     1      29.592  35.195  13.004  1.00  0.00     0.165 C 
BRANCH  50  51
ATOM     51  O   UNL     1      28.738  35.258  14.120  1.00  0.00    -0.388 OA
ATOM     52  H   UNL     1      28.976  36.041  14.647  1.00  0.00     0.211 HD
ENDBRANCH  50  51
BRANCH  50  53
ATOM     53  C   UNL     1      30.753  34.331  13.361  1.00  0.00     0.154 C 
BRANCH  53  54
ATOM     54  N   UNL     1      30.362  33.162  14.118  1.00  0.00    -0.319 N 
ATOM     55  C   UNL     1      30.990  32.737  15.304  1.00  0.00     0.407 C 
ATOM     56  H   UNL     1      29.551  32.562  13.785  1.00  0.00     0.167 HD
ATOM     57  O   UNL     1      31.942  33.370  15.772  1.00  0.00    -0.225 OA
BRANCH  55  58
ATOM     58  O   UNL     1      30.575  31.600  15.991  1.00  0.00    -0.443 OA
BRANCH  58  59
ATOM     59  C   UNL     1      29.589  31.605  16.991  1.00  0.00     0.294 C 
BRANCH  59  60
ATOM     60  C   UNL     1      28.294  31.050  16.495  1.00  0.00     0.121 A 
ATOM     61  C   UNL     1      27.437  31.652  15.597  1.00  0.00     0.148 A 
ATOM     62  N   UNL     1      27.728  29.874  16.830  1.00  0.00    -0.131 NA
ATOM     63  N   UNL     1      26.386  30.834  15.415  1.00  0.00    -0.185 N 
ATOM     64  N   UNL     1      26.589  29.772  16.168  1.00  0.00    -0.059 NA
BRANCH  63  65
ATOM     65  C   UNL     1      25.294  31.121  14.553  1.00  0.00     0.257 A 
ATOM     66  N   UNL     1      25.001  32.403  14.261  1.00  0.00    -0.175 NA
ATOM     67  N   UNL     1      24.515  30.181  13.990  1.00  0.00    -0.196 NA
ATOM     68  C   UNL     1      23.971  32.736  13.442  1.00  0.00     0.225 A 
ATOM     69  C   UNL     1      23.492  30.471  13.178  1.00  0.00     0.133 A 
ATOM     70  N   UNL     1      23.225  31.744  12.908  1.00  0.00    -0.198 NA
ATOM     71  C   UNL     1      22.645  29.385  12.571  1.00  0.00     0.090 C 
BRANCH  68  72
ATOM     72  N   UNL     1      23.706  34.097  13.168  1.00  0.00    -0.368 N 
ATOM     73  H   UNL     1      24.475  34.786  13.048  1.00  0.00     0.159 HD
ATOM     74  H   UNL     1      22.730  34.438  13.082  1.00  0.00     0.159 HD
ENDBRANCH  68  72
ENDBRANCH  63  65
ENDBRANCH  59  60
ENDBRANCH  58  59
ENDBRANCH  55  58
ENDBRANCH  53  54
ENDBRANCH  50  53
ENDBRANCH  47  50
ENDBRANCH   5  47
BRANCH   4  75
ATOM     75  N   UNL     1      30.061  38.664  15.648  1.00  0.00    -0.348 N 
ATOM     76  C   UNL     1      30.115  37.638  16.633  1.00  0.00     0.217 C 
ATOM     77  H   UNL     1      29.736  39.611  15.969  1.00  0.00     0.163 HD
ATOM     78  C   UNL     1      29.726  37.926  18.020  1.00  0.00     0.114 C 
ATOM     79  O   UNL     1      30.494  36.492  16.310  1.00  0.00    -0.275 OA
ENDBRANCH   4  75
TORSDOF 31
BEGIN_RES LYS A 131
REMARK  4 active torsions:
REMARK  status: ('A' for Active; 'I' for Inactive)
REMARK    1  A    between atoms: CA   and  CB  
REMARK    2  A    between atoms: CB   and  CG  
REMARK    3  A    between atoms: CG   and  CD  
REMARK    4  A    between atoms: CD   and  CE  
ROOT
ATOM      1  CA  LYS A 131      29.867  25.555  16.977  1.00 20.52     0.186 C 
ENDROOT
BRANCH   1   2
ATOM      2  CB  LYS A 131      28.345  25.722  17.026  1.00 20.94     0.034 C 
BRANCH   2   3
ATOM      3  CG  LYS A 131      27.600  24.417  16.793  1.00 22.96     0.005 C 
BRANCH   3   4
ATOM      4  CD  LYS A 131      26.839  23.973  18.011  1.00 24.33     0.041 C 
BRANCH   4   5
ATOM      5  CE  LYS A 131      25.727  24.974  18.310  1.00 26.91     0.338 C 
ATOM      6  NZ  LYS A 131      24.693  24.932  17.250  1.00 27.40     0.618 N 
ENDBRANCH   4   5
ENDBRANCH   3   4
ENDBRANCH   2   3
ENDBRANCH   1   2
END_RES LYS A 131
BEGIN_RES LYS A 135
REMARK  4 active torsions:
REMARK  status: ('A' for Active; 'I' for Inactive)
REMARK    5  A    between atoms: CA   and  CB  
REMARK    6  A    between atoms: CB   and  CG  
REMARK    7  A    between atoms: CG   and  CD  
REMARK    8  A    between atoms: CD   and  CE  
ROOT
ATOM      7  CA  LYS A 135      33.193  34.663   9.290  1.00 25.02     0.186 C 
ENDROOT
BRANCH   7   8
ATOM      8  CB  LYS A 135      32.060  35.360  10.034  1.00 26.63     0.034 C 
BRANCH   8   9
ATOM      9  CG  LYS A 135      30.747  35.332   9.295  1.00 29.45     0.005 C 
BRANCH   9  10
ATOM     10  CD  LYS A 135      30.122  33.947   9.364  1.00 32.00     0.041 C 
BRANCH  10  11
ATOM     11  CE  LYS A 135      28.617  34.050   9.525  1.00 34.25     0.338 C 
ATOM     12  NZ  LYS A 135      27.967  34.452   8.247  1.00 35.99     0.618 N 
ENDBRANCH  10  11
ENDBRANCH   9  10
ENDBRANCH   8   9
ENDBRANCH   7   8
END_RES LYS A 135
