REMARK VINA RESULT:    -7.754      2.457      4.276
REMARK INTER + INTRA:         -22.106
REMARK INTER:                  -9.531
REMARK INTRA:                 -12.574
REMARK UNBOUND:                -1.206
REMARK SMILES CC(=O)N[C@@H]1[C@@H](O)C[C@](OC[C@H]2O[C@@H](O[C@H]3[C@H](O)[C@@H](O)[C@H](OCCN=[N+]=[N-])O[C@@H]3CO)[C@H](O)[C@@H](O)[C@H]2O)(C(=O)O)O[C@H]1C(O)[C@H](O)CNC(=O)OCc1cn(C2CCc3ccccc3NC2=O)nn1
REMARK SMILES IDX 43 1 42 2 9 3 8 4 41 5 6 6 5 7 10 8 11 9 12 10 14 11 13 12
REMARK SMILES IDX 32 13 34 14 36 15 15 16 16 17 29 18 28 19 21 20 17 21 19 22
REMARK SMILES IDX 30 23 31 24 22 26 23 27 24 28 25 29 26 30 27 31 18 32 20 34
REMARK SMILES IDX 33 36 35 38 37 40 38 42 39 43 40 44 7 46 4 48 2 49 1 51 3 52
REMARK SMILES IDX 44 53 45 55 46 56 47 58 48 59 49 60 50 62 51 63 52 64 53 65
REMARK SMILES IDX 54 66 69 67 55 68 68 69 56 70 57 71 66 73 65 74 67 75 64 77
REMARK SMILES IDX 59 78 63 79 60 80 62 81 61 82 58 83
REMARK H PARENT 31 25 18 33 20 35 33 37 35 39 37 41 40 45 7 47 4 50 44 54
REMARK H PARENT 46 57 48 61 65 76
REMARK Flexibility Score: 90.00
ROOT
ATOM      1  C   UNL     1      28.597  34.708  13.440  1.00  0.00     0.176 C 
ENDROOT
BRANCH   1   2
ATOM      2  C   UNL     1      29.337  35.753  14.299  1.00  0.00     0.178 C 
ATOM      3  C   UNL     1      30.796  37.391  13.362  1.00  0.00     0.272 C 
ATOM      4  C   UNL     1      31.958  36.752  14.006  1.00  0.00     0.113 C 
ATOM      5  O   UNL     1      29.528  36.912  13.695  1.00  0.00    -0.332 OA
ATOM      6  C   UNL     1      31.781  35.284  14.197  1.00  0.00     0.145 C 
ATOM      7  C   UNL     1      30.494  35.081  14.985  1.00  0.00     0.142 C 
BRANCH   3   8
ATOM      8  O   UNL     1      30.813  37.430  12.012  1.00  0.00    -0.338 OA
BRANCH   8   9
ATOM      9  C   UNL     1      31.875  37.685  11.265  1.00  0.00     0.199 C 
BRANCH   9  10
ATOM     10  C   UNL     1      31.894  38.480  10.033  1.00  0.00     0.179 C 
ATOM     11  C   UNL     1      30.593  38.820   8.151  1.00  0.00     0.282 C 
ATOM     12  O   UNL     1      30.587  38.334   9.458  1.00  0.00    -0.341 OA
ATOM     13  C   UNL     1      31.712  39.715   7.792  1.00  0.00     0.202 C 
ATOM     14  C   UNL     1      32.294  40.556   8.876  1.00  0.00     0.179 C 
ATOM     15  C   UNL     1      31.963  39.993  10.235  1.00  0.00     0.177 C 
BRANCH  11  16
ATOM     16  O   UNL     1      29.316  39.349   7.872  1.00  0.00    -0.341 OA
BRANCH  16  17
ATOM     17  C   UNL     1      28.306  38.587   8.397  1.00  0.00     0.184 C 
ATOM     18  C   UNL     1      27.162  38.293   7.462  1.00  0.00     0.178 C 
ATOM     19  O   UNL     1      26.334  37.397   8.142  1.00  0.00    -0.341 OA
ATOM     20  C   UNL     1      25.566  38.038   9.103  1.00  0.00     0.281 C 
ATOM     21  C   UNL     1      27.701  39.246   9.628  1.00  0.00     0.180 C 
ATOM     22  C   UNL     1      26.216  39.281   9.636  1.00  0.00     0.202 C 
BRANCH  18  23
ATOM     23  C   UNL     1      27.625  37.585   6.205  1.00  0.00     0.191 C 
BRANCH  23  24
ATOM     24  O   UNL     1      26.637  36.751   5.686  1.00  0.00    -0.394 OA
ATOM     25  H   UNL     1      26.510  36.859   4.719  1.00  0.00     0.210 HD
ENDBRANCH  23  24
ENDBRANCH  18  23
BRANCH  20  26
ATOM     26  O   UNL     1      25.264  37.130  10.101  1.00  0.00    -0.350 OA
BRANCH  26  27
ATOM     27  C   UNL     1      24.723  35.963   9.589  1.00  0.00     0.169 C 
BRANCH  27  28
ATOM     28  C   UNL     1      23.253  35.798   9.810  1.00  0.00     0.119 C 
BRANCH  28  29
ATOM     29  N   UNL     1      22.542  36.231   8.619  1.00  0.00    -0.092 NA
ATOM     30  N   UNL     1      21.541  35.625   8.195  1.00  0.00     0.001 N 
ATOM     31  N   UNL     1      20.358  35.254   8.192  1.00  0.00    -0.003 NA
ENDBRANCH  28  29
ENDBRANCH  27  28
ENDBRANCH  26  27
ENDBRANCH  20  26
BRANCH  21  32
ATOM     32  O   UNL     1      28.235  38.710  10.809  1.00  0.00    -0.387 OA
ATOM     33  H   UNL     1      27.575  38.837  11.538  1.00  0.00     0.211 HD
ENDBRANCH  21  32
BRANCH  22  34
ATOM     34  O   UNL     1      25.695  40.405   8.952  1.00  0.00    -0.385 OA
ATOM     35  H   UNL     1      24.765  40.277   8.687  1.00  0.00     0.211 HD
ENDBRANCH  22  34
ENDBRANCH  16  17
ENDBRANCH  11  16
BRANCH  13  36
ATOM     36  O   UNL     1      32.682  39.002   7.080  1.00  0.00    -0.385 OA
ATOM     37  H   UNL     1      32.483  38.031   7.127  1.00  0.00     0.211 HD
ENDBRANCH  13  36
BRANCH  14  38
ATOM     38  O   UNL     1      31.963  41.905   8.761  1.00  0.00    -0.387 OA
ATOM     39  H   UNL     1      30.979  41.936   8.628  1.00  0.00     0.211 HD
ENDBRANCH  14  38
BRANCH  15  40
ATOM     40  O   UNL     1      30.689  40.457  10.647  1.00  0.00    -0.387 OA
ATOM     41  H   UNL     1      30.061  40.153   9.956  1.00  0.00     0.211 HD
ENDBRANCH  15  40
ENDBRANCH   9  10
ENDBRANCH   8   9
ENDBRANCH   3   8
BRANCH   3  42
ATOM     42  C   UNL     1      30.713  38.785  13.945  1.00  0.00     0.364 C 
ATOM     43  O   UNL     1      31.131  39.044  15.050  1.00  0.00    -0.246 OA
BRANCH  42  44
ATOM     44  O   UNL     1      30.136  39.814  13.193  1.00  0.00    -0.477 OA
ATOM     45  H   UNL     1      30.686  40.461  12.653  1.00  0.00     0.296 HD
ENDBRANCH  42  44
ENDBRANCH   3  42
BRANCH   6  46
ATOM     46  O   UNL     1      31.655  34.708  12.922  1.00  0.00    -0.391 OA
ATOM     47  H   UNL     1      31.051  33.947  12.905  1.00  0.00     0.211 HD
ENDBRANCH   6  46
BRANCH   7  48
ATOM     48  N   UNL     1      30.726  35.493  16.329  1.00  0.00    -0.348 N 
ATOM     49  C   UNL     1      30.097  34.821  17.414  1.00  0.00     0.217 C 
ATOM     50  H   UNL     1      31.359  36.297  16.551  1.00  0.00     0.163 HD
ATOM     51  C   UNL     1      30.306  35.215  18.833  1.00  0.00     0.114 C 
ATOM     52  O   UNL     1      29.349  33.873  17.147  1.00  0.00    -0.275 OA
ENDBRANCH   7  48
ENDBRANCH   1   2
BRANCH   1  53
ATOM     53  O   UNL     1      28.011  33.753  14.278  1.00  0.00    -0.388 OA
ATOM     54  H   UNL     1      27.063  33.928  14.467  1.00  0.00     0.211 HD
ENDBRANCH   1  53
BRANCH   1  55
ATOM     55  C   UNL     1      27.529  35.297  12.592  1.00  0.00     0.165 C 
BRANCH  55  56
ATOM     56  O   UNL     1      27.979  36.099  11.550  1.00  0.00    -0.388 OA
ATOM     57  H   UNL     1      27.772  37.042  11.786  1.00  0.00     0.211 HD
ENDBRANCH  55  56
BRANCH  55  58
ATOM     58  C   UNL     1      26.455  36.049  13.307  1.00  0.00     0.154 C 
BRANCH  58  59
ATOM     59  N   UNL     1      26.197  37.370  12.821  1.00  0.00    -0.319 N 
ATOM     60  C   UNL     1      26.340  38.546  13.594  1.00  0.00     0.407 C 
ATOM     61  H   UNL     1      25.884  37.476  11.834  1.00  0.00     0.167 HD
ATOM     62  O   UNL     1      26.714  38.493  14.790  1.00  0.00    -0.225 OA
BRANCH  60  63
ATOM     63  O   UNL     1      26.062  39.763  13.017  1.00  0.00    -0.443 OA
BRANCH  63  64
ATOM     64  C   UNL     1      26.236  40.979  13.656  1.00  0.00     0.294 C 
BRANCH  64  65
ATOM     65  C   UNL     1      27.446  41.651  13.176  1.00  0.00     0.120 A 
ATOM     66  C   UNL     1      28.354  42.343  13.939  1.00  0.00     0.139 A 
ATOM     67  N   UNL     1      27.913  41.735  11.907  1.00  0.00    -0.132 NA
ATOM     68  N   UNL     1      29.338  42.824  13.139  1.00  0.00    -0.240 N 
ATOM     69  N   UNL     1      29.035  42.437  11.917  1.00  0.00    -0.066 NA
BRANCH  68  70
ATOM     70  C   UNL     1      30.506  43.618  13.555  1.00  0.00     0.198 C 
BRANCH  70  71
ATOM     71  C   UNL     1      30.097  44.354  14.776  1.00  0.00     0.042 CG0
ATOM     72  G   UNL     1      31.186  44.854  15.660  1.00  0.00     0.000 G0
ENDBRANCH  70  71
BRANCH  70  73
ATOM     73  C   UNL     1      31.604  42.659  13.708  1.00  0.00     0.249 C 
ATOM     74  N   UNL     1      32.092  42.001  14.867  1.00  0.00    -0.324 N 
ATOM     75  O   UNL     1      32.209  42.377  12.638  1.00  0.00    -0.272 OA
ATOM     76  H   UNL     1      32.610  41.102  14.753  1.00  0.00     0.170 HD
BRANCH  74  77
ATOM     77  C   UNL     1      31.913  42.499  16.210  1.00  0.00     0.044 A 
ATOM     78  C   UNL     1      31.510  43.761  16.630  1.00  0.00    -0.024 A 
ATOM     79  C   UNL     1      32.201  41.535  17.152  1.00  0.00     0.026 A 
ATOM     80  C   UNL     1      31.390  44.074  17.964  1.00  0.00     0.006 A 
ATOM     81  C   UNL     1      32.088  41.823  18.498  1.00  0.00     0.002 A 
ATOM     82  C   UNL     1      31.680  43.102  18.889  1.00  0.00     0.000 A 
BRANCH  78  83
ATOM     83  C   UNL     1      31.176  44.870  15.691  1.00  0.00     0.040 CG0
ATOM     84  G   UNL     1      30.110  44.363  14.783  1.00  0.00     0.000 G0
ENDBRANCH  78  83
ENDBRANCH  74  77
ENDBRANCH  70  73
ENDBRANCH  68  70
ENDBRANCH  64  65
ENDBRANCH  63  64
ENDBRANCH  60  63
ENDBRANCH  58  59
ENDBRANCH  55  58
ENDBRANCH   1  55
TORSDOF 30
BEGIN_RES LYS A 131
REMARK  4 active torsions:
REMARK  status: ('A' for Active; 'I' for Inactive)
REMARK    1  A    between atoms: CA   and  CB  
REMARK    2  A    between atoms: CB   and  CG  
REMARK    3  A    between atoms: CG   and  CD  
REMARK    4  A    between atoms: CD   and  CE  
ROOT
ATOM      1  CA  LYS A 131      29.867  25.555  16.977  1.00 20.52     0.186 C 
ENDROOT
BRANCH   1   2
ATOM      2  CB  LYS A 131      28.345  25.722  17.026  1.00 20.94     0.034 C 
BRANCH   2   3
ATOM      3  CG  LYS A 131      27.599  24.425  16.750  1.00 22.96     0.005 C 
BRANCH   3   4
ATOM      4  CD  LYS A 131      26.991  23.846  17.997  1.00 24.33     0.041 C 
BRANCH   4   5
ATOM      5  CE  LYS A 131      25.581  23.350  17.693  1.00 26.91     0.338 C 
ATOM      6  NZ  LYS A 131      24.824  24.374  16.934  1.00 27.40     0.618 N 
ENDBRANCH   4   5
ENDBRANCH   3   4
ENDBRANCH   2   3
ENDBRANCH   1   2
END_RES LYS A 131
BEGIN_RES LYS A 135
REMARK  4 active torsions:
REMARK  status: ('A' for Active; 'I' for Inactive)
REMARK    5  A    between atoms: CA   and  CB  
REMARK    6  A    between atoms: CB   and  CG  
REMARK    7  A    between atoms: CG   and  CD  
REMARK    8  A    between atoms: CD   and  CE  
ROOT
ATOM      7  CA  LYS A 135      33.193  34.663   9.290  1.00 25.02     0.186 C 
ENDROOT
BRANCH   7   8
ATOM      8  CB  LYS A 135      32.060  35.360  10.034  1.00 26.63     0.034 C 
BRANCH   8   9
ATOM      9  CG  LYS A 135      30.697  34.800   9.717  1.00 29.45     0.005 C 
BRANCH   9  10
ATOM     10  CD  LYS A 135      30.572  34.501   8.231  1.00 32.00     0.041 C 
BRANCH  10  11
ATOM     11  CE  LYS A 135      29.246  35.006   7.696  1.00 34.25     0.338 C 
ATOM     12  NZ  LYS A 135      28.110  34.501   8.517  1.00 35.99     0.618 N 
ENDBRANCH  10  11
ENDBRANCH   9  10
ENDBRANCH   8   9
ENDBRANCH   7   8
END_RES LYS A 135
