REMARK VINA RESULT:    -5.970      0.000      0.000
REMARK INTER + INTRA:         -22.921
REMARK INTER:                 -11.903
REMARK INTRA:                 -11.018
REMARK UNBOUND:                -8.226
REMARK SMILES CC(=O)N[C@@H]1[C@@H](O)C[C@](OC[C@H]2O[C@@H](O[C@H]3[C@H](O)[C@@H](O)[C@H](OCCN=[N+]=[N-])O[C@@H]3CO)[C@H](O)[C@@H](O)[C@H]2O)(C(=O)O)O[C@H]1C(O)[C@H](O)CNC(=O)OCc1cn(-c2ccccc2Br)nn1
REMARK SMILES IDX 9 1 8 2 6 3 5 4 42 5 41 6 10 7 11 8 12 9 14 10 13 11 32 12
REMARK SMILES IDX 34 13 36 14 15 15 16 16 29 17 28 18 21 19 17 20 19 21 30 22
REMARK SMILES IDX 31 23 22 25 23 26 24 27 25 28 26 29 27 30 18 31 20 33 33 35
REMARK SMILES IDX 35 37 37 39 38 41 39 42 40 43 7 45 43 47 44 48 45 50 46 51
REMARK SMILES IDX 47 53 48 54 49 55 50 57 51 58 52 59 53 60 54 61 64 62 55 63
REMARK SMILES IDX 63 64 56 65 57 66 61 67 58 68 60 69 62 70 59 71 4 72 2 73
REMARK SMILES IDX 1 75 3 76
REMARK H PARENT 31 24 18 32 20 34 33 36 35 38 37 40 40 44 7 46 44 49 46 52
REMARK H PARENT 48 56 4 74
REMARK Flexibility Score: inf
ROOT
ATOM      1  C   UNL     1      26.877  38.969   7.677  1.00  0.00     0.272 C 
ATOM      2  C   UNL     1      27.563  38.146   6.653  1.00  0.00     0.113 C 
ATOM      3  C   UNL     1      28.891  38.715   6.273  1.00  0.00     0.145 C 
ATOM      4  C   UNL     1      29.741  39.182   7.401  1.00  0.00     0.142 C 
ATOM      5  C   UNL     1      28.982  39.281   8.677  1.00  0.00     0.178 C 
ATOM      6  O   UNL     1      27.671  39.611   8.603  1.00  0.00    -0.332 OA
ENDROOT
BRANCH   1   7
ATOM      7  O   UNL     1      25.933  38.307   8.440  1.00  0.00    -0.338 OA
BRANCH   7   8
ATOM      8  C   UNL     1      25.759  36.984   8.213  1.00  0.00     0.199 C 
BRANCH   8   9
ATOM      9  C   UNL     1      24.237  36.710   8.293  1.00  0.00     0.179 C 
ATOM     10  C   UNL     1      22.794  35.453   9.590  1.00  0.00     0.282 C 
ATOM     11  O   UNL     1      23.963  35.534   8.881  1.00  0.00    -0.341 OA
ATOM     12  C   UNL     1      21.652  36.192   8.929  1.00  0.00     0.202 C 
ATOM     13  C   UNL     1      22.016  37.640   8.683  1.00  0.00     0.179 C 
ATOM     14  C   UNL     1      23.506  37.864   8.852  1.00  0.00     0.177 C 
BRANCH  10  15
ATOM     15  O   UNL     1      22.945  35.797  10.925  1.00  0.00    -0.341 OA
BRANCH  15  16
ATOM     16  C   UNL     1      23.434  34.789  11.723  1.00  0.00     0.184 C 
ATOM     17  C   UNL     1      22.580  34.481  12.929  1.00  0.00     0.178 C 
ATOM     18  O   UNL     1      22.962  33.223  13.369  1.00  0.00    -0.341 OA
ATOM     19  C   UNL     1      24.273  33.096  13.698  1.00  0.00     0.281 C 
ATOM     20  C   UNL     1      24.793  35.161  12.307  1.00  0.00     0.180 C 
ATOM     21  C   UNL     1      25.203  34.170  13.316  1.00  0.00     0.202 C 
BRANCH  17  22
ATOM     22  C   UNL     1      21.110  34.493  12.671  1.00  0.00     0.191 C 
BRANCH  22  23
ATOM     23  O   UNL     1      20.826  33.615  11.627  1.00  0.00    -0.394 OA
ATOM     24  H   UNL     1      21.438  32.860  11.654  1.00  0.00     0.210 HD
ENDBRANCH  22  23
ENDBRANCH  17  22
BRANCH  19  25
ATOM     25  O   UNL     1      24.716  31.892  13.101  1.00  0.00    -0.350 OA
BRANCH  25  26
ATOM     26  C   UNL     1      24.762  30.837  13.968  1.00  0.00     0.169 C 
BRANCH  26  27
ATOM     27  C   UNL     1      24.970  31.192  15.407  1.00  0.00     0.119 C 
BRANCH  27  28
ATOM     28  N   UNL     1      26.405  31.283  15.624  1.00  0.00    -0.092 NA
ATOM     29  N   UNL     1      27.041  30.289  15.942  1.00  0.00     0.001 N 
ATOM     30  N   UNL     1      27.709  29.293  16.192  1.00  0.00    -0.003 NA
ENDBRANCH  27  28
ENDBRANCH  26  27
ENDBRANCH  25  26
ENDBRANCH  19  25
BRANCH  20  31
ATOM     31  O   UNL     1      25.759  35.265  11.320  1.00  0.00    -0.387 OA
ATOM     32  H   UNL     1      26.402  35.996  11.478  1.00  0.00     0.211 HD
ENDBRANCH  20  31
BRANCH  21  33
ATOM     33  O   UNL     1      25.607  34.923  14.458  1.00  0.00    -0.385 OA
ATOM     34  H   UNL     1      26.397  34.516  14.886  1.00  0.00     0.211 HD
ENDBRANCH  21  33
ENDBRANCH  15  16
ENDBRANCH  10  15
BRANCH  12  35
ATOM     35  O   UNL     1      21.231  35.548   7.764  1.00  0.00    -0.385 OA
ATOM     36  H   UNL     1      20.657  36.133   7.213  1.00  0.00     0.211 HD
ENDBRANCH  12  35
BRANCH  13  37
ATOM     37  O   UNL     1      21.246  38.485   9.458  1.00  0.00    -0.387 OA
ATOM     38  H   UNL     1      20.760  39.125   8.900  1.00  0.00     0.211 HD
ENDBRANCH  13  37
BRANCH  14  39
ATOM     39  O   UNL     1      23.750  38.098  10.195  1.00  0.00    -0.387 OA
ATOM     40  H   UNL     1      22.981  37.872  10.772  1.00  0.00     0.211 HD
ENDBRANCH  14  39
ENDBRANCH   8   9
ENDBRANCH   7   8
ENDBRANCH   1   7
BRANCH   1  41
ATOM     41  C   UNL     1      26.222  40.108   6.917  1.00  0.00     0.364 C 
ATOM     42  O   UNL     1      26.680  41.253   7.123  1.00  0.00    -0.246 OA
BRANCH  41  43
ATOM     43  O   UNL     1      25.185  39.941   6.048  1.00  0.00    -0.477 OA
ATOM     44  H   UNL     1      25.314  40.133   5.042  1.00  0.00     0.296 HD
ENDBRANCH  41  43
ENDBRANCH   1  41
BRANCH   3  45
ATOM     45  O   UNL     1      29.572  37.753   5.492  1.00  0.00    -0.391 OA
ATOM     46  H   UNL     1      29.556  36.896   6.000  1.00  0.00     0.211 HD
ENDBRANCH   3  45
BRANCH   5  47
ATOM     47  C   UNL     1      29.299  38.113   9.611  1.00  0.00     0.176 C 
BRANCH  47  48
ATOM     48  O   UNL     1      28.220  37.695  10.349  1.00  0.00    -0.388 OA
ATOM     49  H   UNL     1      28.506  37.190  11.166  1.00  0.00     0.211 HD
ENDBRANCH  47  48
BRANCH  47  50
ATOM     50  C   UNL     1      30.426  38.479  10.591  1.00  0.00     0.165 C 
BRANCH  50  51
ATOM     51  O   UNL     1      30.455  37.517  11.568  1.00  0.00    -0.388 OA
ATOM     52  H   UNL     1      29.801  37.594  12.284  1.00  0.00     0.211 HD
ENDBRANCH  50  51
BRANCH  50  53
ATOM     53  C   UNL     1      30.194  39.838  11.165  1.00  0.00     0.154 C 
BRANCH  53  54
ATOM     54  N   UNL     1      29.579  39.788  12.447  1.00  0.00    -0.319 N 
ATOM     55  C   UNL     1      28.227  40.030  12.768  1.00  0.00     0.407 C 
ATOM     56  H   UNL     1      30.198  39.538  13.283  1.00  0.00     0.167 HD
ATOM     57  O   UNL     1      27.409  40.313  11.887  1.00  0.00    -0.225 OA
BRANCH  55  58
ATOM     58  O   UNL     1      27.786  39.954  14.088  1.00  0.00    -0.443 OA
BRANCH  58  59
ATOM     59  C   UNL     1      27.129  38.843  14.650  1.00  0.00     0.294 C 
BRANCH  59  60
ATOM     60  C   UNL     1      27.759  37.561  14.198  1.00  0.00     0.121 A 
ATOM     61  C   UNL     1      28.552  36.744  15.004  1.00  0.00     0.144 A 
ATOM     62  N   UNL     1      27.715  36.973  13.014  1.00  0.00    -0.131 NA
ATOM     63  N   UNL     1      28.942  35.703  14.253  1.00  0.00    -0.219 N 
ATOM     64  N   UNL     1      28.434  35.846  13.054  1.00  0.00    -0.062 NA
BRANCH  63  65
ATOM     65  C   UNL     1      29.765  34.626  14.667  1.00  0.00     0.081 A 
ATOM     66  C   UNL     1      29.252  33.366  14.881  1.00  0.00     0.029 A 
ATOM     67  C   UNL     1      31.105  34.821  14.864  1.00  0.00     0.043 A 
ATOM     68  C   UNL     1      30.092  32.332  15.286  1.00  0.00     0.002 A 
ATOM     69  C   UNL     1      31.939  33.805  15.266  1.00  0.00     0.018 A 
ATOM     70  Br  UNL     1      31.853  36.551  14.585  1.00  0.00    -0.048 Br
ATOM     71  C   UNL     1      31.440  32.543  15.481  1.00  0.00     0.001 A 
ENDBRANCH  63  65
ENDBRANCH  59  60
ENDBRANCH  58  59
ENDBRANCH  55  58
ENDBRANCH  53  54
ENDBRANCH  50  53
ENDBRANCH  47  50
ENDBRANCH   5  47
BRANCH   4  72
ATOM     72  N   UNL     1      30.421  40.427   7.124  1.00  0.00    -0.348 N 
ATOM     73  C   UNL     1      31.799  40.592   7.407  1.00  0.00     0.217 C 
ATOM     74  H   UNL     1      29.902  41.225   6.709  1.00  0.00     0.163 HD
ATOM     75  C   UNL     1      32.421  41.912   7.089  1.00  0.00     0.114 C 
ATOM     76  O   UNL     1      32.488  39.682   7.905  1.00  0.00    -0.275 OA
ENDBRANCH   4  72
TORSDOF 30
BEGIN_RES LYS A 131
REMARK  4 active torsions:
REMARK  status: ('A' for Active; 'I' for Inactive)
REMARK    1  A    between atoms: CA   and  CB  
REMARK    2  A    between atoms: CB   and  CG  
REMARK    3  A    between atoms: CG   and  CD  
REMARK    4  A    between atoms: CD   and  CE  
ROOT
ATOM      1  CA  LYS A 131      29.867  25.555  16.977  1.00 20.52     0.186 C 
ENDROOT
BRANCH   1   2
ATOM      2  CB  LYS A 131      28.345  25.722  17.026  1.00 20.94     0.034 C 
BRANCH   2   3
ATOM      3  CG  LYS A 131      27.602  24.400  16.911  1.00 22.96     0.005 C 
BRANCH   3   4
ATOM      4  CD  LYS A 131      26.167  24.517  17.347  1.00 24.33     0.041 C 
BRANCH   4   5
ATOM      5  CE  LYS A 131      25.930  23.625  18.561  1.00 26.91     0.338 C 
ATOM      6  NZ  LYS A 131      24.484  23.342  18.722  1.00 27.40     0.618 N 
ENDBRANCH   4   5
ENDBRANCH   3   4
ENDBRANCH   2   3
ENDBRANCH   1   2
END_RES LYS A 131
BEGIN_RES LYS A 135
REMARK  4 active torsions:
REMARK  status: ('A' for Active; 'I' for Inactive)
REMARK    5  A    between atoms: CA   and  CB  
REMARK    6  A    between atoms: CB   and  CG  
REMARK    7  A    between atoms: CG   and  CD  
REMARK    8  A    between atoms: CD   and  CE  
ROOT
ATOM      7  CA  LYS A 135      33.193  34.663   9.290  1.00 25.02     0.186 C 
ENDROOT
BRANCH   7   8
ATOM      8  CB  LYS A 135      32.060  35.360  10.034  1.00 26.63     0.034 C 
BRANCH   8   9
ATOM      9  CG  LYS A 135      30.710  34.732   9.801  1.00 29.45     0.005 C 
BRANCH   9  10
ATOM     10  CD  LYS A 135      30.469  34.514   8.315  1.00 32.00     0.041 C 
BRANCH  10  11
ATOM     11  CE  LYS A 135      29.030  34.832   7.957  1.00 34.25     0.338 C 
ATOM     12  NZ  LYS A 135      28.085  34.210   8.925  1.00 35.99     0.618 N 
ENDBRANCH  10  11
ENDBRANCH   9  10
ENDBRANCH   8   9
ENDBRANCH   7   8
END_RES LYS A 135
