REMARK VINA RESULT:    -4.614      5.061      9.048
REMARK INTER + INTRA:         -23.047
REMARK INTER:                  -8.571
REMARK INTRA:                 -14.477
REMARK UNBOUND:               -10.207
REMARK SMILES CC(=O)N[C@@H]1[C@@H](O)C[C@](OC[C@H]2O[C@@H](O[C@H]3[C@H](O)[C@@H](O)[C@H](OCCN=[N+]=[N-])O[C@@H]3CO)[C@H](O)[C@@H](O)[C@H]2O)(C(=O)O)O[C@H]1C(O)[C@H](O)CNC(=O)OCc1cn(C[C@H](CC(=O)O)CC(C)C)nn1
REMARK SMILES IDX 43 1 42 2 9 3 8 4 41 5 6 6 5 7 10 8 11 9 12 10 14 11 13 12
REMARK SMILES IDX 32 13 34 14 36 15 15 16 16 17 29 18 28 19 21 20 17 21 19 22
REMARK SMILES IDX 30 23 31 24 22 26 23 27 24 28 25 29 26 30 27 31 18 32 20 34
REMARK SMILES IDX 33 36 35 38 37 40 38 42 39 43 40 44 7 46 4 48 2 49 1 51 3 52
REMARK SMILES IDX 44 53 45 55 46 56 47 58 48 59 49 60 50 62 51 63 52 64 53 65
REMARK SMILES IDX 54 66 67 67 55 68 66 69 56 70 57 71 58 72 59 73 60 74 61 75
REMARK SMILES IDX 62 77 63 78 64 79 65 80
REMARK H PARENT 31 25 18 33 20 35 33 37 35 39 37 41 40 45 7 47 4 50 44 54
REMARK H PARENT 46 57 48 61 61 76
REMARK Flexibility Score: inf
ROOT
ATOM      1  C   UNL     1      24.685  36.349  10.824  1.00  0.00     0.176 C 
ENDROOT
BRANCH   1   2
ATOM      2  C   UNL     1      23.519  35.442  10.550  1.00  0.00     0.178 C 
ATOM      3  C   UNL     1      21.385  36.402   9.971  1.00  0.00     0.272 C 
ATOM      4  C   UNL     1      20.908  36.240  11.370  1.00  0.00     0.113 C 
ATOM      5  O   UNL     1      22.665  36.161   9.776  1.00  0.00    -0.332 OA
ATOM      6  C   UNL     1      21.905  35.885  12.397  1.00  0.00     0.145 C 
ATOM      7  C   UNL     1      22.999  34.960  11.859  1.00  0.00     0.142 C 
BRANCH   3   8
ATOM      8  O   UNL     1      21.098  37.722   9.528  1.00  0.00    -0.338 OA
BRANCH   8   9
ATOM      9  C   UNL     1      20.131  38.363  10.237  1.00  0.00     0.199 C 
BRANCH   9  10
ATOM     10  C   UNL     1      20.690  39.673  10.836  1.00  0.00     0.179 C 
ATOM     11  C   UNL     1      22.524  40.513  11.984  1.00  0.00     0.282 C 
ATOM     12  O   UNL     1      22.036  39.548  11.116  1.00  0.00    -0.341 OA
ATOM     13  C   UNL     1      21.758  41.809  11.673  1.00  0.00     0.202 C 
ATOM     14  C   UNL     1      21.461  41.896  10.191  1.00  0.00     0.179 C 
ATOM     15  C   UNL     1      20.553  40.784   9.786  1.00  0.00     0.177 C 
BRANCH  11  16
ATOM     16  O   UNL     1      23.829  40.784  11.654  1.00  0.00    -0.341 OA
BRANCH  16  17
ATOM     17  C   UNL     1      24.791  40.103  12.351  1.00  0.00     0.184 C 
ATOM     18  C   UNL     1      25.117  40.680  13.697  1.00  0.00     0.178 C 
ATOM     19  O   UNL     1      26.386  41.160  13.837  1.00  0.00    -0.341 OA
ATOM     20  C   UNL     1      27.396  40.261  13.554  1.00  0.00     0.281 C 
ATOM     21  C   UNL     1      26.057  40.135  11.521  1.00  0.00     0.180 C 
ATOM     22  C   UNL     1      27.163  39.444  12.331  1.00  0.00     0.202 C 
BRANCH  18  23
ATOM     23  C   UNL     1      24.750  39.646  14.746  1.00  0.00     0.191 C 
BRANCH  23  24
ATOM     24  O   UNL     1      24.652  38.373  14.190  1.00  0.00    -0.394 OA
ATOM     25  H   UNL     1      24.071  37.770  14.729  1.00  0.00     0.210 HD
ENDBRANCH  23  24
ENDBRANCH  18  23
BRANCH  20  26
ATOM     26  O   UNL     1      27.638  39.522  14.703  1.00  0.00    -0.350 OA
BRANCH  26  27
ATOM     27  C   UNL     1      28.874  38.899  14.701  1.00  0.00     0.169 C 
BRANCH  27  28
ATOM     28  C   UNL     1      28.642  37.456  15.128  1.00  0.00     0.119 C 
BRANCH  28  29
ATOM     29  N   UNL     1      28.658  36.672  13.901  1.00  0.00    -0.092 NA
ATOM     30  N   UNL     1      28.627  35.467  13.983  1.00  0.00     0.001 N 
ATOM     31  N   UNL     1      28.755  34.253  13.777  1.00  0.00    -0.003 NA
ENDBRANCH  28  29
ENDBRANCH  27  28
ENDBRANCH  26  27
ENDBRANCH  20  26
BRANCH  21  32
ATOM     32  O   UNL     1      25.849  39.511  10.305  1.00  0.00    -0.387 OA
ATOM     33  H   UNL     1      25.738  40.242   9.619  1.00  0.00     0.211 HD
ENDBRANCH  21  32
BRANCH  22  34
ATOM     34  O   UNL     1      28.279  39.422  11.468  1.00  0.00    -0.385 OA
ATOM     35  H   UNL     1      28.754  40.272  11.590  1.00  0.00     0.211 HD
ENDBRANCH  22  34
ENDBRANCH  16  17
ENDBRANCH  11  16
BRANCH  13  36
ATOM     36  O   UNL     1      20.658  41.984  12.475  1.00  0.00    -0.385 OA
ATOM     37  H   UNL     1      19.812  41.723  12.073  1.00  0.00     0.211 HD
ENDBRANCH  13  36
BRANCH  14  38
ATOM     38  O   UNL     1      22.704  41.727   9.548  1.00  0.00    -0.387 OA
ATOM     39  H   UNL     1      22.680  41.031   8.873  1.00  0.00     0.211 HD
ENDBRANCH  14  38
BRANCH  15  40
ATOM     40  O   UNL     1      21.001  40.308   8.536  1.00  0.00    -0.387 OA
ATOM     41  H   UNL     1      20.831  39.357   8.444  1.00  0.00     0.211 HD
ENDBRANCH  15  40
ENDBRANCH   9  10
ENDBRANCH   8   9
ENDBRANCH   3   8
BRANCH   3  42
ATOM     42  C   UNL     1      20.527  35.560   9.045  1.00  0.00     0.364 C 
ATOM     43  O   UNL     1      20.452  35.832   7.841  1.00  0.00    -0.246 OA
BRANCH  42  44
ATOM     44  O   UNL     1      19.826  34.494   9.530  1.00  0.00    -0.477 OA
ATOM     45  H   UNL     1      19.613  33.667   8.975  1.00  0.00     0.296 HD
ENDBRANCH  42  44
ENDBRANCH   3  42
BRANCH   6  46
ATOM     46  O   UNL     1      22.485  36.924  13.091  1.00  0.00    -0.391 OA
ATOM     47  H   UNL     1      23.356  37.104  12.660  1.00  0.00     0.211 HD
ENDBRANCH   6  46
BRANCH   7  48
ATOM     48  N   UNL     1      22.424  33.642  11.867  1.00  0.00    -0.348 N 
ATOM     49  C   UNL     1      22.959  32.671  12.795  1.00  0.00     0.217 C 
ATOM     50  H   UNL     1      21.648  33.307  11.255  1.00  0.00     0.163 HD
ATOM     51  C   UNL     1      22.352  31.295  12.805  1.00  0.00     0.114 C 
ATOM     52  O   UNL     1      23.901  32.940  13.579  1.00  0.00    -0.275 OA
ENDBRANCH   7  48
ENDBRANCH   1   2
BRANCH   1  53
ATOM     53  O   UNL     1      25.326  36.641   9.583  1.00  0.00    -0.388 OA
ATOM     54  H   UNL     1      25.198  37.602   9.371  1.00  0.00     0.211 HD
ENDBRANCH   1  53
BRANCH   1  55
ATOM     55  C   UNL     1      25.805  35.794  11.676  1.00  0.00     0.165 C 
BRANCH  55  56
ATOM     56  O   UNL     1      26.907  36.668  11.279  1.00  0.00    -0.388 OA
ATOM     57  H   UNL     1      27.324  36.877  12.176  1.00  0.00     0.211 HD
ENDBRANCH  55  56
BRANCH  55  58
ATOM     58  C   UNL     1      26.275  34.457  11.216  1.00  0.00     0.154 C 
BRANCH  58  59
ATOM     59  N   UNL     1      27.580  34.499  10.658  1.00  0.00    -0.319 N 
ATOM     60  C   UNL     1      27.677  34.239   9.240  1.00  0.00     0.407 C 
ATOM     61  H   UNL     1      28.479  34.687  11.136  1.00  0.00     0.167 HD
ATOM     62  O   UNL     1      26.629  33.997   8.577  1.00  0.00    -0.225 OA
BRANCH  60  63
ATOM     63  O   UNL     1      28.868  34.231   8.550  1.00  0.00    -0.443 OA
BRANCH  63  64
ATOM     64  C   UNL     1      29.625  35.371   8.201  1.00  0.00     0.294 C 
BRANCH  64  65
ATOM     65  C   UNL     1      28.794  36.597   8.040  1.00  0.00     0.120 A 
ATOM     66  C   UNL     1      28.259  37.129   6.889  1.00  0.00     0.138 A 
ATOM     67  N   UNL     1      28.425  37.399   9.043  1.00  0.00    -0.132 NA
ATOM     68  N   UNL     1      27.567  38.261   7.224  1.00  0.00    -0.252 N 
ATOM     69  N   UNL     1      27.699  38.374   8.525  1.00  0.00    -0.067 NA
BRANCH  68  70
ATOM     70  C   UNL     1      26.879  39.137   6.349  1.00  0.00     0.150 C 
BRANCH  70  71
ATOM     71  C   UNL     1      25.948  40.080   6.985  1.00  0.00     0.022 C 
BRANCH  71  72
ATOM     72  C   UNL     1      24.498  39.850   6.775  1.00  0.00     0.128 C 
BRANCH  72  73
ATOM     73  C   UNL     1      23.855  38.829   7.611  1.00  0.00     0.303 C 
ATOM     74  O   UNL     1      23.540  37.722   7.099  1.00  0.00    -0.252 OA
BRANCH  73  75
ATOM     75  O   UNL     1      23.565  39.007   8.958  1.00  0.00    -0.481 OA
ATOM     76  H   UNL     1      23.626  39.925   9.375  1.00  0.00     0.296 HD
ENDBRANCH  73  75
ENDBRANCH  72  73
ENDBRANCH  71  72
BRANCH  71  77
ATOM     77  C   UNL     1      26.337  41.526   6.866  1.00  0.00     0.009 C 
BRANCH  77  78
ATOM     78  C   UNL     1      26.975  42.198   7.997  1.00  0.00    -0.017 C 
ATOM     79  C   UNL     1      28.421  41.967   8.252  1.00  0.00     0.007 C 
ATOM     80  C   UNL     1      26.720  43.692   8.065  1.00  0.00     0.007 C 
ENDBRANCH  77  78
ENDBRANCH  71  77
ENDBRANCH  70  71
ENDBRANCH  68  70
ENDBRANCH  64  65
ENDBRANCH  63  64
ENDBRANCH  60  63
ENDBRANCH  58  59
ENDBRANCH  55  58
ENDBRANCH   1  55
TORSDOF 36
BEGIN_RES LYS A 131
REMARK  4 active torsions:
REMARK  status: ('A' for Active; 'I' for Inactive)
REMARK    1  A    between atoms: CA   and  CB  
REMARK    2  A    between atoms: CB   and  CG  
REMARK    3  A    between atoms: CG   and  CD  
REMARK    4  A    between atoms: CD   and  CE  
ROOT
ATOM      1  CA  LYS A 131      29.867  25.555  16.977  1.00 20.52     0.186 C 
ENDROOT
BRANCH   1   2
ATOM      2  CB  LYS A 131      28.345  25.722  17.026  1.00 20.94     0.034 C 
BRANCH   2   3
ATOM      3  CG  LYS A 131      27.601  24.401  16.899  1.00 22.96     0.005 C 
BRANCH   3   4
ATOM      4  CD  LYS A 131      26.149  24.531  17.268  1.00 24.33     0.041 C 
BRANCH   4   5
ATOM      5  CE  LYS A 131      26.007  24.526  18.787  1.00 26.91     0.338 C 
ATOM      6  NZ  LYS A 131      25.533  23.204  19.259  1.00 27.40     0.618 N 
ENDBRANCH   4   5
ENDBRANCH   3   4
ENDBRANCH   2   3
ENDBRANCH   1   2
END_RES LYS A 131
BEGIN_RES LYS A 135
REMARK  4 active torsions:
REMARK  status: ('A' for Active; 'I' for Inactive)
REMARK    5  A    between atoms: CA   and  CB  
REMARK    6  A    between atoms: CB   and  CG  
REMARK    7  A    between atoms: CG   and  CD  
REMARK    8  A    between atoms: CD   and  CE  
ROOT
ATOM      7  CA  LYS A 135      33.193  34.663   9.290  1.00 25.02     0.186 C 
ENDROOT
BRANCH   7   8
ATOM      8  CB  LYS A 135      32.060  35.360  10.034  1.00 26.63     0.034 C 
BRANCH   8   9
ATOM      9  CG  LYS A 135      32.522  36.151  11.231  1.00 29.45     0.005 C 
BRANCH   9  10
ATOM     10  CD  LYS A 135      31.876  35.625  12.503  1.00 32.00     0.041 C 
BRANCH  10  11
ATOM     11  CE  LYS A 135      32.933  35.300  13.541  1.00 34.25     0.338 C 
ATOM     12  NZ  LYS A 135      32.614  35.935  14.849  1.00 35.99     0.618 N 
ENDBRANCH  10  11
ENDBRANCH   9  10
ENDBRANCH   8   9
ENDBRANCH   7   8
END_RES LYS A 135
