REMARK VINA RESULT:    -5.555      2.512      8.430
REMARK INTER + INTRA:         -25.835
REMARK INTER:                 -13.957
REMARK INTRA:                 -11.878
REMARK UNBOUND:               -11.349
REMARK SMILES CC(=O)N[C@@H]1[C@@H](O)C[C@](OC[C@H]2O[C@@H](O[C@H]3[C@H](O)[C@@H](O)[C@H](OCCN=[N+]=[N-])O[C@@H]3CO)[C@H](O)[C@@H](O)[C@H]2O)(C(=O)O)O[C@H]1C(O)[C@H](O)CNC(=O)OCc1cn(-c2ccc(-c3c4ccc(=O)cc-4oc4cc(O)ccc34)c(C(=O)[O-])c2)nn1
REMARK SMILES IDX 9 1 8 2 6 3 5 4 42 5 41 6 10 7 11 8 12 9 14 10 13 11 32 12
REMARK SMILES IDX 34 13 36 14 15 15 16 16 29 17 28 18 21 19 17 20 19 21 30 22
REMARK SMILES IDX 31 23 22 25 23 26 24 27 25 28 26 29 27 30 18 31 20 33 33 35
REMARK SMILES IDX 35 37 37 39 38 41 39 42 40 43 7 45 43 47 44 48 45 50 46 51
REMARK SMILES IDX 47 53 48 54 49 55 50 57 51 58 52 59 53 60 54 61 82 62 55 63
REMARK SMILES IDX 81 64 56 65 80 66 57 67 76 68 58 69 59 70 77 71 78 72 79 73
REMARK SMILES IDX 60 74 75 75 61 76 74 77 69 78 67 79 62 80 73 81 70 82 68 83
REMARK SMILES IDX 66 84 63 85 71 86 64 87 65 88 72 89 4 91 2 92 1 94 3 95
REMARK H PARENT 31 24 18 32 20 34 33 36 35 38 37 40 40 44 7 46 44 49 46 52
REMARK H PARENT 48 56 72 90 4 93
REMARK Flexibility Score: inf
ROOT
ATOM      1  C   UNL     1      23.397  40.788   7.756  1.00  0.00     0.272 C 
ATOM      2  C   UNL     1      24.195  41.048   9.009  1.00  0.00     0.113 C 
ATOM      3  C   UNL     1      25.038  39.878   9.430  1.00  0.00     0.145 C 
ATOM      4  C   UNL     1      24.537  38.658   8.699  1.00  0.00     0.142 C 
ATOM      5  C   UNL     1      23.033  38.700   8.771  1.00  0.00     0.178 C 
ATOM      6  O   UNL     1      22.556  39.658   7.911  1.00  0.00    -0.332 OA
ENDROOT
BRANCH   1   7
ATOM      7  O   UNL     1      24.118  40.661   6.601  1.00  0.00    -0.338 OA
BRANCH   7   8
ATOM      8  C   UNL     1      24.726  41.791   6.185  1.00  0.00     0.199 C 
BRANCH   8   9
ATOM      9  C   UNL     1      26.073  41.497   5.509  1.00  0.00     0.179 C 
ATOM     10  C   UNL     1      28.341  41.469   5.923  1.00  0.00     0.282 C 
ATOM     11  O   UNL     1      27.119  42.030   6.168  1.00  0.00    -0.341 OA
ATOM     12  C   UNL     1      28.501  40.851   4.589  1.00  0.00     0.202 C 
ATOM     13  C   UNL     1      27.383  39.896   4.244  1.00  0.00     0.179 C 
ATOM     14  C   UNL     1      26.241  40.048   5.236  1.00  0.00     0.177 C 
BRANCH  10  15
ATOM     15  O   UNL     1      28.646  40.673   7.026  1.00  0.00    -0.341 OA
BRANCH  15  16
ATOM     16  C   UNL     1      29.976  40.555   7.267  1.00  0.00     0.184 C 
ATOM     17  C   UNL     1      30.301  39.421   8.190  1.00  0.00     0.178 C 
ATOM     18  O   UNL     1      31.653  39.070   8.068  1.00  0.00    -0.341 OA
ATOM     19  C   UNL     1      32.463  40.198   8.010  1.00  0.00     0.281 C 
ATOM     20  C   UNL     1      30.572  41.794   7.959  1.00  0.00     0.180 C 
ATOM     21  C   UNL     1      31.846  41.382   8.665  1.00  0.00     0.202 C 
BRANCH  17  22
ATOM     22  C   UNL     1      29.469  38.221   7.856  1.00  0.00     0.191 C 
BRANCH  22  23
ATOM     23  O   UNL     1      28.230  38.342   8.488  1.00  0.00    -0.394 OA
ATOM     24  H   UNL     1      28.385  38.199   9.448  1.00  0.00     0.210 HD
ENDBRANCH  22  23
ENDBRANCH  17  22
BRANCH  19  25
ATOM     25  O   UNL     1      32.852  40.469   6.715  1.00  0.00    -0.350 OA
BRANCH  25  26
ATOM     26  C   UNL     1      34.219  40.355   6.496  1.00  0.00     0.169 C 
BRANCH  26  27
ATOM     27  C   UNL     1      34.390  39.353   5.368  1.00  0.00     0.119 C 
BRANCH  27  28
ATOM     28  N   UNL     1      35.332  38.320   5.705  1.00  0.00    -0.092 NA
ATOM     29  N   UNL     1      36.140  37.949   4.844  1.00  0.00     0.001 N 
ATOM     30  N   UNL     1      37.166  37.618   4.248  1.00  0.00    -0.003 NA
ENDBRANCH  27  28
ENDBRANCH  26  27
ENDBRANCH  25  26
ENDBRANCH  19  25
BRANCH  20  31
ATOM     31  O   UNL     1      30.923  42.677   6.941  1.00  0.00    -0.387 OA
ATOM     32  H   UNL     1      31.798  43.105   7.070  1.00  0.00     0.211 HD
ENDBRANCH  20  31
BRANCH  21  33
ATOM     33  O   UNL     1      31.676  41.211  10.039  1.00  0.00    -0.385 OA
ATOM     34  H   UNL     1      32.539  41.526  10.452  1.00  0.00     0.211 HD
ENDBRANCH  21  33
ENDBRANCH  15  16
ENDBRANCH  10  15
BRANCH  12  35
ATOM     35  O   UNL     1      28.589  41.851   3.587  1.00  0.00    -0.385 OA
ATOM     36  H   UNL     1      27.954  41.610   2.848  1.00  0.00     0.211 HD
ENDBRANCH  12  35
BRANCH  13  37
ATOM     37  O   UNL     1      27.821  38.588   4.125  1.00  0.00    -0.387 OA
ATOM     38  H   UNL     1      28.507  38.435   4.816  1.00  0.00     0.211 HD
ENDBRANCH  13  37
BRANCH  14  39
ATOM     39  O   UNL     1      26.544  39.277   6.350  1.00  0.00    -0.387 OA
ATOM     40  H   UNL     1      27.401  39.651   6.710  1.00  0.00     0.211 HD
ENDBRANCH  14  39
ENDBRANCH   8   9
ENDBRANCH   7   8
ENDBRANCH   1   7
BRANCH   1  41
ATOM     41  C   UNL     1      22.400  41.930   7.694  1.00  0.00     0.364 C 
ATOM     42  O   UNL     1      21.432  41.958   6.913  1.00  0.00    -0.246 OA
BRANCH  41  43
ATOM     43  O   UNL     1      22.547  43.023   8.544  1.00  0.00    -0.477 OA
ATOM     44  H   UNL     1      23.463  43.361   8.804  1.00  0.00     0.296 HD
ENDBRANCH  41  43
ENDBRANCH   1  41
BRANCH   3  45
ATOM     45  O   UNL     1      26.371  40.166   9.207  1.00  0.00    -0.391 OA
ATOM     46  H   UNL     1      26.899  39.684   9.890  1.00  0.00     0.211 HD
ENDBRANCH   3  45
BRANCH   5  47
ATOM     47  C   UNL     1      22.435  37.371   8.300  1.00  0.00     0.176 C 
BRANCH  47  48
ATOM     48  O   UNL     1      22.714  37.244   6.917  1.00  0.00    -0.388 OA
ATOM     49  H   UNL     1      21.913  37.269   6.370  1.00  0.00     0.211 HD
ENDBRANCH  47  48
BRANCH  47  50
ATOM     50  C   UNL     1      20.946  37.384   8.415  1.00  0.00     0.165 C 
BRANCH  50  51
ATOM     51  O   UNL     1      20.570  37.837   9.681  1.00  0.00    -0.388 OA
ATOM     52  H   UNL     1      20.730  38.815   9.726  1.00  0.00     0.211 HD
ENDBRANCH  50  51
BRANCH  50  53
ATOM     53  C   UNL     1      20.261  36.107   8.077  1.00  0.00     0.154 C 
BRANCH  53  54
ATOM     54  N   UNL     1      20.374  35.129   9.136  1.00  0.00    -0.319 N 
ATOM     55  C   UNL     1      19.278  34.610   9.865  1.00  0.00     0.407 C 
ATOM     56  H   UNL     1      21.322  34.739   9.428  1.00  0.00     0.167 HD
ATOM     57  O   UNL     1      18.121  34.993   9.607  1.00  0.00    -0.225 OA
BRANCH  55  58
ATOM     58  O   UNL     1      19.426  33.672  10.879  1.00  0.00    -0.443 OA
BRANCH  58  59
ATOM     59  C   UNL     1      19.554  34.049  12.255  1.00  0.00     0.294 C 
BRANCH  59  60
ATOM     60  C   UNL     1      20.796  34.857  12.341  1.00  0.00     0.121 A 
ATOM     61  C   UNL     1      22.054  34.408  12.637  1.00  0.00     0.144 A 
ATOM     62  N   UNL     1      20.920  36.200  12.141  1.00  0.00    -0.131 NA
ATOM     63  N   UNL     1      22.912  35.449  12.617  1.00  0.00    -0.220 N 
ATOM     64  N   UNL     1      22.188  36.524  12.311  1.00  0.00    -0.062 NA
BRANCH  63  65
ATOM     65  C   UNL     1      24.306  35.381  12.872  1.00  0.00     0.067 A 
ATOM     66  C   UNL     1      24.895  36.066  13.908  1.00  0.00     0.039 A 
ATOM     67  C   UNL     1      25.088  34.600  12.058  1.00  0.00     0.029 A 
ATOM     68  C   UNL     1      26.250  35.962  14.116  1.00  0.00     0.007 A 
ATOM     69  C   UNL     1      26.447  34.497  12.269  1.00  0.00     0.012 A 
ATOM     70  C   UNL     1      27.057  35.174  13.299  1.00  0.00    -0.008 A 
BRANCH  68  71
ATOM     71  C   UNL     1      26.910  36.678  15.211  1.00  0.00     0.072 C 
ATOM     72  O   UNL     1      27.339  37.849  15.076  1.00  0.00    -0.545 OA
ATOM     73  O   UNL     1      27.066  36.052  16.423  1.00  0.00    -0.545 OA
ENDBRANCH  68  71
BRANCH  70  74
ATOM     74  C   UNL     1      28.487  35.070  13.531  1.00  0.00     0.004 A 
ATOM     75  C   UNL     1      29.323  35.985  12.943  1.00  0.00     0.026 A 
ATOM     76  C   UNL     1      29.030  34.086  14.317  1.00  0.00     0.026 A 
ATOM     77  C   UNL     1      28.868  37.005  12.140  1.00  0.00     0.016 A 
ATOM     78  C   UNL     1      30.689  35.870  13.172  1.00  0.00     0.139 A 
ATOM     79  C   UNL     1      30.491  34.005  14.532  1.00  0.00     0.139 A 
ATOM     80  C   UNL     1      28.257  33.137  14.938  1.00  0.00     0.016 A 
ATOM     81  C   UNL     1      29.720  37.921  11.551  1.00  0.00     0.047 A 
ATOM     82  C   UNL     1      31.529  36.784  12.585  1.00  0.00     0.093 A 
ATOM     83  O   UNL     1      31.204  34.921  13.929  1.00  0.00    -0.456 OA
ATOM     84  C   UNL     1      31.029  33.019  15.319  1.00  0.00     0.099 A 
ATOM     85  C   UNL     1      28.815  32.148  15.729  1.00  0.00     0.053 A 
ATOM     86  C   UNL     1      31.075  37.815  11.774  1.00  0.00     0.119 A 
ATOM     87  C   UNL     1      30.186  32.105  15.906  1.00  0.00     0.182 A 
ATOM     88  O   UNL     1      30.633  31.181  16.637  1.00  0.00    -0.290 OA
BRANCH  86  89
ATOM     89  O   UNL     1      31.922  38.739  11.180  1.00  0.00    -0.508 OA
ATOM     90  H   UNL     1      32.273  39.483  11.778  1.00  0.00     0.293 HD
ENDBRANCH  86  89
ENDBRANCH  70  74
ENDBRANCH  63  65
ENDBRANCH  59  60
ENDBRANCH  58  59
ENDBRANCH  55  58
ENDBRANCH  53  54
ENDBRANCH  50  53
ENDBRANCH  47  50
ENDBRANCH   5  47
BRANCH   4  91
ATOM     91  N   UNL     1      25.074  37.427   9.238  1.00  0.00    -0.348 N 
ATOM     92  C   UNL     1      25.717  36.531   8.361  1.00  0.00     0.217 C 
ATOM     93  H   UNL     1      25.010  37.168  10.246  1.00  0.00     0.163 HD
ATOM     94  C   UNL     1      26.303  35.241   8.803  1.00  0.00     0.114 C 
ATOM     95  O   UNL     1      25.829  36.790   7.113  1.00  0.00    -0.275 OA
ENDBRANCH   4  91
TORSDOF 33
BEGIN_RES LYS A 131
REMARK  4 active torsions:
REMARK  status: ('A' for Active; 'I' for Inactive)
REMARK    1  A    between atoms: CA   and  CB  
REMARK    2  A    between atoms: CB   and  CG  
REMARK    3  A    between atoms: CG   and  CD  
REMARK    4  A    between atoms: CD   and  CE  
ROOT
ATOM      1  CA  LYS A 131      29.867  25.555  16.977  1.00 20.52     0.186 C 
ENDROOT
BRANCH   1   2
ATOM      2  CB  LYS A 131      28.345  25.722  17.026  1.00 20.94     0.034 C 
BRANCH   2   3
ATOM      3  CG  LYS A 131      27.600  24.415  16.802  1.00 22.96     0.005 C 
BRANCH   3   4
ATOM      4  CD  LYS A 131      26.895  23.945  18.044  1.00 24.33     0.041 C 
BRANCH   4   5
ATOM      5  CE  LYS A 131      25.476  24.503  18.067  1.00 26.91     0.338 C 
ATOM      6  NZ  LYS A 131      24.683  23.952  16.944  1.00 27.40     0.618 N 
ENDBRANCH   4   5
ENDBRANCH   3   4
ENDBRANCH   2   3
ENDBRANCH   1   2
END_RES LYS A 131
BEGIN_RES LYS A 135
REMARK  4 active torsions:
REMARK  status: ('A' for Active; 'I' for Inactive)
REMARK    5  A    between atoms: CA   and  CB  
REMARK    6  A    between atoms: CB   and  CG  
REMARK    7  A    between atoms: CG   and  CD  
REMARK    8  A    between atoms: CD   and  CE  
ROOT
ATOM      7  CA  LYS A 135      33.193  34.663   9.290  1.00 25.02     0.186 C 
ENDROOT
BRANCH   7   8
ATOM      8  CB  LYS A 135      32.060  35.360  10.034  1.00 26.63     0.034 C 
BRANCH   8   9
ATOM      9  CG  LYS A 135      30.698  34.793   9.726  1.00 29.45     0.005 C 
BRANCH   9  10
ATOM     10  CD  LYS A 135      30.560  34.508   8.238  1.00 32.00     0.041 C 
BRANCH  10  11
ATOM     11  CE  LYS A 135      29.129  34.729   7.785  1.00 34.25     0.338 C 
ATOM     12  NZ  LYS A 135      29.084  35.317   6.418  1.00 35.99     0.618 N 
ENDBRANCH  10  11
ENDBRANCH   9  10
ENDBRANCH   8   9
ENDBRANCH   7   8
END_RES LYS A 135
