REMARK VINA RESULT:    -4.583      2.579      4.292
REMARK INTER + INTRA:         -22.751
REMARK INTER:                 -12.144
REMARK INTRA:                 -10.606
REMARK UNBOUND:               -11.068
REMARK SMILES CC(=O)N[C@@H]1[C@@H](O)C[C@](OC[C@H]2O[C@@H](O[C@H]3[C@H](O)[C@@H](O)[C@H](OCCN=[N+]=[N-])O[C@@H]3CO)[C@H](O)[C@@H](O)[C@H]2O)(C(=O)O)O[C@H]1C(O)[C@H](O)CNC(=O)OCc1cn(Cc2cc(Br)cc(Br)c2O)nn1
REMARK SMILES IDX 9 1 8 2 6 3 5 4 42 5 41 6 10 7 11 8 12 9 14 10 13 11 32 12
REMARK SMILES IDX 34 13 36 14 15 15 16 16 29 17 28 18 21 19 17 20 19 21 30 22
REMARK SMILES IDX 31 23 22 25 23 26 24 27 25 28 26 29 27 30 18 31 20 33 33 35
REMARK SMILES IDX 35 37 37 39 38 41 39 42 40 43 7 45 43 47 44 48 45 50 46 51
REMARK SMILES IDX 47 53 48 54 49 55 50 57 51 58 52 59 53 60 54 61 67 62 55 63
REMARK SMILES IDX 66 64 56 65 57 66 58 67 64 68 59 69 62 70 60 71 61 72 63 73
REMARK SMILES IDX 65 74 4 76 2 77 1 79 3 80
REMARK H PARENT 31 24 18 32 20 34 33 36 35 38 37 40 40 44 7 46 44 49 46 52
REMARK H PARENT 48 56 65 75 4 78
REMARK Flexibility Score: inf
ROOT
ATOM      1  C   UNL     1      29.366  35.559  14.053  1.00  0.00     0.272 C 
ATOM      2  C   UNL     1      30.172  34.214  13.719  1.00  0.00     0.113 C 
ATOM      3  C   UNL     1      30.636  33.581  14.966  1.00  0.00     0.145 C 
ATOM      4  C   UNL     1      29.473  33.335  15.891  1.00  0.00     0.142 C 
ATOM      5  C   UNL     1      28.252  34.161  15.622  1.00  0.00     0.178 C 
ATOM      6  O   UNL     1      28.303  35.207  14.806  1.00  0.00    -0.332 OA
ENDROOT
BRANCH   1   7
ATOM      7  O   UNL     1      28.984  35.907  12.802  1.00  0.00    -0.338 OA
BRANCH   7   8
ATOM      8  C   UNL     1      27.833  35.620  12.224  1.00  0.00     0.199 C 
BRANCH   8   9
ATOM      9  C   UNL     1      26.677  36.557  12.268  1.00  0.00     0.179 C 
ATOM     10  C   UNL     1      26.913  37.468  10.137  1.00  0.00     0.282 C 
ATOM     11  O   UNL     1      26.828  37.646  11.480  1.00  0.00    -0.341 OA
ATOM     12  C   UNL     1      25.925  36.473   9.622  1.00  0.00     0.202 C 
ATOM     13  C   UNL     1      24.834  36.234  10.629  1.00  0.00     0.179 C 
ATOM     14  C   UNL     1      25.355  35.842  11.981  1.00  0.00     0.177 C 
BRANCH  10  15
ATOM     15  O   UNL     1      28.234  37.201   9.745  1.00  0.00    -0.341 OA
BRANCH  15  16
ATOM     16  C   UNL     1      28.937  38.309   9.333  1.00  0.00     0.184 C 
ATOM     17  C   UNL     1      29.633  38.068   8.012  1.00  0.00     0.178 C 
ATOM     18  O   UNL     1      30.545  39.025   7.671  1.00  0.00    -0.341 OA
ATOM     19  C   UNL     1      30.496  40.205   8.391  1.00  0.00     0.281 C 
ATOM     20  C   UNL     1      30.078  38.638  10.302  1.00  0.00     0.180 C 
ATOM     21  C   UNL     1      30.593  39.992   9.877  1.00  0.00     0.202 C 
BRANCH  17  22
ATOM     22  C   UNL     1      28.660  37.840   6.874  1.00  0.00     0.191 C 
BRANCH  22  23
ATOM     23  O   UNL     1      27.529  38.614   7.012  1.00  0.00    -0.394 OA
ATOM     24  H   UNL     1      27.126  38.422   7.891  1.00  0.00     0.210 HD
ENDBRANCH  22  23
ENDBRANCH  17  22
BRANCH  19  25
ATOM     25  O   UNL     1      29.361  40.907   8.022  1.00  0.00    -0.350 OA
BRANCH  25  26
ATOM     26  C   UNL     1      29.552  41.577   6.843  1.00  0.00     0.169 C 
BRANCH  26  27
ATOM     27  C   UNL     1      28.331  42.147   6.208  1.00  0.00     0.119 C 
BRANCH  27  28
ATOM     28  N   UNL     1      28.184  41.763   4.819  1.00  0.00    -0.092 NA
ATOM     29  N   UNL     1      27.913  40.630   4.474  1.00  0.00     0.001 N 
ATOM     30  N   UNL     1      27.398  39.624   3.991  1.00  0.00    -0.003 NA
ENDBRANCH  27  28
ENDBRANCH  26  27
ENDBRANCH  25  26
ENDBRANCH  19  25
BRANCH  20  31
ATOM     31  O   UNL     1      29.713  38.584  11.619  1.00  0.00    -0.387 OA
ATOM     32  H   UNL     1      28.799  38.152  11.638  1.00  0.00     0.211 HD
ENDBRANCH  20  31
BRANCH  21  33
ATOM     33  O   UNL     1      31.906  40.194  10.288  1.00  0.00    -0.385 OA
ATOM     34  H   UNL     1      32.169  41.121  10.155  1.00  0.00     0.211 HD
ENDBRANCH  21  33
ENDBRANCH  15  16
ENDBRANCH  10  15
BRANCH  12  35
ATOM     35  O   UNL     1      25.373  37.002   8.429  1.00  0.00    -0.385 OA
ATOM     36  H   UNL     1      25.124  36.211   7.895  1.00  0.00     0.211 HD
ENDBRANCH  12  35
BRANCH  13  37
ATOM     37  O   UNL     1      23.891  35.315  10.169  1.00  0.00    -0.387 OA
ATOM     38  H   UNL     1      23.041  35.551  10.621  1.00  0.00     0.211 HD
ENDBRANCH  13  37
BRANCH  14  39
ATOM     39  O   UNL     1      25.556  34.474  12.024  1.00  0.00    -0.387 OA
ATOM     40  H   UNL     1      25.563  34.148  12.964  1.00  0.00     0.211 HD
ENDBRANCH  14  39
ENDBRANCH   8   9
ENDBRANCH   7   8
ENDBRANCH   1   7
BRANCH   1  41
ATOM     41  C   UNL     1      30.328  36.417  14.736  1.00  0.00     0.364 C 
ATOM     42  O   UNL     1      30.081  36.889  15.909  1.00  0.00    -0.246 OA
BRANCH  41  43
ATOM     43  O   UNL     1      31.545  36.788  14.227  1.00  0.00    -0.477 OA
ATOM     44  H   UNL     1      32.401  36.382  14.575  1.00  0.00     0.296 HD
ENDBRANCH  41  43
ENDBRANCH   1  41
BRANCH   3  45
ATOM     45  O   UNL     1      31.298  32.382  14.644  1.00  0.00    -0.391 OA
ATOM     46  H   UNL     1      32.216  32.403  15.000  1.00  0.00     0.211 HD
ENDBRANCH   3  45
BRANCH   5  47
ATOM     47  C   UNL     1      27.105  33.207  15.350  1.00  0.00     0.176 C 
BRANCH  47  48
ATOM     48  O   UNL     1      27.421  31.933  15.884  1.00  0.00    -0.388 OA
ATOM     49  H   UNL     1      28.230  31.977  16.432  1.00  0.00     0.211 HD
ENDBRANCH  47  48
BRANCH  47  50
ATOM     50  C   UNL     1      25.770  33.664  15.773  1.00  0.00     0.165 C 
BRANCH  50  51
ATOM     51  O   UNL     1      25.435  34.891  15.244  1.00  0.00    -0.388 OA
ATOM     52  H   UNL     1      25.355  35.607  15.924  1.00  0.00     0.211 HD
ENDBRANCH  50  51
BRANCH  50  53
ATOM     53  C   UNL     1      25.436  33.609  17.224  1.00  0.00     0.154 C 
BRANCH  53  54
ATOM     54  N   UNL     1      25.141  32.327  17.766  1.00  0.00    -0.319 N 
ATOM     55  C   UNL     1      23.759  31.945  17.850  1.00  0.00     0.407 C 
ATOM     56  H   UNL     1      25.847  31.664  18.123  1.00  0.00     0.167 HD
ATOM     57  O   UNL     1      22.867  32.763  17.437  1.00  0.00    -0.225 OA
BRANCH  55  58
ATOM     58  O   UNL     1      23.417  30.725  18.361  1.00  0.00    -0.443 OA
BRANCH  58  59
ATOM     59  C   UNL     1      23.900  29.516  17.836  1.00  0.00     0.294 C 
BRANCH  59  60
ATOM     60  C   UNL     1      24.174  29.649  16.387  1.00  0.00     0.120 A 
ATOM     61  C   UNL     1      23.332  29.425  15.304  1.00  0.00     0.138 A 
ATOM     62  N   UNL     1      25.332  30.036  15.828  1.00  0.00    -0.132 NA
ATOM     63  N   UNL     1      23.980  29.671  14.156  1.00  0.00    -0.248 N 
ATOM     64  N   UNL     1      25.211  30.046  14.516  1.00  0.00    -0.067 NA
BRANCH  63  65
ATOM     65  C   UNL     1      23.510  29.571  12.770  1.00  0.00     0.185 C 
BRANCH  65  66
ATOM     66  C   UNL     1      22.358  30.490  12.625  1.00  0.00     0.018 A 
ATOM     67  C   UNL     1      22.553  31.841  12.837  1.00  0.00     0.025 A 
ATOM     68  C   UNL     1      21.087  30.042  12.282  1.00  0.00     0.134 A 
ATOM     69  C   UNL     1      21.520  32.758  12.717  1.00  0.00     0.019 A 
ATOM     70  C   UNL     1      20.034  30.934  12.154  1.00  0.00     0.061 A 
ATOM     71  Br  UNL     1      21.835  34.611  13.019  1.00  0.00    -0.051 Br
ATOM     72  C   UNL     1      20.274  32.290  12.377  1.00  0.00     0.035 A 
ATOM     73  Br  UNL     1      18.318  30.301  11.686  1.00  0.00    -0.047 Br
BRANCH  68  74
ATOM     74  O   UNL     1      20.958  28.682  12.085  1.00  0.00    -0.506 OA
ATOM     75  H   UNL     1      21.687  28.064  12.403  1.00  0.00     0.293 HD
ENDBRANCH  68  74
ENDBRANCH  65  66
ENDBRANCH  63  65
ENDBRANCH  59  60
ENDBRANCH  58  59
ENDBRANCH  55  58
ENDBRANCH  53  54
ENDBRANCH  50  53
ENDBRANCH  47  50
ENDBRANCH   5  47
BRANCH   4  76
ATOM     76  N   UNL     1      29.926  33.372  17.265  1.00  0.00    -0.348 N 
ATOM     77  C   UNL     1      30.240  32.153  17.920  1.00  0.00     0.217 C 
ATOM     78  H   UNL     1      30.032  34.260  17.808  1.00  0.00     0.163 HD
ATOM     79  C   UNL     1      30.709  32.192  19.341  1.00  0.00     0.114 C 
ATOM     80  O   UNL     1      30.122  31.046  17.296  1.00  0.00    -0.275 OA
ENDBRANCH   4  76
TORSDOF 32
BEGIN_RES LYS A 131
REMARK  4 active torsions:
REMARK  status: ('A' for Active; 'I' for Inactive)
REMARK    1  A    between atoms: CA   and  CB  
REMARK    2  A    between atoms: CB   and  CG  
REMARK    3  A    between atoms: CG   and  CD  
REMARK    4  A    between atoms: CD   and  CE  
ROOT
ATOM      1  CA  LYS A 131      29.867  25.555  16.977  1.00 20.52     0.186 C 
ENDROOT
BRANCH   1   2
ATOM      2  CB  LYS A 131      28.345  25.722  17.026  1.00 20.94     0.034 C 
BRANCH   2   3
ATOM      3  CG  LYS A 131      27.603  24.395  16.971  1.00 22.96     0.005 C 
BRANCH   3   4
ATOM      4  CD  LYS A 131      26.145  24.548  17.307  1.00 24.33     0.041 C 
BRANCH   4   5
ATOM      5  CE  LYS A 131      25.912  24.143  18.759  1.00 26.91     0.338 C 
ATOM      6  NZ  LYS A 131      25.178  22.857  18.827  1.00 27.40     0.618 N 
ENDBRANCH   4   5
ENDBRANCH   3   4
ENDBRANCH   2   3
ENDBRANCH   1   2
END_RES LYS A 131
BEGIN_RES LYS A 135
REMARK  4 active torsions:
REMARK  status: ('A' for Active; 'I' for Inactive)
REMARK    5  A    between atoms: CA   and  CB  
REMARK    6  A    between atoms: CB   and  CG  
REMARK    7  A    between atoms: CG   and  CD  
REMARK    8  A    between atoms: CD   and  CE  
ROOT
ATOM      7  CA  LYS A 135      33.193  34.663   9.290  1.00 25.02     0.186 C 
ENDROOT
BRANCH   7   8
ATOM      8  CB  LYS A 135      32.060  35.360  10.034  1.00 26.63     0.034 C 
BRANCH   8   9
ATOM      9  CG  LYS A 135      30.740  34.640   9.932  1.00 29.45     0.005 C 
BRANCH   9  10
ATOM     10  CD  LYS A 135      30.351  34.435   8.476  1.00 32.00     0.041 C 
BRANCH  10  11
ATOM     11  CE  LYS A 135      28.843  34.387   8.329  1.00 34.25     0.338 C 
ATOM     12  NZ  LYS A 135      28.216  33.653   9.463  1.00 35.99     0.618 N 
ENDBRANCH  10  11
ENDBRANCH   9  10
ENDBRANCH   8   9
ENDBRANCH   7   8
END_RES LYS A 135
