REMARK VINA RESULT:    -5.133      3.636      9.958
REMARK INTER + INTRA:         -22.872
REMARK INTER:                 -11.903
REMARK INTRA:                 -10.969
REMARK UNBOUND:                -9.487
REMARK SMILES CC(=O)N[C@@H]1[C@@H](O)C[C@](OC[C@H]2O[C@@H](O[C@H]3[C@H](O)[C@@H](O)[C@H](OCCN=[N+]=[N-])O[C@@H]3CO)[C@H](O)[C@@H](O)[C@H]2O)(C(=O)O)O[C@H]1C(O)[C@H](O)CNC(=O)OCc1cn(Cc2ccc(C(=O)O)cc2)nn1
REMARK SMILES IDX 43 1 42 2 9 3 8 4 41 5 6 6 5 7 10 8 11 9 12 10 14 11 13 12
REMARK SMILES IDX 32 13 34 14 36 15 15 16 16 17 29 18 28 19 21 20 17 21 19 22
REMARK SMILES IDX 30 23 31 24 22 26 23 27 24 28 25 29 26 30 27 31 18 32 20 34
REMARK SMILES IDX 33 36 35 38 37 40 38 42 39 43 40 44 7 46 4 48 2 49 1 51 3 52
REMARK SMILES IDX 44 53 45 55 46 56 47 58 48 59 49 60 50 62 51 63 52 64 53 65
REMARK SMILES IDX 54 66 67 67 55 68 66 69 56 70 57 71 58 72 65 73 59 74 64 75
REMARK SMILES IDX 60 76 61 77 62 78 63 79
REMARK H PARENT 31 25 18 33 20 35 33 37 35 39 37 41 40 45 7 47 4 50 44 54
REMARK H PARENT 46 57 48 61 63 80
REMARK Flexibility Score: inf
ROOT
ATOM      1  C   UNL     1      27.544  34.370  13.452  1.00  0.00     0.176 C 
ENDROOT
BRANCH   1   2
ATOM      2  C   UNL     1      29.024  34.576  13.838  1.00  0.00     0.178 C 
ATOM      3  C   UNL     1      30.221  33.977  15.790  1.00  0.00     0.272 C 
ATOM      4  C   UNL     1      30.569  35.400  15.966  1.00  0.00     0.113 C 
ATOM      5  O   UNL     1      29.250  33.730  14.854  1.00  0.00    -0.332 OA
ATOM      6  C   UNL     1      29.485  36.346  15.494  1.00  0.00     0.145 C 
ATOM      7  C   UNL     1      29.226  36.020  14.053  1.00  0.00     0.142 C 
BRANCH   3   8
ATOM      8  O   UNL     1      29.756  33.423  16.954  1.00  0.00    -0.338 OA
BRANCH   8   9
ATOM      9  C   UNL     1      30.425  33.613  18.110  1.00  0.00     0.199 C 
BRANCH   9  10
ATOM     10  C   UNL     1      29.863  32.681  19.210  1.00  0.00     0.179 C 
ATOM     11  C   UNL     1      27.868  31.684  19.884  1.00  0.00     0.282 C 
ATOM     12  O   UNL     1      28.504  32.636  19.090  1.00  0.00    -0.341 OA
ATOM     13  C   UNL     1      28.752  31.036  20.889  1.00  0.00     0.202 C 
ATOM     14  C   UNL     1      29.932  30.429  20.161  1.00  0.00     0.179 C 
ATOM     15  C   UNL     1      30.507  31.323  19.106  1.00  0.00     0.177 C 
BRANCH  11  16
ATOM     16  O   UNL     1      27.295  30.736  19.036  1.00  0.00    -0.341 OA
BRANCH  16  17
ATOM     17  C   UNL     1      26.388  31.293  18.183  1.00  0.00     0.184 C 
ATOM     18  C   UNL     1      24.996  30.849  18.448  1.00  0.00     0.178 C 
ATOM     19  O   UNL     1      24.074  31.636  17.743  1.00  0.00    -0.341 OA
ATOM     20  C   UNL     1      24.518  31.880  16.441  1.00  0.00     0.281 C 
ATOM     21  C   UNL     1      26.799  30.854  16.765  1.00  0.00     0.180 C 
ATOM     22  C   UNL     1      25.527  30.888  15.945  1.00  0.00     0.202 C 
BRANCH  18  23
ATOM     23  C   UNL     1      24.670  30.960  19.911  1.00  0.00     0.191 C 
BRANCH  23  24
ATOM     24  O   UNL     1      24.346  32.319  20.129  1.00  0.00    -0.394 OA
ATOM     25  H   UNL     1      25.067  32.765  20.613  1.00  0.00     0.210 HD
ENDBRANCH  23  24
ENDBRANCH  18  23
BRANCH  20  26
ATOM     26  O   UNL     1      24.971  33.176  16.357  1.00  0.00    -0.350 OA
BRANCH  26  27
ATOM     27  C   UNL     1      24.044  34.142  16.675  1.00  0.00     0.169 C 
BRANCH  27  28
ATOM     28  C   UNL     1      24.596  35.394  17.270  1.00  0.00     0.119 C 
BRANCH  28  29
ATOM     29  N   UNL     1      25.926  35.053  17.802  1.00  0.00    -0.092 NA
ATOM     30  N   UNL     1      26.136  34.892  18.999  1.00  0.00     0.001 N 
ATOM     31  N   UNL     1      26.123  34.910  20.225  1.00  0.00    -0.003 NA
ENDBRANCH  28  29
ENDBRANCH  27  28
ENDBRANCH  26  27
ENDBRANCH  20  26
BRANCH  21  32
ATOM     32  O   UNL     1      27.758  31.705  16.259  1.00  0.00    -0.387 OA
ATOM     33  H   UNL     1      28.560  31.196  15.913  1.00  0.00     0.211 HD
ENDBRANCH  21  32
BRANCH  22  34
ATOM     34  O   UNL     1      25.004  29.620  15.847  1.00  0.00    -0.385 OA
ATOM     35  H   UNL     1      24.334  29.432  16.528  1.00  0.00     0.211 HD
ENDBRANCH  22  34
ENDBRANCH  16  17
ENDBRANCH  11  16
BRANCH  13  36
ATOM     36  O   UNL     1      29.200  31.948  21.857  1.00  0.00    -0.385 OA
ATOM     37  H   UNL     1      29.996  31.527  22.280  1.00  0.00     0.211 HD
ENDBRANCH  13  36
BRANCH  14  38
ATOM     38  O   UNL     1      29.601  29.198  19.593  1.00  0.00    -0.387 OA
ATOM     39  H   UNL     1      30.343  28.933  18.981  1.00  0.00     0.211 HD
ENDBRANCH  14  38
BRANCH  15  40
ATOM     40  O   UNL     1      30.368  30.782  17.820  1.00  0.00    -0.387 OA
ATOM     41  H   UNL     1      30.426  31.540  17.181  1.00  0.00     0.211 HD
ENDBRANCH  15  40
ENDBRANCH   9  10
ENDBRANCH   8   9
ENDBRANCH   3   8
BRANCH   3  42
ATOM     42  C   UNL     1      31.448  33.246  15.302  1.00  0.00     0.364 C 
ATOM     43  O   UNL     1      32.517  33.867  15.075  1.00  0.00    -0.246 OA
BRANCH  42  44
ATOM     44  O   UNL     1      31.443  31.877  15.088  1.00  0.00    -0.477 OA
ATOM     45  H   UNL     1      31.550  31.555  14.114  1.00  0.00     0.296 HD
ENDBRANCH  42  44
ENDBRANCH   3  42
BRANCH   6  46
ATOM     46  O   UNL     1      28.395  36.175  16.319  1.00  0.00    -0.391 OA
ATOM     47  H   UNL     1      28.564  36.611  17.195  1.00  0.00     0.211 HD
ENDBRANCH   6  46
BRANCH   7  48
ATOM     48  N   UNL     1      30.369  36.473  13.270  1.00  0.00    -0.348 N 
ATOM     49  C   UNL     1      30.278  37.626  12.414  1.00  0.00     0.217 C 
ATOM     50  H   UNL     1      31.302  36.009  13.272  1.00  0.00     0.163 HD
ATOM     51  C   UNL     1      31.474  38.059  11.626  1.00  0.00     0.114 C 
ATOM     52  O   UNL     1      29.198  38.236  12.352  1.00  0.00    -0.275 OA
ENDBRANCH   7  48
ENDBRANCH   1   2
BRANCH   1  53
ATOM     53  O   UNL     1      26.753  33.979  14.483  1.00  0.00    -0.388 OA
ATOM     54  H   UNL     1      25.900  33.553  14.249  1.00  0.00     0.211 HD
ENDBRANCH   1  53
BRANCH   1  55
ATOM     55  C   UNL     1      27.007  35.558  12.691  1.00  0.00     0.165 C 
BRANCH  55  56
ATOM     56  O   UNL     1      25.751  35.843  13.124  1.00  0.00    -0.388 OA
ATOM     57  H   UNL     1      25.261  36.524  12.623  1.00  0.00     0.211 HD
ENDBRANCH  55  56
BRANCH  55  58
ATOM     58  C   UNL     1      27.233  35.380  11.239  1.00  0.00     0.154 C 
BRANCH  58  59
ATOM     59  N   UNL     1      26.384  36.225  10.445  1.00  0.00    -0.319 N 
ATOM     60  C   UNL     1      25.722  35.807   9.269  1.00  0.00     0.407 C 
ATOM     61  H   UNL     1      26.229  37.229  10.736  1.00  0.00     0.167 HD
ATOM     62  O   UNL     1      25.827  34.653   8.828  1.00  0.00    -0.225 OA
BRANCH  60  63
ATOM     63  O   UNL     1      24.896  36.665   8.516  1.00  0.00    -0.443 OA
BRANCH  63  64
ATOM     64  C   UNL     1      23.488  36.540   8.603  1.00  0.00     0.294 C 
BRANCH  64  65
ATOM     65  C   UNL     1      23.029  36.185   9.957  1.00  0.00     0.120 A 
ATOM     66  C   UNL     1      22.085  35.278  10.352  1.00  0.00     0.138 A 
ATOM     67  N   UNL     1      23.496  36.761  11.081  1.00  0.00    -0.132 NA
ATOM     68  N   UNL     1      22.004  35.329  11.700  1.00  0.00    -0.248 N 
ATOM     69  N   UNL     1      22.869  36.236  12.117  1.00  0.00    -0.067 NA
BRANCH  68  70
ATOM     70  C   UNL     1      21.117  34.527  12.502  1.00  0.00     0.181 C 
BRANCH  70  71
ATOM     71  C   UNL     1      21.628  33.147  12.624  1.00  0.00    -0.026 A 
ATOM     72  C   UNL     1      20.778  32.080  12.433  1.00  0.00     0.006 A 
ATOM     73  C   UNL     1      22.962  32.918  12.951  1.00  0.00     0.006 A 
ATOM     74  C   UNL     1      21.317  30.814  12.581  1.00  0.00     0.016 A 
ATOM     75  C   UNL     1      23.492  31.655  13.097  1.00  0.00     0.016 A 
ATOM     76  C   UNL     1      22.641  30.592  12.905  1.00  0.00     0.059 A 
BRANCH  76  77
ATOM     77  C   UNL     1      23.144  29.235  13.051  1.00  0.00     0.335 C 
ATOM     78  O   UNL     1      22.858  28.568  14.055  1.00  0.00    -0.246 OA
BRANCH  77  79
ATOM     79  O   UNL     1      23.942  28.693  12.069  1.00  0.00    -0.478 OA
ATOM     80  H   UNL     1      24.959  28.726  12.116  1.00  0.00     0.297 HD
ENDBRANCH  77  79
ENDBRANCH  76  77
ENDBRANCH  70  71
ENDBRANCH  68  70
ENDBRANCH  64  65
ENDBRANCH  63  64
ENDBRANCH  60  63
ENDBRANCH  58  59
ENDBRANCH  55  58
ENDBRANCH   1  55
TORSDOF 33
BEGIN_RES LYS A 131
REMARK  4 active torsions:
REMARK  status: ('A' for Active; 'I' for Inactive)
REMARK    1  A    between atoms: CA   and  CB  
REMARK    2  A    between atoms: CB   and  CG  
REMARK    3  A    between atoms: CG   and  CD  
REMARK    4  A    between atoms: CD   and  CE  
ROOT
ATOM      1  CA  LYS A 131      29.867  25.555  16.977  1.00 20.52     0.186 C 
ENDROOT
BRANCH   1   2
ATOM      2  CB  LYS A 131      28.345  25.722  17.026  1.00 20.94     0.034 C 
BRANCH   2   3
ATOM      3  CG  LYS A 131      27.847  26.209  18.378  1.00 22.96     0.005 C 
BRANCH   3   4
ATOM      4  CD  LYS A 131      26.984  27.434  18.257  1.00 24.33     0.041 C 
BRANCH   4   5
ATOM      5  CE  LYS A 131      25.589  27.129  18.792  1.00 26.91     0.338 C 
ATOM      6  NZ  LYS A 131      24.723  26.599  17.712  1.00 27.40     0.618 N 
ENDBRANCH   4   5
ENDBRANCH   3   4
ENDBRANCH   2   3
ENDBRANCH   1   2
END_RES LYS A 131
BEGIN_RES LYS A 135
REMARK  4 active torsions:
REMARK  status: ('A' for Active; 'I' for Inactive)
REMARK    5  A    between atoms: CA   and  CB  
REMARK    6  A    between atoms: CB   and  CG  
REMARK    7  A    between atoms: CG   and  CD  
REMARK    8  A    between atoms: CD   and  CE  
ROOT
ATOM      7  CA  LYS A 135      33.193  34.663   9.290  1.00 25.02     0.186 C 
ENDROOT
BRANCH   7   8
ATOM      8  CB  LYS A 135      32.060  35.360  10.034  1.00 26.63     0.034 C 
BRANCH   8   9
ATOM      9  CG  LYS A 135      30.711  34.729   9.805  1.00 29.45     0.005 C 
BRANCH   9  10
ATOM     10  CD  LYS A 135      30.476  34.488   8.322  1.00 32.00     0.041 C 
BRANCH  10  11
ATOM     11  CE  LYS A 135      29.048  34.833   7.946  1.00 34.25     0.338 C 
ATOM     12  NZ  LYS A 135      28.995  35.557   6.645  1.00 35.99     0.618 N 
ENDBRANCH  10  11
ENDBRANCH   9  10
ENDBRANCH   8   9
ENDBRANCH   7   8
END_RES LYS A 135
