REMARK VINA RESULT:    -4.510      6.252     12.994
REMARK INTER + INTRA:         -24.683
REMARK INTER:                 -12.126
REMARK INTRA:                 -12.556
REMARK UNBOUND:               -12.132
REMARK SMILES CCOCCc1c(-c2ccccc2)nc(N)nc1-n1cc(COC(=O)NC[C@@H](O)C(O)[C@@H]2O[C@@](OC[C@H]3O[C@@H](O[C@H]4[C@H](O)[C@@H](O)[C@H](OCCN=[N+]=[N-])O[C@@H]4CO)[C@H](O)[C@@H](O)[C@H]3O)(C(=O)O)C[C@H](O)[C@H]2NC(C)=O)nn1
REMARK SMILES IDX 30 1 32 2 34 3 66 4 33 5 67 6 69 7 35 8 36 9 37 10 39 11
REMARK SMILES IDX 38 12 57 13 59 14 61 15 40 16 41 17 54 18 53 19 46 20 42 21
REMARK SMILES IDX 44 22 55 23 56 24 47 26 48 27 49 28 50 29 51 30 52 31 43 32
REMARK SMILES IDX 45 34 58 36 60 38 62 40 63 42 64 43 65 44 68 46 70 48 71 49
REMARK SMILES IDX 72 51 73 52 31 53 28 55 29 56 27 58 26 59 24 60 25 62 23 63
REMARK SMILES IDX 22 64 21 65 20 66 74 67 19 68 75 69 18 70 17 71 6 72 15 73
REMARK SMILES IDX 7 74 14 75 5 76 4 77 3 78 2 79 1 80 16 81 8 84 9 85 13 86
REMARK SMILES IDX 10 87 12 88 11 89
REMARK H PARENT 56 25 43 33 45 35 58 37 60 39 62 41 65 45 68 47 70 50 31 54
REMARK H PARENT 29 57 26 61 16 82 16 83
REMARK Flexibility Score: inf
ROOT
ATOM      1  C   UNL     1      27.135  40.706   6.892  1.00  0.00     0.176 C 
ENDROOT
BRANCH   1   2
ATOM      2  C   UNL     1      26.516  40.062   8.096  1.00  0.00     0.178 C 
ATOM      3  C   UNL     1      26.631  40.365  10.414  1.00  0.00     0.272 C 
ATOM      4  C   UNL     1      25.610  39.226  10.380  1.00  0.00     0.113 C 
ATOM      5  O   UNL     1      26.868  40.898   9.199  1.00  0.00    -0.332 OA
ATOM      6  C   UNL     1      26.024  38.113   9.466  1.00  0.00     0.145 C 
ATOM      7  C   UNL     1      26.986  38.692   8.444  1.00  0.00     0.142 C 
BRANCH   3   8
ATOM      8  O   UNL     1      27.743  39.888  11.073  1.00  0.00    -0.338 OA
BRANCH   8   9
ATOM      9  C   UNL     1      28.343  40.756  11.946  1.00  0.00     0.199 C 
BRANCH   9  10
ATOM     10  C   UNL     1      29.856  40.779  11.791  1.00  0.00     0.179 C 
ATOM     11  C   UNL     1      31.458  39.146  11.328  1.00  0.00     0.282 C 
ATOM     12  O   UNL     1      30.321  39.512  11.992  1.00  0.00    -0.341 OA
ATOM     13  C   UNL     1      31.158  39.322   9.834  1.00  0.00     0.202 C 
ATOM     14  C   UNL     1      31.180  40.836   9.629  1.00  0.00     0.179 C 
ATOM     15  C   UNL     1      30.363  41.555  10.645  1.00  0.00     0.177 C 
BRANCH  11  16
ATOM     16  O   UNL     1      31.799  37.852  11.647  1.00  0.00    -0.341 OA
BRANCH  16  17
ATOM     17  C   UNL     1      31.075  37.365  12.723  1.00  0.00     0.184 C 
ATOM     18  C   UNL     1      31.974  36.855  13.797  1.00  0.00     0.178 C 
ATOM     19  O   UNL     1      31.987  35.511  14.000  1.00  0.00    -0.341 OA
ATOM     20  C   UNL     1      30.807  34.836  14.014  1.00  0.00     0.281 C 
ATOM     21  C   UNL     1      30.032  36.381  12.287  1.00  0.00     0.180 C 
ATOM     22  C   UNL     1      29.612  35.541  13.464  1.00  0.00     0.202 C 
BRANCH  18  23
ATOM     23  C   UNL     1      31.802  37.639  15.099  1.00  0.00     0.191 C 
BRANCH  23  24
ATOM     24  O   UNL     1      31.390  38.938  14.855  1.00  0.00    -0.394 OA
ATOM     25  H   UNL     1      31.533  39.117  13.891  1.00  0.00     0.210 HD
ENDBRANCH  23  24
ENDBRANCH  18  23
BRANCH  20  26
ATOM     26  O   UNL     1      30.549  34.461  15.328  1.00  0.00    -0.350 OA
BRANCH  26  27
ATOM     27  C   UNL     1      31.468  33.590  15.859  1.00  0.00     0.169 C 
BRANCH  27  28
ATOM     28  C   UNL     1      31.253  32.149  15.464  1.00  0.00     0.119 C 
BRANCH  28  29
ATOM     29  N   UNL     1      30.421  31.503  16.478  1.00  0.00    -0.092 NA
ATOM     30  N   UNL     1      29.520  30.714  16.168  1.00  0.00     0.001 N 
ATOM     31  N   UNL     1      28.589  30.060  15.700  1.00  0.00    -0.003 NA
ENDBRANCH  28  29
ENDBRANCH  27  28
ENDBRANCH  26  27
ENDBRANCH  20  26
BRANCH  21  32
ATOM     32  O   UNL     1      28.892  37.005  11.773  1.00  0.00    -0.387 OA
ATOM     33  H   UNL     1      28.884  37.979  11.974  1.00  0.00     0.211 HD
ENDBRANCH  21  32
BRANCH  22  34
ATOM     34  O   UNL     1      28.710  34.586  12.999  1.00  0.00    -0.385 OA
ATOM     35  H   UNL     1      29.079  33.668  13.041  1.00  0.00     0.211 HD
ENDBRANCH  22  34
ENDBRANCH  16  17
ENDBRANCH  11  16
BRANCH  13  36
ATOM     36  O   UNL     1      32.100  38.728   9.030  1.00  0.00    -0.385 OA
ATOM     37  H   UNL     1      33.020  39.043   9.242  1.00  0.00     0.211 HD
ENDBRANCH  13  36
BRANCH  14  38
ATOM     38  O   UNL     1      30.953  41.209   8.324  1.00  0.00    -0.387 OA
ATOM     39  H   UNL     1      31.635  41.873   8.001  1.00  0.00     0.211 HD
ENDBRANCH  14  38
BRANCH  15  40
ATOM     40  O   UNL     1      29.268  42.137   9.971  1.00  0.00    -0.387 OA
ATOM     41  H   UNL     1      29.607  42.792   9.308  1.00  0.00     0.211 HD
ENDBRANCH  15  40
ENDBRANCH   9  10
ENDBRANCH   8   9
ENDBRANCH   3   8
BRANCH   3  42
ATOM     42  C   UNL     1      25.962  41.398  11.267  1.00  0.00     0.364 C 
ATOM     43  O   UNL     1      25.012  40.952  12.002  1.00  0.00    -0.246 OA
BRANCH  42  44
ATOM     44  O   UNL     1      26.286  42.724  11.313  1.00  0.00    -0.477 OA
ATOM     45  H   UNL     1      26.957  43.097  10.647  1.00  0.00     0.296 HD
ENDBRANCH  42  44
ENDBRANCH   3  42
BRANCH   6  46
ATOM     46  O   UNL     1      26.641  37.137  10.263  1.00  0.00    -0.391 OA
ATOM     47  H   UNL     1      26.275  37.122  11.169  1.00  0.00     0.211 HD
ENDBRANCH   6  46
BRANCH   7  48
ATOM     48  N   UNL     1      27.210  37.787   7.360  1.00  0.00    -0.348 N 
ATOM     49  C   UNL     1      28.495  37.453   6.861  1.00  0.00     0.217 C 
ATOM     50  H   UNL     1      26.365  37.345   6.936  1.00  0.00     0.163 HD
ATOM     51  C   UNL     1      28.608  36.503   5.736  1.00  0.00     0.114 C 
ATOM     52  O   UNL     1      29.515  37.960   7.374  1.00  0.00    -0.275 OA
ENDBRANCH   7  48
ENDBRANCH   1   2
BRANCH   1  53
ATOM     53  O   UNL     1      28.539  40.784   7.189  1.00  0.00    -0.388 OA
ATOM     54  H   UNL     1      28.789  41.717   7.025  1.00  0.00     0.211 HD
ENDBRANCH   1  53
BRANCH   1  55
ATOM     55  C   UNL     1      26.707  42.067   6.514  1.00  0.00     0.165 C 
BRANCH  55  56
ATOM     56  O   UNL     1      25.329  42.134   6.871  1.00  0.00    -0.388 OA
ATOM     57  H   UNL     1      25.274  42.395   7.812  1.00  0.00     0.211 HD
ENDBRANCH  55  56
BRANCH  55  58
ATOM     58  C   UNL     1      26.841  42.468   5.105  1.00  0.00     0.154 C 
BRANCH  58  59
ATOM     59  N   UNL     1      28.139  42.402   4.555  1.00  0.00    -0.319 N 
ATOM     60  C   UNL     1      29.147  43.376   4.689  1.00  0.00     0.407 C 
ATOM     61  H   UNL     1      28.456  41.549   3.960  1.00  0.00     0.167 HD
ATOM     62  O   UNL     1      28.976  44.434   5.333  1.00  0.00    -0.225 OA
BRANCH  60  63
ATOM     63  O   UNL     1      30.413  43.226   4.113  1.00  0.00    -0.443 OA
BRANCH  63  64
ATOM     64  C   UNL     1      30.832  42.010   3.530  1.00  0.00     0.294 C 
BRANCH  64  65
ATOM     65  C   UNL     1      31.588  41.174   4.493  1.00  0.00     0.121 A 
ATOM     66  C   UNL     1      32.949  41.034   4.576  1.00  0.00     0.146 A 
ATOM     67  N   UNL     1      31.090  40.369   5.459  1.00  0.00    -0.131 NA
ATOM     68  N   UNL     1      33.255  40.142   5.593  1.00  0.00    -0.202 N 
ATOM     69  N   UNL     1      32.102  39.787   6.075  1.00  0.00    -0.060 NA
BRANCH  68  70
ATOM     70  C   UNL     1      34.603  39.832   5.841  1.00  0.00     0.164 A 
ATOM     71  N   UNL     1      35.125  38.714   5.278  1.00  0.00    -0.193 NA
ATOM     72  C   UNL     1      35.481  40.644   6.574  1.00  0.00     0.026 A 
ATOM     73  C   UNL     1      36.408  38.363   5.385  1.00  0.00     0.222 A 
ATOM     74  C   UNL     1      36.796  40.308   6.694  1.00  0.00     0.081 A 
ATOM     75  N   UNL     1      37.225  39.153   6.084  1.00  0.00    -0.213 NA
BRANCH  72  76
ATOM     76  C   UNL     1      34.865  41.777   7.274  1.00  0.00     0.070 C 
BRANCH  76  77
ATOM     77  C   UNL     1      34.519  41.501   8.722  1.00  0.00     0.165 C 
BRANCH  77  78
ATOM     78  O   UNL     1      34.252  42.578   9.511  1.00  0.00    -0.381 OA
BRANCH  78  79
ATOM     79  C   UNL     1      35.160  42.915  10.469  1.00  0.00     0.156 C 
ATOM     80  C   UNL     1      36.267  43.816   9.895  1.00  0.00     0.035 C 
ENDBRANCH  78  79
ENDBRANCH  77  78
ENDBRANCH  76  77
ENDBRANCH  72  76
BRANCH  73  81
ATOM     81  N   UNL     1      36.910  37.171   4.773  1.00  0.00    -0.368 N 
ATOM     82  H   UNL     1      37.729  37.215   4.134  1.00  0.00     0.159 HD
ATOM     83  H   UNL     1      36.493  36.239   4.936  1.00  0.00     0.159 HD
ENDBRANCH  73  81
BRANCH  74  84
ATOM     84  C   UNL     1      37.769  41.103   7.410  1.00  0.00     0.001 A 
ATOM     85  C   UNL     1      38.146  40.681   8.683  1.00  0.00     0.010 A 
ATOM     86  C   UNL     1      38.347  42.236   6.868  1.00  0.00     0.010 A 
ATOM     87  C   UNL     1      39.094  41.376   9.422  1.00  0.00     0.001 A 
ATOM     88  C   UNL     1      39.283  42.909   7.616  1.00  0.00     0.001 A 
ATOM     89  C   UNL     1      39.662  42.501   8.871  1.00  0.00     0.000 A 
ENDBRANCH  74  84
ENDBRANCH  68  70
ENDBRANCH  64  65
ENDBRANCH  63  64
ENDBRANCH  60  63
ENDBRANCH  58  59
ENDBRANCH  55  58
ENDBRANCH   1  55
TORSDOF 36
BEGIN_RES LYS A 131
REMARK  4 active torsions:
REMARK  status: ('A' for Active; 'I' for Inactive)
REMARK    1  A    between atoms: CA   and  CB  
REMARK    2  A    between atoms: CB   and  CG  
REMARK    3  A    between atoms: CG   and  CD  
REMARK    4  A    between atoms: CD   and  CE  
ROOT
ATOM      1  CA  LYS A 131      29.867  25.555  16.977  1.00 20.52     0.186 C 
ENDROOT
BRANCH   1   2
ATOM      2  CB  LYS A 131      28.345  25.722  17.026  1.00 20.94     0.034 C 
BRANCH   2   3
ATOM      3  CG  LYS A 131      27.602  24.399  16.918  1.00 22.96     0.005 C 
BRANCH   3   4
ATOM      4  CD  LYS A 131      26.167  24.519  17.350  1.00 24.33     0.041 C 
BRANCH   4   5
ATOM      5  CE  LYS A 131      26.068  25.489  18.523  1.00 26.91     0.338 C 
ATOM      6  NZ  LYS A 131      24.778  26.219  18.486  1.00 27.40     0.618 N 
ENDBRANCH   4   5
ENDBRANCH   3   4
ENDBRANCH   2   3
ENDBRANCH   1   2
END_RES LYS A 131
BEGIN_RES LYS A 135
REMARK  4 active torsions:
REMARK  status: ('A' for Active; 'I' for Inactive)
REMARK    5  A    between atoms: CA   and  CB  
REMARK    6  A    between atoms: CB   and  CG  
REMARK    7  A    between atoms: CG   and  CD  
REMARK    8  A    between atoms: CD   and  CE  
ROOT
ATOM      7  CA  LYS A 135      33.193  34.663   9.290  1.00 25.02     0.186 C 
ENDROOT
BRANCH   7   8
ATOM      8  CB  LYS A 135      32.060  35.360  10.034  1.00 26.63     0.034 C 
BRANCH   8   9
ATOM      9  CG  LYS A 135      30.790  35.471   9.230  1.00 29.45     0.005 C 
BRANCH   9  10
ATOM     10  CD  LYS A 135      30.098  34.120   9.130  1.00 32.00     0.041 C 
BRANCH  10  11
ATOM     11  CE  LYS A 135      28.646  34.294   8.731  1.00 34.25     0.338 C 
ATOM     12  NZ  LYS A 135      27.733  33.767   9.784  1.00 35.99     0.618 N 
ENDBRANCH  10  11
ENDBRANCH   9  10
ENDBRANCH   8   9
ENDBRANCH   7   8
END_RES LYS A 135
