REMARK VINA RESULT:    -4.077      5.680     12.733
REMARK INTER + INTRA:         -23.751
REMARK INTER:                 -12.446
REMARK INTRA:                 -11.305
REMARK UNBOUND:               -13.000
REMARK SMILES CC(=O)N[C@@H]1[C@@H](O)C[C@](OC[C@H]2O[C@@H](O[C@H]3[C@H](O)[C@@H](O)[C@H](OCCN=[N+]=[N-])O[C@@H]3CO)[C@H](O)[C@@H](O)[C@H]2O)(C(=O)O)O[C@H]1C(O)[C@H](O)CNC(=O)OCc1cn(C(C)CC(=O)c2ccccc2)nn1
REMARK SMILES IDX 43 1 42 2 9 3 8 4 41 5 6 6 5 7 10 8 11 9 12 10 14 11 13 12
REMARK SMILES IDX 32 13 34 14 36 15 15 16 16 17 29 18 28 19 21 20 17 21 19 22
REMARK SMILES IDX 30 23 31 24 22 26 23 27 24 28 25 29 26 30 27 31 18 32 20 34
REMARK SMILES IDX 33 36 35 38 37 40 38 42 39 43 40 44 7 46 4 48 2 49 1 51 3 52
REMARK SMILES IDX 44 53 45 55 46 56 47 58 48 59 49 60 50 62 51 63 52 64 53 65
REMARK SMILES IDX 54 66 68 67 55 68 67 69 56 70 57 71 58 72 59 73 60 74 61 75
REMARK SMILES IDX 62 76 66 77 63 78 65 79 64 80
REMARK H PARENT 31 25 18 33 20 35 33 37 35 39 37 41 40 45 7 47 4 50 44 54
REMARK H PARENT 46 57 48 61
REMARK Flexibility Score: inf
ROOT
ATOM      1  C   UNL     1      30.175  35.675  17.953  1.00  0.00     0.176 C 
ENDROOT
BRANCH   1   2
ATOM      2  C   UNL     1      31.140  36.080  16.928  1.00  0.00     0.178 C 
ATOM      3  C   UNL     1      31.406  34.696  15.037  1.00  0.00     0.272 C 
ATOM      4  C   UNL     1      32.849  35.032  14.874  1.00  0.00     0.113 C 
ATOM      5  O   UNL     1      30.833  35.875  15.641  1.00  0.00    -0.332 OA
ATOM      6  C   UNL     1      33.370  35.837  16.049  1.00  0.00     0.145 C 
ATOM      7  C   UNL     1      32.567  35.597  17.271  1.00  0.00     0.142 C 
BRANCH   3   8
ATOM      8  O   UNL     1      30.997  33.674  15.730  1.00  0.00    -0.338 OA
BRANCH   8   9
ATOM      9  C   UNL     1      31.158  32.400  15.785  1.00  0.00     0.199 C 
BRANCH   9  10
ATOM     10  C   UNL     1      30.376  31.404  16.580  1.00  0.00     0.179 C 
ATOM     11  C   UNL     1      29.916  31.064  18.877  1.00  0.00     0.282 C 
ATOM     12  O   UNL     1      30.665  31.559  17.877  1.00  0.00    -0.341 OA
ATOM     13  C   UNL     1      28.482  31.447  18.729  1.00  0.00     0.202 C 
ATOM     14  C   UNL     1      27.987  31.340  17.358  1.00  0.00     0.179 C 
ATOM     15  C   UNL     1      28.954  31.211  16.231  1.00  0.00     0.177 C 
BRANCH  11  16
ATOM     16  O   UNL     1      30.465  31.628  20.060  1.00  0.00    -0.341 OA
BRANCH  16  17
ATOM     17  C   UNL     1      31.330  30.728  20.634  1.00  0.00     0.184 C 
ATOM     18  C   UNL     1      31.023  29.322  20.208  1.00  0.00     0.178 C 
ATOM     19  O   UNL     1      29.785  28.903  20.667  1.00  0.00    -0.341 OA
ATOM     20  C   UNL     1      29.551  29.000  22.003  1.00  0.00     0.281 C 
ATOM     21  C   UNL     1      31.191  30.830  22.168  1.00  0.00     0.180 C 
ATOM     22  C   UNL     1      29.877  30.313  22.627  1.00  0.00     0.202 C 
BRANCH  18  23
ATOM     23  C   UNL     1      32.126  28.364  20.609  1.00  0.00     0.191 C 
BRANCH  23  24
ATOM     24  O   UNL     1      31.853  27.052  20.241  1.00  0.00    -0.394 OA
ATOM     25  H   UNL     1      32.710  26.556  20.152  1.00  0.00     0.210 HD
ENDBRANCH  23  24
ENDBRANCH  18  23
BRANCH  20  26
ATOM     26  O   UNL     1      30.041  27.963  22.756  1.00  0.00    -0.350 OA
BRANCH  26  27
ATOM     27  C   UNL     1      29.760  28.023  24.093  1.00  0.00     0.169 C 
BRANCH  27  28
ATOM     28  C   UNL     1      30.920  27.599  24.955  1.00  0.00     0.119 C 
BRANCH  28  29
ATOM     29  N   UNL     1      32.105  27.515  24.121  1.00  0.00    -0.092 NA
ATOM     30  N   UNL     1      33.085  26.892  24.523  1.00  0.00     0.001 N 
ATOM     31  N   UNL     1      33.974  26.103  24.848  1.00  0.00    -0.003 NA
ENDBRANCH  28  29
ENDBRANCH  27  28
ENDBRANCH  26  27
ENDBRANCH  20  26
BRANCH  21  32
ATOM     32  O   UNL     1      32.275  30.233  22.800  1.00  0.00    -0.387 OA
ATOM     33  H   UNL     1      32.664  30.802  23.507  1.00  0.00     0.211 HD
ENDBRANCH  21  32
BRANCH  22  34
ATOM     34  O   UNL     1      28.858  31.258  22.487  1.00  0.00    -0.385 OA
ATOM     35  H   UNL     1      29.223  32.099  22.863  1.00  0.00     0.211 HD
ENDBRANCH  22  34
ENDBRANCH  16  17
ENDBRANCH  11  16
BRANCH  13  36
ATOM     36  O   UNL     1      27.676  30.619  19.563  1.00  0.00    -0.385 OA
ATOM     37  H   UNL     1      27.291  29.941  18.945  1.00  0.00     0.211 HD
ENDBRANCH  13  36
BRANCH  14  38
ATOM     38  O   UNL     1      27.127  32.451  17.121  1.00  0.00    -0.387 OA
ATOM     39  H   UNL     1      26.190  32.234  17.336  1.00  0.00     0.211 HD
ENDBRANCH  14  38
BRANCH  15  40
ATOM     40  O   UNL     1      28.483  31.964  15.174  1.00  0.00    -0.387 OA
ATOM     41  H   UNL     1      29.005  32.713  14.877  1.00  0.00     0.211 HD
ENDBRANCH  15  40
ENDBRANCH   9  10
ENDBRANCH   8   9
ENDBRANCH   3   8
BRANCH   3  42
ATOM     42  C   UNL     1      30.780  34.732  13.644  1.00  0.00     0.364 C 
ATOM     43  O   UNL     1      31.496  34.935  12.656  1.00  0.00    -0.246 OA
BRANCH  42  44
ATOM     44  O   UNL     1      29.427  34.540  13.474  1.00  0.00    -0.477 OA
ATOM     45  H   UNL     1      29.137  33.766  12.888  1.00  0.00     0.296 HD
ENDBRANCH  42  44
ENDBRANCH   3  42
BRANCH   6  46
ATOM     46  O   UNL     1      34.733  35.637  16.237  1.00  0.00    -0.391 OA
ATOM     47  H   UNL     1      34.980  36.031  17.138  1.00  0.00     0.211 HD
ENDBRANCH   6  46
BRANCH   7  48
ATOM     48  N   UNL     1      33.033  36.447  18.362  1.00  0.00    -0.348 N 
ATOM     49  C   UNL     1      33.334  35.950  19.660  1.00  0.00     0.217 C 
ATOM     50  H   UNL     1      33.154  37.461  18.187  1.00  0.00     0.163 HD
ATOM     51  C   UNL     1      33.799  36.807  20.751  1.00  0.00     0.114 C 
ATOM     52  O   UNL     1      33.188  34.699  19.884  1.00  0.00    -0.275 OA
ENDBRANCH   7  48
ENDBRANCH   1   2
BRANCH   1  53
ATOM     53  O   UNL     1      30.476  34.443  18.583  1.00  0.00    -0.388 OA
ATOM     54  H   UNL     1      30.178  34.543  19.539  1.00  0.00     0.211 HD
ENDBRANCH   1  53
BRANCH   1  55
ATOM     55  C   UNL     1      28.718  35.588  17.551  1.00  0.00     0.165 C 
BRANCH  55  56
ATOM     56  O   UNL     1      28.457  34.731  16.532  1.00  0.00    -0.388 OA
ATOM     57  H   UNL     1      29.298  34.464  16.092  1.00  0.00     0.211 HD
ENDBRANCH  55  56
BRANCH  55  58
ATOM     58  C   UNL     1      28.296  37.012  17.159  1.00  0.00     0.154 C 
BRANCH  58  59
ATOM     59  N   UNL     1      27.206  36.972  16.210  1.00  0.00    -0.319 N 
ATOM     60  C   UNL     1      27.304  37.222  14.823  1.00  0.00     0.407 C 
ATOM     61  H   UNL     1      26.221  36.728  16.542  1.00  0.00     0.167 HD
ATOM     62  O   UNL     1      28.406  37.461  14.291  1.00  0.00    -0.225 OA
BRANCH  60  63
ATOM     63  O   UNL     1      26.164  37.213  13.994  1.00  0.00    -0.443 OA
BRANCH  63  64
ATOM     64  C   UNL     1      26.131  36.285  12.889  1.00  0.00     0.294 C 
BRANCH  64  65
ATOM     65  C   UNL     1      25.902  34.951  13.557  1.00  0.00     0.120 A 
ATOM     66  C   UNL     1      24.717  34.208  13.390  1.00  0.00     0.138 A 
ATOM     67  N   UNL     1      26.637  34.255  14.401  1.00  0.00    -0.132 NA
ATOM     68  N   UNL     1      24.791  33.102  14.145  1.00  0.00    -0.249 N 
ATOM     69  N   UNL     1      25.954  33.143  14.747  1.00  0.00    -0.067 NA
BRANCH  68  70
ATOM     70  C   UNL     1      23.719  32.108  14.236  1.00  0.00     0.114 C 
ATOM     71  C   UNL     1      22.868  32.424  15.425  1.00  0.00     0.034 C 
BRANCH  70  72
ATOM     72  C   UNL     1      22.997  31.991  12.934  1.00  0.00     0.108 C 
BRANCH  72  73
ATOM     73  C   UNL     1      22.757  30.546  12.674  1.00  0.00     0.164 C 
ATOM     74  O   UNL     1      23.671  29.721  12.737  1.00  0.00    -0.294 OA
BRANCH  73  75
ATOM     75  C   UNL     1      21.384  30.139  12.341  1.00  0.00     0.018 A 
ATOM     76  C   UNL     1      20.352  31.004  12.313  1.00  0.00     0.012 A 
ATOM     77  C   UNL     1      21.183  28.782  12.039  1.00  0.00     0.012 A 
ATOM     78  C   UNL     1      19.062  30.558  11.979  1.00  0.00     0.001 A 
ATOM     79  C   UNL     1      19.923  28.369  11.717  1.00  0.00     0.001 A 
ATOM     80  C   UNL     1      18.859  29.231  11.681  1.00  0.00     0.000 A 
ENDBRANCH  73  75
ENDBRANCH  72  73
ENDBRANCH  70  72
ENDBRANCH  68  70
ENDBRANCH  64  65
ENDBRANCH  63  64
ENDBRANCH  60  63
ENDBRANCH  58  59
ENDBRANCH  55  58
ENDBRANCH   1  55
TORSDOF 33
BEGIN_RES LYS A 131
REMARK  4 active torsions:
REMARK  status: ('A' for Active; 'I' for Inactive)
REMARK    1  A    between atoms: CA   and  CB  
REMARK    2  A    between atoms: CB   and  CG  
REMARK    3  A    between atoms: CG   and  CD  
REMARK    4  A    between atoms: CD   and  CE  
ROOT
ATOM      1  CA  LYS A 131      29.867  25.555  16.977  1.00 20.52     0.186 C 
ENDROOT
BRANCH   1   2
ATOM      2  CB  LYS A 131      28.345  25.722  17.026  1.00 20.94     0.034 C 
BRANCH   2   3
ATOM      3  CG  LYS A 131      27.602  24.398  16.931  1.00 22.96     0.005 C 
BRANCH   3   4
ATOM      4  CD  LYS A 131      26.255  24.456  17.597  1.00 24.33     0.041 C 
BRANCH   4   5
ATOM      5  CE  LYS A 131      26.017  25.860  18.144  1.00 26.91     0.338 C 
ATOM      6  NZ  LYS A 131      25.843  25.820  19.615  1.00 27.40     0.618 N 
ENDBRANCH   4   5
ENDBRANCH   3   4
ENDBRANCH   2   3
ENDBRANCH   1   2
END_RES LYS A 131
BEGIN_RES LYS A 135
REMARK  4 active torsions:
REMARK  status: ('A' for Active; 'I' for Inactive)
REMARK    5  A    between atoms: CA   and  CB  
REMARK    6  A    between atoms: CB   and  CG  
REMARK    7  A    between atoms: CG   and  CD  
REMARK    8  A    between atoms: CD   and  CE  
ROOT
ATOM      7  CA  LYS A 135      33.193  34.663   9.290  1.00 25.02     0.186 C 
ENDROOT
BRANCH   7   8
ATOM      8  CB  LYS A 135      32.060  35.360  10.034  1.00 26.63     0.034 C 
BRANCH   8   9
ATOM      9  CG  LYS A 135      30.754  35.358   9.282  1.00 29.45     0.005 C 
BRANCH   9  10
ATOM     10  CD  LYS A 135      29.987  36.647   9.535  1.00 32.00     0.041 C 
BRANCH  10  11
ATOM     11  CE  LYS A 135      28.791  36.387  10.431  1.00 34.25     0.338 C 
ATOM     12  NZ  LYS A 135      28.333  34.974  10.317  1.00 35.99     0.618 N 
ENDBRANCH  10  11
ENDBRANCH   9  10
ENDBRANCH   8   9
ENDBRANCH   7   8
END_RES LYS A 135
