REMARK VINA RESULT:    -4.697      3.212      7.873
REMARK INTER + INTRA:         -21.854
REMARK INTER:                 -11.836
REMARK INTRA:                 -10.018
REMARK UNBOUND:               -10.018
REMARK SMILES COc1ccc(-n2cc(COC(=O)NC[C@@H](O)C(O)[C@@H]3O[C@@](OC[C@H]4O[C@@H](O[C@H]5[C@H](O)[C@@H](O)[C@H](OCCN=[N+]=[N-])O[C@@H]5CO)[C@H](O)[C@@H](O)[C@H]4O)(C(=O)O)C[C@H](O)[C@H]3NC(C)=O)nn2)cc1
REMARK SMILES IDX 22 1 54 2 55 3 57 4 20 5 21 6 23 7 24 8 25 9 27 10 26 11
REMARK SMILES IDX 45 12 47 13 49 14 28 15 29 16 42 17 41 18 34 19 30 20 32 21
REMARK SMILES IDX 43 22 44 23 35 25 36 26 37 27 38 28 39 29 40 30 31 31 33 33
REMARK SMILES IDX 46 35 48 37 50 39 51 41 52 42 53 43 56 45 18 47 19 48 16 50
REMARK SMILES IDX 17 51 15 53 14 54 12 55 13 57 11 58 10 59 9 60 8 61 62 62
REMARK SMILES IDX 7 63 63 64 6 65 5 66 64 67 4 68 65 69 3 70 2 71 1 72 58 73
REMARK SMILES IDX 59 74 60 76 61 77
REMARK H PARENT 44 24 31 32 33 34 46 36 48 38 50 40 53 44 56 46 19 49 17 52
REMARK H PARENT 14 56 58 75
REMARK Flexibility Score: inf
ROOT
ATOM      1  C   UNL     1      25.518  35.786  10.230  1.00  0.00     0.272 C 
ATOM      2  C   UNL     1      25.942  37.029   9.539  1.00  0.00     0.113 C 
ATOM      3  C   UNL     1      24.997  38.165   9.557  1.00  0.00     0.145 C 
ATOM      4  C   UNL     1      23.582  37.604   9.800  1.00  0.00     0.142 C 
ATOM      5  C   UNL     1      23.500  36.305   9.080  1.00  0.00     0.178 C 
ATOM      6  O   UNL     1      24.236  35.379   9.818  1.00  0.00    -0.332 OA
ENDROOT
BRANCH   1   7
ATOM      7  O   UNL     1      25.637  35.563  11.500  1.00  0.00    -0.338 OA
BRANCH   7   8
ATOM      8  C   UNL     1      24.963  35.214  12.531  1.00  0.00     0.199 C 
BRANCH   8   9
ATOM      9  C   UNL     1      24.898  33.814  13.072  1.00  0.00     0.179 C 
ATOM     10  C   UNL     1      25.174  32.429  14.868  1.00  0.00     0.282 C 
ATOM     11  O   UNL     1      25.083  33.754  14.411  1.00  0.00    -0.341 OA
ATOM     12  C   UNL     1      23.957  31.606  14.585  1.00  0.00     0.202 C 
ATOM     13  C   UNL     1      23.058  32.126  13.526  1.00  0.00     0.179 C 
ATOM     14  C   UNL     1      23.678  33.074  12.580  1.00  0.00     0.177 C 
BRANCH  10  15
ATOM     15  O   UNL     1      25.378  32.486  16.243  1.00  0.00    -0.341 OA
BRANCH  15  16
ATOM     16  C   UNL     1      26.678  32.265  16.604  1.00  0.00     0.184 C 
ATOM     17  C   UNL     1      27.578  33.388  16.241  1.00  0.00     0.178 C 
ATOM     18  O   UNL     1      28.929  33.069  16.543  1.00  0.00    -0.341 OA
ATOM     19  C   UNL     1      29.298  32.081  15.593  1.00  0.00     0.281 C 
ATOM     20  C   UNL     1      27.153  30.981  15.901  1.00  0.00     0.180 C 
ATOM     21  C   UNL     1      28.632  30.808  16.120  1.00  0.00     0.202 C 
BRANCH  17  22
ATOM     22  C   UNL     1      27.208  34.663  16.951  1.00  0.00     0.191 C 
BRANCH  22  23
ATOM     23  O   UNL     1      26.417  35.433  16.115  1.00  0.00    -0.394 OA
ATOM     24  H   UNL     1      26.012  34.915  15.385  1.00  0.00     0.210 HD
ENDBRANCH  22  23
ENDBRANCH  17  22
BRANCH  19  25
ATOM     25  O   UNL     1      30.640  31.957  15.501  1.00  0.00    -0.350 OA
BRANCH  25  26
ATOM     26  C   UNL     1      31.450  32.807  16.188  1.00  0.00     0.169 C 
BRANCH  26  27
ATOM     27  C   UNL     1      31.982  33.994  15.458  1.00  0.00     0.119 C 
BRANCH  27  28
ATOM     28  N   UNL     1      31.409  34.244  14.170  1.00  0.00    -0.092 NA
ATOM     29  N   UNL     1      30.475  35.025  14.028  1.00  0.00     0.001 N 
ATOM     30  N   UNL     1      29.467  35.740  14.048  1.00  0.00    -0.003 NA
ENDBRANCH  27  28
ENDBRANCH  26  27
ENDBRANCH  25  26
ENDBRANCH  19  25
BRANCH  20  31
ATOM     31  O   UNL     1      26.425  29.912  16.389  1.00  0.00    -0.387 OA
ATOM     32  H   UNL     1      25.763  29.659  15.673  1.00  0.00     0.211 HD
ENDBRANCH  20  31
BRANCH  21  33
ATOM     33  O   UNL     1      29.108  29.745  15.386  1.00  0.00    -0.385 OA
ATOM     34  H   UNL     1      29.269  29.999  14.443  1.00  0.00     0.211 HD
ENDBRANCH  21  33
ENDBRANCH  15  16
ENDBRANCH  10  15
BRANCH  12  35
ATOM     35  O   UNL     1      24.297  30.293  14.218  1.00  0.00    -0.385 OA
ATOM     36  H   UNL     1      23.497  29.751  14.040  1.00  0.00     0.211 HD
ENDBRANCH  12  35
BRANCH  13  37
ATOM     37  O   UNL     1      21.869  32.598  14.093  1.00  0.00    -0.387 OA
ATOM     38  H   UNL     1      21.806  33.575  14.103  1.00  0.00     0.211 HD
ENDBRANCH  13  37
BRANCH  14  39
ATOM     39  O   UNL     1      22.695  33.951  12.114  1.00  0.00    -0.387 OA
ATOM     40  H   UNL     1      23.100  34.465  11.371  1.00  0.00     0.211 HD
ENDBRANCH  14  39
ENDBRANCH   8   9
ENDBRANCH   7   8
ENDBRANCH   1   7
BRANCH   1  41
ATOM     41  C   UNL     1      26.389  34.699   9.523  1.00  0.00     0.364 C 
ATOM     42  O   UNL     1      26.252  34.478   8.318  1.00  0.00    -0.246 OA
BRANCH  41  43
ATOM     43  O   UNL     1      27.287  34.032  10.318  1.00  0.00    -0.477 OA
ATOM     44  H   UNL     1      27.198  34.021  11.345  1.00  0.00     0.296 HD
ENDBRANCH  41  43
ENDBRANCH   1  41
BRANCH   3  45
ATOM     45  O   UNL     1      25.294  39.206  10.389  1.00  0.00    -0.391 OA
ATOM     46  H   UNL     1      24.631  39.404  11.087  1.00  0.00     0.211 HD
ENDBRANCH   3  45
BRANCH   5  47
ATOM     47  C   UNL     1      22.069  35.719   9.033  1.00  0.00     0.176 C 
BRANCH  47  48
ATOM     48  O   UNL     1      21.481  35.773  10.259  1.00  0.00    -0.388 OA
ATOM     49  H   UNL     1      21.282  36.710  10.490  1.00  0.00     0.211 HD
ENDBRANCH  47  48
BRANCH  47  50
ATOM     50  C   UNL     1      21.368  36.061   7.821  1.00  0.00     0.165 C 
BRANCH  50  51
ATOM     51  O   UNL     1      22.137  36.707   6.813  1.00  0.00    -0.388 OA
ATOM     52  H   UNL     1      22.190  37.644   7.087  1.00  0.00     0.211 HD
ENDBRANCH  50  51
BRANCH  50  53
ATOM     53  C   UNL     1      20.061  36.737   7.772  1.00  0.00     0.154 C 
BRANCH  53  54
ATOM     54  N   UNL     1      19.130  36.499   8.779  1.00  0.00    -0.319 N 
ATOM     55  C   UNL     1      18.172  35.475   8.816  1.00  0.00     0.407 C 
ATOM     56  H   UNL     1      19.129  37.164   9.628  1.00  0.00     0.167 HD
ATOM     57  O   UNL     1      18.077  34.628   7.913  1.00  0.00    -0.225 OA
BRANCH  55  58
ATOM     58  O   UNL     1      17.286  35.400   9.915  1.00  0.00    -0.443 OA
BRANCH  58  59
ATOM     59  C   UNL     1      17.854  35.386  11.201  1.00  0.00     0.294 C 
BRANCH  59  60
ATOM     60  C   UNL     1      18.470  34.064  11.463  1.00  0.00     0.121 A 
ATOM     61  C   UNL     1      17.944  32.796  11.311  1.00  0.00     0.144 A 
ATOM     62  N   UNL     1      19.732  33.895  11.906  1.00  0.00    -0.131 NA
ATOM     63  N   UNL     1      18.894  31.921  11.662  1.00  0.00    -0.220 N 
ATOM     64  N   UNL     1      19.976  32.617  12.022  1.00  0.00    -0.062 NA
BRANCH  63  65
ATOM     65  C   UNL     1      18.907  30.502  11.692  1.00  0.00     0.067 A 
ATOM     66  C   UNL     1      19.998  29.750  12.035  1.00  0.00     0.032 A 
ATOM     67  C   UNL     1      17.746  29.815  11.341  1.00  0.00     0.032 A 
ATOM     68  C   UNL     1      19.946  28.364  12.032  1.00  0.00     0.048 A 
ATOM     69  C   UNL     1      17.694  28.434  11.339  1.00  0.00     0.048 A 
ATOM     70  C   UNL     1      18.794  27.680  11.685  1.00  0.00     0.119 A 
BRANCH  70  71
ATOM     71  O   UNL     1      18.755  26.272  11.686  1.00  0.00    -0.497 OA
ATOM     72  C   UNL     1      17.799  25.649  10.817  1.00  0.00     0.278 C 
ENDBRANCH  70  71
ENDBRANCH  63  65
ENDBRANCH  59  60
ENDBRANCH  58  59
ENDBRANCH  55  58
ENDBRANCH  53  54
ENDBRANCH  50  53
ENDBRANCH  47  50
ENDBRANCH   5  47
BRANCH   4  73
ATOM     73  N   UNL     1      22.624  38.621   9.466  1.00  0.00    -0.348 N 
ATOM     74  C   UNL     1      22.039  39.439  10.467  1.00  0.00     0.217 C 
ATOM     75  H   UNL     1      22.377  38.781   8.474  1.00  0.00     0.163 HD
ATOM     76  C   UNL     1      21.048  40.483  10.095  1.00  0.00     0.114 C 
ATOM     77  O   UNL     1      22.321  39.325  11.689  1.00  0.00    -0.275 OA
ENDBRANCH   4  73
TORSDOF 31
BEGIN_RES LYS A 131
REMARK  4 active torsions:
REMARK  status: ('A' for Active; 'I' for Inactive)
REMARK    1  A    between atoms: CA   and  CB  
REMARK    2  A    between atoms: CB   and  CG  
REMARK    3  A    between atoms: CG   and  CD  
REMARK    4  A    between atoms: CD   and  CE  
ROOT
ATOM      1  CA  LYS A 131      29.867  25.555  16.977  1.00 20.52     0.186 C 
ENDROOT
BRANCH   1   2
ATOM      2  CB  LYS A 131      28.345  25.722  17.026  1.00 20.94     0.034 C 
BRANCH   2   3
ATOM      3  CG  LYS A 131      27.601  24.401  16.902  1.00 22.96     0.005 C 
BRANCH   3   4
ATOM      4  CD  LYS A 131      26.231  24.463  17.516  1.00 24.33     0.041 C 
BRANCH   4   5
ATOM      5  CE  LYS A 131      26.229  25.476  18.656  1.00 26.91     0.338 C 
ATOM      6  NZ  LYS A 131      25.538  24.921  19.844  1.00 27.40     0.618 N 
ENDBRANCH   4   5
ENDBRANCH   3   4
ENDBRANCH   2   3
ENDBRANCH   1   2
END_RES LYS A 131
BEGIN_RES LYS A 135
REMARK  4 active torsions:
REMARK  status: ('A' for Active; 'I' for Inactive)
REMARK    5  A    between atoms: CA   and  CB  
REMARK    6  A    between atoms: CB   and  CG  
REMARK    7  A    between atoms: CG   and  CD  
REMARK    8  A    between atoms: CD   and  CE  
ROOT
ATOM      7  CA  LYS A 135      33.193  34.663   9.290  1.00 25.02     0.186 C 
ENDROOT
BRANCH   7   8
ATOM      8  CB  LYS A 135      32.060  35.360  10.034  1.00 26.63     0.034 C 
BRANCH   8   9
ATOM      9  CG  LYS A 135      30.693  34.838   9.675  1.00 29.45     0.005 C 
BRANCH   9  10
ATOM     10  CD  LYS A 135      30.644  34.421   8.213  1.00 32.00     0.041 C 
BRANCH  10  11
ATOM     11  CE  LYS A 135      29.498  35.112   7.500  1.00 34.25     0.338 C 
ATOM     12  NZ  LYS A 135      29.272  36.479   8.045  1.00 35.99     0.618 N 
ENDBRANCH  10  11
ENDBRANCH   9  10
ENDBRANCH   8   9
ENDBRANCH   7   8
END_RES LYS A 135
