REMARK VINA RESULT:    -3.148      3.710      8.345
REMARK INTER + INTRA:         -21.539
REMARK INTER:                  -8.282
REMARK INTRA:                 -13.257
REMARK UNBOUND:               -13.239
REMARK SMILES CCOC(=O)Cn1cc(COC(=O)NC[C@@H](O)C(O)[C@@H]2O[C@@](OC[C@H]3O[C@@H](O[C@H]4[C@H](O)[C@@H](O)[C@H](OCCN=[N+]=[N-])O[C@@H]4CO)[C@H](O)[C@@H](O)[C@H]3O)(C(=O)O)C[C@H](O)[C@H]2NC(C)=O)nn1
REMARK SMILES IDX 18 1 20 2 22 3 54 4 21 5 55 6 57 7 23 8 24 9 25 10 27 11
REMARK SMILES IDX 26 12 45 13 47 14 49 15 28 16 29 17 42 18 41 19 34 20 30 21
REMARK SMILES IDX 32 22 43 23 44 24 35 26 36 27 37 28 38 29 39 30 40 31 31 32
REMARK SMILES IDX 33 34 46 36 48 38 50 40 51 42 52 43 53 44 56 46 58 48 59 49
REMARK SMILES IDX 60 51 61 52 19 53 16 55 17 56 15 58 14 59 12 60 13 62 11 63
REMARK SMILES IDX 10 64 9 65 8 66 62 67 7 68 63 69 6 70 4 71 5 72 3 73 2 74
REMARK SMILES IDX 1 75
REMARK H PARENT 44 25 31 33 33 35 46 37 48 39 50 41 53 45 56 47 58 50 19 54
REMARK H PARENT 17 57 14 61
REMARK Flexibility Score: inf
ROOT
ATOM      1  C   UNL     1      22.902  39.334   8.223  1.00  0.00     0.176 C 
ENDROOT
BRANCH   1   2
ATOM      2  C   UNL     1      22.736  37.840   8.264  1.00  0.00     0.178 C 
ATOM      3  C   UNL     1      21.238  36.190   8.974  1.00  0.00     0.272 C 
ATOM      4  C   UNL     1      22.411  35.304   8.731  1.00  0.00     0.113 C 
ATOM      5  O   UNL     1      21.424  37.477   8.425  1.00  0.00    -0.332 OA
ATOM      6  C   UNL     1      23.703  35.841   9.258  1.00  0.00     0.145 C 
ATOM      7  C   UNL     1      23.552  37.342   9.443  1.00  0.00     0.142 C 
BRANCH   3   8
ATOM      8  O   UNL     1      20.857  36.324  10.291  1.00  0.00    -0.338 OA
BRANCH   8   9
ATOM      9  C   UNL     1      20.094  37.386  10.637  1.00  0.00     0.199 C 
BRANCH   9  10
ATOM     10  C   UNL     1      20.169  37.555  12.167  1.00  0.00     0.179 C 
ATOM     11  C   UNL     1      20.871  36.504  14.112  1.00  0.00     0.282 C 
ATOM     12  O   UNL     1      20.530  36.398  12.782  1.00  0.00    -0.341 OA
ATOM     13  C   UNL     1      21.887  37.568  14.396  1.00  0.00     0.202 C 
ATOM     14  C   UNL     1      21.274  38.881  13.980  1.00  0.00     0.179 C 
ATOM     15  C   UNL     1      20.958  38.778  12.526  1.00  0.00     0.177 C 
BRANCH  11  16
ATOM     16  O   UNL     1      21.328  35.313  14.651  1.00  0.00    -0.341 OA
BRANCH  16  17
ATOM     17  C   UNL     1      21.652  34.340  13.740  1.00  0.00     0.184 C 
ATOM     18  C   UNL     1      20.778  33.109  13.838  1.00  0.00     0.178 C 
ATOM     19  O   UNL     1      21.482  32.019  14.330  1.00  0.00    -0.341 OA
ATOM     20  C   UNL     1      22.499  31.600  13.441  1.00  0.00     0.281 C 
ATOM     21  C   UNL     1      23.106  33.916  13.947  1.00  0.00     0.180 C 
ATOM     22  C   UNL     1      23.347  32.750  12.999  1.00  0.00     0.202 C 
BRANCH  18  23
ATOM     23  C   UNL     1      20.101  32.847  12.517  1.00  0.00     0.191 C 
BRANCH  23  24
ATOM     24  O   UNL     1      20.566  33.737  11.531  1.00  0.00    -0.394 OA
ATOM     25  H   UNL     1      21.538  33.838  11.572  1.00  0.00     0.210 HD
ENDBRANCH  23  24
ENDBRANCH  18  23
BRANCH  20  26
ATOM     26  O   UNL     1      21.965  30.902  12.390  1.00  0.00    -0.350 OA
BRANCH  26  27
ATOM     27  C   UNL     1      21.893  29.551  12.438  1.00  0.00     0.169 C 
BRANCH  27  28
ATOM     28  C   UNL     1      20.630  28.871  12.062  1.00  0.00     0.119 C 
BRANCH  28  29
ATOM     29  N   UNL     1      19.959  28.124  13.071  1.00  0.00    -0.092 NA
ATOM     30  N   UNL     1      19.108  27.258  12.778  1.00  0.00     0.001 N 
ATOM     31  N   UNL     1      18.461  26.325  12.271  1.00  0.00    -0.003 NA
ENDBRANCH  28  29
ENDBRANCH  27  28
ENDBRANCH  26  27
ENDBRANCH  20  26
BRANCH  21  32
ATOM     32  O   UNL     1      23.947  34.980  13.612  1.00  0.00    -0.387 OA
ATOM     33  H   UNL     1      24.194  34.855  12.644  1.00  0.00     0.211 HD
ENDBRANCH  21  32
BRANCH  22  34
ATOM     34  O   UNL     1      24.711  32.448  12.979  1.00  0.00    -0.385 OA
ATOM     35  H   UNL     1      25.233  33.020  12.364  1.00  0.00     0.211 HD
ENDBRANCH  22  34
ENDBRANCH  16  17
ENDBRANCH  11  16
BRANCH  13  36
ATOM     36  O   UNL     1      22.158  37.573  15.759  1.00  0.00    -0.385 OA
ATOM     37  H   UNL     1      21.382  37.582  16.340  1.00  0.00     0.211 HD
ENDBRANCH  13  36
BRANCH  14  38
ATOM     38  O   UNL     1      22.247  39.888  14.172  1.00  0.00    -0.387 OA
ATOM     39  H   UNL     1      22.952  39.569  14.790  1.00  0.00     0.211 HD
ENDBRANCH  14  38
BRANCH  15  40
ATOM     40  O   UNL     1      22.185  38.823  11.825  1.00  0.00    -0.387 OA
ATOM     41  H   UNL     1      22.821  38.329  12.411  1.00  0.00     0.211 HD
ENDBRANCH  15  40
ENDBRANCH   9  10
ENDBRANCH   8   9
ENDBRANCH   3   8
BRANCH   3  42
ATOM     42  C   UNL     1      20.100  35.645   8.195  1.00  0.00     0.364 C 
ATOM     43  O   UNL     1      19.627  36.310   7.246  1.00  0.00    -0.246 OA
BRANCH  42  44
ATOM     44  O   UNL     1      19.559  34.428   8.502  1.00  0.00    -0.477 OA
ATOM     45  H   UNL     1      19.445  33.693   7.810  1.00  0.00     0.296 HD
ENDBRANCH  42  44
ENDBRANCH   3  42
BRANCH   6  46
ATOM     46  O   UNL     1      24.173  35.222  10.391  1.00  0.00    -0.391 OA
ATOM     47  H   UNL     1      23.523  35.379  11.132  1.00  0.00     0.211 HD
ENDBRANCH   6  46
BRANCH   7  48
ATOM     48  N   UNL     1      24.855  37.989   9.495  1.00  0.00    -0.348 N 
ATOM     49  C   UNL     1      25.967  37.503   8.767  1.00  0.00     0.217 C 
ATOM     50  H   UNL     1      24.969  38.834  10.081  1.00  0.00     0.163 HD
ATOM     51  C   UNL     1      27.309  38.156   8.812  1.00  0.00     0.114 C 
ATOM     52  O   UNL     1      25.805  36.475   8.053  1.00  0.00    -0.275 OA
ENDBRANCH   7  48
ENDBRANCH   1   2
BRANCH   1  53
ATOM     53  O   UNL     1      23.295  39.748   6.966  1.00  0.00    -0.388 OA
ATOM     54  H   UNL     1      22.564  39.697   6.285  1.00  0.00     0.211 HD
ENDBRANCH   1  53
BRANCH   1  55
ATOM     55  C   UNL     1      21.639  40.083   8.610  1.00  0.00     0.165 C 
BRANCH  55  56
ATOM     56  O   UNL     1      20.854  40.408   7.530  1.00  0.00    -0.388 OA
ATOM     57  H   UNL     1      20.302  39.664   7.194  1.00  0.00     0.211 HD
ENDBRANCH  55  56
BRANCH  55  58
ATOM     58  C   UNL     1      22.029  41.293   9.392  1.00  0.00     0.154 C 
BRANCH  58  59
ATOM     59  N   UNL     1      23.356  41.276   9.896  1.00  0.00    -0.319 N 
ATOM     60  C   UNL     1      23.730  41.541  11.241  1.00  0.00     0.407 C 
ATOM     61  H   UNL     1      24.180  41.048   9.237  1.00  0.00     0.167 HD
ATOM     62  O   UNL     1      22.892  41.813  12.117  1.00  0.00    -0.225 OA
BRANCH  60  63
ATOM     63  O   UNL     1      25.090  41.489  11.595  1.00  0.00    -0.443 OA
BRANCH  63  64
ATOM     64  C   UNL     1      25.498  40.869  12.769  1.00  0.00     0.294 C 
BRANCH  64  65
ATOM     65  C   UNL     1      25.732  39.418  12.637  1.00  0.00     0.120 A 
ATOM     66  C   UNL     1      26.949  38.799  12.430  1.00  0.00     0.139 A 
ATOM     67  N   UNL     1      24.831  38.428  12.677  1.00  0.00    -0.132 NA
ATOM     68  N   UNL     1      26.762  37.460  12.349  1.00  0.00    -0.241 N 
ATOM     69  N   UNL     1      25.469  37.273  12.504  1.00  0.00    -0.066 NA
BRANCH  68  70
ATOM     70  C   UNL     1      27.824  36.486  12.127  1.00  0.00     0.268 C 
BRANCH  70  71
ATOM     71  C   UNL     1      27.174  35.130  12.036  1.00  0.00     0.327 C 
ATOM     72  O   UNL     1      26.931  34.584  10.943  1.00  0.00    -0.250 OA
BRANCH  71  73
ATOM     73  O   UNL     1      26.818  34.431  13.176  1.00  0.00    -0.465 OA
BRANCH  73  74
ATOM     74  C   UNL     1      27.577  34.380  14.350  1.00  0.00     0.229 C 
ATOM     75  C   UNL     1      26.939  35.124  15.497  1.00  0.00     0.049 C 
ENDBRANCH  73  74
ENDBRANCH  71  73
ENDBRANCH  70  71
ENDBRANCH  68  70
ENDBRANCH  64  65
ENDBRANCH  63  64
ENDBRANCH  60  63
ENDBRANCH  58  59
ENDBRANCH  55  58
ENDBRANCH   1  55
TORSDOF 33
BEGIN_RES LYS A 131
REMARK  4 active torsions:
REMARK  status: ('A' for Active; 'I' for Inactive)
REMARK    1  A    between atoms: CA   and  CB  
REMARK    2  A    between atoms: CB   and  CG  
REMARK    3  A    between atoms: CG   and  CD  
REMARK    4  A    between atoms: CD   and  CE  
ROOT
ATOM      1  CA  LYS A 131      29.867  25.555  16.977  1.00 20.52     0.186 C 
ENDROOT
BRANCH   1   2
ATOM      2  CB  LYS A 131      28.345  25.722  17.026  1.00 20.94     0.034 C 
BRANCH   2   3
ATOM      3  CG  LYS A 131      27.601  24.407  16.856  1.00 22.96     0.005 C 
BRANCH   3   4
ATOM      4  CD  LYS A 131      26.164  24.509  17.290  1.00 24.33     0.041 C 
BRANCH   4   5
ATOM      5  CE  LYS A 131      26.095  25.130  18.681  1.00 26.91     0.338 C 
ATOM      6  NZ  LYS A 131      25.390  24.225  19.619  1.00 27.40     0.618 N 
ENDBRANCH   4   5
ENDBRANCH   3   4
ENDBRANCH   2   3
ENDBRANCH   1   2
END_RES LYS A 131
BEGIN_RES LYS A 135
REMARK  4 active torsions:
REMARK  status: ('A' for Active; 'I' for Inactive)
REMARK    5  A    between atoms: CA   and  CB  
REMARK    6  A    between atoms: CB   and  CG  
REMARK    7  A    between atoms: CG   and  CD  
REMARK    8  A    between atoms: CD   and  CE  
ROOT
ATOM      7  CA  LYS A 135      33.193  34.663   9.290  1.00 25.02     0.186 C 
ENDROOT
BRANCH   7   8
ATOM      8  CB  LYS A 135      32.060  35.360  10.034  1.00 26.63     0.034 C 
BRANCH   8   9
ATOM      9  CG  LYS A 135      30.712  34.726   9.809  1.00 29.45     0.005 C 
BRANCH   9  10
ATOM     10  CD  LYS A 135      30.449  34.537   8.323  1.00 32.00     0.041 C 
BRANCH  10  11
ATOM     11  CE  LYS A 135      28.997  34.828   7.997  1.00 34.25     0.338 C 
ATOM     12  NZ  LYS A 135      28.873  35.560   6.706  1.00 35.99     0.618 N 
ENDBRANCH  10  11
ENDBRANCH   9  10
ENDBRANCH   8   9
ENDBRANCH   7   8
END_RES LYS A 135
