REMARK VINA RESULT:    -4.248      5.124      9.126
REMARK INTER + INTRA:         -21.073
REMARK INTER:                 -12.161
REMARK INTRA:                  -8.912
REMARK UNBOUND:               -10.616
REMARK SMILES CC(=O)N[C@@H]1[C@@H](O)C[C@](OC[C@H]2O[C@@H](O[C@H]3[C@H](O)[C@@H](O)[C@H](OCCN=[N+]=[N-])O[C@@H]3CO)[C@H](O)[C@@H](O)[C@H]2O)(C(=O)O)O[C@H]1C(O)[C@H](O)CNC(=O)OCc1cn(C2CCCC2)nn1
REMARK SMILES IDX 9 1 8 2 6 3 5 4 42 5 41 6 10 7 11 8 12 9 14 10 13 11 32 12
REMARK SMILES IDX 34 13 36 14 15 15 16 16 29 17 28 18 21 19 17 20 19 21 30 22
REMARK SMILES IDX 31 23 22 25 23 26 24 27 25 28 26 29 27 30 18 31 20 33 33 35
REMARK SMILES IDX 35 37 37 39 38 41 39 42 40 43 7 45 43 47 44 48 45 50 46 51
REMARK SMILES IDX 47 53 48 54 49 55 50 57 51 58 52 59 53 60 54 61 62 62 55 63
REMARK SMILES IDX 61 64 56 65 57 66 60 67 58 68 59 69 4 70 2 71 1 73 3 74
REMARK H PARENT 31 24 18 32 20 34 33 36 35 38 37 40 40 44 7 46 44 49 46 52
REMARK H PARENT 48 56 4 72
REMARK Flexibility Score: inf
ROOT
ATOM      1  C   UNL     1      26.175  35.599  13.032  1.00  0.00     0.272 C 
ATOM      2  C   UNL     1      26.763  36.950  13.201  1.00  0.00     0.113 C 
ATOM      3  C   UNL     1      28.239  37.012  13.024  1.00  0.00     0.145 C 
ATOM      4  C   UNL     1      28.925  35.907  13.863  1.00  0.00     0.142 C 
ATOM      5  C   UNL     1      27.855  35.166  14.585  1.00  0.00     0.178 C 
ATOM      6  O   UNL     1      27.054  34.609  13.529  1.00  0.00    -0.332 OA
ENDROOT
BRANCH   1   7
ATOM      7  O   UNL     1      25.882  35.281  11.755  1.00  0.00    -0.338 OA
BRANCH   7   8
ATOM      8  C   UNL     1      25.101  36.123  11.007  1.00  0.00     0.199 C 
BRANCH   8   9
ATOM      9  C   UNL     1      25.218  35.677   9.552  1.00  0.00     0.179 C 
ATOM     10  C   UNL     1      23.185  36.346   8.635  1.00  0.00     0.282 C 
ATOM     11  O   UNL     1      24.038  35.309   8.991  1.00  0.00    -0.341 OA
ATOM     12  C   UNL     1      23.890  37.586   8.209  1.00  0.00     0.202 C 
ATOM     13  C   UNL     1      25.286  37.366   7.715  1.00  0.00     0.179 C 
ATOM     14  C   UNL     1      26.050  36.643   8.796  1.00  0.00     0.177 C 
BRANCH  10  15
ATOM     15  O   UNL     1      22.204  36.562   9.601  1.00  0.00    -0.341 OA
BRANCH  15  16
ATOM     16  C   UNL     1      21.326  35.484   9.708  1.00  0.00     0.184 C 
ATOM     17  C   UNL     1      19.943  35.765   9.223  1.00  0.00     0.178 C 
ATOM     18  O   UNL     1      19.151  34.644   9.461  1.00  0.00    -0.341 OA
ATOM     19  C   UNL     1      18.822  34.579  10.803  1.00  0.00     0.281 C 
ATOM     20  C   UNL     1      21.218  35.184  11.198  1.00  0.00     0.180 C 
ATOM     21  C   UNL     1      20.107  34.243  11.538  1.00  0.00     0.202 C 
BRANCH  17  22
ATOM     22  C   UNL     1      19.860  35.993   7.717  1.00  0.00     0.191 C 
BRANCH  22  23
ATOM     23  O   UNL     1      19.881  34.712   7.144  1.00  0.00    -0.394 OA
ATOM     24  H   UNL     1      19.931  34.021   7.826  1.00  0.00     0.210 HD
ENDBRANCH  22  23
ENDBRANCH  17  22
BRANCH  19  25
ATOM     25  O   UNL     1      17.947  33.515  11.003  1.00  0.00    -0.350 OA
BRANCH  25  26
ATOM     26  C   UNL     1      17.707  32.863   9.782  1.00  0.00     0.169 C 
BRANCH  26  27
ATOM     27  C   UNL     1      16.249  32.453   9.675  1.00  0.00     0.119 C 
BRANCH  27  28
ATOM     28  N   UNL     1      16.126  31.077   9.291  1.00  0.00    -0.092 NA
ATOM     29  N   UNL     1      16.907  30.546   8.475  1.00  0.00     0.001 N 
ATOM     30  N   UNL     1      17.362  30.244   7.375  1.00  0.00    -0.003 NA
ENDBRANCH  27  28
ENDBRANCH  26  27
ENDBRANCH  25  26
ENDBRANCH  19  25
BRANCH  20  31
ATOM     31  O   UNL     1      22.425  34.593  11.562  1.00  0.00    -0.387 OA
ATOM     32  H   UNL     1      23.204  35.188  11.424  1.00  0.00     0.211 HD
ENDBRANCH  20  31
BRANCH  21  33
ATOM     33  O   UNL     1      19.834  34.372  12.909  1.00  0.00    -0.385 OA
ATOM     34  H   UNL     1      20.704  34.587  13.333  1.00  0.00     0.211 HD
ENDBRANCH  21  33
ENDBRANCH  15  16
ENDBRANCH  10  15
BRANCH  12  35
ATOM     35  O   UNL     1      23.203  38.227   7.151  1.00  0.00    -0.385 OA
ATOM     36  H   UNL     1      22.260  38.263   7.400  1.00  0.00     0.211 HD
ENDBRANCH  12  35
BRANCH  13  37
ATOM     37  O   UNL     1      25.893  38.588   7.491  1.00  0.00    -0.387 OA
ATOM     38  H   UNL     1      26.862  38.438   7.430  1.00  0.00     0.211 HD
ENDBRANCH  13  37
BRANCH  14  39
ATOM     39  O   UNL     1      26.684  37.591   9.589  1.00  0.00    -0.387 OA
ATOM     40  H   UNL     1      27.629  37.417   9.708  1.00  0.00     0.211 HD
ENDBRANCH  14  39
ENDBRANCH   8   9
ENDBRANCH   7   8
ENDBRANCH   1   7
BRANCH   1  41
ATOM     41  C   UNL     1      24.974  35.482  13.944  1.00  0.00     0.364 C 
ATOM     42  O   UNL     1      24.295  34.446  14.025  1.00  0.00    -0.246 OA
BRANCH  41  43
ATOM     43  O   UNL     1      24.672  36.620  14.697  1.00  0.00    -0.477 OA
ATOM     44  H   UNL     1      24.076  36.519  15.529  1.00  0.00     0.296 HD
ENDBRANCH  41  43
ENDBRANCH   1  41
BRANCH   3  45
ATOM     45  O   UNL     1      28.688  37.018  11.728  1.00  0.00    -0.391 OA
ATOM     46  H   UNL     1      28.244  37.733  11.216  1.00  0.00     0.211 HD
ENDBRANCH   3  45
BRANCH   5  47
ATOM     47  C   UNL     1      28.317  33.955  15.357  1.00  0.00     0.176 C 
BRANCH  47  48
ATOM     48  O   UNL     1      29.416  33.397  14.578  1.00  0.00    -0.388 OA
ATOM     49  H   UNL     1      30.197  33.591  15.146  1.00  0.00     0.211 HD
ENDBRANCH  47  48
BRANCH  47  50
ATOM     50  C   UNL     1      27.357  32.799  15.402  1.00  0.00     0.165 C 
BRANCH  50  51
ATOM     51  O   UNL     1      26.129  33.012  15.921  1.00  0.00    -0.388 OA
ATOM     52  H   UNL     1      26.038  32.850  16.885  1.00  0.00     0.211 HD
ENDBRANCH  50  51
BRANCH  50  53
ATOM     53  C   UNL     1      28.016  31.681  16.202  1.00  0.00     0.154 C 
BRANCH  53  54
ATOM     54  N   UNL     1      27.012  31.122  17.117  1.00  0.00    -0.319 N 
ATOM     55  C   UNL     1      26.831  29.720  17.233  1.00  0.00     0.407 C 
ATOM     56  H   UNL     1      26.401  31.743  17.706  1.00  0.00     0.167 HD
ATOM     57  O   UNL     1      27.547  28.952  16.540  1.00  0.00    -0.225 OA
BRANCH  55  58
ATOM     58  O   UNL     1      25.894  29.181  18.085  1.00  0.00    -0.443 OA
BRANCH  58  59
ATOM     59  C   UNL     1      24.542  29.000  17.708  1.00  0.00     0.294 C 
BRANCH  59  60
ATOM     60  C   UNL     1      24.169  29.759  16.493  1.00  0.00     0.120 A 
ATOM     61  C   UNL     1      24.080  29.361  15.178  1.00  0.00     0.138 A 
ATOM     62  N   UNL     1      23.832  31.067  16.482  1.00  0.00    -0.132 NA
ATOM     63  N   UNL     1      23.705  30.404  14.434  1.00  0.00    -0.249 N 
ATOM     64  N   UNL     1      23.561  31.427  15.261  1.00  0.00    -0.067 NA
BRANCH  63  65
ATOM     65  C   UNL     1      23.481  30.458  12.994  1.00  0.00     0.109 C 
ATOM     66  C   UNL     1      23.065  29.143  12.422  1.00  0.00     0.027 C 
ATOM     67  C   UNL     1      22.307  31.376  12.726  1.00  0.00     0.027 C 
ATOM     68  C   UNL     1      21.559  29.113  12.388  1.00  0.00     0.002 C 
ATOM     69  C   UNL     1      21.084  30.511  12.691  1.00  0.00     0.002 C 
ENDBRANCH  63  65
ENDBRANCH  59  60
ENDBRANCH  58  59
ENDBRANCH  55  58
ENDBRANCH  53  54
ENDBRANCH  50  53
ENDBRANCH  47  50
ENDBRANCH   5  47
BRANCH   4  70
ATOM     70  N   UNL     1      29.949  36.521  14.677  1.00  0.00    -0.348 N 
ATOM     71  C   UNL     1      31.334  36.134  14.509  1.00  0.00     0.217 C 
ATOM     72  H   UNL     1      29.758  37.258  15.386  1.00  0.00     0.163 HD
ATOM     73  C   UNL     1      32.401  36.751  15.334  1.00  0.00     0.114 C 
ATOM     74  O   UNL     1      31.661  35.263  13.658  1.00  0.00    -0.275 OA
ENDBRANCH   4  70
TORSDOF 30
BEGIN_RES LYS A 131
REMARK  4 active torsions:
REMARK  status: ('A' for Active; 'I' for Inactive)
REMARK    1  A    between atoms: CA   and  CB  
REMARK    2  A    between atoms: CB   and  CG  
REMARK    3  A    between atoms: CG   and  CD  
REMARK    4  A    between atoms: CD   and  CE  
ROOT
ATOM      1  CA  LYS A 131      29.867  25.555  16.977  1.00 20.52     0.186 C 
ENDROOT
BRANCH   1   2
ATOM      2  CB  LYS A 131      28.345  25.722  17.026  1.00 20.94     0.034 C 
BRANCH   2   3
ATOM      3  CG  LYS A 131      27.601  24.403  16.888  1.00 22.96     0.005 C 
BRANCH   3   4
ATOM      4  CD  LYS A 131      26.479  24.279  17.881  1.00 24.33     0.041 C 
BRANCH   4   5
ATOM      5  CE  LYS A 131      25.669  23.021  17.580  1.00 26.91     0.338 C 
ATOM      6  NZ  LYS A 131      24.337  23.379  17.039  1.00 27.40     0.618 N 
ENDBRANCH   4   5
ENDBRANCH   3   4
ENDBRANCH   2   3
ENDBRANCH   1   2
END_RES LYS A 131
BEGIN_RES LYS A 135
REMARK  4 active torsions:
REMARK  status: ('A' for Active; 'I' for Inactive)
REMARK    5  A    between atoms: CA   and  CB  
REMARK    6  A    between atoms: CB   and  CG  
REMARK    7  A    between atoms: CG   and  CD  
REMARK    8  A    between atoms: CD   and  CE  
ROOT
ATOM      7  CA  LYS A 135      33.193  34.663   9.290  1.00 25.02     0.186 C 
ENDROOT
BRANCH   7   8
ATOM      8  CB  LYS A 135      32.060  35.360  10.034  1.00 26.63     0.034 C 
BRANCH   8   9
ATOM      9  CG  LYS A 135      30.724  35.241   9.346  1.00 29.45     0.005 C 
BRANCH   9  10
ATOM     10  CD  LYS A 135      30.347  36.553   8.677  1.00 32.00     0.041 C 
BRANCH  10  11
ATOM     11  CE  LYS A 135      29.316  36.319   7.589  1.00 34.25     0.338 C 
ATOM     12  NZ  LYS A 135      28.896  34.891   7.546  1.00 35.99     0.618 N 
ENDBRANCH  10  11
ENDBRANCH   9  10
ENDBRANCH   8   9
ENDBRANCH   7   8
END_RES LYS A 135
