REMARK VINA RESULT:    -4.477      4.478     10.836
REMARK INTER + INTRA:         -22.803
REMARK INTER:                 -10.854
REMARK INTRA:                 -11.949
REMARK UNBOUND:               -10.737
REMARK SMILES CC(=O)N[C@@H]1[C@@H](O)C[C@](OC[C@H]2O[C@@H](O[C@H]3[C@H](O)[C@@H](O)[C@H](OCCN=[N+]=[N-])O[C@@H]3CO)[C@H](O)[C@@H](O)[C@H]2O)(C(=O)O)O[C@H]1C(O)[C@H](O)CNC(=O)OCc1cn(CCNC(=O)NCc2ccco2)nn1
REMARK SMILES IDX 43 1 42 2 9 3 8 4 41 5 6 6 5 7 10 8 11 9 12 10 14 11 13 12
REMARK SMILES IDX 32 13 34 14 36 15 15 16 16 17 29 18 28 19 21 20 17 21 19 22
REMARK SMILES IDX 30 23 31 24 22 26 23 27 24 28 25 29 26 30 27 31 18 32 20 34
REMARK SMILES IDX 33 36 35 38 37 40 38 42 39 43 40 44 7 46 4 48 2 49 1 51 3 52
REMARK SMILES IDX 44 53 45 55 46 56 47 58 48 59 49 60 50 62 51 63 52 64 53 65
REMARK SMILES IDX 54 66 69 67 55 68 68 69 56 70 57 71 58 72 59 73 60 75 61 76
REMARK SMILES IDX 62 78 63 79 64 80 67 81 65 82 66 83
REMARK H PARENT 31 25 18 33 20 35 33 37 35 39 37 41 40 45 7 47 4 50 44 54
REMARK H PARENT 46 57 48 61 58 74 61 77
REMARK Flexibility Score: inf
ROOT
ATOM      1  C   UNL     1      27.900  37.105  13.865  1.00  0.00     0.176 C 
ENDROOT
BRANCH   1   2
ATOM      2  C   UNL     1      28.882  36.781  14.946  1.00  0.00     0.178 C 
ATOM      3  C   UNL     1      30.881  36.040  13.893  1.00  0.00     0.272 C 
ATOM      4  C   UNL     1      30.064  34.712  13.781  1.00  0.00     0.113 C 
ATOM      5  O   UNL     1      30.182  36.961  14.587  1.00  0.00    -0.332 OA
ATOM      6  C   UNL     1      29.344  34.378  15.026  1.00  0.00     0.145 C 
ATOM      7  C   UNL     1      28.632  35.526  15.699  1.00  0.00     0.142 C 
BRANCH   3   8
ATOM      8  O   UNL     1      30.980  36.462  12.585  1.00  0.00    -0.338 OA
BRANCH   8   9
ATOM      9  C   UNL     1      31.431  37.677  12.285  1.00  0.00     0.199 C 
BRANCH   9  10
ATOM     10  C   UNL     1      31.383  38.342  10.998  1.00  0.00     0.179 C 
ATOM     11  C   UNL     1      30.375  38.665   8.963  1.00  0.00     0.282 C 
ATOM     12  O   UNL     1      30.213  38.208  10.271  1.00  0.00    -0.341 OA
ATOM     13  C   UNL     1      31.494  39.619   8.762  1.00  0.00     0.202 C 
ATOM     14  C   UNL     1      31.826  40.499   9.931  1.00  0.00     0.179 C 
ATOM     15  C   UNL     1      31.507  39.858  11.249  1.00  0.00     0.177 C 
BRANCH  11  16
ATOM     16  O   UNL     1      29.208  39.207   8.449  1.00  0.00    -0.341 OA
BRANCH  16  17
ATOM     17  C   UNL     1      28.187  38.248   8.293  1.00  0.00     0.184 C 
ATOM     18  C   UNL     1      27.620  38.421   6.914  1.00  0.00     0.178 C 
ATOM     19  O   UNL     1      26.256  38.147   6.865  1.00  0.00    -0.341 OA
ATOM     20  C   UNL     1      25.627  39.139   7.606  1.00  0.00     0.281 C 
ATOM     21  C   UNL     1      27.218  38.432   9.413  1.00  0.00     0.180 C 
ATOM     22  C   UNL     1      25.855  38.892   9.060  1.00  0.00     0.202 C 
BRANCH  18  23
ATOM     23  C   UNL     1      28.291  37.399   5.996  1.00  0.00     0.191 C 
BRANCH  23  24
ATOM     24  O   UNL     1      27.355  37.076   4.989  1.00  0.00    -0.394 OA
ATOM     25  H   UNL     1      27.157  37.952   4.545  1.00  0.00     0.210 HD
ENDBRANCH  23  24
ENDBRANCH  18  23
BRANCH  20  26
ATOM     26  O   UNL     1      24.257  38.997   7.365  1.00  0.00    -0.350 OA
BRANCH  26  27
ATOM     27  C   UNL     1      23.802  37.730   7.729  1.00  0.00     0.169 C 
BRANCH  27  28
ATOM     28  C   UNL     1      22.302  37.870   8.001  1.00  0.00     0.119 C 
BRANCH  28  29
ATOM     29  N   UNL     1      22.161  38.908   9.006  1.00  0.00    -0.092 NA
ATOM     30  N   UNL     1      21.349  39.833   8.857  1.00  0.00     0.001 N 
ATOM     31  N   UNL     1      20.336  40.552   8.833  1.00  0.00    -0.003 NA
ENDBRANCH  28  29
ENDBRANCH  27  28
ENDBRANCH  26  27
ENDBRANCH  20  26
BRANCH  21  32
ATOM     32  O   UNL     1      27.149  37.207  10.107  1.00  0.00    -0.387 OA
ATOM     33  H   UNL     1      26.780  36.491   9.558  1.00  0.00     0.211 HD
ENDBRANCH  21  32
BRANCH  22  34
ATOM     34  O   UNL     1      25.628  40.134   9.706  1.00  0.00    -0.385 OA
ATOM     35  H   UNL     1      25.109  39.902  10.536  1.00  0.00     0.211 HD
ENDBRANCH  22  34
ENDBRANCH  16  17
ENDBRANCH  11  16
BRANCH  13  36
ATOM     36  O   UNL     1      32.635  39.013   8.218  1.00  0.00    -0.385 OA
ATOM     37  H   UNL     1      32.788  39.286   7.286  1.00  0.00     0.211 HD
ENDBRANCH  13  36
BRANCH  14  38
ATOM     38  O   UNL     1      31.211  41.754   9.830  1.00  0.00    -0.387 OA
ATOM     39  H   UNL     1      30.928  41.830   8.877  1.00  0.00     0.211 HD
ENDBRANCH  14  38
BRANCH  15  40
ATOM     40  O   UNL     1      30.380  40.357  11.857  1.00  0.00    -0.387 OA
ATOM     41  H   UNL     1      30.119  39.743  12.568  1.00  0.00     0.211 HD
ENDBRANCH  15  40
ENDBRANCH   9  10
ENDBRANCH   8   9
ENDBRANCH   3   8
BRANCH   3  42
ATOM     42  C   UNL     1      32.169  35.600  14.422  1.00  0.00     0.364 C 
ATOM     43  O   UNL     1      32.991  35.001  13.712  1.00  0.00    -0.246 OA
BRANCH  42  44
ATOM     44  O   UNL     1      32.572  35.813  15.744  1.00  0.00    -0.477 OA
ATOM     45  H   UNL     1      32.112  35.291  16.492  1.00  0.00     0.296 HD
ENDBRANCH  42  44
ENDBRANCH   3  42
BRANCH   6  46
ATOM     46  O   UNL     1      28.396  33.385  14.713  1.00  0.00    -0.391 OA
ATOM     47  H   UNL     1      27.534  33.820  14.494  1.00  0.00     0.211 HD
ENDBRANCH   6  46
BRANCH   7  48
ATOM     48  N   UNL     1      29.108  35.622  17.080  1.00  0.00    -0.348 N 
ATOM     49  C   UNL     1      28.511  34.882  18.110  1.00  0.00     0.217 C 
ATOM     50  H   UNL     1      29.909  36.259  17.276  1.00  0.00     0.163 HD
ATOM     51  C   UNL     1      28.959  34.948  19.533  1.00  0.00     0.114 C 
ATOM     52  O   UNL     1      27.538  34.124  17.797  1.00  0.00    -0.275 OA
ENDBRANCH   7  48
ENDBRANCH   1   2
BRANCH   1  53
ATOM     53  O   UNL     1      28.210  36.273  12.731  1.00  0.00    -0.388 OA
ATOM     54  H   UNL     1      29.174  36.170  12.745  1.00  0.00     0.211 HD
ENDBRANCH   1  53
BRANCH   1  55
ATOM     55  C   UNL     1      27.977  38.487  13.286  1.00  0.00     0.165 C 
BRANCH  55  56
ATOM     56  O   UNL     1      28.760  39.398  13.954  1.00  0.00    -0.388 OA
ATOM     57  H   UNL     1      28.874  40.254  13.470  1.00  0.00     0.211 HD
ENDBRANCH  55  56
BRANCH  55  58
ATOM     58  C   UNL     1      26.578  39.061  13.034  1.00  0.00     0.154 C 
BRANCH  58  59
ATOM     59  N   UNL     1      25.635  38.010  12.739  1.00  0.00    -0.319 N 
ATOM     60  C   UNL     1      24.323  38.254  12.271  1.00  0.00     0.407 C 
ATOM     61  H   UNL     1      25.936  37.025  12.875  1.00  0.00     0.167 HD
ATOM     62  O   UNL     1      23.942  39.441  12.096  1.00  0.00    -0.225 OA
BRANCH  60  63
ATOM     63  O   UNL     1      23.434  37.220  11.996  1.00  0.00    -0.443 OA
BRANCH  63  64
ATOM     64  C   UNL     1      23.784  36.261  11.004  1.00  0.00     0.294 C 
BRANCH  64  65
ATOM     65  C   UNL     1      24.435  35.142  11.752  1.00  0.00     0.120 A 
ATOM     66  C   UNL     1      23.777  34.098  12.343  1.00  0.00     0.138 A 
ATOM     67  N   UNL     1      25.763  34.972  11.968  1.00  0.00    -0.132 NA
ATOM     68  N   UNL     1      24.709  33.334  12.895  1.00  0.00    -0.250 N 
ATOM     69  N   UNL     1      25.909  33.868  12.664  1.00  0.00    -0.067 NA
BRANCH  68  70
ATOM     70  C   UNL     1      24.445  32.107  13.645  1.00  0.00     0.167 C 
BRANCH  70  71
ATOM     71  C   UNL     1      24.343  32.501  15.120  1.00  0.00     0.141 C 
BRANCH  71  72
ATOM     72  N   UNL     1      25.670  32.452  15.660  1.00  0.00    -0.336 N 
ATOM     73  C   UNL     1      26.215  31.325  16.308  1.00  0.00     0.315 C 
ATOM     74  H   UNL     1      26.252  33.326  15.554  1.00  0.00     0.165 HD
ATOM     75  O   UNL     1      25.545  30.282  16.469  1.00  0.00    -0.249 OA
ATOM     76  N   UNL     1      27.568  31.391  16.784  1.00  0.00    -0.331 N 
ATOM     77  H   UNL     1      28.094  32.288  16.626  1.00  0.00     0.165 HD
BRANCH  76  78
ATOM     78  C   UNL     1      28.160  30.263  17.447  1.00  0.00     0.193 C 
BRANCH  78  79
ATOM     79  C   UNL     1      29.070  30.718  18.532  1.00  0.00     0.122 A 
ATOM     80  C   UNL     1      30.183  31.526  18.334  1.00  0.00     0.047 A 
ATOM     81  O   UNL     1      28.977  30.447  19.790  1.00  0.00    -0.467 OA
ATOM     82  C   UNL     1      30.737  31.710  19.567  1.00  0.00     0.042 A 
ATOM     83  C   UNL     1      29.956  31.020  20.455  1.00  0.00     0.195 A 
ENDBRANCH  78  79
ENDBRANCH  76  78
ENDBRANCH  71  72
ENDBRANCH  70  71
ENDBRANCH  68  70
ENDBRANCH  64  65
ENDBRANCH  63  64
ENDBRANCH  60  63
ENDBRANCH  58  59
ENDBRANCH  55  58
ENDBRANCH   1  55
TORSDOF 34
BEGIN_RES LYS A 131
REMARK  4 active torsions:
REMARK  status: ('A' for Active; 'I' for Inactive)
REMARK    1  A    between atoms: CA   and  CB  
REMARK    2  A    between atoms: CB   and  CG  
REMARK    3  A    between atoms: CG   and  CD  
REMARK    4  A    between atoms: CD   and  CE  
ROOT
ATOM      1  CA  LYS A 131      29.867  25.555  16.977  1.00 20.52     0.186 C 
ENDROOT
BRANCH   1   2
ATOM      2  CB  LYS A 131      28.345  25.722  17.026  1.00 20.94     0.034 C 
BRANCH   2   3
ATOM      3  CG  LYS A 131      27.602  24.397  16.945  1.00 22.96     0.005 C 
BRANCH   3   4
ATOM      4  CD  LYS A 131      26.631  24.222  18.079  1.00 24.33     0.041 C 
BRANCH   4   5
ATOM      5  CE  LYS A 131      25.246  23.914  17.520  1.00 26.91     0.338 C 
ATOM      6  NZ  LYS A 131      25.011  22.451  17.493  1.00 27.40     0.618 N 
ENDBRANCH   4   5
ENDBRANCH   3   4
ENDBRANCH   2   3
ENDBRANCH   1   2
END_RES LYS A 131
BEGIN_RES LYS A 135
REMARK  4 active torsions:
REMARK  status: ('A' for Active; 'I' for Inactive)
REMARK    5  A    between atoms: CA   and  CB  
REMARK    6  A    between atoms: CB   and  CG  
REMARK    7  A    between atoms: CG   and  CD  
REMARK    8  A    between atoms: CD   and  CE  
ROOT
ATOM      7  CA  LYS A 135      33.193  34.663   9.290  1.00 25.02     0.186 C 
ENDROOT
BRANCH   7   8
ATOM      8  CB  LYS A 135      32.060  35.360  10.034  1.00 26.63     0.034 C 
BRANCH   8   9
ATOM      9  CG  LYS A 135      30.733  34.659   9.904  1.00 29.45     0.005 C 
BRANCH   9  10
ATOM     10  CD  LYS A 135      30.317  34.562   8.444  1.00 32.00     0.041 C 
BRANCH  10  11
ATOM     11  CE  LYS A 135      28.806  34.543   8.321  1.00 34.25     0.338 C 
ATOM     12  NZ  LYS A 135      28.183  33.829   9.470  1.00 35.99     0.618 N 
ENDBRANCH  10  11
ENDBRANCH   9  10
ENDBRANCH   8   9
ENDBRANCH   7   8
END_RES LYS A 135
