REMARK VINA RESULT:    -4.762      8.411     15.312
REMARK INTER + INTRA:         -22.077
REMARK INTER:                  -8.385
REMARK INTRA:                 -13.693
REMARK UNBOUND:                -9.660
REMARK SMILES CC(=O)N[C@@H]1[C@@H](O)C[C@](OC[C@H]2O[C@@H](O[C@H]3[C@H](O)[C@@H](O)[C@H](OCCN=[N+]=[N-])O[C@@H]3CO)[C@H](O)[C@@H](O)[C@H]2O)(C(=O)O)O[C@H]1C(O)[C@H](O)CNC(=O)OCc1cn(CCC(=O)O)nn1
REMARK SMILES IDX 43 1 42 2 9 3 8 4 41 5 6 6 5 7 10 8 11 9 12 10 14 11 13 12
REMARK SMILES IDX 32 13 34 14 36 15 15 16 16 17 29 18 28 19 21 20 17 21 19 22
REMARK SMILES IDX 30 23 31 24 22 26 23 27 24 28 25 29 26 30 27 31 18 32 20 34
REMARK SMILES IDX 33 36 35 38 37 40 38 42 39 43 40 44 7 46 4 48 2 49 1 51 3 52
REMARK SMILES IDX 44 53 45 55 46 56 47 58 48 59 49 60 50 62 51 63 52 64 53 65
REMARK SMILES IDX 54 66 62 67 55 68 61 69 56 70 57 71 58 72 59 73 60 74
REMARK H PARENT 31 25 18 33 20 35 33 37 35 39 37 41 40 45 7 47 4 50 44 54
REMARK H PARENT 46 57 48 61 60 75
REMARK Flexibility Score: inf
ROOT
ATOM      1  C   UNL     1      28.669  33.004  18.677  1.00  0.00     0.176 C 
ENDROOT
BRANCH   1   2
ATOM      2  C   UNL     1      28.086  32.355  17.444  1.00  0.00     0.178 C 
ATOM      3  C   UNL     1      26.383  30.884  16.781  1.00  0.00     0.272 C 
ATOM      4  C   UNL     1      26.949  31.415  15.477  1.00  0.00     0.113 C 
ATOM      5  O   UNL     1      27.454  31.168  17.710  1.00  0.00    -0.332 OA
ATOM      6  C   UNL     1      28.467  31.157  15.383  1.00  0.00     0.145 C 
ATOM      7  C   UNL     1      29.159  32.045  16.410  1.00  0.00     0.142 C 
BRANCH   3   8
ATOM      8  O   UNL     1      26.204  29.551  16.718  1.00  0.00    -0.338 OA
BRANCH   8   9
ATOM      9  C   UNL     1      25.604  28.755  17.558  1.00  0.00     0.199 C 
BRANCH   9  10
ATOM     10  C   UNL     1      26.181  28.112  18.745  1.00  0.00     0.179 C 
ATOM     11  C   UNL     1      27.999  27.602  20.052  1.00  0.00     0.282 C 
ATOM     12  O   UNL     1      27.543  28.101  18.866  1.00  0.00    -0.341 OA
ATOM     13  C   UNL     1      26.948  27.116  21.010  1.00  0.00     0.202 C 
ATOM     14  C   UNL     1      25.806  28.105  21.149  1.00  0.00     0.179 C 
ATOM     15  C   UNL     1      25.722  29.018  19.947  1.00  0.00     0.177 C 
BRANCH  11  16
ATOM     16  O   UNL     1      28.798  28.496  20.764  1.00  0.00    -0.341 OA
BRANCH  16  17
ATOM     17  C   UNL     1      29.344  27.950  21.923  1.00  0.00     0.184 C 
ATOM     18  C   UNL     1      29.892  29.054  22.758  1.00  0.00     0.178 C 
ATOM     19  O   UNL     1      31.291  29.028  22.887  1.00  0.00    -0.341 OA
ATOM     20  C   UNL     1      31.772  28.961  21.564  1.00  0.00     0.281 C 
ATOM     21  C   UNL     1      30.357  26.926  21.503  1.00  0.00     0.180 C 
ATOM     22  C   UNL     1      31.701  27.500  21.181  1.00  0.00     0.202 C 
BRANCH  18  23
ATOM     23  C   UNL     1      29.295  29.040  24.157  1.00  0.00     0.191 C 
BRANCH  23  24
ATOM     24  O   UNL     1      27.915  29.212  24.095  1.00  0.00    -0.394 OA
ATOM     25  H   UNL     1      27.644  29.207  23.147  1.00  0.00     0.210 HD
ENDBRANCH  23  24
ENDBRANCH  18  23
BRANCH  20  26
ATOM     26  O   UNL     1      33.045  29.469  21.453  1.00  0.00    -0.350 OA
BRANCH  26  27
ATOM     27  C   UNL     1      33.522  29.794  22.721  1.00  0.00     0.169 C 
BRANCH  27  28
ATOM     28  C   UNL     1      34.884  29.145  22.924  1.00  0.00     0.119 C 
BRANCH  28  29
ATOM     29  N   UNL     1      34.770  28.317  24.107  1.00  0.00    -0.092 NA
ATOM     30  N   UNL     1      33.861  27.490  24.158  1.00  0.00     0.001 N 
ATOM     31  N   UNL     1      33.111  26.527  24.428  1.00  0.00    -0.003 NA
ENDBRANCH  28  29
ENDBRANCH  27  28
ENDBRANCH  26  27
ENDBRANCH  20  26
BRANCH  21  32
ATOM     32  O   UNL     1      30.500  26.027  22.554  1.00  0.00    -0.387 OA
ATOM     33  H   UNL     1      29.658  25.542  22.661  1.00  0.00     0.211 HD
ENDBRANCH  21  32
BRANCH  22  34
ATOM     34  O   UNL     1      32.013  27.319  19.832  1.00  0.00    -0.385 OA
ATOM     35  H   UNL     1      31.729  26.412  19.532  1.00  0.00     0.211 HD
ENDBRANCH  22  34
ENDBRANCH  16  17
ENDBRANCH  11  16
BRANCH  13  36
ATOM     36  O   UNL     1      26.487  25.824  20.718  1.00  0.00    -0.385 OA
ATOM     37  H   UNL     1      26.199  25.781  19.792  1.00  0.00     0.211 HD
ENDBRANCH  13  36
BRANCH  14  38
ATOM     38  O   UNL     1      25.899  28.786  22.341  1.00  0.00    -0.387 OA
ATOM     39  H   UNL     1      25.307  29.565  22.350  1.00  0.00     0.211 HD
ENDBRANCH  14  38
BRANCH  15  40
ATOM     40  O   UNL     1      26.633  30.046  19.995  1.00  0.00    -0.387 OA
ATOM     41  H   UNL     1      27.575  29.766  20.064  1.00  0.00     0.211 HD
ENDBRANCH  15  40
ENDBRANCH   9  10
ENDBRANCH   8   9
ENDBRANCH   3   8
BRANCH   3  42
ATOM     42  C   UNL     1      25.223  31.631  17.277  1.00  0.00     0.364 C 
ATOM     43  O   UNL     1      25.221  32.086  18.447  1.00  0.00    -0.246 OA
BRANCH  42  44
ATOM     44  O   UNL     1      24.122  31.851  16.489  1.00  0.00    -0.477 OA
ATOM     45  H   UNL     1      23.964  31.462  15.582  1.00  0.00     0.296 HD
ENDBRANCH  42  44
ENDBRANCH   3  42
BRANCH   6  46
ATOM     46  O   UNL     1      28.676  29.842  15.734  1.00  0.00    -0.391 OA
ATOM     47  H   UNL     1      29.411  29.816  16.413  1.00  0.00     0.211 HD
ENDBRANCH   6  46
BRANCH   7  48
ATOM     48  N   UNL     1      29.675  33.223  15.793  1.00  0.00    -0.348 N 
ATOM     49  C   UNL     1      31.012  33.234  15.316  1.00  0.00     0.217 C 
ATOM     50  H   UNL     1      29.111  34.093  15.674  1.00  0.00     0.163 HD
ATOM     51  C   UNL     1      31.629  34.416  14.666  1.00  0.00     0.114 C 
ATOM     52  O   UNL     1      31.750  32.212  15.429  1.00  0.00    -0.275 OA
ENDBRANCH   7  48
ENDBRANCH   1   2
BRANCH   1  53
ATOM     53  O   UNL     1      27.688  33.008  19.669  1.00  0.00    -0.388 OA
ATOM     54  H   UNL     1      27.294  32.120  19.788  1.00  0.00     0.211 HD
ENDBRANCH   1  53
BRANCH   1  55
ATOM     55  C   UNL     1      29.892  32.333  19.217  1.00  0.00     0.165 C 
BRANCH  55  56
ATOM     56  O   UNL     1      29.495  31.334  20.111  1.00  0.00    -0.388 OA
ATOM     57  H   UNL     1      30.209  31.212  20.782  1.00  0.00     0.211 HD
ENDBRANCH  55  56
BRANCH  55  58
ATOM     58  C   UNL     1      30.650  33.390  20.029  1.00  0.00     0.154 C 
BRANCH  58  59
ATOM     59  N   UNL     1      30.321  33.296  21.424  1.00  0.00    -0.319 N 
ATOM     60  C   UNL     1      29.771  34.355  22.197  1.00  0.00     0.407 C 
ATOM     61  H   UNL     1      30.481  32.387  21.955  1.00  0.00     0.167 HD
ATOM     62  O   UNL     1      29.559  35.450  21.617  1.00  0.00    -0.225 OA
BRANCH  60  63
ATOM     63  O   UNL     1      29.471  34.217  23.540  1.00  0.00    -0.443 OA
BRANCH  63  64
ATOM     64  C   UNL     1      29.139  32.947  24.043  1.00  0.00     0.294 C 
BRANCH  64  65
ATOM     65  C   UNL     1      27.832  32.501  23.523  1.00  0.00     0.120 A 
ATOM     66  C   UNL     1      26.623  32.861  24.104  1.00  0.00     0.138 A 
ATOM     67  N   UNL     1      27.570  31.723  22.445  1.00  0.00    -0.132 NA
ATOM     68  N   UNL     1      25.666  32.279  23.342  1.00  0.00    -0.252 N 
ATOM     69  N   UNL     1      26.261  31.610  22.366  1.00  0.00    -0.067 NA
BRANCH  68  70
ATOM     70  C   UNL     1      24.236  32.373  23.547  1.00  0.00     0.158 C 
BRANCH  70  71
ATOM     71  C   UNL     1      23.489  31.135  23.104  1.00  0.00     0.146 C 
BRANCH  71  72
ATOM     72  C   UNL     1      22.909  31.397  21.780  1.00  0.00     0.305 C 
ATOM     73  O   UNL     1      21.681  31.608  21.672  1.00  0.00    -0.252 OA
BRANCH  72  74
ATOM     74  O   UNL     1      23.691  31.418  20.626  1.00  0.00    -0.481 OA
ATOM     75  H   UNL     1      23.934  32.269  20.132  1.00  0.00     0.296 HD
ENDBRANCH  72  74
ENDBRANCH  71  72
ENDBRANCH  70  71
ENDBRANCH  68  70
ENDBRANCH  64  65
ENDBRANCH  63  64
ENDBRANCH  60  63
ENDBRANCH  58  59
ENDBRANCH  55  58
ENDBRANCH   1  55
TORSDOF 33
BEGIN_RES LYS A 131
REMARK  4 active torsions:
REMARK  status: ('A' for Active; 'I' for Inactive)
REMARK    1  A    between atoms: CA   and  CB  
REMARK    2  A    between atoms: CB   and  CG  
REMARK    3  A    between atoms: CG   and  CD  
REMARK    4  A    between atoms: CD   and  CE  
ROOT
ATOM      1  CA  LYS A 131      29.867  25.555  16.977  1.00 20.52     0.186 C 
ENDROOT
BRANCH   1   2
ATOM      2  CB  LYS A 131      28.345  25.722  17.026  1.00 20.94     0.034 C 
BRANCH   2   3
ATOM      3  CG  LYS A 131      27.599  24.432  16.720  1.00 22.96     0.005 C 
BRANCH   3   4
ATOM      4  CD  LYS A 131      26.761  23.973  17.881  1.00 24.33     0.041 C 
BRANCH   4   5
ATOM      5  CE  LYS A 131      25.332  23.722  17.410  1.00 26.91     0.338 C 
ATOM      6  NZ  LYS A 131      24.946  22.312  17.652  1.00 27.40     0.618 N 
ENDBRANCH   4   5
ENDBRANCH   3   4
ENDBRANCH   2   3
ENDBRANCH   1   2
END_RES LYS A 131
BEGIN_RES LYS A 135
REMARK  4 active torsions:
REMARK  status: ('A' for Active; 'I' for Inactive)
REMARK    5  A    between atoms: CA   and  CB  
REMARK    6  A    between atoms: CB   and  CG  
REMARK    7  A    between atoms: CG   and  CD  
REMARK    8  A    between atoms: CD   and  CE  
ROOT
ATOM      7  CA  LYS A 135      33.193  34.663   9.290  1.00 25.02     0.186 C 
ENDROOT
BRANCH   7   8
ATOM      8  CB  LYS A 135      32.060  35.360  10.034  1.00 26.63     0.034 C 
BRANCH   8   9
ATOM      9  CG  LYS A 135      30.785  35.457   9.236  1.00 29.45     0.005 C 
BRANCH   9  10
ATOM     10  CD  LYS A 135      30.196  34.076   8.997  1.00 32.00     0.041 C 
BRANCH  10  11
ATOM     11  CE  LYS A 135      28.683  34.118   9.095  1.00 34.25     0.338 C 
ATOM     12  NZ  LYS A 135      28.092  34.871   7.955  1.00 35.99     0.618 N 
ENDBRANCH  10  11
ENDBRANCH   9  10
ENDBRANCH   8   9
ENDBRANCH   7   8
END_RES LYS A 135
