REMARK VINA RESULT:    -4.786      2.892      9.711
REMARK INTER + INTRA:         -21.493
REMARK INTER:                 -11.211
REMARK INTRA:                 -10.282
REMARK UNBOUND:                -9.712
REMARK SMILES CC(=O)N[C@@H]1[C@@H](O)C[C@](OC[C@H]2O[C@@H](O[C@H]3[C@H](O)[C@@H](O)[C@H](OCCN=[N+]=[N-])O[C@@H]3CO)[C@H](O)[C@@H](O)[C@H]2O)(C(=O)O)O[C@H]1C(O)[C@H](O)CNC(=O)OCc1cn(C2CCCCC2)nn1
REMARK SMILES IDX 9 1 8 2 6 3 5 4 42 5 41 6 10 7 11 8 12 9 14 10 13 11 32 12
REMARK SMILES IDX 34 13 36 14 15 15 16 16 29 17 28 18 21 19 17 20 19 21 30 22
REMARK SMILES IDX 31 23 22 25 23 26 24 27 25 28 26 29 27 30 18 31 20 33 33 35
REMARK SMILES IDX 35 37 37 39 38 41 39 42 40 43 7 45 43 47 44 48 45 50 46 51
REMARK SMILES IDX 47 53 48 54 49 55 50 57 51 58 52 59 53 60 54 61 63 62 55 63
REMARK SMILES IDX 62 64 56 65 57 66 61 67 58 68 60 69 59 70 4 71 2 72 1 74
REMARK SMILES IDX 3 75
REMARK H PARENT 31 24 18 32 20 34 33 36 35 38 37 40 40 44 7 46 44 49 46 52
REMARK H PARENT 48 56 4 73
REMARK Flexibility Score: inf
ROOT
ATOM      1  C   UNL     1      27.906  38.163   7.348  1.00  0.00     0.272 C 
ATOM      2  C   UNL     1      29.338  38.142   6.695  1.00  0.00     0.113 C 
ATOM      3  C   UNL     1      30.008  39.460   6.929  1.00  0.00     0.145 C 
ATOM      4  C   UNL     1      29.164  40.595   6.412  1.00  0.00     0.142 C 
ATOM      5  C   UNL     1      27.705  40.402   6.632  1.00  0.00     0.178 C 
ATOM      6  O   UNL     1      27.198  39.220   6.916  1.00  0.00    -0.332 OA
ENDROOT
BRANCH   1   7
ATOM      7  O   UNL     1      28.170  38.188   8.647  1.00  0.00    -0.338 OA
BRANCH   7   8
ATOM      8  C   UNL     1      27.710  37.579   9.687  1.00  0.00     0.199 C 
BRANCH   8   9
ATOM      9  C   UNL     1      27.022  38.309  10.829  1.00  0.00     0.179 C 
ATOM     10  C   UNL     1      27.652  38.053  13.073  1.00  0.00     0.282 C 
ATOM     11  O   UNL     1      26.962  37.571  11.966  1.00  0.00    -0.341 OA
ATOM     12  C   UNL     1      27.235  39.448  13.350  1.00  0.00     0.202 C 
ATOM     13  C   UNL     1      27.286  40.353  12.143  1.00  0.00     0.179 C 
ATOM     14  C   UNL     1      27.811  39.606  10.977  1.00  0.00     0.177 C 
BRANCH  10  15
ATOM     15  O   UNL     1      28.956  37.771  12.896  1.00  0.00    -0.341 OA
BRANCH  15  16
ATOM     16  C   UNL     1      29.501  36.661  13.454  1.00  0.00     0.184 C 
ATOM     17  C   UNL     1      30.950  36.963  13.774  1.00  0.00     0.178 C 
ATOM     18  O   UNL     1      31.519  36.011  14.598  1.00  0.00    -0.341 OA
ATOM     19  C   UNL     1      30.946  34.770  14.516  1.00  0.00     0.281 C 
ATOM     20  C   UNL     1      29.547  35.464  12.528  1.00  0.00     0.180 C 
ATOM     21  C   UNL     1      30.483  34.450  13.142  1.00  0.00     0.202 C 
BRANCH  17  22
ATOM     22  C   UNL     1      31.181  38.368  14.252  1.00  0.00     0.191 C 
BRANCH  22  23
ATOM     23  O   UNL     1      31.285  39.184  13.125  1.00  0.00    -0.394 OA
ATOM     24  H   UNL     1      31.813  38.761  12.406  1.00  0.00     0.210 HD
ENDBRANCH  22  23
ENDBRANCH  17  22
BRANCH  19  25
ATOM     25  O   UNL     1      30.028  34.621  15.521  1.00  0.00    -0.350 OA
BRANCH  25  26
ATOM     26  C   UNL     1      29.362  33.405  15.516  1.00  0.00     0.169 C 
BRANCH  26  27
ATOM     27  C   UNL     1      29.073  32.862  16.889  1.00  0.00     0.119 C 
BRANCH  27  28
ATOM     28  N   UNL     1      30.330  32.475  17.496  1.00  0.00    -0.092 NA
ATOM     29  N   UNL     1      30.328  31.407  18.122  1.00  0.00     0.001 N 
ATOM     30  N   UNL     1      30.340  30.711  19.153  1.00  0.00    -0.003 NA
ENDBRANCH  27  28
ENDBRANCH  26  27
ENDBRANCH  25  26
ENDBRANCH  19  25
BRANCH  20  31
ATOM     31  O   UNL     1      28.326  34.866  12.334  1.00  0.00    -0.387 OA
ATOM     32  H   UNL     1      27.584  35.514  12.237  1.00  0.00     0.211 HD
ENDBRANCH  20  31
BRANCH  21  33
ATOM     33  O   UNL     1      31.634  34.436  12.316  1.00  0.00    -0.385 OA
ATOM     34  H   UNL     1      32.056  33.542  12.325  1.00  0.00     0.211 HD
ENDBRANCH  21  33
ENDBRANCH  15  16
ENDBRANCH  10  15
BRANCH  12  35
ATOM     35  O   UNL     1      25.868  39.381  13.725  1.00  0.00    -0.385 OA
ATOM     36  H   UNL     1      25.578  38.453  13.866  1.00  0.00     0.211 HD
ENDBRANCH  12  35
BRANCH  13  37
ATOM     37  O   UNL     1      28.090  41.483  12.392  1.00  0.00    -0.387 OA
ATOM     38  H   UNL     1      28.663  41.294  13.153  1.00  0.00     0.211 HD
ENDBRANCH  13  37
BRANCH  14  39
ATOM     39  O   UNL     1      29.167  39.438  10.905  1.00  0.00    -0.387 OA
ATOM     40  H   UNL     1      29.496  39.196  11.803  1.00  0.00     0.211 HD
ENDBRANCH  14  39
ENDBRANCH   8   9
ENDBRANCH   7   8
ENDBRANCH   1   7
BRANCH   1  41
ATOM     41  C   UNL     1      27.267  36.930   6.770  1.00  0.00     0.364 C 
ATOM     42  O   UNL     1      27.881  36.002   6.257  1.00  0.00    -0.246 OA
BRANCH  41  43
ATOM     43  O   UNL     1      25.865  36.796   6.803  1.00  0.00    -0.477 OA
ATOM     44  H   UNL     1      25.443  35.887   6.905  1.00  0.00     0.296 HD
ENDBRANCH  41  43
ENDBRANCH   1  41
BRANCH   3  45
ATOM     45  O   UNL     1      30.355  39.629   8.264  1.00  0.00    -0.391 OA
ATOM     46  H   UNL     1      30.887  38.827   8.539  1.00  0.00     0.211 HD
ENDBRANCH   3  45
BRANCH   5  47
ATOM     47  C   UNL     1      27.202  41.387   7.731  1.00  0.00     0.176 C 
BRANCH  47  48
ATOM     48  O   UNL     1      27.805  42.641   7.515  1.00  0.00    -0.388 OA
ATOM     49  H   UNL     1      28.259  42.680   6.650  1.00  0.00     0.211 HD
ENDBRANCH  47  48
BRANCH  47  50
ATOM     50  C   UNL     1      25.714  41.476   7.755  1.00  0.00     0.165 C 
BRANCH  50  51
ATOM     51  O   UNL     1      25.399  42.824   8.044  1.00  0.00    -0.388 OA
ATOM     52  H   UNL     1      25.231  43.338   7.231  1.00  0.00     0.211 HD
ENDBRANCH  50  51
BRANCH  50  53
ATOM     53  C   UNL     1      25.006  40.651   8.763  1.00  0.00     0.154 C 
BRANCH  53  54
ATOM     54  N   UNL     1      24.633  39.326   8.340  1.00  0.00    -0.319 N 
ATOM     55  C   UNL     1      23.370  39.018   7.768  1.00  0.00     0.407 C 
ATOM     56  H   UNL     1      25.314  38.554   8.449  1.00  0.00     0.167 HD
ATOM     57  O   UNL     1      22.514  39.924   7.610  1.00  0.00    -0.225 OA
BRANCH  55  58
ATOM     58  O   UNL     1      23.041  37.750   7.376  1.00  0.00    -0.443 OA
BRANCH  58  59
ATOM     59  C   UNL     1      22.287  36.811   8.104  1.00  0.00     0.294 C 
BRANCH  59  60
ATOM     60  C   UNL     1      23.158  36.185   9.123  1.00  0.00     0.120 A 
ATOM     61  C   UNL     1      22.681  35.684  10.300  1.00  0.00     0.138 A 
ATOM     62  N   UNL     1      24.481  35.995   9.119  1.00  0.00    -0.132 NA
ATOM     63  N   UNL     1      23.725  35.191  11.005  1.00  0.00    -0.249 N 
ATOM     64  N   UNL     1      24.809  35.394  10.260  1.00  0.00    -0.067 NA
BRANCH  63  65
ATOM     65  C   UNL     1      23.655  34.571  12.313  1.00  0.00     0.109 C 
ATOM     66  C   UNL     1      24.972  33.819  12.485  1.00  0.00     0.027 C 
ATOM     67  C   UNL     1      22.525  33.568  12.363  1.00  0.00     0.027 C 
ATOM     68  C   UNL     1      25.016  33.210  13.886  1.00  0.00     0.002 C 
ATOM     69  C   UNL     1      22.977  32.206  12.851  1.00  0.00     0.002 C 
ATOM     70  C   UNL     1      23.815  32.342  14.085  1.00  0.00     0.000 C 
ENDBRANCH  63  65
ENDBRANCH  59  60
ENDBRANCH  58  59
ENDBRANCH  55  58
ENDBRANCH  53  54
ENDBRANCH  50  53
ENDBRANCH  47  50
ENDBRANCH   5  47
BRANCH   4  71
ATOM     71  N   UNL     1      29.514  40.952   5.062  1.00  0.00    -0.348 N 
ATOM     72  C   UNL     1      30.418  41.968   4.713  1.00  0.00     0.217 C 
ATOM     73  H   UNL     1      29.083  40.439   4.227  1.00  0.00     0.163 HD
ATOM     74  C   UNL     1      30.748  42.279   3.280  1.00  0.00     0.114 C 
ATOM     75  O   UNL     1      30.982  42.652   5.567  1.00  0.00    -0.275 OA
ENDBRANCH   4  71
TORSDOF 30
BEGIN_RES LYS A 131
REMARK  4 active torsions:
REMARK  status: ('A' for Active; 'I' for Inactive)
REMARK    1  A    between atoms: CA   and  CB  
REMARK    2  A    between atoms: CB   and  CG  
REMARK    3  A    between atoms: CG   and  CD  
REMARK    4  A    between atoms: CD   and  CE  
ROOT
ATOM      1  CA  LYS A 131      29.867  25.555  16.977  1.00 20.52     0.186 C 
ENDROOT
BRANCH   1   2
ATOM      2  CB  LYS A 131      28.345  25.722  17.026  1.00 20.94     0.034 C 
BRANCH   2   3
ATOM      3  CG  LYS A 131      27.601  24.403  16.885  1.00 22.96     0.005 C 
BRANCH   3   4
ATOM      4  CD  LYS A 131      26.153  24.525  17.271  1.00 24.33     0.041 C 
BRANCH   4   5
ATOM      5  CE  LYS A 131      26.047  24.788  18.770  1.00 26.91     0.338 C 
ATOM      6  NZ  LYS A 131      25.504  23.599  19.468  1.00 27.40     0.618 N 
ENDBRANCH   4   5
ENDBRANCH   3   4
ENDBRANCH   2   3
ENDBRANCH   1   2
END_RES LYS A 131
BEGIN_RES LYS A 135
REMARK  4 active torsions:
REMARK  status: ('A' for Active; 'I' for Inactive)
REMARK    5  A    between atoms: CA   and  CB  
REMARK    6  A    between atoms: CB   and  CG  
REMARK    7  A    between atoms: CG   and  CD  
REMARK    8  A    between atoms: CD   and  CE  
ROOT
ATOM      7  CA  LYS A 135      33.193  34.663   9.290  1.00 25.02     0.186 C 
ENDROOT
BRANCH   7   8
ATOM      8  CB  LYS A 135      32.060  35.360  10.034  1.00 26.63     0.034 C 
BRANCH   8   9
ATOM      9  CG  LYS A 135      30.918  35.774   9.142  1.00 29.45     0.005 C 
BRANCH   9  10
ATOM     10  CD  LYS A 135      30.376  34.579   8.375  1.00 32.00     0.041 C 
BRANCH  10  11
ATOM     11  CE  LYS A 135      29.439  33.766   9.248  1.00 34.25     0.338 C 
ATOM     12  NZ  LYS A 135      28.018  34.130   8.995  1.00 35.99     0.618 N 
ENDBRANCH  10  11
ENDBRANCH   9  10
ENDBRANCH   8   9
ENDBRANCH   7   8
END_RES LYS A 135
