REMARK VINA RESULT:    -4.141      3.336      5.790
REMARK INTER + INTRA:         -22.269
REMARK INTER:                 -10.684
REMARK INTRA:                 -11.584
REMARK UNBOUND:               -11.833
REMARK SMILES CC(=O)N[C@@H]1[C@@H](O)C[C@](OC[C@H]2O[C@@H](O[C@H]3[C@H](O)[C@@H](O)[C@H](OCCN=[N+]=[N-])O[C@@H]3CO)[C@H](O)[C@@H](O)[C@H]2O)(C(=O)O)O[C@H]1C(O)[C@H](O)CNC(=O)OCc1cn(-c2ccccc2C(N)=O)nn1
REMARK SMILES IDX 9 1 8 2 6 3 5 4 42 5 41 6 10 7 11 8 12 9 14 10 13 11 32 12
REMARK SMILES IDX 34 13 36 14 15 15 16 16 29 17 28 18 21 19 17 20 19 21 30 22
REMARK SMILES IDX 31 23 22 25 23 26 24 27 25 28 26 29 27 30 18 31 20 33 33 35
REMARK SMILES IDX 35 37 37 39 38 41 39 42 40 43 7 45 43 47 44 48 45 50 46 51
REMARK SMILES IDX 47 53 48 54 49 55 50 57 51 58 52 59 53 60 54 61 66 62 55 63
REMARK SMILES IDX 65 64 56 65 61 66 57 67 60 68 58 69 59 70 62 71 64 72 63 73
REMARK SMILES IDX 4 76 2 77 1 79 3 80
REMARK H PARENT 31 24 18 32 20 34 33 36 35 38 37 40 40 44 7 46 44 49 46 52
REMARK H PARENT 48 56 63 74 63 75 4 78
REMARK Flexibility Score: inf
ROOT
ATOM      1  C   UNL     1      28.557  35.433   8.269  1.00  0.00     0.272 C 
ATOM      2  C   UNL     1      27.837  34.152   8.778  1.00  0.00     0.113 C 
ATOM      3  C   UNL     1      26.416  34.570   9.028  1.00  0.00     0.145 C 
ATOM      4  C   UNL     1      26.355  35.436  10.223  1.00  0.00     0.142 C 
ATOM      5  C   UNL     1      27.668  36.240  10.246  1.00  0.00     0.178 C 
ATOM      6  O   UNL     1      28.075  36.534   8.958  1.00  0.00    -0.332 OA
ENDROOT
BRANCH   1   7
ATOM      7  O   UNL     1      28.193  35.503   6.937  1.00  0.00    -0.338 OA
BRANCH   7   8
ATOM      8  C   UNL     1      29.083  36.150   6.132  1.00  0.00     0.199 C 
BRANCH   8   9
ATOM      9  C   UNL     1      28.621  37.543   5.743  1.00  0.00     0.179 C 
ATOM     10  C   UNL     1      26.730  38.884   5.983  1.00  0.00     0.282 C 
ATOM     11  O   UNL     1      27.362  37.697   6.320  1.00  0.00    -0.341 OA
ATOM     12  C   UNL     1      27.547  39.849   5.207  1.00  0.00     0.202 C 
ATOM     13  C   UNL     1      28.998  39.925   5.580  1.00  0.00     0.179 C 
ATOM     14  C   UNL     1      29.496  38.639   6.256  1.00  0.00     0.177 C 
BRANCH  10  15
ATOM     15  O   UNL     1      26.299  39.462   7.163  1.00  0.00    -0.341 OA
BRANCH  15  16
ATOM     16  C   UNL     1      24.946  39.753   7.171  1.00  0.00     0.184 C 
ATOM     17  C   UNL     1      24.767  41.143   7.741  1.00  0.00     0.178 C 
ATOM     18  O   UNL     1      24.465  41.138   9.060  1.00  0.00    -0.341 OA
ATOM     19  C   UNL     1      23.274  40.584   9.360  1.00  0.00     0.281 C 
ATOM     20  C   UNL     1      24.293  38.737   8.101  1.00  0.00     0.180 C 
ATOM     21  C   UNL     1      23.051  39.273   8.718  1.00  0.00     0.202 C 
BRANCH  17  22
ATOM     22  C   UNL     1      23.725  41.891   6.956  1.00  0.00     0.191 C 
BRANCH  22  23
ATOM     23  O   UNL     1      24.191  43.142   6.541  1.00  0.00    -0.394 OA
ATOM     24  H   UNL     1      24.337  43.670   7.384  1.00  0.00     0.210 HD
ENDBRANCH  22  23
ENDBRANCH  17  22
BRANCH  19  25
ATOM     25  O   UNL     1      22.187  41.458   9.215  1.00  0.00    -0.350 OA
BRANCH  25  26
ATOM     26  C   UNL     1      21.396  41.554  10.332  1.00  0.00     0.169 C 
BRANCH  26  27
ATOM     27  C   UNL     1      19.957  41.417   9.962  1.00  0.00     0.119 C 
BRANCH  27  28
ATOM     28  N   UNL     1      19.844  41.183   8.544  1.00  0.00    -0.092 NA
ATOM     29  N   UNL     1      19.227  40.219   8.074  1.00  0.00     0.001 N 
ATOM     30  N   UNL     1      18.410  39.325   7.840  1.00  0.00    -0.003 NA
ENDBRANCH  27  28
ENDBRANCH  26  27
ENDBRANCH  25  26
ENDBRANCH  19  25
BRANCH  20  31
ATOM     31  O   UNL     1      23.988  37.575   7.397  1.00  0.00    -0.387 OA
ATOM     32  H   UNL     1      23.834  36.810   8.035  1.00  0.00     0.211 HD
ENDBRANCH  20  31
BRANCH  21  33
ATOM     33  O   UNL     1      22.635  38.348   9.706  1.00  0.00    -0.385 OA
ATOM     34  H   UNL     1      23.057  38.615  10.574  1.00  0.00     0.211 HD
ENDBRANCH  21  33
ENDBRANCH  15  16
ENDBRANCH  10  15
BRANCH  12  35
ATOM     35  O   UNL     1      27.384  39.693   3.814  1.00  0.00    -0.385 OA
ATOM     36  H   UNL     1      26.439  39.471   3.667  1.00  0.00     0.211 HD
ENDBRANCH  12  35
BRANCH  13  37
ATOM     37  O   UNL     1      29.223  40.965   6.483  1.00  0.00    -0.387 OA
ATOM     38  H   UNL     1      30.206  41.131   6.617  1.00  0.00     0.211 HD
ENDBRANCH  13  37
BRANCH  14  39
ATOM     39  O   UNL     1      29.285  38.754   7.642  1.00  0.00    -0.387 OA
ATOM     40  H   UNL     1      29.998  38.378   8.182  1.00  0.00     0.211 HD
ENDBRANCH  14  39
ENDBRANCH   8   9
ENDBRANCH   7   8
ENDBRANCH   1   7
BRANCH   1  41
ATOM     41  C   UNL     1      29.999  35.296   8.486  1.00  0.00     0.364 C 
ATOM     42  O   UNL     1      30.729  36.329   8.673  1.00  0.00    -0.246 OA
BRANCH  41  43
ATOM     43  O   UNL     1      30.593  34.031   8.491  1.00  0.00    -0.477 OA
ATOM     44  H   UNL     1      31.164  33.806   9.302  1.00  0.00     0.296 HD
ENDBRANCH  41  43
ENDBRANCH   1  41
BRANCH   3  45
ATOM     45  O   UNL     1      26.049  35.382   7.924  1.00  0.00    -0.391 OA
ATOM     46  H   UNL     1      26.875  35.732   7.499  1.00  0.00     0.211 HD
ENDBRANCH   3  45
BRANCH   5  47
ATOM     47  C   UNL     1      27.538  37.426  11.158  1.00  0.00     0.176 C 
BRANCH  47  48
ATOM     48  O   UNL     1      28.757  38.127  11.077  1.00  0.00    -0.388 OA
ATOM     49  H   UNL     1      28.694  38.973  11.599  1.00  0.00     0.211 HD
ENDBRANCH  47  48
BRANCH  47  50
ATOM     50  C   UNL     1      26.489  38.412  10.635  1.00  0.00     0.165 C 
BRANCH  50  51
ATOM     51  O   UNL     1      27.151  39.460   9.976  1.00  0.00    -0.388 OA
ATOM     52  H   UNL     1      27.611  39.977  10.689  1.00  0.00     0.211 HD
ENDBRANCH  50  51
BRANCH  50  53
ATOM     53  C   UNL     1      25.651  38.980  11.730  1.00  0.00     0.154 C 
BRANCH  53  54
ATOM     54  N   UNL     1      24.547  38.117  12.052  1.00  0.00    -0.319 N 
ATOM     55  C   UNL     1      24.004  37.975  13.352  1.00  0.00     0.407 C 
ATOM     56  H   UNL     1      24.123  37.556  11.258  1.00  0.00     0.167 HD
ATOM     57  O   UNL     1      24.381  38.571  14.362  1.00  0.00    -0.225 OA
BRANCH  55  58
ATOM     58  O   UNL     1      22.928  37.077  13.550  1.00  0.00    -0.443 OA
BRANCH  58  59
ATOM     59  C   UNL     1      21.597  37.587  13.665  1.00  0.00     0.294 C 
BRANCH  59  60
ATOM     60  C   UNL     1      20.831  37.342  12.430  1.00  0.00     0.121 A 
ATOM     61  C   UNL     1      20.420  36.142  11.900  1.00  0.00     0.144 A 
ATOM     62  N   UNL     1      20.387  38.276  11.571  1.00  0.00    -0.131 NA
ATOM     63  N   UNL     1      19.746  36.363  10.750  1.00  0.00    -0.220 N 
ATOM     64  N   UNL     1      19.747  37.688  10.581  1.00  0.00    -0.062 NA
BRANCH  63  65
ATOM     65  C   UNL     1      19.151  35.427   9.870  1.00  0.00     0.079 A 
ATOM     66  C   UNL     1      19.714  35.234   8.635  1.00  0.00     0.065 A 
ATOM     67  C   UNL     1      18.024  34.716  10.232  1.00  0.00     0.029 A 
ATOM     68  C   UNL     1      19.171  34.329   7.728  1.00  0.00     0.016 A 
ATOM     69  C   UNL     1      17.464  33.803   9.336  1.00  0.00     0.002 A 
ATOM     70  C   UNL     1      18.045  33.624   8.101  1.00  0.00     0.001 A 
BRANCH  66  71
ATOM     71  C   UNL     1      20.896  35.985   8.261  1.00  0.00     0.250 C 
ATOM     72  O   UNL     1      22.023  35.552   8.611  1.00  0.00    -0.269 OA
ATOM     73  N   UNL     1      20.865  37.184   7.521  1.00  0.00    -0.366 N 
ATOM     74  H   UNL     1      21.360  37.244   6.619  1.00  0.00     0.159 HD
ATOM     75  H   UNL     1      20.349  37.998   7.886  1.00  0.00     0.159 HD
ENDBRANCH  66  71
ENDBRANCH  63  65
ENDBRANCH  59  60
ENDBRANCH  58  59
ENDBRANCH  55  58
ENDBRANCH  53  54
ENDBRANCH  50  53
ENDBRANCH  47  50
ENDBRANCH   5  47
BRANCH   4  76
ATOM     76  N   UNL     1      26.219  34.809  11.478  1.00  0.00    -0.348 N 
ATOM     77  C   UNL     1      24.964  34.562  12.091  1.00  0.00     0.217 C 
ATOM     78  H   UNL     1      27.081  34.507  11.989  1.00  0.00     0.163 HD
ATOM     79  C   UNL     1      24.781  33.908  13.404  1.00  0.00     0.114 C 
ATOM     80  O   UNL     1      23.960  34.954  11.413  1.00  0.00    -0.275 OA
ENDBRANCH   4  76
TORSDOF 31
BEGIN_RES LYS A 131
REMARK  4 active torsions:
REMARK  status: ('A' for Active; 'I' for Inactive)
REMARK    1  A    between atoms: CA   and  CB  
REMARK    2  A    between atoms: CB   and  CG  
REMARK    3  A    between atoms: CG   and  CD  
REMARK    4  A    between atoms: CD   and  CE  
ROOT
ATOM      1  CA  LYS A 131      29.867  25.555  16.977  1.00 20.52     0.186 C 
ENDROOT
BRANCH   1   2
ATOM      2  CB  LYS A 131      28.345  25.722  17.026  1.00 20.94     0.034 C 
BRANCH   2   3
ATOM      3  CG  LYS A 131      27.601  24.401  16.904  1.00 22.96     0.005 C 
BRANCH   3   4
ATOM      4  CD  LYS A 131      26.152  24.529  17.284  1.00 24.33     0.041 C 
BRANCH   4   5
ATOM      5  CE  LYS A 131      25.635  23.183  17.781  1.00 26.91     0.338 C 
ATOM      6  NZ  LYS A 131      25.515  23.187  19.258  1.00 27.40     0.618 N 
ENDBRANCH   4   5
ENDBRANCH   3   4
ENDBRANCH   2   3
ENDBRANCH   1   2
END_RES LYS A 131
BEGIN_RES LYS A 135
REMARK  4 active torsions:
REMARK  status: ('A' for Active; 'I' for Inactive)
REMARK    5  A    between atoms: CA   and  CB  
REMARK    6  A    between atoms: CB   and  CG  
REMARK    7  A    between atoms: CG   and  CD  
REMARK    8  A    between atoms: CD   and  CE  
ROOT
ATOM      7  CA  LYS A 135      33.193  34.663   9.290  1.00 25.02     0.186 C 
ENDROOT
BRANCH   7   8
ATOM      8  CB  LYS A 135      32.060  35.360  10.034  1.00 26.63     0.034 C 
BRANCH   8   9
ATOM      9  CG  LYS A 135      32.520  36.140  11.238  1.00 29.45     0.005 C 
BRANCH   9  10
ATOM     10  CD  LYS A 135      31.514  36.020  12.372  1.00 32.00     0.041 C 
BRANCH  10  11
ATOM     11  CE  LYS A 135      30.548  34.880  12.109  1.00 34.25     0.338 C 
ATOM     12  NZ  LYS A 135      30.196  34.173  13.371  1.00 35.99     0.618 N 
ENDBRANCH  10  11
ENDBRANCH   9  10
ENDBRANCH   8   9
ENDBRANCH   7   8
END_RES LYS A 135
