REMARK VINA RESULT:    -4.237      4.259      9.272
REMARK INTER + INTRA:         -21.374
REMARK INTER:                  -8.414
REMARK INTRA:                 -12.960
REMARK UNBOUND:               -10.943
REMARK SMILES CC(=O)N[C@@H]1[C@@H](O)C[C@](OC[C@H]2O[C@@H](O[C@H]3[C@H](O)[C@@H](O)[C@H](OCCN=[N+]=[N-])O[C@@H]3CO)[C@H](O)[C@@H](O)[C@H]2O)(C(=O)O)O[C@H]1C(O)[C@H](O)CNC(=O)OCc1cn([C@@H]2C[C@H]3CC[C@@H](C2)N3C)nn1
REMARK SMILES IDX 9 1 8 2 6 3 5 4 42 5 41 6 10 7 11 8 12 9 14 10 13 11 32 12
REMARK SMILES IDX 34 13 36 14 15 15 16 16 29 17 28 18 21 19 17 20 19 21 30 22
REMARK SMILES IDX 31 23 22 25 23 26 24 27 25 28 26 29 27 30 18 31 20 33 33 35
REMARK SMILES IDX 35 37 37 39 38 41 39 42 40 43 7 45 43 47 44 48 45 50 46 51
REMARK SMILES IDX 47 53 48 54 49 55 50 57 51 58 52 59 53 60 54 61 66 62 55 63
REMARK SMILES IDX 65 64 56 65 62 66 57 67 61 68 58 69 63 70 60 71 59 72 64 73
REMARK SMILES IDX 4 74 2 75 1 77 3 78
REMARK H PARENT 31 24 18 32 20 34 33 36 35 38 37 40 40 44 7 46 44 49 46 52
REMARK H PARENT 48 56 4 76
REMARK Flexibility Score: inf
ROOT
ATOM      1  C   UNL     1      29.056  30.747  17.954  1.00  0.00     0.272 C 
ATOM      2  C   UNL     1      30.402  30.873  18.546  1.00  0.00     0.113 C 
ATOM      3  C   UNL     1      30.490  32.049  19.508  1.00  0.00     0.145 C 
ATOM      4  C   UNL     1      30.005  33.330  18.790  1.00  0.00     0.142 C 
ATOM      5  C   UNL     1      28.803  33.070  17.973  1.00  0.00     0.178 C 
ATOM      6  O   UNL     1      28.266  31.859  18.357  1.00  0.00    -0.332 OA
ENDROOT
BRANCH   1   7
ATOM      7  O   UNL     1      28.316  29.627  18.087  1.00  0.00    -0.338 OA
BRANCH   7   8
ATOM      8  C   UNL     1      27.052  29.455  18.302  1.00  0.00     0.199 C 
BRANCH   8   9
ATOM      9  C   UNL     1      26.652  28.554  19.460  1.00  0.00     0.179 C 
ATOM     10  C   UNL     1      28.288  27.728  20.933  1.00  0.00     0.282 C 
ATOM     11  O   UNL     1      27.725  27.681  19.691  1.00  0.00    -0.341 OA
ATOM     12  C   UNL     1      27.322  27.523  22.050  1.00  0.00     0.202 C 
ATOM     13  C   UNL     1      26.202  28.491  21.887  1.00  0.00     0.179 C 
ATOM     14  C   UNL     1      26.309  29.353  20.678  1.00  0.00     0.177 C 
BRANCH  10  15
ATOM     15  O   UNL     1      29.147  28.798  21.114  1.00  0.00    -0.341 OA
BRANCH  15  16
ATOM     16  C   UNL     1      30.249  28.519  21.896  1.00  0.00     0.184 C 
ATOM     17  C   UNL     1      30.451  29.524  22.959  1.00  0.00     0.178 C 
ATOM     18  O   UNL     1      31.465  29.155  23.850  1.00  0.00    -0.341 OA
ATOM     19  C   UNL     1      32.274  28.125  23.368  1.00  0.00     0.281 C 
ATOM     20  C   UNL     1      31.529  28.646  21.001  1.00  0.00     0.180 C 
ATOM     21  C   UNL     1      32.656  28.279  21.910  1.00  0.00     0.202 C 
BRANCH  17  22
ATOM     22  C   UNL     1      29.252  29.973  23.718  1.00  0.00     0.191 C 
BRANCH  22  23
ATOM     23  O   UNL     1      28.665  31.072  23.097  1.00  0.00    -0.394 OA
ATOM     24  H   UNL     1      29.374  31.707  22.830  1.00  0.00     0.210 HD
ENDBRANCH  22  23
ENDBRANCH  17  22
BRANCH  19  25
ATOM     25  O   UNL     1      31.802  26.887  23.705  1.00  0.00    -0.350 OA
BRANCH  25  26
ATOM     26  C   UNL     1      31.937  26.433  24.969  1.00  0.00     0.169 C 
BRANCH  26  27
ATOM     27  C   UNL     1      30.695  26.411  25.780  1.00  0.00     0.119 C 
BRANCH  27  28
ATOM     28  N   UNL     1      29.879  25.256  25.630  1.00  0.00    -0.092 NA
ATOM     29  N   UNL     1      28.903  25.196  24.876  1.00  0.00     0.001 N 
ATOM     30  N   UNL     1      27.716  25.010  24.588  1.00  0.00    -0.003 NA
ENDBRANCH  27  28
ENDBRANCH  26  27
ENDBRANCH  25  26
ENDBRANCH  19  25
BRANCH  20  31
ATOM     31  O   UNL     1      31.478  27.778  19.941  1.00  0.00    -0.387 OA
ATOM     32  H   UNL     1      30.709  27.153  20.036  1.00  0.00     0.211 HD
ENDBRANCH  20  31
BRANCH  21  33
ATOM     33  O   UNL     1      33.689  29.218  21.820  1.00  0.00    -0.385 OA
ATOM     34  H   UNL     1      34.075  29.335  22.700  1.00  0.00     0.211 HD
ENDBRANCH  21  33
ENDBRANCH  15  16
ENDBRANCH  10  15
BRANCH  12  35
ATOM     35  O   UNL     1      26.824  26.205  21.998  1.00  0.00    -0.385 OA
ATOM     36  H   UNL     1      25.840  26.256  22.125  1.00  0.00     0.211 HD
ENDBRANCH  12  35
BRANCH  13  37
ATOM     37  O   UNL     1      26.094  29.332  23.020  1.00  0.00    -0.387 OA
ATOM     38  H   UNL     1      25.261  29.860  22.974  1.00  0.00     0.211 HD
ENDBRANCH  13  37
BRANCH  14  39
ATOM     39  O   UNL     1      27.185  30.417  20.924  1.00  0.00    -0.387 OA
ATOM     40  H   UNL     1      26.635  31.248  20.825  1.00  0.00     0.211 HD
ENDBRANCH  14  39
ENDBRANCH   8   9
ENDBRANCH   7   8
ENDBRANCH   1   7
BRANCH   1  41
ATOM     41  C   UNL     1      29.215  30.891  16.454  1.00  0.00     0.364 C 
ATOM     42  O   UNL     1      30.286  31.133  15.873  1.00  0.00    -0.246 OA
BRANCH  41  43
ATOM     43  O   UNL     1      28.097  30.747  15.626  1.00  0.00    -0.477 OA
ATOM     44  H   UNL     1      27.238  31.273  15.825  1.00  0.00     0.296 HD
ENDBRANCH  41  43
ENDBRANCH   1  41
BRANCH   3  45
ATOM     45  O   UNL     1      29.842  31.853  20.706  1.00  0.00    -0.391 OA
ATOM     46  H   UNL     1      30.514  31.962  21.446  1.00  0.00     0.211 HD
ENDBRANCH   3  45
BRANCH   5  47
ATOM     47  C   UNL     1      27.638  34.054  18.366  1.00  0.00     0.176 C 
BRANCH  47  48
ATOM     48  O   UNL     1      28.355  35.138  19.034  1.00  0.00    -0.388 OA
ATOM     49  H   UNL     1      29.152  35.311  18.447  1.00  0.00     0.211 HD
ENDBRANCH  47  48
BRANCH  47  50
ATOM     50  C   UNL     1      26.790  33.516  19.469  1.00  0.00     0.165 C 
BRANCH  50  51
ATOM     51  O   UNL     1      25.523  33.231  19.014  1.00  0.00    -0.388 OA
ATOM     52  H   UNL     1      25.342  32.300  18.806  1.00  0.00     0.211 HD
ENDBRANCH  50  51
BRANCH  50  53
ATOM     53  C   UNL     1      26.831  34.269  20.745  1.00  0.00     0.154 C 
BRANCH  53  54
ATOM     54  N   UNL     1      27.770  33.649  21.680  1.00  0.00    -0.319 N 
ATOM     55  C   UNL     1      28.821  34.380  22.243  1.00  0.00     0.407 C 
ATOM     56  H   UNL     1      27.630  32.655  21.914  1.00  0.00     0.167 HD
ATOM     57  O   UNL     1      28.950  35.599  21.926  1.00  0.00    -0.225 OA
BRANCH  55  58
ATOM     58  O   UNL     1      29.735  33.830  23.136  1.00  0.00    -0.443 OA
BRANCH  58  59
ATOM     59  C   UNL     1      30.955  34.498  23.431  1.00  0.00     0.294 C 
BRANCH  59  60
ATOM     60  C   UNL     1      32.093  33.771  22.789  1.00  0.00     0.120 A 
ATOM     61  C   UNL     1      33.302  34.299  22.389  1.00  0.00     0.138 A 
ATOM     62  N   UNL     1      32.148  32.479  22.480  1.00  0.00    -0.132 NA
ATOM     63  N   UNL     1      34.055  33.328  21.853  1.00  0.00    -0.249 N 
ATOM     64  N   UNL     1      33.304  32.214  21.927  1.00  0.00    -0.067 NA
BRANCH  63  65
ATOM     65  C   UNL     1      35.385  33.371  21.294  1.00  0.00     0.112 C 
ATOM     66  C   UNL     1      36.306  34.324  21.997  1.00  0.00     0.046 C 
ATOM     67  C   UNL     1      36.006  31.975  21.456  1.00  0.00     0.046 C 
ATOM     68  C   UNL     1      36.658  33.813  23.369  1.00  0.00     0.058 C 
ATOM     69  C   UNL     1      36.142  31.646  22.930  1.00  0.00     0.058 C 
ATOM     70  N   UNL     1      35.682  32.785  23.706  1.00  0.00    -0.300 NA
ATOM     71  C   UNL     1      37.967  33.068  23.380  1.00  0.00     0.021 C 
ATOM     72  C   UNL     1      37.609  31.609  23.313  1.00  0.00     0.021 C 
ATOM     73  C   UNL     1      35.756  32.552  25.116  1.00  0.00     0.105 C 
ENDBRANCH  63  65
ENDBRANCH  59  60
ENDBRANCH  58  59
ENDBRANCH  55  58
ENDBRANCH  53  54
ENDBRANCH  50  53
ENDBRANCH  47  50
ENDBRANCH   5  47
BRANCH   4  74
ATOM     74  N   UNL     1      31.161  33.872  18.064  1.00  0.00    -0.348 N 
ATOM     75  C   UNL     1      31.867  35.031  18.564  1.00  0.00     0.217 C 
ATOM     76  H   UNL     1      31.537  33.480  17.180  1.00  0.00     0.163 HD
ATOM     77  C   UNL     1      33.028  35.633  17.901  1.00  0.00     0.114 C 
ATOM     78  O   UNL     1      31.437  35.526  19.627  1.00  0.00    -0.275 OA
ENDBRANCH   4  74
TORSDOF 30
BEGIN_RES LYS A 131
REMARK  4 active torsions:
REMARK  status: ('A' for Active; 'I' for Inactive)
REMARK    1  A    between atoms: CA   and  CB  
REMARK    2  A    between atoms: CB   and  CG  
REMARK    3  A    between atoms: CG   and  CD  
REMARK    4  A    between atoms: CD   and  CE  
ROOT
ATOM      1  CA  LYS A 131      29.867  25.555  16.977  1.00 20.52     0.186 C 
ENDROOT
BRANCH   1   2
ATOM      2  CB  LYS A 131      28.345  25.722  17.026  1.00 20.94     0.034 C 
BRANCH   2   3
ATOM      3  CG  LYS A 131      27.602  24.400  16.915  1.00 22.96     0.005 C 
BRANCH   3   4
ATOM      4  CD  LYS A 131      26.153  24.531  17.295  1.00 24.33     0.041 C 
BRANCH   4   5
ATOM      5  CE  LYS A 131      26.037  24.697  18.807  1.00 26.91     0.338 C 
ATOM      6  NZ  LYS A 131      25.522  23.453  19.427  1.00 27.40     0.618 N 
ENDBRANCH   4   5
ENDBRANCH   3   4
ENDBRANCH   2   3
ENDBRANCH   1   2
END_RES LYS A 131
BEGIN_RES LYS A 135
REMARK  4 active torsions:
REMARK  status: ('A' for Active; 'I' for Inactive)
REMARK    5  A    between atoms: CA   and  CB  
REMARK    6  A    between atoms: CB   and  CG  
REMARK    7  A    between atoms: CG   and  CD  
REMARK    8  A    between atoms: CD   and  CE  
ROOT
ATOM      7  CA  LYS A 135      33.193  34.663   9.290  1.00 25.02     0.186 C 
ENDROOT
BRANCH   7   8
ATOM      8  CB  LYS A 135      32.060  35.360  10.034  1.00 26.63     0.034 C 
BRANCH   8   9
ATOM      9  CG  LYS A 135      30.690  34.866   9.645  1.00 29.45     0.005 C 
BRANCH   9  10
ATOM     10  CD  LYS A 135      30.638  34.542   8.160  1.00 32.00     0.041 C 
BRANCH  10  11
ATOM     11  CE  LYS A 135      29.307  34.964   7.569  1.00 34.25     0.338 C 
ATOM     12  NZ  LYS A 135      28.323  35.287   8.640  1.00 35.99     0.618 N 
ENDBRANCH  10  11
ENDBRANCH   9  10
ENDBRANCH   8   9
ENDBRANCH   7   8
END_RES LYS A 135
