REMARK VINA RESULT:    -4.420      4.862      8.884
REMARK INTER + INTRA:         -22.950
REMARK INTER:                 -10.613
REMARK INTRA:                 -12.337
REMARK UNBOUND:               -12.070
REMARK SMILES CC(=O)N[C@@H]1[C@@H](O)C[C@](OC[C@H]2O[C@@H](O[C@H]3[C@H](O)[C@@H](O)[C@H](OCCN=[N+]=[N-])O[C@@H]3CO)[C@H](O)[C@@H](O)[C@H]2O)(C(=O)O)O[C@H]1C(O)[C@H](O)CNC(=O)OCc1cn(-c2ccccc2I)nn1
REMARK SMILES IDX 9 1 8 2 6 3 5 4 42 5 41 6 10 7 11 8 12 9 14 10 13 11 32 12
REMARK SMILES IDX 34 13 36 14 15 15 16 16 29 17 28 18 21 19 17 20 19 21 30 22
REMARK SMILES IDX 31 23 22 25 23 26 24 27 25 28 26 29 27 30 18 31 20 33 33 35
REMARK SMILES IDX 35 37 37 39 38 41 39 42 40 43 7 45 43 47 44 48 45 50 46 51
REMARK SMILES IDX 47 53 48 54 49 55 50 57 51 58 52 59 53 60 54 61 64 62 55 63
REMARK SMILES IDX 63 64 56 65 57 66 61 67 58 68 60 69 62 70 59 71 4 72 2 73
REMARK SMILES IDX 1 75 3 76
REMARK H PARENT 31 24 18 32 20 34 33 36 35 38 37 40 40 44 7 46 44 49 46 52
REMARK H PARENT 48 56 4 74
REMARK Flexibility Score: inf
ROOT
ATOM      1  C   UNL     1      27.493  30.149  17.150  1.00  0.00     0.272 C 
ATOM      2  C   UNL     1      26.691  30.360  15.897  1.00  0.00     0.113 C 
ATOM      3  C   UNL     1      25.948  31.707  15.932  1.00  0.00     0.145 C 
ATOM      4  C   UNL     1      24.939  31.572  17.109  1.00  0.00     0.142 C 
ATOM      5  C   UNL     1      25.690  31.108  18.326  1.00  0.00     0.178 C 
ATOM      6  O   UNL     1      27.059  31.186  18.044  1.00  0.00    -0.332 OA
ENDROOT
BRANCH   1   7
ATOM      7  O   UNL     1      28.836  30.343  17.090  1.00  0.00    -0.338 OA
BRANCH   7   8
ATOM      8  C   UNL     1      29.532  30.944  16.171  1.00  0.00     0.199 C 
BRANCH   8   9
ATOM      9  C   UNL     1      30.750  31.713  16.493  1.00  0.00     0.179 C 
ATOM     10  C   UNL     1      30.747  33.736  15.431  1.00  0.00     0.282 C 
ATOM     11  O   UNL     1      31.300  32.488  15.527  1.00  0.00    -0.341 OA
ATOM     12  C   UNL     1      31.237  34.631  16.562  1.00  0.00     0.202 C 
ATOM     13  C   UNL     1      31.506  33.733  17.791  1.00  0.00     0.179 C 
ATOM     14  C   UNL     1      30.503  32.597  17.754  1.00  0.00     0.177 C 
BRANCH  10  15
ATOM     15  O   UNL     1      29.430  33.838  15.119  1.00  0.00    -0.341 OA
BRANCH  15  16
ATOM     16  C   UNL     1      29.088  34.857  14.259  1.00  0.00     0.184 C 
ATOM     17  C   UNL     1      30.229  35.497  13.514  1.00  0.00     0.178 C 
ATOM     18  O   UNL     1      29.888  36.789  13.124  1.00  0.00    -0.341 OA
ATOM     19  C   UNL     1      28.516  36.970  12.913  1.00  0.00     0.281 C 
ATOM     20  C   UNL     1      28.559  36.005  15.146  1.00  0.00     0.180 C 
ATOM     21  C   UNL     1      27.737  36.868  14.198  1.00  0.00     0.202 C 
BRANCH  17  22
ATOM     22  C   UNL     1      30.788  34.685  12.392  1.00  0.00     0.191 C 
BRANCH  22  23
ATOM     23  O   UNL     1      32.179  34.850  12.422  1.00  0.00    -0.394 OA
ATOM     24  H   UNL     1      32.587  33.952  12.555  1.00  0.00     0.210 HD
ENDBRANCH  22  23
ENDBRANCH  17  22
BRANCH  19  25
ATOM     25  O   UNL     1      28.029  36.203  11.900  1.00  0.00    -0.350 OA
BRANCH  25  26
ATOM     26  C   UNL     1      27.525  36.936  10.871  1.00  0.00     0.169 C 
BRANCH  26  27
ATOM     27  C   UNL     1      26.143  36.604  10.406  1.00  0.00     0.119 C 
BRANCH  27  28
ATOM     28  N   UNL     1      25.115  37.551  10.732  1.00  0.00    -0.092 NA
ATOM     29  N   UNL     1      25.233  38.149  11.817  1.00  0.00     0.001 N 
ATOM     30  N   UNL     1      25.112  38.791  12.862  1.00  0.00    -0.003 NA
ENDBRANCH  27  28
ENDBRANCH  26  27
ENDBRANCH  25  26
ENDBRANCH  19  25
BRANCH  20  31
ATOM     31  O   UNL     1      27.787  35.511  16.180  1.00  0.00    -0.387 OA
ATOM     32  H   UNL     1      27.949  34.531  16.216  1.00  0.00     0.211 HD
ENDBRANCH  20  31
BRANCH  21  33
ATOM     33  O   UNL     1      27.451  38.107  14.769  1.00  0.00    -0.385 OA
ATOM     34  H   UNL     1      26.988  37.940  15.654  1.00  0.00     0.211 HD
ENDBRANCH  21  33
ENDBRANCH  15  16
ENDBRANCH  10  15
BRANCH  12  35
ATOM     35  O   UNL     1      32.452  35.242  16.279  1.00  0.00    -0.385 OA
ATOM     36  H   UNL     1      32.250  36.186  16.048  1.00  0.00     0.211 HD
ENDBRANCH  12  35
BRANCH  13  37
ATOM     37  O   UNL     1      31.481  34.402  18.974  1.00  0.00    -0.387 OA
ATOM     38  H   UNL     1      32.321  34.349  19.523  1.00  0.00     0.211 HD
ENDBRANCH  13  37
BRANCH  14  39
ATOM     39  O   UNL     1      29.232  33.124  17.601  1.00  0.00    -0.387 OA
ATOM     40  H   UNL     1      28.883  32.899  16.682  1.00  0.00     0.211 HD
ENDBRANCH  14  39
ENDBRANCH   8   9
ENDBRANCH   7   8
ENDBRANCH   1   7
BRANCH   1  41
ATOM     41  C   UNL     1      27.139  28.856  17.765  1.00  0.00     0.364 C 
ATOM     42  O   UNL     1      27.754  28.319  18.702  1.00  0.00    -0.246 OA
BRANCH  41  43
ATOM     43  O   UNL     1      26.029  28.120  17.296  1.00  0.00    -0.477 OA
ATOM     44  H   UNL     1      25.403  28.551  16.601  1.00  0.00     0.296 HD
ENDBRANCH  41  43
ENDBRANCH   1  41
BRANCH   3  45
ATOM     45  O   UNL     1      26.799  32.771  16.138  1.00  0.00    -0.391 OA
ATOM     46  H   UNL     1      27.735  32.497  15.991  1.00  0.00     0.211 HD
ENDBRANCH   3  45
BRANCH   5  47
ATOM     47  C   UNL     1      25.518  32.153  19.461  1.00  0.00     0.176 C 
BRANCH  47  48
ATOM     48  O   UNL     1      24.167  32.650  19.309  1.00  0.00    -0.388 OA
ATOM     49  H   UNL     1      24.160  33.521  19.811  1.00  0.00     0.211 HD
ENDBRANCH  47  48
BRANCH  47  50
ATOM     50  C   UNL     1      26.334  33.387  19.213  1.00  0.00     0.165 C 
BRANCH  50  51
ATOM     51  O   UNL     1      27.347  33.476  20.203  1.00  0.00    -0.388 OA
ATOM     52  H   UNL     1      28.217  33.718  19.796  1.00  0.00     0.211 HD
ENDBRANCH  50  51
BRANCH  50  53
ATOM     53  C   UNL     1      25.650  34.684  19.131  1.00  0.00     0.154 C 
BRANCH  53  54
ATOM     54  N   UNL     1      25.306  35.133  17.795  1.00  0.00    -0.319 N 
ATOM     55  C   UNL     1      23.939  35.405  17.489  1.00  0.00     0.407 C 
ATOM     56  H   UNL     1      25.997  35.273  17.031  1.00  0.00     0.167 HD
ATOM     57  O   UNL     1      23.057  35.237  18.394  1.00  0.00    -0.225 OA
BRANCH  55  58
ATOM     58  O   UNL     1      23.475  35.847  16.267  1.00  0.00    -0.443 OA
BRANCH  58  59
ATOM     59  C   UNL     1      24.366  36.083  15.186  1.00  0.00     0.294 C 
BRANCH  59  60
ATOM     60  C   UNL     1      24.328  34.876  14.284  1.00  0.00     0.121 A 
ATOM     61  C   UNL     1      23.525  33.763  14.386  1.00  0.00     0.144 A 
ATOM     62  N   UNL     1      25.102  34.684  13.202  1.00  0.00    -0.131 NA
ATOM     63  N   UNL     1      23.868  32.967  13.355  1.00  0.00    -0.219 N 
ATOM     64  N   UNL     1      24.823  33.531  12.641  1.00  0.00    -0.062 NA
BRANCH  63  65
ATOM     65  C   UNL     1      23.315  31.692  13.047  1.00  0.00     0.080 A 
ATOM     66  C   UNL     1      24.105  30.549  13.075  1.00  0.00     0.029 A 
ATOM     67  C   UNL     1      21.989  31.558  12.707  1.00  0.00     0.039 A 
ATOM     68  C   UNL     1      23.520  29.318  12.758  1.00  0.00     0.002 A 
ATOM     69  C   UNL     1      21.421  30.317  12.393  1.00  0.00     0.017 A 
ATOM     70  I   UNL     1      20.764  33.280  12.655  1.00  0.00    -0.042 I 
ATOM     71  C   UNL     1      22.194  29.185  12.419  1.00  0.00     0.001 A 
ENDBRANCH  63  65
ENDBRANCH  59  60
ENDBRANCH  58  59
ENDBRANCH  55  58
ENDBRANCH  53  54
ENDBRANCH  50  53
ENDBRANCH  47  50
ENDBRANCH   5  47
BRANCH   4  72
ATOM     72  N   UNL     1      23.915  30.713  16.636  1.00  0.00    -0.348 N 
ATOM     73  C   UNL     1      22.519  31.060  16.691  1.00  0.00     0.217 C 
ATOM     74  H   UNL     1      24.104  29.784  16.221  1.00  0.00     0.163 HD
ATOM     75  C   UNL     1      21.445  30.174  16.202  1.00  0.00     0.114 C 
ATOM     76  O   UNL     1      22.246  32.184  17.189  1.00  0.00    -0.275 OA
ENDBRANCH   4  72
TORSDOF 30
BEGIN_RES LYS A 131
REMARK  4 active torsions:
REMARK  status: ('A' for Active; 'I' for Inactive)
REMARK    1  A    between atoms: CA   and  CB  
REMARK    2  A    between atoms: CB   and  CG  
REMARK    3  A    between atoms: CG   and  CD  
REMARK    4  A    between atoms: CD   and  CE  
ROOT
ATOM      1  CA  LYS A 131      29.867  25.555  16.977  1.00 20.52     0.186 C 
ENDROOT
BRANCH   1   2
ATOM      2  CB  LYS A 131      28.345  25.722  17.026  1.00 20.94     0.034 C 
BRANCH   2   3
ATOM      3  CG  LYS A 131      27.599  24.431  16.726  1.00 22.96     0.005 C 
BRANCH   3   4
ATOM      4  CD  LYS A 131      26.985  23.832  17.961  1.00 24.33     0.041 C 
BRANCH   4   5
ATOM      5  CE  LYS A 131      25.965  24.804  18.545  1.00 26.91     0.338 C 
ATOM      6  NZ  LYS A 131      24.776  24.898  17.666  1.00 27.40     0.618 N 
ENDBRANCH   4   5
ENDBRANCH   3   4
ENDBRANCH   2   3
ENDBRANCH   1   2
END_RES LYS A 131
BEGIN_RES LYS A 135
REMARK  4 active torsions:
REMARK  status: ('A' for Active; 'I' for Inactive)
REMARK    5  A    between atoms: CA   and  CB  
REMARK    6  A    between atoms: CB   and  CG  
REMARK    7  A    between atoms: CG   and  CD  
REMARK    8  A    between atoms: CD   and  CE  
ROOT
ATOM      7  CA  LYS A 135      33.193  34.663   9.290  1.00 25.02     0.186 C 
ENDROOT
BRANCH   7   8
ATOM      8  CB  LYS A 135      32.060  35.360  10.034  1.00 26.63     0.034 C 
BRANCH   8   9
ATOM      9  CG  LYS A 135      30.842  35.606   9.182  1.00 29.45     0.005 C 
BRANCH   9  10
ATOM     10  CD  LYS A 135      30.239  34.291   8.714  1.00 32.00     0.041 C 
BRANCH  10  11
ATOM     11  CE  LYS A 135      28.749  34.442   8.477  1.00 34.25     0.338 C 
ATOM     12  NZ  LYS A 135      27.966  33.637   9.455  1.00 35.99     0.618 N 
ENDBRANCH  10  11
ENDBRANCH   9  10
ENDBRANCH   8   9
ENDBRANCH   7   8
END_RES LYS A 135
