REMARK VINA RESULT:    -4.987      3.547      7.097
REMARK INTER + INTRA:         -25.924
REMARK INTER:                 -11.474
REMARK INTRA:                 -14.450
REMARK UNBOUND:               -12.046
REMARK SMILES CC(=O)N[C@@H]1[C@@H](O)C[C@](OC[C@H]2O[C@@H](O[C@H]3[C@H](O)[C@@H](O)[C@H](OCCN=[N+]=[N-])O[C@@H]3CO)[C@H](O)[C@@H](O)[C@H]2O)(C(=O)O)O[C@H]1C(O)[C@H](O)CNC(=O)OCc1cn(C[C@@H](C(=O)O)C(c2ccccc2)c2ccccc2)nn1
REMARK SMILES IDX 43 1 42 2 9 3 8 4 41 5 6 6 5 7 10 8 11 9 12 10 14 11 13 12
REMARK SMILES IDX 32 13 34 14 36 15 15 16 16 17 29 18 28 19 21 20 17 21 19 22
REMARK SMILES IDX 30 23 31 24 22 26 23 27 24 28 25 29 26 30 27 31 18 32 20 34
REMARK SMILES IDX 33 36 35 38 37 40 38 42 39 43 40 44 7 46 4 48 2 49 1 51 3 52
REMARK SMILES IDX 44 53 45 55 46 56 47 58 48 59 49 60 50 62 51 63 52 64 53 65
REMARK SMILES IDX 54 66 75 67 55 68 74 69 56 70 57 71 58 72 59 73 60 74 61 76
REMARK SMILES IDX 62 77 63 78 67 79 64 80 66 81 65 82 68 83 69 84 73 85 70 86
REMARK SMILES IDX 72 87 71 88
REMARK H PARENT 31 25 18 33 20 35 33 37 35 39 37 41 40 45 7 47 4 50 44 54
REMARK H PARENT 46 57 48 61 60 75
REMARK Flexibility Score: inf
ROOT
ATOM      1  C   UNL     1      29.533  35.324  18.234  1.00  0.00     0.176 C 
ENDROOT
BRANCH   1   2
ATOM      2  C   UNL     1      29.115  33.849  18.049  1.00  0.00     0.178 C 
ATOM      3  C   UNL     1      28.507  32.141  16.616  1.00  0.00     0.272 C 
ATOM      4  C   UNL     1      28.643  31.443  18.010  1.00  0.00     0.113 C 
ATOM      5  O   UNL     1      28.800  33.507  16.786  1.00  0.00    -0.332 OA
ATOM      6  C   UNL     1      27.797  32.099  19.047  1.00  0.00     0.145 C 
ATOM      7  C   UNL     1      28.056  33.570  19.090  1.00  0.00     0.142 C 
BRANCH   3   8
ATOM      8  O   UNL     1      27.345  31.848  16.135  1.00  0.00    -0.338 OA
BRANCH   8   9
ATOM      9  C   UNL     1      26.650  30.850  15.754  1.00  0.00     0.199 C 
BRANCH   9  10
ATOM     10  C   UNL     1      25.150  30.834  15.626  1.00  0.00     0.179 C 
ATOM     11  C   UNL     1      23.458  32.415  16.139  1.00  0.00     0.282 C 
ATOM     12  O   UNL     1      24.589  31.763  16.448  1.00  0.00    -0.341 OA
ATOM     13  C   UNL     1      22.688  32.040  14.934  1.00  0.00     0.202 C 
ATOM     14  C   UNL     1      23.364  31.068  14.012  1.00  0.00     0.179 C 
ATOM     15  C   UNL     1      24.835  31.278  14.180  1.00  0.00     0.177 C 
BRANCH  11  16
ATOM     16  O   UNL     1      23.857  33.771  15.951  1.00  0.00    -0.341 OA
BRANCH  16  17
ATOM     17  C   UNL     1      23.903  34.492  17.111  1.00  0.00     0.184 C 
ATOM     18  C   UNL     1      23.115  35.757  16.925  1.00  0.00     0.178 C 
ATOM     19  O   UNL     1      23.867  36.780  16.359  1.00  0.00    -0.341 OA
ATOM     20  C   UNL     1      24.921  36.320  15.556  1.00  0.00     0.281 C 
ATOM     21  C   UNL     1      25.323  34.889  17.493  1.00  0.00     0.180 C 
ATOM     22  C   UNL     1      25.981  35.636  16.351  1.00  0.00     0.202 C 
BRANCH  18  23
ATOM     23  C   UNL     1      22.459  36.268  18.176  1.00  0.00     0.191 C 
BRANCH  23  24
ATOM     24  O   UNL     1      22.915  37.513  18.559  1.00  0.00    -0.394 OA
ATOM     25  H   UNL     1      23.912  37.506  18.439  1.00  0.00     0.210 HD
ENDBRANCH  23  24
ENDBRANCH  18  23
BRANCH  20  26
ATOM     26  O   UNL     1      25.486  37.406  14.927  1.00  0.00    -0.350 OA
BRANCH  26  27
ATOM     27  C   UNL     1      26.458  38.076  15.601  1.00  0.00     0.169 C 
BRANCH  27  28
ATOM     28  C   UNL     1      27.420  38.823  14.735  1.00  0.00     0.119 C 
BRANCH  28  29
ATOM     29  N   UNL     1      28.766  38.365  15.130  1.00  0.00    -0.092 NA
ATOM     30  N   UNL     1      29.160  38.702  16.250  1.00  0.00     0.001 N 
ATOM     31  N   UNL     1      29.623  39.146  17.298  1.00  0.00    -0.003 NA
ENDBRANCH  28  29
ENDBRANCH  27  28
ENDBRANCH  26  27
ENDBRANCH  20  26
BRANCH  21  32
ATOM     32  O   UNL     1      25.225  35.769  18.568  1.00  0.00    -0.387 OA
ATOM     33  H   UNL     1      24.751  35.384  19.340  1.00  0.00     0.211 HD
ENDBRANCH  21  32
BRANCH  22  34
ATOM     34  O   UNL     1      26.670  34.749  15.534  1.00  0.00    -0.385 OA
ATOM     35  H   UNL     1      26.233  34.796  14.625  1.00  0.00     0.211 HD
ENDBRANCH  22  34
ENDBRANCH  16  17
ENDBRANCH  11  16
BRANCH  13  36
ATOM     36  O   UNL     1      21.465  31.430  15.306  1.00  0.00    -0.385 OA
ATOM     37  H   UNL     1      20.855  31.372  14.517  1.00  0.00     0.211 HD
ENDBRANCH  13  36
BRANCH  14  38
ATOM     38  O   UNL     1      22.977  31.301  12.707  1.00  0.00    -0.387 OA
ATOM     39  H   UNL     1      23.386  30.612  12.120  1.00  0.00     0.211 HD
ENDBRANCH  14  38
BRANCH  15  40
ATOM     40  O   UNL     1      25.120  32.625  14.005  1.00  0.00    -0.387 OA
ATOM     41  H   UNL     1      25.025  32.834  13.052  1.00  0.00     0.211 HD
ENDBRANCH  15  40
ENDBRANCH   9  10
ENDBRANCH   8   9
ENDBRANCH   3   8
BRANCH   3  42
ATOM     42  C   UNL     1      29.670  31.597  15.885  1.00  0.00     0.364 C 
ATOM     43  O   UNL     1      30.179  32.101  14.863  1.00  0.00    -0.246 OA
BRANCH  42  44
ATOM     44  O   UNL     1      30.281  30.412  16.348  1.00  0.00    -0.477 OA
ATOM     45  H   UNL     1      29.860  29.955  17.129  1.00  0.00     0.296 HD
ENDBRANCH  42  44
ENDBRANCH   3  42
BRANCH   6  46
ATOM     46  O   UNL     1      26.432  31.832  18.869  1.00  0.00    -0.391 OA
ATOM     47  H   UNL     1      26.064  31.284  19.601  1.00  0.00     0.211 HD
ENDBRANCH   6  46
BRANCH   7  48
ATOM     48  N   UNL     1      28.596  33.922  20.383  1.00  0.00    -0.348 N 
ATOM     49  C   UNL     1      27.798  34.561  21.365  1.00  0.00     0.217 C 
ATOM     50  H   UNL     1      29.609  33.692  20.589  1.00  0.00     0.163 HD
ATOM     51  C   UNL     1      28.353  34.929  22.713  1.00  0.00     0.114 C 
ATOM     52  O   UNL     1      26.602  34.809  21.065  1.00  0.00    -0.275 OA
ENDBRANCH   7  48
ENDBRANCH   1   2
BRANCH   1  53
ATOM     53  O   UNL     1      29.042  36.104  17.224  1.00  0.00    -0.388 OA
ATOM     54  H   UNL     1      29.733  36.543  16.677  1.00  0.00     0.211 HD
ENDBRANCH   1  53
BRANCH   1  55
ATOM     55  C   UNL     1      31.005  35.444  18.309  1.00  0.00     0.165 C 
BRANCH  55  56
ATOM     56  O   UNL     1      31.460  36.778  18.257  1.00  0.00    -0.388 OA
ATOM     57  H   UNL     1      32.088  36.793  17.469  1.00  0.00     0.211 HD
ENDBRANCH  55  56
BRANCH  55  58
ATOM     58  C   UNL     1      31.880  34.600  17.460  1.00  0.00     0.154 C 
BRANCH  58  59
ATOM     59  N   UNL     1      31.488  34.422  16.111  1.00  0.00    -0.319 N 
ATOM     60  C   UNL     1      31.609  35.365  15.068  1.00  0.00     0.407 C 
ATOM     61  H   UNL     1      31.050  33.457  15.841  1.00  0.00     0.167 HD
ATOM     62  O   UNL     1      32.052  36.513  15.241  1.00  0.00    -0.225 OA
BRANCH  60  63
ATOM     63  O   UNL     1      31.219  34.983  13.802  1.00  0.00    -0.443 OA
BRANCH  63  64
ATOM     64  C   UNL     1      30.661  35.871  12.899  1.00  0.00     0.294 C 
BRANCH  64  65
ATOM     65  C   UNL     1      29.215  35.708  12.688  1.00  0.00     0.120 A 
ATOM     66  C   UNL     1      28.324  36.540  12.053  1.00  0.00     0.138 A 
ATOM     67  N   UNL     1      28.450  34.665  13.137  1.00  0.00    -0.132 NA
ATOM     68  N   UNL     1      27.097  36.015  12.125  1.00  0.00    -0.251 N 
ATOM     69  N   UNL     1      27.202  34.879  12.787  1.00  0.00    -0.067 NA
BRANCH  68  70
ATOM     70  C   UNL     1      25.836  36.559  11.583  1.00  0.00     0.162 C 
BRANCH  70  71
ATOM     71  C   UNL     1      24.978  35.444  11.081  1.00  0.00     0.132 C 
BRANCH  71  72
ATOM     72  C   UNL     1      23.837  35.190  12.012  1.00  0.00     0.309 C 
ATOM     73  O   UNL     1      23.279  34.085  12.112  1.00  0.00    -0.252 OA
BRANCH  72  74
ATOM     74  O   UNL     1      23.367  36.222  12.806  1.00  0.00    -0.481 OA
ATOM     75  H   UNL     1      22.363  36.301  12.988  1.00  0.00     0.296 HD
ENDBRANCH  72  74
ENDBRANCH  71  72
BRANCH  71  76
ATOM     76  C   UNL     1      24.563  35.465   9.658  1.00  0.00     0.065 C 
BRANCH  76  77
ATOM     77  C   UNL     1      23.357  36.217   9.308  1.00  0.00    -0.040 A 
ATOM     78  C   UNL     1      22.278  35.594   8.663  1.00  0.00     0.004 A 
ATOM     79  C   UNL     1      23.186  37.578   9.572  1.00  0.00     0.004 A 
ATOM     80  C   UNL     1      21.141  36.252   8.315  1.00  0.00     0.000 A 
ATOM     81  C   UNL     1      22.033  38.234   9.216  1.00  0.00     0.000 A 
ATOM     82  C   UNL     1      20.997  37.578   8.582  1.00  0.00     0.000 A 
ENDBRANCH  76  77
BRANCH  76  83
ATOM     83  C   UNL     1      25.697  35.624   8.708  1.00  0.00    -0.040 A 
ATOM     84  C   UNL     1      26.625  34.606   8.673  1.00  0.00     0.004 A 
ATOM     85  C   UNL     1      25.830  36.713   7.888  1.00  0.00     0.004 A 
ATOM     86  C   UNL     1      27.693  34.661   7.823  1.00  0.00     0.000 A 
ATOM     87  C   UNL     1      26.923  36.755   7.027  1.00  0.00     0.000 A 
ATOM     88  C   UNL     1      27.854  35.742   6.988  1.00  0.00     0.000 A 
ENDBRANCH  76  83
ENDBRANCH  71  76
ENDBRANCH  70  71
ENDBRANCH  68  70
ENDBRANCH  64  65
ENDBRANCH  63  64
ENDBRANCH  60  63
ENDBRANCH  58  59
ENDBRANCH  55  58
ENDBRANCH   1  55
TORSDOF 36
BEGIN_RES LYS A 131
REMARK  4 active torsions:
REMARK  status: ('A' for Active; 'I' for Inactive)
REMARK    1  A    between atoms: CA   and  CB  
REMARK    2  A    between atoms: CB   and  CG  
REMARK    3  A    between atoms: CG   and  CD  
REMARK    4  A    between atoms: CD   and  CE  
ROOT
ATOM      1  CA  LYS A 131      29.867  25.555  16.977  1.00 20.52     0.186 C 
ENDROOT
BRANCH   1   2
ATOM      2  CB  LYS A 131      28.345  25.722  17.026  1.00 20.94     0.034 C 
BRANCH   2   3
ATOM      3  CG  LYS A 131      27.602  24.398  16.940  1.00 22.96     0.005 C 
BRANCH   3   4
ATOM      4  CD  LYS A 131      26.131  24.555  17.209  1.00 24.33     0.041 C 
BRANCH   4   5
ATOM      5  CE  LYS A 131      25.568  23.242  17.743  1.00 26.91     0.338 C 
ATOM      6  NZ  LYS A 131      25.601  23.228  19.225  1.00 27.40     0.618 N 
ENDBRANCH   4   5
ENDBRANCH   3   4
ENDBRANCH   2   3
ENDBRANCH   1   2
END_RES LYS A 131
BEGIN_RES LYS A 135
REMARK  4 active torsions:
REMARK  status: ('A' for Active; 'I' for Inactive)
REMARK    5  A    between atoms: CA   and  CB  
REMARK    6  A    between atoms: CB   and  CG  
REMARK    7  A    between atoms: CG   and  CD  
REMARK    8  A    between atoms: CD   and  CE  
ROOT
ATOM      7  CA  LYS A 135      33.193  34.663   9.290  1.00 25.02     0.186 C 
ENDROOT
BRANCH   7   8
ATOM      8  CB  LYS A 135      32.060  35.360  10.034  1.00 26.63     0.034 C 
BRANCH   8   9
ATOM      9  CG  LYS A 135      30.812  35.531   9.207  1.00 29.45     0.005 C 
BRANCH   9  10
ATOM     10  CD  LYS A 135      30.413  36.997   9.136  1.00 32.00     0.041 C 
BRANCH  10  11
ATOM     11  CE  LYS A 135      31.379  37.852   9.933  1.00 34.25     0.338 C 
ATOM     12  NZ  LYS A 135      31.865  39.006   9.126  1.00 35.99     0.618 N 
ENDBRANCH  10  11
ENDBRANCH   9  10
ENDBRANCH   8   9
ENDBRANCH   7   8
END_RES LYS A 135
