REMARK VINA RESULT:    -5.344      3.328      8.619
REMARK INTER + INTRA:         -24.551
REMARK INTER:                 -14.331
REMARK INTRA:                 -10.220
REMARK UNBOUND:               -10.617
REMARK SMILES CC(=O)N[C@@H]1[C@@H](O)C[C@](OC[C@H]2O[C@@H](O[C@H]3[C@H](O)[C@@H](O)[C@H](OCCN=[N+]=[N-])O[C@@H]3CO)[C@H](O)[C@@H](O)[C@H]2O)(C(=O)O)O[C@H]1C(O)[C@H](O)CNC(=O)OCc1cn(-c2ccc(S(=O)(=O)c3ccc(N)cc3)cc2)nn1
REMARK SMILES IDX 43 1 42 2 9 3 8 4 41 5 6 6 5 7 10 8 11 9 12 10 14 11 13 12
REMARK SMILES IDX 32 13 34 14 36 15 15 16 16 17 29 18 28 19 21 20 17 21 19 22
REMARK SMILES IDX 30 23 31 24 22 26 23 27 24 28 25 29 26 30 27 31 18 32 20 34
REMARK SMILES IDX 33 36 35 38 37 40 38 42 39 43 40 44 7 46 4 48 2 49 1 51 3 52
REMARK SMILES IDX 44 53 45 55 46 56 47 58 48 59 49 60 50 62 51 63 52 64 53 65
REMARK SMILES IDX 54 66 73 67 55 68 72 69 56 70 57 71 71 72 58 73 70 74 59 75
REMARK SMILES IDX 60 76 61 77 62 78 63 79 64 80 69 81 65 82 68 83 66 84 67 85
REMARK H PARENT 31 25 18 33 20 35 33 37 35 39 37 41 40 45 7 47 4 50 44 54
REMARK H PARENT 46 57 48 61 67 86 67 87
REMARK Flexibility Score: inf
ROOT
ATOM      1  C   UNL     1      31.012  38.209  13.707  1.00  0.00     0.176 C 
ENDROOT
BRANCH   1   2
ATOM      2  C   UNL     1      31.880  37.211  14.473  1.00  0.00     0.178 C 
ATOM      3  C   UNL     1      32.152  34.968  14.968  1.00  0.00     0.272 C 
ATOM      4  C   UNL     1      32.396  35.298  16.405  1.00  0.00     0.113 C 
ATOM      5  O   UNL     1      31.360  35.958  14.358  1.00  0.00    -0.332 OA
ATOM      6  C   UNL     1      31.546  36.503  16.776  1.00  0.00     0.145 C 
ATOM      7  C   UNL     1      31.976  37.661  15.940  1.00  0.00     0.142 C 
BRANCH   3   8
ATOM      8  O   UNL     1      31.444  33.784  14.747  1.00  0.00    -0.338 OA
BRANCH   8   9
ATOM      9  C   UNL     1      30.336  33.879  13.959  1.00  0.00     0.199 C 
BRANCH   9  10
ATOM     10  C   UNL     1      29.119  33.456  14.750  1.00  0.00     0.179 C 
ATOM     11  C   UNL     1      28.339  33.046  16.856  1.00  0.00     0.282 C 
ATOM     12  O   UNL     1      29.420  33.586  16.110  1.00  0.00    -0.341 OA
ATOM     13  C   UNL     1      27.222  34.039  16.712  1.00  0.00     0.202 C 
ATOM     14  C   UNL     1      26.752  34.040  15.275  1.00  0.00     0.179 C 
ATOM     15  C   UNL     1      27.941  34.282  14.361  1.00  0.00     0.177 C 
BRANCH  11  16
ATOM     16  O   UNL     1      28.781  32.835  18.136  1.00  0.00    -0.341 OA
BRANCH  16  17
ATOM     17  C   UNL     1      28.758  31.457  18.456  1.00  0.00     0.184 C 
ATOM     18  C   UNL     1      27.681  31.240  19.471  1.00  0.00     0.178 C 
ATOM     19  O   UNL     1      28.069  30.587  20.611  1.00  0.00    -0.341 OA
ATOM     20  C   UNL     1      29.179  31.048  21.256  1.00  0.00     0.281 C 
ATOM     21  C   UNL     1      30.140  31.177  19.030  1.00  0.00     0.180 C 
ATOM     22  C   UNL     1      30.143  31.833  20.397  1.00  0.00     0.202 C 
BRANCH  18  23
ATOM     23  C   UNL     1      26.649  30.318  18.795  1.00  0.00     0.191 C 
BRANCH  23  24
ATOM     24  O   UNL     1      27.207  29.509  17.836  1.00  0.00    -0.394 OA
ATOM     25  H   UNL     1      28.031  29.039  18.118  1.00  0.00     0.210 HD
ENDBRANCH  23  24
ENDBRANCH  18  23
BRANCH  20  26
ATOM     26  O   UNL     1      29.879  29.944  21.731  1.00  0.00    -0.350 OA
BRANCH  26  27
ATOM     27  C   UNL     1      29.146  29.060  22.475  1.00  0.00     0.169 C 
BRANCH  27  28
ATOM     28  C   UNL     1      29.486  27.650  22.127  1.00  0.00     0.119 C 
BRANCH  28  29
ATOM     29  N   UNL     1      29.393  27.467  20.669  1.00  0.00    -0.092 NA
ATOM     30  N   UNL     1      28.363  27.045  20.147  1.00  0.00     0.001 N 
ATOM     31  N   UNL     1      27.255  27.057  19.582  1.00  0.00    -0.003 NA
ENDBRANCH  28  29
ENDBRANCH  27  28
ENDBRANCH  26  27
ENDBRANCH  20  26
BRANCH  21  32
ATOM     32  O   UNL     1      30.330  29.823  19.181  1.00  0.00    -0.387 OA
ATOM     33  H   UNL     1      29.702  29.315  18.600  1.00  0.00     0.211 HD
ENDBRANCH  21  32
BRANCH  22  34
ATOM     34  O   UNL     1      29.862  33.178  20.342  1.00  0.00    -0.385 OA
ATOM     35  H   UNL     1      30.041  33.575  19.449  1.00  0.00     0.211 HD
ENDBRANCH  22  34
ENDBRANCH  16  17
ENDBRANCH  11  16
BRANCH  13  36
ATOM     36  O   UNL     1      26.172  33.796  17.595  1.00  0.00    -0.385 OA
ATOM     37  H   UNL     1      25.418  34.406  17.312  1.00  0.00     0.211 HD
ENDBRANCH  13  36
BRANCH  14  38
ATOM     38  O   UNL     1      25.905  35.142  15.089  1.00  0.00    -0.387 OA
ATOM     39  H   UNL     1      26.429  35.953  14.953  1.00  0.00     0.211 HD
ENDBRANCH  14  38
BRANCH  15  40
ATOM     40  O   UNL     1      28.250  35.634  14.298  1.00  0.00    -0.387 OA
ATOM     41  H   UNL     1      29.088  35.770  13.798  1.00  0.00     0.211 HD
ENDBRANCH  15  40
ENDBRANCH   9  10
ENDBRANCH   8   9
ENDBRANCH   3   8
BRANCH   3  42
ATOM     42  C   UNL     1      33.399  34.859  14.165  1.00  0.00     0.364 C 
ATOM     43  O   UNL     1      34.563  34.848  14.628  1.00  0.00    -0.246 OA
BRANCH  42  44
ATOM     44  O   UNL     1      33.300  34.760  12.787  1.00  0.00    -0.477 OA
ATOM     45  H   UNL     1      32.709  34.043  12.337  1.00  0.00     0.296 HD
ENDBRANCH  42  44
ENDBRANCH   3  42
BRANCH   6  46
ATOM     46  O   UNL     1      30.237  36.176  16.404  1.00  0.00    -0.391 OA
ATOM     47  H   UNL     1      30.178  35.921  15.444  1.00  0.00     0.211 HD
ENDBRANCH   6  46
BRANCH   7  48
ATOM     48  N   UNL     1      33.284  38.166  16.212  1.00  0.00    -0.348 N 
ATOM     49  C   UNL     1      33.580  39.140  17.207  1.00  0.00     0.217 C 
ATOM     50  H   UNL     1      34.095  37.802  15.653  1.00  0.00     0.163 HD
ATOM     51  C   UNL     1      34.982  39.585  17.395  1.00  0.00     0.114 C 
ATOM     52  O   UNL     1      32.641  39.581  17.884  1.00  0.00    -0.275 OA
ENDBRANCH   7  48
ENDBRANCH   1   2
BRANCH   1  53
ATOM     53  O   UNL     1      31.292  39.511  14.092  1.00  0.00    -0.388 OA
ATOM     54  H   UNL     1      31.736  39.518  14.992  1.00  0.00     0.211 HD
ENDBRANCH   1  53
BRANCH   1  55
ATOM     55  C   UNL     1      31.038  37.985  12.245  1.00  0.00     0.165 C 
BRANCH  55  56
ATOM     56  O   UNL     1      32.223  37.356  11.852  1.00  0.00    -0.388 OA
ATOM     57  H   UNL     1      33.029  37.838  12.099  1.00  0.00     0.211 HD
ENDBRANCH  55  56
BRANCH  55  58
ATOM     58  C   UNL     1      30.997  39.294  11.486  1.00  0.00     0.154 C 
BRANCH  58  59
ATOM     59  N   UNL     1      30.189  39.248  10.300  1.00  0.00    -0.319 N 
ATOM     60  C   UNL     1      30.816  38.972   9.060  1.00  0.00     0.407 C 
ATOM     61  H   UNL     1      29.171  39.411  10.331  1.00  0.00     0.167 HD
ATOM     62  O   UNL     1      32.064  38.764   9.045  1.00  0.00    -0.225 OA
BRANCH  60  63
ATOM     63  O   UNL     1      30.162  38.912   7.850  1.00  0.00    -0.443 OA
BRANCH  63  64
ATOM     64  C   UNL     1      28.881  39.454   7.609  1.00  0.00     0.294 C 
BRANCH  64  65
ATOM     65  C   UNL     1      27.862  38.439   7.972  1.00  0.00     0.121 A 
ATOM     66  C   UNL     1      27.272  38.161   9.189  1.00  0.00     0.144 A 
ATOM     67  N   UNL     1      27.279  37.558   7.099  1.00  0.00    -0.131 NA
ATOM     68  N   UNL     1      26.369  37.146   9.023  1.00  0.00    -0.220 N 
ATOM     69  N   UNL     1      26.412  36.820   7.755  1.00  0.00    -0.062 NA
BRANCH  68  70
ATOM     70  C   UNL     1      25.534  36.558   9.998  1.00  0.00     0.066 A 
ATOM     71  C   UNL     1      24.515  35.678   9.621  1.00  0.00     0.030 A 
ATOM     72  C   UNL     1      25.658  36.804  11.341  1.00  0.00     0.030 A 
ATOM     73  C   UNL     1      23.676  35.081  10.529  1.00  0.00     0.023 A 
ATOM     74  C   UNL     1      24.808  36.200  12.270  1.00  0.00     0.023 A 
ATOM     75  C   UNL     1      23.811  35.336  11.876  1.00  0.00     0.072 A 
BRANCH  75  76
ATOM     76  S   UNL     1      22.750  34.577  13.043  1.00  0.00     0.206 S 
ATOM     77  O   UNL     1      21.312  34.840  12.622  1.00  0.00    -0.219 OA
ATOM     78  O   UNL     1      23.003  35.025  14.443  1.00  0.00    -0.219 OA
BRANCH  76  79
ATOM     79  C   UNL     1      22.954  32.828  12.937  1.00  0.00     0.072 A 
ATOM     80  C   UNL     1      24.174  32.258  13.176  1.00  0.00     0.023 A 
ATOM     81  C   UNL     1      21.892  32.015  12.612  1.00  0.00     0.023 A 
ATOM     82  C   UNL     1      24.321  30.904  13.090  1.00  0.00     0.027 A 
ATOM     83  C   UNL     1      22.055  30.656  12.528  1.00  0.00     0.027 A 
ATOM     84  C   UNL     1      23.262  30.060  12.762  1.00  0.00     0.031 A 
BRANCH  84  85
ATOM     85  N   UNL     1      23.459  28.665  12.681  1.00  0.00    -0.399 N 
ATOM     86  H   UNL     1      23.663  28.104  13.520  1.00  0.00     0.156 HD
ATOM     87  H   UNL     1      23.397  28.192  11.762  1.00  0.00     0.156 HD
ENDBRANCH  84  85
ENDBRANCH  76  79
ENDBRANCH  75  76
ENDBRANCH  68  70
ENDBRANCH  64  65
ENDBRANCH  63  64
ENDBRANCH  60  63
ENDBRANCH  58  59
ENDBRANCH  55  58
ENDBRANCH   1  55
TORSDOF 33
BEGIN_RES LYS A 131
REMARK  4 active torsions:
REMARK  status: ('A' for Active; 'I' for Inactive)
REMARK    1  A    between atoms: CA   and  CB  
REMARK    2  A    between atoms: CB   and  CG  
REMARK    3  A    between atoms: CG   and  CD  
REMARK    4  A    between atoms: CD   and  CE  
ROOT
ATOM      1  CA  LYS A 131      29.867  25.555  16.977  1.00 20.52     0.186 C 
ENDROOT
BRANCH   1   2
ATOM      2  CB  LYS A 131      28.345  25.722  17.026  1.00 20.94     0.034 C 
BRANCH   2   3
ATOM      3  CG  LYS A 131      27.602  24.398  16.934  1.00 22.96     0.005 C 
BRANCH   3   4
ATOM      4  CD  LYS A 131      26.115  24.572  17.071  1.00 24.33     0.041 C 
BRANCH   4   5
ATOM      5  CE  LYS A 131      25.514  23.331  17.722  1.00 26.91     0.338 C 
ATOM      6  NZ  LYS A 131      25.790  23.324  19.178  1.00 27.40     0.618 N 
ENDBRANCH   4   5
ENDBRANCH   3   4
ENDBRANCH   2   3
ENDBRANCH   1   2
END_RES LYS A 131
BEGIN_RES LYS A 135
REMARK  4 active torsions:
REMARK  status: ('A' for Active; 'I' for Inactive)
REMARK    5  A    between atoms: CA   and  CB  
REMARK    6  A    between atoms: CB   and  CG  
REMARK    7  A    between atoms: CG   and  CD  
REMARK    8  A    between atoms: CD   and  CE  
ROOT
ATOM      7  CA  LYS A 135      33.193  34.663   9.290  1.00 25.02     0.186 C 
ENDROOT
BRANCH   7   8
ATOM      8  CB  LYS A 135      32.060  35.360  10.034  1.00 26.63     0.034 C 
BRANCH   8   9
ATOM      9  CG  LYS A 135      30.785  35.456   9.237  1.00 29.45     0.005 C 
BRANCH   9  10
ATOM     10  CD  LYS A 135      30.152  34.084   9.069  1.00 32.00     0.041 C 
BRANCH  10  11
ATOM     11  CE  LYS A 135      28.641  34.179   9.160  1.00 34.25     0.338 C 
ATOM     12  NZ  LYS A 135      28.196  34.306  10.575  1.00 35.99     0.618 N 
ENDBRANCH  10  11
ENDBRANCH   9  10
ENDBRANCH   8   9
ENDBRANCH   7   8
END_RES LYS A 135
