REMARK VINA RESULT:    -4.233      5.242     11.858
REMARK INTER + INTRA:         -21.990
REMARK INTER:                 -11.749
REMARK INTRA:                 -10.242
REMARK UNBOUND:               -11.571
REMARK SMILES CC(=O)N[C@@H]1[C@@H](O)C[C@](OC[C@H]2O[C@@H](O[C@H]3[C@H](O)[C@@H](O)[C@H](OCCN=[N+]=[N-])O[C@@H]3CO)[C@H](O)[C@@H](O)[C@H]2O)(C(=O)O)O[C@H]1C(O)[C@H](O)CNC(=O)OCc1cn(-c2ccc3[nH]ncc3c2)nn1
REMARK SMILES IDX 9 1 8 2 6 3 5 4 42 5 41 6 10 7 11 8 12 9 14 10 13 11 32 12
REMARK SMILES IDX 34 13 36 14 15 15 16 16 29 17 28 18 21 19 17 20 19 21 30 22
REMARK SMILES IDX 31 23 22 25 23 26 24 27 25 28 26 29 27 30 18 31 20 33 33 35
REMARK SMILES IDX 35 37 37 39 38 41 39 42 40 43 7 45 43 47 44 48 45 50 46 51
REMARK SMILES IDX 47 53 48 54 49 55 50 57 51 58 52 59 53 60 54 61 66 62 55 63
REMARK SMILES IDX 65 64 56 65 57 66 64 67 58 68 63 69 59 70 62 71 60 72 61 73
REMARK SMILES IDX 4 75 2 76 1 78 3 79
REMARK H PARENT 31 24 18 32 20 34 33 36 35 38 37 40 40 44 7 46 44 49 46 52
REMARK H PARENT 48 56 60 74 4 77
REMARK Flexibility Score: inf
ROOT
ATOM      1  C   UNL     1      27.726  38.013  11.119  1.00  0.00     0.272 C 
ATOM      2  C   UNL     1      26.562  37.498  11.885  1.00  0.00     0.113 C 
ATOM      3  C   UNL     1      25.236  37.559  11.171  1.00  0.00     0.145 C 
ATOM      4  C   UNL     1      25.450  36.719   9.883  1.00  0.00     0.142 C 
ATOM      5  C   UNL     1      26.613  37.339   9.210  1.00  0.00     0.178 C 
ATOM      6  O   UNL     1      27.791  37.404   9.868  1.00  0.00    -0.332 OA
ENDROOT
BRANCH   1   7
ATOM      7  O   UNL     1      28.901  37.684  11.830  1.00  0.00    -0.338 OA
BRANCH   7   8
ATOM      8  C   UNL     1      29.106  38.383  12.973  1.00  0.00     0.199 C 
BRANCH   8   9
ATOM      9  C   UNL     1      29.553  37.468  14.136  1.00  0.00     0.179 C 
ATOM     10  C   UNL     1      30.092  35.219  13.995  1.00  0.00     0.282 C 
ATOM     11  O   UNL     1      29.084  36.199  13.974  1.00  0.00    -0.341 OA
ATOM     12  C   UNL     1      30.977  35.503  12.824  1.00  0.00     0.202 C 
ATOM     13  C   UNL     1      31.754  36.782  13.169  1.00  0.00     0.179 C 
ATOM     14  C   UNL     1      31.062  37.538  14.270  1.00  0.00     0.177 C 
BRANCH  10  15
ATOM     15  O   UNL     1      29.513  33.964  14.014  1.00  0.00    -0.341 OA
BRANCH  15  16
ATOM     16  C   UNL     1      28.976  33.716  15.270  1.00  0.00     0.184 C 
ATOM     17  C   UNL     1      29.496  32.481  15.942  1.00  0.00     0.178 C 
ATOM     18  O   UNL     1      29.002  32.355  17.185  1.00  0.00    -0.341 OA
ATOM     19  C   UNL     1      27.885  33.019  17.578  1.00  0.00     0.281 C 
ATOM     20  C   UNL     1      27.468  33.432  15.132  1.00  0.00     0.180 C 
ATOM     21  C   UNL     1      26.908  33.377  16.511  1.00  0.00     0.202 C 
BRANCH  17  22
ATOM     22  C   UNL     1      31.007  32.386  15.988  1.00  0.00     0.191 C 
BRANCH  22  23
ATOM     23  O   UNL     1      31.559  32.247  14.728  1.00  0.00    -0.394 OA
ATOM     24  H   UNL     1      31.428  33.137  14.278  1.00  0.00     0.210 HD
ENDBRANCH  22  23
ENDBRANCH  17  22
BRANCH  19  25
ATOM     25  O   UNL     1      28.287  34.138  18.265  1.00  0.00    -0.350 OA
BRANCH  25  26
ATOM     26  C   UNL     1      27.419  35.172  18.331  1.00  0.00     0.169 C 
BRANCH  26  27
ATOM     27  C   UNL     1      28.014  36.504  18.006  1.00  0.00     0.119 C 
BRANCH  27  28
ATOM     28  N   UNL     1      27.222  37.346  17.159  1.00  0.00    -0.092 NA
ATOM     29  N   UNL     1      27.553  38.463  16.814  1.00  0.00     0.001 N 
ATOM     30  N   UNL     1      27.699  39.704  16.750  1.00  0.00    -0.003 NA
ENDBRANCH  27  28
ENDBRANCH  26  27
ENDBRANCH  25  26
ENDBRANCH  19  25
BRANCH  20  31
ATOM     31  O   UNL     1      26.845  34.360  14.342  1.00  0.00    -0.387 OA
ATOM     32  H   UNL     1      27.316  35.232  14.298  1.00  0.00     0.211 HD
ENDBRANCH  20  31
BRANCH  21  33
ATOM     33  O   UNL     1      25.826  32.477  16.485  1.00  0.00    -0.385 OA
ATOM     34  H   UNL     1      25.031  32.852  16.943  1.00  0.00     0.211 HD
ENDBRANCH  21  33
ENDBRANCH  15  16
ENDBRANCH  10  15
BRANCH  12  35
ATOM     35  O   UNL     1      31.828  34.493  12.454  1.00  0.00    -0.385 OA
ATOM     36  H   UNL     1      32.561  34.821  11.849  1.00  0.00     0.211 HD
ENDBRANCH  12  35
BRANCH  13  37
ATOM     37  O   UNL     1      32.036  37.532  12.047  1.00  0.00    -0.387 OA
ATOM     38  H   UNL     1      32.616  38.297  12.345  1.00  0.00     0.211 HD
ENDBRANCH  13  37
BRANCH  14  39
ATOM     39  O   UNL     1      31.427  38.899  14.109  1.00  0.00    -0.387 OA
ATOM     40  H   UNL     1      31.115  39.458  14.836  1.00  0.00     0.211 HD
ENDBRANCH  14  39
ENDBRANCH   8   9
ENDBRANCH   7   8
ENDBRANCH   1   7
BRANCH   1  41
ATOM     41  C   UNL     1      27.687  39.475  10.846  1.00  0.00     0.364 C 
ATOM     42  O   UNL     1      28.526  39.921   9.994  1.00  0.00    -0.246 OA
BRANCH  41  43
ATOM     43  O   UNL     1      26.859  40.398  11.405  1.00  0.00    -0.477 OA
ATOM     44  H   UNL     1      26.977  41.405  11.293  1.00  0.00     0.296 HD
ENDBRANCH  41  43
ENDBRANCH   1  41
BRANCH   3  45
ATOM     45  O   UNL     1      24.282  36.962  11.972  1.00  0.00    -0.391 OA
ATOM     46  H   UNL     1      24.653  36.174  12.471  1.00  0.00     0.211 HD
ENDBRANCH   3  45
BRANCH   5  47
ATOM     47  C   UNL     1      26.731  36.891   7.784  1.00  0.00     0.176 C 
BRANCH  47  48
ATOM     48  O   UNL     1      25.766  37.710   7.091  1.00  0.00    -0.388 OA
ATOM     49  H   UNL     1      26.212  38.462   6.652  1.00  0.00     0.211 HD
ENDBRANCH  47  48
BRANCH  47  50
ATOM     50  C   UNL     1      28.043  37.205   7.107  1.00  0.00     0.165 C 
BRANCH  50  51
ATOM     51  O   UNL     1      28.338  38.546   7.477  1.00  0.00    -0.388 OA
ATOM     52  H   UNL     1      29.020  38.596   8.169  1.00  0.00     0.211 HD
ENDBRANCH  50  51
BRANCH  50  53
ATOM     53  C   UNL     1      28.048  37.107   5.628  1.00  0.00     0.154 C 
BRANCH  53  54
ATOM     54  N   UNL     1      27.341  38.095   4.892  1.00  0.00    -0.319 N 
ATOM     55  C   UNL     1      27.806  39.374   4.504  1.00  0.00     0.407 C 
ATOM     56  H   UNL     1      26.341  37.880   4.577  1.00  0.00     0.167 HD
ATOM     57  O   UNL     1      28.947  39.756   4.781  1.00  0.00    -0.225 OA
BRANCH  55  58
ATOM     58  O   UNL     1      26.970  40.230   3.793  1.00  0.00    -0.443 OA
BRANCH  58  59
ATOM     59  C   UNL     1      26.124  41.192   4.345  1.00  0.00     0.294 C 
BRANCH  59  60
ATOM     60  C   UNL     1      25.737  40.951   5.741  1.00  0.00     0.121 A 
ATOM     61  C   UNL     1      24.455  40.810   6.223  1.00  0.00     0.144 A 
ATOM     62  N   UNL     1      26.574  40.838   6.794  1.00  0.00    -0.131 NA
ATOM     63  N   UNL     1      24.581  40.619   7.538  1.00  0.00    -0.220 N 
ATOM     64  N   UNL     1      25.861  40.639   7.860  1.00  0.00    -0.062 NA
BRANCH  63  65
ATOM     65  C   UNL     1      23.491  40.428   8.440  1.00  0.00     0.067 A 
ATOM     66  C   UNL     1      22.218  40.186   7.975  1.00  0.00     0.030 A 
ATOM     67  C   UNL     1      23.697  40.488   9.799  1.00  0.00     0.040 A 
ATOM     68  C   UNL     1      21.171  40.006   8.844  1.00  0.00     0.030 A 
ATOM     69  C   UNL     1      22.623  40.303  10.667  1.00  0.00     0.022 A 
ATOM     70  C   UNL     1      21.338  40.059  10.215  1.00  0.00     0.065 A 
ATOM     71  C   UNL     1      22.577  40.314  12.042  1.00  0.00     0.143 A 
ATOM     72  N   UNL     1      20.544  39.927  11.291  1.00  0.00    -0.278 N 
ATOM     73  N   UNL     1      21.292  40.081  12.359  1.00  0.00    -0.183 NA
ATOM     74  H   UNL     1      19.513  39.736  11.248  1.00  0.00     0.190 HD
ENDBRANCH  63  65
ENDBRANCH  59  60
ENDBRANCH  58  59
ENDBRANCH  55  58
ENDBRANCH  53  54
ENDBRANCH  50  53
ENDBRANCH  47  50
ENDBRANCH   5  47
BRANCH   4  75
ATOM     75  N   UNL     1      24.236  37.013   9.114  1.00  0.00    -0.348 N 
ATOM     76  C   UNL     1      23.189  36.088   9.120  1.00  0.00     0.217 C 
ATOM     77  H   UNL     1      24.132  37.883   8.566  1.00  0.00     0.163 HD
ATOM     78  C   UNL     1      21.917  36.310   8.356  1.00  0.00     0.114 C 
ATOM     79  O   UNL     1      23.305  35.016   9.799  1.00  0.00    -0.275 OA
ENDBRANCH   4  75
TORSDOF 30
BEGIN_RES LYS A 131
REMARK  4 active torsions:
REMARK  status: ('A' for Active; 'I' for Inactive)
REMARK    1  A    between atoms: CA   and  CB  
REMARK    2  A    between atoms: CB   and  CG  
REMARK    3  A    between atoms: CG   and  CD  
REMARK    4  A    between atoms: CD   and  CE  
ROOT
ATOM      1  CA  LYS A 131      29.867  25.555  16.977  1.00 20.52     0.186 C 
ENDROOT
BRANCH   1   2
ATOM      2  CB  LYS A 131      28.345  25.722  17.026  1.00 20.94     0.034 C 
BRANCH   2   3
ATOM      3  CG  LYS A 131      27.601  24.403  16.886  1.00 22.96     0.005 C 
BRANCH   3   4
ATOM      4  CD  LYS A 131      26.608  24.192  17.995  1.00 24.33     0.041 C 
BRANCH   4   5
ATOM      5  CE  LYS A 131      25.631  23.090  17.600  1.00 26.91     0.338 C 
ATOM      6  NZ  LYS A 131      24.421  23.669  16.970  1.00 27.40     0.618 N 
ENDBRANCH   4   5
ENDBRANCH   3   4
ENDBRANCH   2   3
ENDBRANCH   1   2
END_RES LYS A 131
BEGIN_RES LYS A 135
REMARK  4 active torsions:
REMARK  status: ('A' for Active; 'I' for Inactive)
REMARK    5  A    between atoms: CA   and  CB  
REMARK    6  A    between atoms: CB   and  CG  
REMARK    7  A    between atoms: CG   and  CD  
REMARK    8  A    between atoms: CD   and  CE  
ROOT
ATOM      7  CA  LYS A 135      33.193  34.663   9.290  1.00 25.02     0.186 C 
ENDROOT
BRANCH   7   8
ATOM      8  CB  LYS A 135      32.060  35.360  10.034  1.00 26.63     0.034 C 
BRANCH   8   9
ATOM      9  CG  LYS A 135      30.789  35.468   9.231  1.00 29.45     0.005 C 
BRANCH   9  10
ATOM     10  CD  LYS A 135      30.222  34.089   8.936  1.00 32.00     0.041 C 
BRANCH  10  11
ATOM     11  CE  LYS A 135      28.722  34.070   9.163  1.00 34.25     0.338 C 
ATOM     12  NZ  LYS A 135      28.393  34.306  10.596  1.00 35.99     0.618 N 
ENDBRANCH  10  11
ENDBRANCH   9  10
ENDBRANCH   8   9
ENDBRANCH   7   8
END_RES LYS A 135
