REMARK VINA RESULT:    -5.297      4.037      8.428
REMARK INTER + INTRA:         -22.861
REMARK INTER:                 -12.154
REMARK INTRA:                 -10.707
REMARK UNBOUND:                -9.203
REMARK SMILES CC(=O)N[C@@H]1[C@@H](O)C[C@](OC[C@H]2O[C@@H](O[C@H]3[C@H](O)[C@@H](O)[C@H](OCCN=[N+]=[N-])O[C@@H]3CO)[C@H](O)[C@@H](O)[C@H]2O)(C(=O)O)O[C@H]1C(O)[C@H](O)CNC(=O)OCc1cn(Cc2ccc(C#N)cc2)nn1
REMARK SMILES IDX 9 1 8 2 6 3 5 4 42 5 41 6 10 7 11 8 12 9 14 10 13 11 32 12
REMARK SMILES IDX 34 13 36 14 15 15 16 16 29 17 28 18 21 19 17 20 19 21 30 22
REMARK SMILES IDX 31 23 22 25 23 26 24 27 25 28 26 29 27 30 18 31 20 33 33 35
REMARK SMILES IDX 35 37 37 39 38 41 39 42 40 43 7 45 43 47 44 48 45 50 46 51
REMARK SMILES IDX 47 53 48 54 49 55 50 57 51 58 52 59 53 60 54 61 66 62 55 63
REMARK SMILES IDX 65 64 56 65 57 66 58 67 64 68 59 69 63 70 60 71 61 72 62 73
REMARK SMILES IDX 4 74 2 75 1 77 3 78
REMARK H PARENT 31 24 18 32 20 34 33 36 35 38 37 40 40 44 7 46 44 49 46 52
REMARK H PARENT 48 56 4 76
REMARK Flexibility Score: inf
ROOT
ATOM      1  C   UNL     1      25.845  31.299  18.356  1.00  0.00     0.272 C 
ATOM      2  C   UNL     1      26.014  31.766  19.759  1.00  0.00     0.113 C 
ATOM      3  C   UNL     1      27.264  31.323  20.431  1.00  0.00     0.145 C 
ATOM      4  C   UNL     1      27.659  29.959  19.842  1.00  0.00     0.142 C 
ATOM      5  C   UNL     1      26.384  29.319  19.383  1.00  0.00     0.178 C 
ATOM      6  O   UNL     1      25.952  29.905  18.228  1.00  0.00    -0.332 OA
ENDROOT
BRANCH   1   7
ATOM      7  O   UNL     1      26.630  31.924  17.410  1.00  0.00    -0.338 OA
BRANCH   7   8
ATOM      8  C   UNL     1      26.662  31.320  16.199  1.00  0.00     0.199 C 
BRANCH   8   9
ATOM      9  C   UNL     1      27.962  31.627  15.433  1.00  0.00     0.179 C 
ATOM     10  C   UNL     1      29.562  33.283  15.286  1.00  0.00     0.282 C 
ATOM     11  O   UNL     1      28.294  32.943  15.756  1.00  0.00    -0.341 OA
ATOM     12  C   UNL     1      30.652  32.454  15.883  1.00  0.00     0.202 C 
ATOM     13  C   UNL     1      30.047  31.413  16.795  1.00  0.00     0.179 C 
ATOM     14  C   UNL     1      29.011  30.680  15.955  1.00  0.00     0.177 C 
BRANCH  10  15
ATOM     15  O   UNL     1      29.781  34.611  15.644  1.00  0.00    -0.341 OA
BRANCH  15  16
ATOM     16  C   UNL     1      30.622  35.287  14.763  1.00  0.00     0.184 C 
ATOM     17  C   UNL     1      30.804  36.690  15.222  1.00  0.00     0.178 C 
ATOM     18  O   UNL     1      30.001  37.629  14.642  1.00  0.00    -0.341 OA
ATOM     19  C   UNL     1      28.973  37.163  13.862  1.00  0.00     0.281 C 
ATOM     20  C   UNL     1      30.210  35.127  13.335  1.00  0.00     0.180 C 
ATOM     21  C   UNL     1      29.552  36.341  12.733  1.00  0.00     0.202 C 
BRANCH  17  22
ATOM     22  C   UNL     1      32.283  37.059  15.130  1.00  0.00     0.191 C 
BRANCH  22  23
ATOM     23  O   UNL     1      32.998  35.885  14.891  1.00  0.00    -0.394 OA
ATOM     24  H   UNL     1      32.795  35.519  13.977  1.00  0.00     0.210 HD
ENDBRANCH  22  23
ENDBRANCH  17  22
BRANCH  19  25
ATOM     25  O   UNL     1      28.364  38.299  13.292  1.00  0.00    -0.350 OA
BRANCH  25  26
ATOM     26  C   UNL     1      29.322  39.189  12.824  1.00  0.00     0.169 C 
BRANCH  26  27
ATOM     27  C   UNL     1      28.693  40.237  11.928  1.00  0.00     0.119 C 
BRANCH  27  28
ATOM     28  N   UNL     1      28.924  39.966  10.521  1.00  0.00    -0.092 NA
ATOM     29  N   UNL     1      28.718  38.851  10.070  1.00  0.00     0.001 N 
ATOM     30  N   UNL     1      28.198  37.969   9.370  1.00  0.00    -0.003 NA
ENDBRANCH  27  28
ENDBRANCH  26  27
ENDBRANCH  25  26
ENDBRANCH  19  25
BRANCH  20  31
ATOM     31  O   UNL     1      31.247  34.665  12.515  1.00  0.00    -0.387 OA
ATOM     32  H   UNL     1      31.374  35.288  11.741  1.00  0.00     0.211 HD
ENDBRANCH  20  31
BRANCH  21  33
ATOM     33  O   UNL     1      28.561  35.994  11.812  1.00  0.00    -0.385 OA
ATOM     34  H   UNL     1      28.404  35.019  11.918  1.00  0.00     0.211 HD
ENDBRANCH  21  33
ENDBRANCH  15  16
ENDBRANCH  10  15
BRANCH  12  35
ATOM     35  O   UNL     1      31.459  31.816  14.967  1.00  0.00    -0.385 OA
ATOM     36  H   UNL     1      32.250  31.424  15.433  1.00  0.00     0.211 HD
ENDBRANCH  12  35
BRANCH  13  37
ATOM     37  O   UNL     1      29.483  32.062  17.881  1.00  0.00    -0.387 OA
ATOM     38  H   UNL     1      29.730  33.008  17.970  1.00  0.00     0.211 HD
ENDBRANCH  13  37
BRANCH  14  39
ATOM     39  O   UNL     1      28.481  29.577  16.580  1.00  0.00    -0.387 OA
ATOM     40  H   UNL     1      27.899  29.858  17.318  1.00  0.00     0.211 HD
ENDBRANCH  14  39
ENDBRANCH   8   9
ENDBRANCH   7   8
ENDBRANCH   1   7
BRANCH   1  41
ATOM     41  C   UNL     1      24.411  31.559  17.996  1.00  0.00     0.364 C 
ATOM     42  O   UNL     1      23.968  32.712  18.000  1.00  0.00    -0.246 OA
BRANCH  41  43
ATOM     43  O   UNL     1      23.611  30.491  17.663  1.00  0.00    -0.477 OA
ATOM     44  H   UNL     1      23.911  29.719  17.081  1.00  0.00     0.296 HD
ENDBRANCH  41  43
ENDBRANCH   1  41
BRANCH   3  45
ATOM     45  O   UNL     1      28.299  32.215  20.446  1.00  0.00    -0.391 OA
ATOM     46  H   UNL     1      28.785  32.214  19.596  1.00  0.00     0.211 HD
ENDBRANCH   3  45
BRANCH   5  47
ATOM     47  C   UNL     1      26.496  27.796  19.229  1.00  0.00     0.176 C 
BRANCH  47  48
ATOM     48  O   UNL     1      27.795  27.588  18.708  1.00  0.00    -0.388 OA
ATOM     49  H   UNL     1      27.702  27.113  17.845  1.00  0.00     0.211 HD
ENDBRANCH  47  48
BRANCH  47  50
ATOM     50  C   UNL     1      26.379  27.106  20.514  1.00  0.00     0.165 C 
BRANCH  50  51
ATOM     51  O   UNL     1      27.559  26.355  20.803  1.00  0.00    -0.388 OA
ATOM     52  H   UNL     1      28.248  26.751  20.181  1.00  0.00     0.211 HD
ENDBRANCH  50  51
BRANCH  50  53
ATOM     53  C   UNL     1      25.193  26.252  20.730  1.00  0.00     0.154 C 
BRANCH  53  54
ATOM     54  N   UNL     1      24.218  26.051  19.750  1.00  0.00    -0.319 N 
ATOM     55  C   UNL     1      23.213  26.916  19.278  1.00  0.00     0.407 C 
ATOM     56  H   UNL     1      24.215  25.088  19.262  1.00  0.00     0.167 HD
ATOM     57  O   UNL     1      23.062  28.075  19.689  1.00  0.00    -0.225 OA
BRANCH  55  58
ATOM     58  O   UNL     1      22.309  26.499  18.289  1.00  0.00    -0.443 OA
BRANCH  58  59
ATOM     59  C   UNL     1      22.745  26.346  16.948  1.00  0.00     0.294 C 
BRANCH  59  60
ATOM     60  C   UNL     1      22.232  27.517  16.154  1.00  0.00     0.120 A 
ATOM     61  C   UNL     1      22.346  27.631  14.784  1.00  0.00     0.138 A 
ATOM     62  N   UNL     1      21.605  28.631  16.575  1.00  0.00    -0.132 NA
ATOM     63  N   UNL     1      21.786  28.813  14.416  1.00  0.00    -0.248 N 
ATOM     64  N   UNL     1      21.366  29.361  15.509  1.00  0.00    -0.067 NA
BRANCH  63  65
ATOM     65  C   UNL     1      21.751  29.263  13.033  1.00  0.00     0.181 C 
BRANCH  65  66
ATOM     66  C   UNL     1      22.646  30.477  13.003  1.00  0.00    -0.026 A 
ATOM     67  C   UNL     1      23.995  30.295  13.183  1.00  0.00     0.007 A 
ATOM     68  C   UNL     1      22.097  31.744  12.796  1.00  0.00     0.007 A 
ATOM     69  C   UNL     1      24.887  31.343  13.175  1.00  0.00     0.020 A 
ATOM     70  C   UNL     1      22.986  32.789  12.788  1.00  0.00     0.020 A 
ATOM     71  C   UNL     1      24.318  32.605  12.968  1.00  0.00     0.052 A 
BRANCH  71  72
ATOM     72  C   UNL     1      25.240  33.735  12.975  1.00  0.00     0.099 C 
ATOM     73  N   UNL     1      25.988  34.626  12.968  1.00  0.00    -0.192 NA
ENDBRANCH  71  72
ENDBRANCH  65  66
ENDBRANCH  63  65
ENDBRANCH  59  60
ENDBRANCH  58  59
ENDBRANCH  55  58
ENDBRANCH  53  54
ENDBRANCH  50  53
ENDBRANCH  47  50
ENDBRANCH   5  47
BRANCH   4  74
ATOM     74  N   UNL     1      28.402  29.197  20.814  1.00  0.00    -0.348 N 
ATOM     75  C   UNL     1      29.820  29.262  20.789  1.00  0.00     0.217 C 
ATOM     76  H   UNL     1      27.946  28.608  21.527  1.00  0.00     0.163 HD
ATOM     77  C   UNL     1      30.648  28.512  21.751  1.00  0.00     0.114 C 
ATOM     78  O   UNL     1      30.429  29.979  19.926  1.00  0.00    -0.275 OA
ENDBRANCH   4  74
TORSDOF 32
BEGIN_RES LYS A 131
REMARK  4 active torsions:
REMARK  status: ('A' for Active; 'I' for Inactive)
REMARK    1  A    between atoms: CA   and  CB  
REMARK    2  A    between atoms: CB   and  CG  
REMARK    3  A    between atoms: CG   and  CD  
REMARK    4  A    between atoms: CD   and  CE  
ROOT
ATOM      1  CA  LYS A 131      29.867  25.555  16.977  1.00 20.52     0.186 C 
ENDROOT
BRANCH   1   2
ATOM      2  CB  LYS A 131      28.345  25.722  17.026  1.00 20.94     0.034 C 
BRANCH   2   3
ATOM      3  CG  LYS A 131      27.601  24.402  16.897  1.00 22.96     0.005 C 
BRANCH   3   4
ATOM      4  CD  LYS A 131      26.144  24.536  17.241  1.00 24.33     0.041 C 
BRANCH   4   5
ATOM      5  CE  LYS A 131      25.608  23.192  17.723  1.00 26.91     0.338 C 
ATOM      6  NZ  LYS A 131      24.256  22.944  17.169  1.00 27.40     0.618 N 
ENDBRANCH   4   5
ENDBRANCH   3   4
ENDBRANCH   2   3
ENDBRANCH   1   2
END_RES LYS A 131
BEGIN_RES LYS A 135
REMARK  4 active torsions:
REMARK  status: ('A' for Active; 'I' for Inactive)
REMARK    5  A    between atoms: CA   and  CB  
REMARK    6  A    between atoms: CB   and  CG  
REMARK    7  A    between atoms: CG   and  CD  
REMARK    8  A    between atoms: CD   and  CE  
ROOT
ATOM      7  CA  LYS A 135      33.193  34.663   9.290  1.00 25.02     0.186 C 
ENDROOT
BRANCH   7   8
ATOM      8  CB  LYS A 135      32.060  35.360  10.034  1.00 26.63     0.034 C 
BRANCH   8   9
ATOM      9  CG  LYS A 135      30.812  35.532   9.207  1.00 29.45     0.005 C 
BRANCH   9  10
ATOM     10  CD  LYS A 135      30.071  34.211   9.073  1.00 32.00     0.041 C 
BRANCH  10  11
ATOM     11  CE  LYS A 135      28.649  34.443   8.600  1.00 34.25     0.338 C 
ATOM     12  NZ  LYS A 135      27.675  33.686   9.434  1.00 35.99     0.618 N 
ENDBRANCH  10  11
ENDBRANCH   9  10
ENDBRANCH   8   9
ENDBRANCH   7   8
END_RES LYS A 135
