REMARK VINA RESULT:    -3.907      7.320     12.798
REMARK INTER + INTRA:         -22.234
REMARK INTER:                 -10.303
REMARK INTRA:                 -11.931
REMARK UNBOUND:               -11.702
REMARK SMILES CC(=O)N[C@@H]1[C@@H](O)C[C@](OC[C@H]2O[C@@H](O[C@H]3[C@H](O)[C@@H](O)[C@H](OCCN=[N+]=[N-])O[C@@H]3CO)[C@H](O)[C@@H](O)[C@H]2O)(C(=O)O)O[C@H]1C(O)[C@H](O)CNC(=O)OCc1cn([C@@H](CC(=O)O)C(=O)O)nn1
REMARK SMILES IDX 43 1 42 2 9 3 8 4 41 5 6 6 5 7 10 8 11 9 12 10 14 11 13 12
REMARK SMILES IDX 32 13 34 14 36 15 15 16 16 17 29 18 28 19 21 20 17 21 19 22
REMARK SMILES IDX 30 23 31 24 22 26 23 27 24 28 25 29 26 30 27 31 18 32 20 34
REMARK SMILES IDX 33 36 35 38 37 40 38 42 39 43 40 44 7 46 4 48 2 49 1 51 3 52
REMARK SMILES IDX 44 53 45 55 46 56 47 58 48 59 49 60 50 62 51 63 52 64 53 65
REMARK SMILES IDX 54 66 65 67 55 68 64 69 56 70 57 71 58 72 59 73 60 74 61 76
REMARK SMILES IDX 62 77 63 78
REMARK H PARENT 31 25 18 33 20 35 33 37 35 39 37 41 40 45 7 47 4 50 44 54
REMARK H PARENT 46 57 48 61 60 75 63 79
REMARK Flexibility Score: inf
ROOT
ATOM      1  C   UNL     1      29.712  27.932  22.252  1.00  0.00     0.176 C 
ENDROOT
BRANCH   1   2
ATOM      2  C   UNL     1      30.260  29.306  22.596  1.00  0.00     0.178 C 
ATOM      3  C   UNL     1      30.171  31.537  21.859  1.00  0.00     0.272 C 
ATOM      4  C   UNL     1      31.419  31.505  22.753  1.00  0.00     0.113 C 
ATOM      5  O   UNL     1      29.822  30.183  21.653  1.00  0.00    -0.332 OA
ATOM      6  C   UNL     1      32.329  30.452  22.137  1.00  0.00     0.145 C 
ATOM      7  C   UNL     1      31.765  29.134  22.694  1.00  0.00     0.142 C 
BRANCH   3   8
ATOM      8  O   UNL     1      30.390  32.139  20.783  1.00  0.00    -0.338 OA
BRANCH   8   9
ATOM      9  C   UNL     1      30.600  32.744  19.716  1.00  0.00     0.199 C 
BRANCH   9  10
ATOM     10  C   UNL     1      29.562  32.601  18.602  1.00  0.00     0.179 C 
ATOM     11  C   UNL     1      30.715  33.322  16.746  1.00  0.00     0.282 C 
ATOM     12  O   UNL     1      29.659  33.497  17.593  1.00  0.00    -0.341 OA
ATOM     13  C   UNL     1      30.759  31.969  16.150  1.00  0.00     0.202 C 
ATOM     14  C   UNL     1      29.441  31.285  16.546  1.00  0.00     0.179 C 
ATOM     15  C   UNL     1      29.493  31.193  18.060  1.00  0.00     0.177 C 
BRANCH  11  16
ATOM     16  O   UNL     1      31.923  33.856  17.164  1.00  0.00    -0.341 OA
BRANCH  16  17
ATOM     17  C   UNL     1      32.048  35.204  16.921  1.00  0.00     0.184 C 
ATOM     18  C   UNL     1      33.299  35.530  16.188  1.00  0.00     0.178 C 
ATOM     19  O   UNL     1      33.380  36.887  15.901  1.00  0.00    -0.341 OA
ATOM     20  C   UNL     1      32.886  37.713  16.916  1.00  0.00     0.281 C 
ATOM     21  C   UNL     1      32.069  35.877  18.291  1.00  0.00     0.180 C 
ATOM     22  C   UNL     1      33.034  37.018  18.266  1.00  0.00     0.202 C 
BRANCH  18  23
ATOM     23  C   UNL     1      33.233  34.827  14.833  1.00  0.00     0.191 C 
BRANCH  23  24
ATOM     24  O   UNL     1      31.895  34.838  14.388  1.00  0.00    -0.394 OA
ATOM     25  H   UNL     1      31.588  33.889  14.493  1.00  0.00     0.210 HD
ENDBRANCH  23  24
ENDBRANCH  18  23
BRANCH  20  26
ATOM     26  O   UNL     1      31.534  37.889  16.686  1.00  0.00    -0.350 OA
BRANCH  26  27
ATOM     27  C   UNL     1      31.183  38.840  15.779  1.00  0.00     0.169 C 
BRANCH  27  28
ATOM     28  C   UNL     1      29.971  38.422  15.004  1.00  0.00     0.119 C 
BRANCH  28  29
ATOM     29  N   UNL     1      30.380  37.405  14.033  1.00  0.00    -0.092 NA
ATOM     30  N   UNL     1      31.225  37.733  13.175  1.00  0.00     0.001 N 
ATOM     31  N   UNL     1      31.693  37.842  12.027  1.00  0.00    -0.003 NA
ENDBRANCH  28  29
ENDBRANCH  27  28
ENDBRANCH  26  27
ENDBRANCH  20  26
BRANCH  21  32
ATOM     32  O   UNL     1      30.798  36.343  18.606  1.00  0.00    -0.387 OA
ATOM     33  H   UNL     1      30.418  36.858  17.837  1.00  0.00     0.211 HD
ENDBRANCH  21  32
BRANCH  22  34
ATOM     34  O   UNL     1      34.362  36.644  18.484  1.00  0.00    -0.385 OA
ATOM     35  H   UNL     1      34.859  37.002  17.682  1.00  0.00     0.211 HD
ENDBRANCH  22  34
ENDBRANCH  16  17
ENDBRANCH  11  16
BRANCH  13  36
ATOM     36  O   UNL     1      30.771  31.968  14.753  1.00  0.00    -0.385 OA
ATOM     37  H   UNL     1      30.836  31.015  14.458  1.00  0.00     0.211 HD
ENDBRANCH  13  36
BRANCH  14  38
ATOM     38  O   UNL     1      29.281  30.053  15.962  1.00  0.00    -0.387 OA
ATOM     39  H   UNL     1      30.139  29.693  15.601  1.00  0.00     0.211 HD
ENDBRANCH  14  38
BRANCH  15  40
ATOM     40  O   UNL     1      30.578  30.431  18.431  1.00  0.00    -0.387 OA
ATOM     41  H   UNL     1      30.355  29.544  18.760  1.00  0.00     0.211 HD
ENDBRANCH  15  40
ENDBRANCH   9  10
ENDBRANCH   8   9
ENDBRANCH   3   8
BRANCH   3  42
ATOM     42  C   UNL     1      29.100  32.141  22.763  1.00  0.00     0.364 C 
ATOM     43  O   UNL     1      29.418  32.965  23.632  1.00  0.00    -0.246 OA
BRANCH  42  44
ATOM     44  O   UNL     1      27.771  31.784  22.632  1.00  0.00    -0.477 OA
ATOM     45  H   UNL     1      27.130  31.744  23.436  1.00  0.00     0.296 HD
ENDBRANCH  42  44
ENDBRANCH   3  42
BRANCH   6  46
ATOM     46  O   UNL     1      32.072  30.348  20.752  1.00  0.00    -0.391 OA
ATOM     47  H   UNL     1      32.869  30.473  20.212  1.00  0.00     0.211 HD
ENDBRANCH   6  46
BRANCH   7  48
ATOM     48  N   UNL     1      32.245  29.039  24.053  1.00  0.00    -0.348 N 
ATOM     49  C   UNL     1      33.235  28.068  24.398  1.00  0.00     0.217 C 
ATOM     50  H   UNL     1      31.899  29.656  24.823  1.00  0.00     0.163 HD
ATOM     51  C   UNL     1      33.690  28.017  25.828  1.00  0.00     0.114 C 
ATOM     52  O   UNL     1      33.716  27.276  23.545  1.00  0.00    -0.275 OA
ENDBRANCH   7  48
ENDBRANCH   1   2
BRANCH   1  53
ATOM     53  O   UNL     1      30.265  26.943  23.057  1.00  0.00    -0.388 OA
ATOM     54  H   UNL     1      31.115  26.584  22.673  1.00  0.00     0.211 HD
ENDBRANCH   1  53
BRANCH   1  55
ATOM     55  C   UNL     1      29.781  27.548  20.822  1.00  0.00     0.165 C 
BRANCH  55  56
ATOM     56  O   UNL     1      30.682  28.245  20.048  1.00  0.00    -0.388 OA
ATOM     57  H   UNL     1      31.463  28.603  20.548  1.00  0.00     0.211 HD
ENDBRANCH  55  56
BRANCH  55  58
ATOM     58  C   UNL     1      28.423  27.427  20.221  1.00  0.00     0.154 C 
BRANCH  58  59
ATOM     59  N   UNL     1      27.605  28.599  20.258  1.00  0.00    -0.319 N 
ATOM     60  C   UNL     1      27.053  29.102  19.056  1.00  0.00     0.407 C 
ATOM     61  H   UNL     1      27.405  29.087  21.142  1.00  0.00     0.167 HD
ATOM     62  O   UNL     1      27.302  28.467  17.972  1.00  0.00    -0.225 OA
BRANCH  60  63
ATOM     63  O   UNL     1      26.264  30.232  18.931  1.00  0.00    -0.443 OA
BRANCH  63  64
ATOM     64  C   UNL     1      25.426  30.386  17.774  1.00  0.00     0.294 C 
BRANCH  64  65
ATOM     65  C   UNL     1      25.837  31.614  17.054  1.00  0.00     0.120 A 
ATOM     66  C   UNL     1      26.116  31.808  15.719  1.00  0.00     0.139 A 
ATOM     67  N   UNL     1      26.043  32.844  17.632  1.00  0.00    -0.132 NA
ATOM     68  N   UNL     1      26.475  33.111  15.528  1.00  0.00    -0.237 N 
ATOM     69  N   UNL     1      26.413  33.677  16.698  1.00  0.00    -0.066 NA
BRANCH  68  70
ATOM     70  C   UNL     1      26.860  33.719  14.275  1.00  0.00     0.229 C 
BRANCH  70  71
ATOM     71  C   UNL     1      25.771  34.697  13.871  1.00  0.00     0.161 C 
BRANCH  71  72
ATOM     72  C   UNL     1      25.191  34.353  12.559  1.00  0.00     0.306 C 
ATOM     73  O   UNL     1      24.100  33.735  12.472  1.00  0.00    -0.252 OA
BRANCH  72  74
ATOM     74  O   UNL     1      25.841  34.703  11.396  1.00  0.00    -0.481 OA
ATOM     75  H   UNL     1      26.824  34.994  11.449  1.00  0.00     0.296 HD
ENDBRANCH  72  74
ENDBRANCH  71  72
ENDBRANCH  70  71
BRANCH  70  76
ATOM     76  C   UNL     1      28.128  34.444  14.462  1.00  0.00     0.329 C 
ATOM     77  O   UNL     1      29.092  34.188  13.703  1.00  0.00    -0.250 OA
BRANCH  76  78
ATOM     78  O   UNL     1      28.312  35.408  15.444  1.00  0.00    -0.480 OA
ATOM     79  H   UNL     1      27.873  35.263  16.349  1.00  0.00     0.296 HD
ENDBRANCH  76  78
ENDBRANCH  70  76
ENDBRANCH  68  70
ENDBRANCH  64  65
ENDBRANCH  63  64
ENDBRANCH  60  63
ENDBRANCH  58  59
ENDBRANCH  55  58
ENDBRANCH   1  55
TORSDOF 35
BEGIN_RES LYS A 131
REMARK  4 active torsions:
REMARK  status: ('A' for Active; 'I' for Inactive)
REMARK    1  A    between atoms: CA   and  CB  
REMARK    2  A    between atoms: CB   and  CG  
REMARK    3  A    between atoms: CG   and  CD  
REMARK    4  A    between atoms: CD   and  CE  
ROOT
ATOM      1  CA  LYS A 131      29.867  25.555  16.977  1.00 20.52     0.186 C 
ENDROOT
BRANCH   1   2
ATOM      2  CB  LYS A 131      28.345  25.722  17.026  1.00 20.94     0.034 C 
BRANCH   2   3
ATOM      3  CG  LYS A 131      27.601  24.401  16.904  1.00 22.96     0.005 C 
BRANCH   3   4
ATOM      4  CD  LYS A 131      26.645  24.182  18.043  1.00 24.33     0.041 C 
BRANCH   4   5
ATOM      5  CE  LYS A 131      25.615  23.129  17.648  1.00 26.91     0.338 C 
ATOM      6  NZ  LYS A 131      24.884  22.644  18.843  1.00 27.40     0.618 N 
ENDBRANCH   4   5
ENDBRANCH   3   4
ENDBRANCH   2   3
ENDBRANCH   1   2
END_RES LYS A 131
BEGIN_RES LYS A 135
REMARK  4 active torsions:
REMARK  status: ('A' for Active; 'I' for Inactive)
REMARK    5  A    between atoms: CA   and  CB  
REMARK    6  A    between atoms: CB   and  CG  
REMARK    7  A    between atoms: CG   and  CD  
REMARK    8  A    between atoms: CD   and  CE  
ROOT
ATOM      7  CA  LYS A 135      33.193  34.663   9.290  1.00 25.02     0.186 C 
ENDROOT
BRANCH   7   8
ATOM      8  CB  LYS A 135      32.060  35.360  10.034  1.00 26.63     0.034 C 
BRANCH   8   9
ATOM      9  CG  LYS A 135      30.796  35.488   9.223  1.00 29.45     0.005 C 
BRANCH   9  10
ATOM     10  CD  LYS A 135      30.186  34.120   8.960  1.00 32.00     0.041 C 
BRANCH  10  11
ATOM     11  CE  LYS A 135      28.735  34.091   9.400  1.00 34.25     0.338 C 
ATOM     12  NZ  LYS A 135      27.837  34.588   8.321  1.00 35.99     0.618 N 
ENDBRANCH  10  11
ENDBRANCH   9  10
ENDBRANCH   8   9
ENDBRANCH   7   8
END_RES LYS A 135
