REMARK VINA RESULT:    -4.694      5.962     11.523
REMARK INTER + INTRA:         -22.749
REMARK INTER:                  -8.708
REMARK INTRA:                 -14.041
REMARK UNBOUND:               -10.372
REMARK SMILES CC(=O)N[C@@H]1[C@@H](O)C[C@](OC[C@H]2O[C@@H](O[C@H]3[C@H](O)[C@@H](O)[C@H](OCCN=[N+]=[N-])O[C@@H]3CO)[C@H](O)[C@@H](O)[C@H]2O)(C(=O)O)O[C@H]1C(O)[C@H](O)CNC(=O)OCc1cn(CC(=O)NCc2cccs2)nn1
REMARK SMILES IDX 43 1 42 2 9 3 8 4 41 5 6 6 5 7 10 8 11 9 12 10 14 11 13 12
REMARK SMILES IDX 32 13 34 14 36 15 15 16 16 17 29 18 28 19 21 20 17 21 19 22
REMARK SMILES IDX 30 23 31 24 22 26 23 27 24 28 25 29 26 30 27 31 18 32 20 34
REMARK SMILES IDX 33 36 35 38 37 40 38 42 39 43 40 44 7 46 4 48 2 49 1 51 3 52
REMARK SMILES IDX 44 53 45 55 46 56 47 58 48 59 49 60 50 62 51 63 52 64 53 65
REMARK SMILES IDX 54 66 67 67 55 68 66 69 56 70 57 71 58 72 59 73 60 75 61 76
REMARK SMILES IDX 62 77 65 78 63 79 64 80
REMARK H PARENT 31 25 18 33 20 35 33 37 35 39 37 41 40 45 7 47 4 50 44 54
REMARK H PARENT 46 57 48 61 59 74
REMARK Flexibility Score: inf
ROOT
ATOM      1  C   UNL     1      28.394  31.315  19.370  1.00  0.00     0.176 C 
ENDROOT
BRANCH   1   2
ATOM      2  C   UNL     1      27.496  31.492  18.174  1.00  0.00     0.178 C 
ATOM      3  C   UNL     1      26.193  29.591  17.645  1.00  0.00     0.272 C 
ATOM      4  C   UNL     1      27.400  29.080  16.841  1.00  0.00     0.113 C 
ATOM      5  O   UNL     1      26.406  30.711  18.342  1.00  0.00    -0.332 OA
ATOM      6  C   UNL     1      27.958  30.203  16.064  1.00  0.00     0.145 C 
ATOM      7  C   UNL     1      28.160  31.470  16.853  1.00  0.00     0.142 C 
BRANCH   3   8
ATOM      8  O   UNL     1      25.876  28.538  18.471  1.00  0.00    -0.338 OA
BRANCH   8   9
ATOM      9  C   UNL     1      26.822  27.817  19.077  1.00  0.00     0.199 C 
BRANCH   9  10
ATOM     10  C   UNL     1      26.577  27.275  20.456  1.00  0.00     0.179 C 
ATOM     11  C   UNL     1      27.841  26.876  22.329  1.00  0.00     0.282 C 
ATOM     12  O   UNL     1      27.682  27.721  21.222  1.00  0.00    -0.341 OA
ATOM     13  C   UNL     1      26.539  26.586  22.997  1.00  0.00     0.202 C 
ATOM     14  C   UNL     1      25.401  27.461  22.589  1.00  0.00     0.179 C 
ATOM     15  C   UNL     1      25.379  27.882  21.155  1.00  0.00     0.177 C 
BRANCH  11  16
ATOM     16  O   UNL     1      28.755  27.351  23.229  1.00  0.00    -0.341 OA
BRANCH  16  17
ATOM     17  C   UNL     1      29.879  27.918  22.633  1.00  0.00     0.184 C 
ATOM     18  C   UNL     1      31.036  27.022  22.560  1.00  0.00     0.178 C 
ATOM     19  O   UNL     1      32.124  27.291  23.346  1.00  0.00    -0.341 OA
ATOM     20  C   UNL     1      32.001  28.238  24.311  1.00  0.00     0.281 C 
ATOM     21  C   UNL     1      30.090  29.264  23.266  1.00  0.00     0.180 C 
ATOM     22  C   UNL     1      31.533  29.529  23.616  1.00  0.00     0.202 C 
BRANCH  18  23
ATOM     23  C   UNL     1      31.589  26.987  21.121  1.00  0.00     0.191 C 
BRANCH  23  24
ATOM     24  O   UNL     1      30.598  27.139  20.176  1.00  0.00    -0.394 OA
ATOM     25  H   UNL     1      30.649  26.366  19.551  1.00  0.00     0.210 HD
ENDBRANCH  23  24
ENDBRANCH  18  23
BRANCH  20  26
ATOM     26  O   UNL     1      33.282  28.556  24.791  1.00  0.00    -0.350 OA
BRANCH  26  27
ATOM     27  C   UNL     1      34.255  28.354  23.834  1.00  0.00     0.169 C 
BRANCH  27  28
ATOM     28  C   UNL     1      34.993  29.684  23.652  1.00  0.00     0.119 C 
BRANCH  28  29
ATOM     29  N   UNL     1      34.810  30.148  22.284  1.00  0.00    -0.092 NA
ATOM     30  N   UNL     1      35.315  31.213  21.932  1.00  0.00     0.001 N 
ATOM     31  N   UNL     1      35.960  32.169  21.464  1.00  0.00    -0.003 NA
ENDBRANCH  28  29
ENDBRANCH  27  28
ENDBRANCH  26  27
ENDBRANCH  20  26
BRANCH  21  32
ATOM     32  O   UNL     1      29.555  30.313  22.513  1.00  0.00    -0.387 OA
ATOM     33  H   UNL     1      29.104  29.966  21.683  1.00  0.00     0.211 HD
ENDBRANCH  21  32
BRANCH  22  34
ATOM     34  O   UNL     1      31.579  30.601  24.486  1.00  0.00    -0.385 OA
ATOM     35  H   UNL     1      32.471  30.668  24.913  1.00  0.00     0.211 HD
ENDBRANCH  22  34
ENDBRANCH  16  17
ENDBRANCH  11  16
BRANCH  13  36
ATOM     36  O   UNL     1      26.174  25.227  22.858  1.00  0.00    -0.385 OA
ATOM     37  H   UNL     1      26.797  24.711  22.323  1.00  0.00     0.211 HD
ENDBRANCH  13  36
BRANCH  14  38
ATOM     38  O   UNL     1      25.292  28.572  23.459  1.00  0.00    -0.387 OA
ATOM     39  H   UNL     1      24.507  28.456  24.049  1.00  0.00     0.211 HD
ENDBRANCH  14  38
BRANCH  15  40
ATOM     40  O   UNL     1      25.522  29.290  21.151  1.00  0.00    -0.387 OA
ATOM     41  H   UNL     1      25.902  29.623  20.307  1.00  0.00     0.211 HD
ENDBRANCH  15  40
ENDBRANCH   9  10
ENDBRANCH   8   9
ENDBRANCH   3   8
BRANCH   3  42
ATOM     42  C   UNL     1      25.134  29.813  16.611  1.00  0.00     0.364 C 
ATOM     43  O   UNL     1      24.821  30.932  16.145  1.00  0.00    -0.246 OA
BRANCH  42  44
ATOM     44  O   UNL     1      24.436  28.720  16.114  1.00  0.00    -0.477 OA
ATOM     45  H   UNL     1      24.711  28.290  15.240  1.00  0.00     0.296 HD
ENDBRANCH  42  44
ENDBRANCH   3  42
BRANCH   6  46
ATOM     46  O   UNL     1      29.174  29.787  15.449  1.00  0.00    -0.391 OA
ATOM     47  H   UNL     1      29.318  28.823  15.561  1.00  0.00     0.211 HD
ENDBRANCH   6  46
BRANCH   7  48
ATOM     48  N   UNL     1      27.823  32.633  16.056  1.00  0.00    -0.348 N 
ATOM     49  C   UNL     1      28.690  33.745  16.021  1.00  0.00     0.217 C 
ATOM     50  H   UNL     1      26.933  32.684  15.493  1.00  0.00     0.163 HD
ATOM     51  C   UNL     1      28.325  34.934  15.195  1.00  0.00     0.114 C 
ATOM     52  O   UNL     1      29.772  33.808  16.650  1.00  0.00    -0.275 OA
ENDBRANCH   7  48
ENDBRANCH   1   2
BRANCH   1  53
ATOM     53  O   UNL     1      27.886  30.559  20.386  1.00  0.00    -0.388 OA
ATOM     54  H   UNL     1      27.860  29.589  20.242  1.00  0.00     0.211 HD
ENDBRANCH   1  53
BRANCH   1  55
ATOM     55  C   UNL     1      29.837  30.991  19.045  1.00  0.00     0.165 C 
BRANCH  55  56
ATOM     56  O   UNL     1      30.215  29.742  19.435  1.00  0.00    -0.388 OA
ATOM     57  H   UNL     1      30.845  29.288  18.834  1.00  0.00     0.211 HD
ENDBRANCH  55  56
BRANCH  55  58
ATOM     58  C   UNL     1      30.753  32.052  19.629  1.00  0.00     0.154 C 
BRANCH  58  59
ATOM     59  N   UNL     1      30.246  32.624  20.841  1.00  0.00    -0.319 N 
ATOM     60  C   UNL     1      29.895  33.978  21.062  1.00  0.00     0.407 C 
ATOM     61  H   UNL     1      30.093  32.006  21.716  1.00  0.00     0.167 HD
ATOM     62  O   UNL     1      29.992  34.832  20.181  1.00  0.00    -0.225 OA
BRANCH  60  63
ATOM     63  O   UNL     1      29.415  34.415  22.313  1.00  0.00    -0.443 OA
BRANCH  63  64
ATOM     64  C   UNL     1      28.496  33.729  23.100  1.00  0.00     0.294 C 
BRANCH  64  65
ATOM     65  C   UNL     1      27.301  33.259  22.387  1.00  0.00     0.120 A 
ATOM     66  C   UNL     1      26.564  33.954  21.453  1.00  0.00     0.138 A 
ATOM     67  N   UNL     1      26.698  32.047  22.510  1.00  0.00    -0.132 NA
ATOM     68  N   UNL     1      25.557  33.175  21.038  1.00  0.00    -0.243 N 
ATOM     69  N   UNL     1      25.668  32.041  21.690  1.00  0.00    -0.067 NA
BRANCH  68  70
ATOM     70  C   UNL     1      24.510  33.426  20.072  1.00  0.00     0.245 C 
BRANCH  70  71
ATOM     71  C   UNL     1      23.450  32.418  20.259  1.00  0.00     0.242 C 
ATOM     72  O   UNL     1      22.447  32.681  20.946  1.00  0.00    -0.273 OA
ATOM     73  N   UNL     1      23.561  31.140  19.660  1.00  0.00    -0.350 N 
ATOM     74  H   UNL     1      24.399  30.875  19.068  1.00  0.00     0.163 HD
BRANCH  73  75
ATOM     75  C   UNL     1      22.555  30.135  19.814  1.00  0.00     0.162 C 
BRANCH  75  76
ATOM     76  C   UNL     1      21.960  29.839  18.503  1.00  0.00     0.024 A 
ATOM     77  C   UNL     1      21.642  30.640  17.456  1.00  0.00     0.017 A 
ATOM     78  S   UNL     1      21.497  28.237  17.947  1.00  0.00    -0.147 S 
ATOM     79  C   UNL     1      21.103  30.099  16.352  1.00  0.00     0.012 A 
ATOM     80  C   UNL     1      20.884  28.774  16.287  1.00  0.00     0.065 A 
ENDBRANCH  75  76
ENDBRANCH  73  75
ENDBRANCH  70  71
ENDBRANCH  68  70
ENDBRANCH  64  65
ENDBRANCH  63  64
ENDBRANCH  60  63
ENDBRANCH  58  59
ENDBRANCH  55  58
ENDBRANCH   1  55
TORSDOF 33
BEGIN_RES LYS A 131
REMARK  4 active torsions:
REMARK  status: ('A' for Active; 'I' for Inactive)
REMARK    1  A    between atoms: CA   and  CB  
REMARK    2  A    between atoms: CB   and  CG  
REMARK    3  A    between atoms: CG   and  CD  
REMARK    4  A    between atoms: CD   and  CE  
ROOT
ATOM      1  CA  LYS A 131      29.867  25.555  16.977  1.00 20.52     0.186 C 
ENDROOT
BRANCH   1   2
ATOM      2  CB  LYS A 131      28.345  25.722  17.026  1.00 20.94     0.034 C 
BRANCH   2   3
ATOM      3  CG  LYS A 131      27.601  24.401  16.906  1.00 22.96     0.005 C 
BRANCH   3   4
ATOM      4  CD  LYS A 131      26.531  24.256  17.952  1.00 24.33     0.041 C 
BRANCH   4   5
ATOM      5  CE  LYS A 131      25.159  24.325  17.289  1.00 26.91     0.338 C 
ATOM      6  NZ  LYS A 131      24.395  25.489  17.798  1.00 27.40     0.618 N 
ENDBRANCH   4   5
ENDBRANCH   3   4
ENDBRANCH   2   3
ENDBRANCH   1   2
END_RES LYS A 131
BEGIN_RES LYS A 135
REMARK  4 active torsions:
REMARK  status: ('A' for Active; 'I' for Inactive)
REMARK    5  A    between atoms: CA   and  CB  
REMARK    6  A    between atoms: CB   and  CG  
REMARK    7  A    between atoms: CG   and  CD  
REMARK    8  A    between atoms: CD   and  CE  
ROOT
ATOM      7  CA  LYS A 135      33.193  34.663   9.290  1.00 25.02     0.186 C 
ENDROOT
BRANCH   7   8
ATOM      8  CB  LYS A 135      32.060  35.360  10.034  1.00 26.63     0.034 C 
BRANCH   8   9
ATOM      9  CG  LYS A 135      30.821  35.555   9.199  1.00 29.45     0.005 C 
BRANCH   9  10
ATOM     10  CD  LYS A 135      30.083  34.237   9.019  1.00 32.00     0.041 C 
BRANCH  10  11
ATOM     11  CE  LYS A 135      28.704  34.475   8.433  1.00 34.25     0.338 C 
ATOM     12  NZ  LYS A 135      28.782  35.301   7.197  1.00 35.99     0.618 N 
ENDBRANCH  10  11
ENDBRANCH   9  10
ENDBRANCH   8   9
ENDBRANCH   7   8
END_RES LYS A 135
