REMARK VINA RESULT:    -3.512      3.110      8.811
REMARK INTER + INTRA:         -21.792
REMARK INTER:                 -11.970
REMARK INTRA:                  -9.822
REMARK UNBOUND:               -13.046
REMARK SMILES CC(=O)N[C@@H]1[C@@H](O)C[C@](OC[C@H]2O[C@@H](O[C@H]3[C@H](O)[C@@H](O)[C@H](OCCN=[N+]=[N-])O[C@@H]3CO)[C@H](O)[C@@H](O)[C@H]2O)(C(=O)O)O[C@H]1C(O)[C@H](O)CNC(=O)OCc1cn(-c2nc(C)nc(N)n2)nn1
REMARK SMILES IDX 9 1 8 2 6 3 5 4 42 5 41 6 10 7 11 8 12 9 14 10 13 11 32 12
REMARK SMILES IDX 34 13 36 14 15 15 16 16 29 17 28 18 21 19 17 20 19 21 30 22
REMARK SMILES IDX 31 23 22 25 23 26 24 27 25 28 26 29 27 30 18 31 20 33 33 35
REMARK SMILES IDX 35 37 37 39 38 41 39 42 40 43 7 45 43 47 44 48 45 50 46 51
REMARK SMILES IDX 47 53 48 54 49 55 50 57 51 58 52 59 53 60 54 61 65 62 55 63
REMARK SMILES IDX 64 64 56 65 63 66 57 67 61 68 58 69 60 70 59 71 62 72 4 75
REMARK SMILES IDX 2 76 1 78 3 79
REMARK H PARENT 31 24 18 32 20 34 33 36 35 38 37 40 40 44 7 46 44 49 46 52
REMARK H PARENT 48 56 62 73 62 74 4 77
REMARK Flexibility Score: inf
ROOT
ATOM      1  C   UNL     1      29.353  33.595  15.303  1.00  0.00     0.272 C 
ATOM      2  C   UNL     1      30.226  34.374  14.381  1.00  0.00     0.113 C 
ATOM      3  C   UNL     1      29.536  35.607  13.881  1.00  0.00     0.145 C 
ATOM      4  C   UNL     1      28.243  35.201  13.223  1.00  0.00     0.142 C 
ATOM      5  C   UNL     1      27.457  34.195  14.031  1.00  0.00     0.178 C 
ATOM      6  O   UNL     1      28.192  33.213  14.577  1.00  0.00    -0.332 OA
ENDROOT
BRANCH   1   7
ATOM      7  O   UNL     1      29.119  34.041  16.487  1.00  0.00    -0.338 OA
BRANCH   7   8
ATOM      8  C   UNL     1      28.436  33.853  17.549  1.00  0.00     0.199 C 
BRANCH   8   9
ATOM      9  C   UNL     1      28.254  32.598  18.331  1.00  0.00     0.179 C 
ATOM     10  C   UNL     1      27.283  30.608  18.524  1.00  0.00     0.282 C 
ATOM     11  O   UNL     1      27.634  31.634  17.605  1.00  0.00    -0.341 OA
ATOM     12  C   UNL     1      28.569  29.847  18.721  1.00  0.00     0.202 C 
ATOM     13  C   UNL     1      29.567  30.737  19.420  1.00  0.00     0.179 C 
ATOM     14  C   UNL     1      29.390  32.189  19.212  1.00  0.00     0.177 C 
BRANCH  10  15
ATOM     15  O   UNL     1      26.295  29.804  18.022  1.00  0.00    -0.341 OA
BRANCH  15  16
ATOM     16  C   UNL     1      25.211  30.497  17.512  1.00  0.00     0.184 C 
ATOM     17  C   UNL     1      23.905  30.213  18.175  1.00  0.00     0.178 C 
ATOM     18  O   UNL     1      22.911  29.822  17.288  1.00  0.00    -0.341 OA
ATOM     19  C   UNL     1      22.743  30.676  16.205  1.00  0.00     0.281 C 
ATOM     20  C   UNL     1      25.121  30.061  16.037  1.00  0.00     0.180 C 
ATOM     21  C   UNL     1      24.004  30.865  15.414  1.00  0.00     0.202 C 
BRANCH  17  22
ATOM     22  C   UNL     1      23.418  31.295  19.101  1.00  0.00     0.191 C 
BRANCH  22  23
ATOM     23  O   UNL     1      24.186  32.446  18.817  1.00  0.00    -0.394 OA
ATOM     24  H   UNL     1      24.994  32.504  19.371  1.00  0.00     0.210 HD
ENDBRANCH  22  23
ENDBRANCH  17  22
BRANCH  19  25
ATOM     25  O   UNL     1      22.243  31.901  16.547  1.00  0.00    -0.350 OA
BRANCH  25  26
ATOM     26  C   UNL     1      20.901  32.097  16.403  1.00  0.00     0.169 C 
BRANCH  26  27
ATOM     27  C   UNL     1      20.330  31.474  15.159  1.00  0.00     0.119 C 
BRANCH  27  28
ATOM     28  N   UNL     1      20.462  32.446  14.064  1.00  0.00    -0.092 NA
ATOM     29  N   UNL     1      21.337  32.221  13.230  1.00  0.00     0.001 N 
ATOM     30  N   UNL     1      22.338  32.503  12.536  1.00  0.00    -0.003 NA
ENDBRANCH  27  28
ENDBRANCH  26  27
ENDBRANCH  25  26
ENDBRANCH  19  25
BRANCH  20  31
ATOM     31  O   UNL     1      26.336  30.258  15.416  1.00  0.00    -0.387 OA
ATOM     32  H   UNL     1      26.437  31.200  15.107  1.00  0.00     0.211 HD
ENDBRANCH  20  31
BRANCH  21  33
ATOM     33  O   UNL     1      23.866  30.423  14.098  1.00  0.00    -0.385 OA
ATOM     34  H   UNL     1      24.669  29.927  13.800  1.00  0.00     0.211 HD
ENDBRANCH  21  33
ENDBRANCH  15  16
ENDBRANCH  10  15
BRANCH  12  35
ATOM     35  O   UNL     1      28.391  28.654  19.418  1.00  0.00    -0.385 OA
ATOM     36  H   UNL     1      28.588  27.908  18.797  1.00  0.00     0.211 HD
ENDBRANCH  12  35
BRANCH  13  37
ATOM     37  O   UNL     1      30.838  30.268  19.075  1.00  0.00    -0.387 OA
ATOM     38  H   UNL     1      31.259  30.798  18.352  1.00  0.00     0.211 HD
ENDBRANCH  13  37
BRANCH  14  39
ATOM     39  O   UNL     1      30.613  32.780  18.913  1.00  0.00    -0.387 OA
ATOM     40  H   UNL     1      30.401  33.548  18.301  1.00  0.00     0.211 HD
ENDBRANCH  14  39
ENDBRANCH   8   9
ENDBRANCH   7   8
ENDBRANCH   1   7
BRANCH   1  41
ATOM     41  C   UNL     1      30.073  32.217  15.358  1.00  0.00     0.364 C 
ATOM     42  O   UNL     1      31.294  32.248  15.443  1.00  0.00    -0.246 OA
BRANCH  41  43
ATOM     43  O   UNL     1      29.355  31.064  15.310  1.00  0.00    -0.477 OA
ATOM     44  H   UNL     1      28.433  30.947  15.755  1.00  0.00     0.296 HD
ENDBRANCH  41  43
ENDBRANCH   1  41
BRANCH   3  45
ATOM     45  O   UNL     1      29.219  36.518  14.863  1.00  0.00    -0.391 OA
ATOM     46  H   UNL     1      28.890  37.362  14.507  1.00  0.00     0.211 HD
ENDBRANCH   3  45
BRANCH   5  47
ATOM     47  C   UNL     1      26.450  34.826  14.961  1.00  0.00     0.176 C 
BRANCH  47  48
ATOM     48  O   UNL     1      26.275  36.166  14.660  1.00  0.00    -0.388 OA
ATOM     49  H   UNL     1      26.297  36.387  13.712  1.00  0.00     0.211 HD
ENDBRANCH  47  48
BRANCH  47  50
ATOM     50  C   UNL     1      25.159  34.076  14.873  1.00  0.00     0.165 C 
BRANCH  50  51
ATOM     51  O   UNL     1      25.133  33.369  13.657  1.00  0.00    -0.388 OA
ATOM     52  H   UNL     1      24.557  32.592  13.764  1.00  0.00     0.211 HD
ENDBRANCH  50  51
BRANCH  50  53
ATOM     53  C   UNL     1      23.927  34.912  14.945  1.00  0.00     0.154 C 
BRANCH  53  54
ATOM     54  N   UNL     1      23.263  35.032  13.666  1.00  0.00    -0.319 N 
ATOM     55  C   UNL     1      23.330  36.170  12.840  1.00  0.00     0.407 C 
ATOM     56  H   UNL     1      22.676  34.227  13.295  1.00  0.00     0.167 HD
ATOM     57  O   UNL     1      23.989  37.157  13.183  1.00  0.00    -0.225 OA
BRANCH  55  58
ATOM     58  O   UNL     1      22.667  36.235  11.618  1.00  0.00    -0.443 OA
BRANCH  58  59
ATOM     59  C   UNL     1      22.974  35.421  10.515  1.00  0.00     0.294 C 
BRANCH  59  60
ATOM     60  C   UNL     1      23.534  36.214   9.380  1.00  0.00     0.121 A 
ATOM     61  C   UNL     1      24.860  36.286   9.007  1.00  0.00     0.148 A 
ATOM     62  N   UNL     1      22.855  36.998   8.520  1.00  0.00    -0.131 NA
ATOM     63  N   UNL     1      24.948  37.103   7.944  1.00  0.00    -0.185 N 
ATOM     64  N   UNL     1      23.727  37.516   7.673  1.00  0.00    -0.059 NA
BRANCH  63  65
ATOM     65  C   UNL     1      26.165  37.418   7.282  1.00  0.00     0.257 A 
ATOM     66  N   UNL     1      27.039  36.433   6.998  1.00  0.00    -0.175 NA
ATOM     67  N   UNL     1      26.514  38.661   6.905  1.00  0.00    -0.196 NA
ATOM     68  C   UNL     1      28.215  36.676   6.365  1.00  0.00     0.225 A 
ATOM     69  C   UNL     1      27.663  38.939   6.280  1.00  0.00     0.133 A 
ATOM     70  N   UNL     1      28.507  37.947   6.013  1.00  0.00    -0.198 NA
ATOM     71  C   UNL     1      28.013  40.346   5.877  1.00  0.00     0.090 C 
BRANCH  68  72
ATOM     72  N   UNL     1      29.096  35.605   6.091  1.00  0.00    -0.368 N 
ATOM     73  H   UNL     1      29.791  35.658   5.321  1.00  0.00     0.159 HD
ATOM     74  H   UNL     1      29.065  34.737   6.659  1.00  0.00     0.159 HD
ENDBRANCH  68  72
ENDBRANCH  63  65
ENDBRANCH  59  60
ENDBRANCH  58  59
ENDBRANCH  55  58
ENDBRANCH  53  54
ENDBRANCH  50  53
ENDBRANCH  47  50
ENDBRANCH   5  47
BRANCH   4  75
ATOM     75  N   UNL     1      28.539  34.665  11.912  1.00  0.00    -0.348 N 
ATOM     76  C   UNL     1      27.496  34.389  10.983  1.00  0.00     0.217 C 
ATOM     77  H   UNL     1      29.520  34.460  11.594  1.00  0.00     0.163 HD
ATOM     78  C   UNL     1      27.814  33.845   9.657  1.00  0.00     0.114 C 
ATOM     79  O   UNL     1      26.309  34.614  11.304  1.00  0.00    -0.275 OA
ENDBRANCH   4  75
TORSDOF 31
BEGIN_RES LYS A 131
REMARK  4 active torsions:
REMARK  status: ('A' for Active; 'I' for Inactive)
REMARK    1  A    between atoms: CA   and  CB  
REMARK    2  A    between atoms: CB   and  CG  
REMARK    3  A    between atoms: CG   and  CD  
REMARK    4  A    between atoms: CD   and  CE  
ROOT
ATOM      1  CA  LYS A 131      29.867  25.555  16.977  1.00 20.52     0.186 C 
ENDROOT
BRANCH   1   2
ATOM      2  CB  LYS A 131      28.345  25.722  17.026  1.00 20.94     0.034 C 
BRANCH   2   3
ATOM      3  CG  LYS A 131      27.602  24.398  16.931  1.00 22.96     0.005 C 
BRANCH   3   4
ATOM      4  CD  LYS A 131      26.477  24.308  17.924  1.00 24.33     0.041 C 
BRANCH   4   5
ATOM      5  CE  LYS A 131      26.052  25.712  18.341  1.00 26.91     0.338 C 
ATOM      6  NZ  LYS A 131      25.926  25.800  19.815  1.00 27.40     0.618 N 
ENDBRANCH   4   5
ENDBRANCH   3   4
ENDBRANCH   2   3
ENDBRANCH   1   2
END_RES LYS A 131
BEGIN_RES LYS A 135
REMARK  4 active torsions:
REMARK  status: ('A' for Active; 'I' for Inactive)
REMARK    5  A    between atoms: CA   and  CB  
REMARK    6  A    between atoms: CB   and  CG  
REMARK    7  A    between atoms: CG   and  CD  
REMARK    8  A    between atoms: CD   and  CE  
ROOT
ATOM      7  CA  LYS A 135      33.193  34.663   9.290  1.00 25.02     0.186 C 
ENDROOT
BRANCH   7   8
ATOM      8  CB  LYS A 135      32.060  35.360  10.034  1.00 26.63     0.034 C 
BRANCH   8   9
ATOM      9  CG  LYS A 135      30.855  35.638   9.173  1.00 29.45     0.005 C 
BRANCH   9  10
ATOM     10  CD  LYS A 135      30.594  37.134   9.082  1.00 32.00     0.041 C 
BRANCH  10  11
ATOM     11  CE  LYS A 135      29.282  37.487   9.757  1.00 34.25     0.338 C 
ATOM     12  NZ  LYS A 135      29.511  38.030  11.124  1.00 35.99     0.618 N 
ENDBRANCH  10  11
ENDBRANCH   9  10
ENDBRANCH   8   9
ENDBRANCH   7   8
END_RES LYS A 135
