REMARK VINA RESULT:    -4.201      3.620      7.972
REMARK INTER + INTRA:         -22.198
REMARK INTER:                  -9.060
REMARK INTRA:                 -13.137
REMARK UNBOUND:               -11.119
REMARK SMILES CC(=O)N[C@@H]1[C@@H](O)C[C@](OC[C@H]2O[C@@H](O[C@H]3[C@H](O)[C@@H](O)[C@H](OCCN=[N+]=[N-])O[C@@H]3CO)[C@H](O)[C@@H](O)[C@H]2O)(C(=O)O)O[C@H]1C(O)[C@H](O)CNC(=O)OCc1cn(CC(O)CO)nn1
REMARK SMILES IDX 43 1 42 2 9 3 8 4 41 5 6 6 5 7 10 8 11 9 12 10 14 11 13 12
REMARK SMILES IDX 32 13 34 14 36 15 15 16 16 17 29 18 28 19 21 20 17 21 19 22
REMARK SMILES IDX 30 23 31 24 22 26 23 27 24 28 25 29 26 30 27 31 18 32 20 34
REMARK SMILES IDX 33 36 35 38 37 40 38 42 39 43 40 44 7 46 4 48 2 49 1 51 3 52
REMARK SMILES IDX 44 53 45 55 46 56 47 58 48 59 49 60 50 62 51 63 52 64 53 65
REMARK SMILES IDX 54 66 62 67 55 68 61 69 56 70 57 71 58 72 59 74 60 75
REMARK H PARENT 31 25 18 33 20 35 33 37 35 39 37 41 40 45 7 47 4 50 44 54
REMARK H PARENT 46 57 48 61 58 73 60 76
REMARK Flexibility Score: inf
ROOT
ATOM      1  C   UNL     1      29.388  31.684  17.736  1.00  0.00     0.176 C 
ENDROOT
BRANCH   1   2
ATOM      2  C   UNL     1      28.847  30.487  18.540  1.00  0.00     0.178 C 
ATOM      3  C   UNL     1      26.863  29.307  19.043  1.00  0.00     0.272 C 
ATOM      4  C   UNL     1      27.166  29.386  20.513  1.00  0.00     0.113 C 
ATOM      5  O   UNL     1      27.533  30.348  18.383  1.00  0.00    -0.332 OA
ATOM      6  C   UNL     1      28.224  30.332  20.938  1.00  0.00     0.145 C 
ATOM      7  C   UNL     1      29.290  30.626  19.949  1.00  0.00     0.142 C 
BRANCH   3   8
ATOM      8  O   UNL     1      25.574  29.456  18.818  1.00  0.00    -0.338 OA
BRANCH   8   9
ATOM      9  C   UNL     1      24.638  30.291  18.648  1.00  0.00     0.199 C 
BRANCH   9  10
ATOM     10  C   UNL     1      24.501  31.203  17.473  1.00  0.00     0.179 C 
ATOM     11  C   UNL     1      25.273  33.203  16.672  1.00  0.00     0.282 C 
ATOM     12  O   UNL     1      25.628  32.112  17.459  1.00  0.00    -0.341 OA
ATOM     13  C   UNL     1      24.238  32.930  15.636  1.00  0.00     0.202 C 
ATOM     14  C   UNL     1      24.222  31.535  15.090  1.00  0.00     0.179 C 
ATOM     15  C   UNL     1      24.685  30.516  16.119  1.00  0.00     0.177 C 
BRANCH  11  16
ATOM     16  O   UNL     1      26.338  33.860  16.091  1.00  0.00    -0.341 OA
BRANCH  16  17
ATOM     17  C   UNL     1      26.665  35.066  16.708  1.00  0.00     0.184 C 
ATOM     18  C   UNL     1      28.155  35.214  16.757  1.00  0.00     0.178 C 
ATOM     19  O   UNL     1      28.665  35.238  18.045  1.00  0.00    -0.341 OA
ATOM     20  C   UNL     1      28.053  34.259  18.846  1.00  0.00     0.281 C 
ATOM     21  C   UNL     1      25.962  35.187  17.996  1.00  0.00     0.180 C 
ATOM     22  C   UNL     1      26.715  34.842  19.234  1.00  0.00     0.202 C 
BRANCH  18  23
ATOM     23  C   UNL     1      28.626  36.473  16.056  1.00  0.00     0.191 C 
BRANCH  23  24
ATOM     24  O   UNL     1      27.731  36.884  15.078  1.00  0.00    -0.394 OA
ATOM     25  H   UNL     1      28.100  36.559  14.195  1.00  0.00     0.210 HD
ENDBRANCH  23  24
ENDBRANCH  18  23
BRANCH  20  26
ATOM     26  O   UNL     1      28.870  34.100  19.954  1.00  0.00    -0.350 OA
BRANCH  26  27
ATOM     27  C   UNL     1      29.319  35.288  20.508  1.00  0.00     0.169 C 
BRANCH  27  28
ATOM     28  C   UNL     1      29.241  35.302  22.018  1.00  0.00     0.119 C 
BRANCH  28  29
ATOM     29  N   UNL     1      27.891  35.200  22.501  1.00  0.00    -0.092 NA
ATOM     30  N   UNL     1      27.450  34.292  23.196  1.00  0.00     0.001 N 
ATOM     31  N   UNL     1      27.116  33.276  23.805  1.00  0.00    -0.003 NA
ENDBRANCH  28  29
ENDBRANCH  27  28
ENDBRANCH  26  27
ENDBRANCH  20  26
BRANCH  21  32
ATOM     32  O   UNL     1      25.411  36.480  18.175  1.00  0.00    -0.387 OA
ATOM     33  H   UNL     1      25.801  36.786  19.056  1.00  0.00     0.211 HD
ENDBRANCH  21  32
BRANCH  22  34
ATOM     34  O   UNL     1      26.016  34.009  20.103  1.00  0.00    -0.385 OA
ATOM     35  H   UNL     1      25.051  34.078  20.011  1.00  0.00     0.211 HD
ENDBRANCH  22  34
ENDBRANCH  16  17
ENDBRANCH  11  16
BRANCH  13  36
ATOM     36  O   UNL     1      22.956  33.376  16.037  1.00  0.00    -0.385 OA
ATOM     37  H   UNL     1      22.433  33.743  15.300  1.00  0.00     0.211 HD
ENDBRANCH  13  36
BRANCH  14  38
ATOM     38  O   UNL     1      24.929  31.396  13.898  1.00  0.00    -0.387 OA
ATOM     39  H   UNL     1      25.440  32.223  13.728  1.00  0.00     0.211 HD
ENDBRANCH  14  38
BRANCH  15  40
ATOM     40  O   UNL     1      26.088  30.381  15.940  1.00  0.00    -0.387 OA
ATOM     41  H   UNL     1      26.353  30.681  15.037  1.00  0.00     0.211 HD
ENDBRANCH  15  40
ENDBRANCH   9  10
ENDBRANCH   8   9
ENDBRANCH   3   8
BRANCH   3  42
ATOM     42  C   UNL     1      27.365  28.021  18.457  1.00  0.00     0.364 C 
ATOM     43  O   UNL     1      27.101  27.820  17.231  1.00  0.00    -0.246 OA
BRANCH  42  44
ATOM     44  O   UNL     1      28.071  27.085  19.167  1.00  0.00    -0.477 OA
ATOM     45  H   UNL     1      27.605  26.344  19.702  1.00  0.00     0.296 HD
ENDBRANCH  42  44
ENDBRANCH   3  42
BRANCH   6  46
ATOM     46  O   UNL     1      27.582  31.550  21.268  1.00  0.00    -0.391 OA
ATOM     47  H   UNL     1      27.033  31.842  20.514  1.00  0.00     0.211 HD
ENDBRANCH   6  46
BRANCH   7  48
ATOM     48  N   UNL     1      30.473  29.831  20.268  1.00  0.00    -0.348 N 
ATOM     49  C   UNL     1      31.608  30.395  20.904  1.00  0.00     0.217 C 
ATOM     50  H   UNL     1      30.526  28.819  20.039  1.00  0.00     0.163 HD
ATOM     51  C   UNL     1      32.814  29.591  21.231  1.00  0.00     0.114 C 
ATOM     52  O   UNL     1      31.566  31.617  21.191  1.00  0.00    -0.275 OA
ENDBRANCH   7  48
ENDBRANCH   1   2
BRANCH   1  53
ATOM     53  O   UNL     1      30.661  31.988  18.176  1.00  0.00    -0.388 OA
ATOM     54  H   UNL     1      31.153  32.505  17.491  1.00  0.00     0.211 HD
ENDBRANCH   1  53
BRANCH   1  55
ATOM     55  C   UNL     1      29.424  31.339  16.256  1.00  0.00     0.165 C 
BRANCH  55  56
ATOM     56  O   UNL     1      29.083  29.966  16.200  1.00  0.00    -0.388 OA
ATOM     57  H   UNL     1      28.357  29.834  15.543  1.00  0.00     0.211 HD
ENDBRANCH  55  56
BRANCH  55  58
ATOM     58  C   UNL     1      30.762  31.518  15.625  1.00  0.00     0.154 C 
BRANCH  58  59
ATOM     59  N   UNL     1      30.796  32.646  14.720  1.00  0.00    -0.319 N 
ATOM     60  C   UNL     1      31.277  33.904  15.148  1.00  0.00     0.407 C 
ATOM     61  H   UNL     1      30.467  32.570  13.717  1.00  0.00     0.167 HD
ATOM     62  O   UNL     1      31.678  34.099  16.319  1.00  0.00    -0.225 OA
BRANCH  60  63
ATOM     63  O   UNL     1      31.331  34.980  14.285  1.00  0.00    -0.443 OA
BRANCH  63  64
ATOM     64  C   UNL     1      31.079  34.989  12.924  1.00  0.00     0.294 C 
BRANCH  64  65
ATOM     65  C   UNL     1      29.726  35.439  12.525  1.00  0.00     0.120 A 
ATOM     66  C   UNL     1      28.710  34.613  12.135  1.00  0.00     0.138 A 
ATOM     67  N   UNL     1      29.287  36.732  12.471  1.00  0.00    -0.132 NA
ATOM     68  N   UNL     1      27.669  35.419  11.851  1.00  0.00    -0.249 N 
ATOM     69  N   UNL     1      28.029  36.663  12.055  1.00  0.00    -0.067 NA
BRANCH  68  70
ATOM     70  C   UNL     1      26.362  35.010  11.386  1.00  0.00     0.180 C 
BRANCH  70  71
ATOM     71  C   UNL     1      25.546  34.629  12.629  1.00  0.00     0.161 C 
BRANCH  71  72
ATOM     72  O   UNL     1      25.713  35.636  13.549  1.00  0.00    -0.389 OA
ATOM     73  H   UNL     1      25.245  36.467  13.289  1.00  0.00     0.211 HD
ENDBRANCH  71  72
BRANCH  71  74
ATOM     74  C   UNL     1      24.095  34.453  12.248  1.00  0.00     0.189 C 
BRANCH  74  75
ATOM     75  O   UNL     1      23.280  34.937  13.246  1.00  0.00    -0.394 OA
ATOM     76  H   UNL     1      23.795  35.000  14.092  1.00  0.00     0.210 HD
ENDBRANCH  74  75
ENDBRANCH  71  74
ENDBRANCH  70  71
ENDBRANCH  68  70
ENDBRANCH  64  65
ENDBRANCH  63  64
ENDBRANCH  60  63
ENDBRANCH  58  59
ENDBRANCH  55  58
ENDBRANCH   1  55
TORSDOF 34
BEGIN_RES LYS A 131
REMARK  4 active torsions:
REMARK  status: ('A' for Active; 'I' for Inactive)
REMARK    1  A    between atoms: CA   and  CB  
REMARK    2  A    between atoms: CB   and  CG  
REMARK    3  A    between atoms: CG   and  CD  
REMARK    4  A    between atoms: CD   and  CE  
ROOT
ATOM      1  CA  LYS A 131      29.867  25.555  16.977  1.00 20.52     0.186 C 
ENDROOT
BRANCH   1   2
ATOM      2  CB  LYS A 131      28.345  25.722  17.026  1.00 20.94     0.034 C 
BRANCH   2   3
ATOM      3  CG  LYS A 131      27.601  24.403  16.886  1.00 22.96     0.005 C 
BRANCH   3   4
ATOM      4  CD  LYS A 131      26.160  24.518  17.301  1.00 24.33     0.041 C 
BRANCH   4   5
ATOM      5  CE  LYS A 131      25.813  23.380  18.255  1.00 26.91     0.338 C 
ATOM      6  NZ  LYS A 131      24.916  22.404  17.593  1.00 27.40     0.618 N 
ENDBRANCH   4   5
ENDBRANCH   3   4
ENDBRANCH   2   3
ENDBRANCH   1   2
END_RES LYS A 131
BEGIN_RES LYS A 135
REMARK  4 active torsions:
REMARK  status: ('A' for Active; 'I' for Inactive)
REMARK    5  A    between atoms: CA   and  CB  
REMARK    6  A    between atoms: CB   and  CG  
REMARK    7  A    between atoms: CG   and  CD  
REMARK    8  A    between atoms: CD   and  CE  
ROOT
ATOM      7  CA  LYS A 135      33.193  34.663   9.290  1.00 25.02     0.186 C 
ENDROOT
BRANCH   7   8
ATOM      8  CB  LYS A 135      32.060  35.360  10.034  1.00 26.63     0.034 C 
BRANCH   8   9
ATOM      9  CG  LYS A 135      30.831  35.580   9.190  1.00 29.45     0.005 C 
BRANCH   9  10
ATOM     10  CD  LYS A 135      30.163  34.255   8.859  1.00 32.00     0.041 C 
BRANCH  10  11
ATOM     11  CE  LYS A 135      28.755  34.482   8.344  1.00 34.25     0.338 C 
ATOM     12  NZ  LYS A 135      28.754  35.392   7.166  1.00 35.99     0.618 N 
ENDBRANCH  10  11
ENDBRANCH   9  10
ENDBRANCH   8   9
ENDBRANCH   7   8
END_RES LYS A 135
