REMARK VINA RESULT:    -5.037      4.799     12.209
REMARK INTER + INTRA:         -22.465
REMARK INTER:                 -11.710
REMARK INTRA:                 -10.755
REMARK UNBOUND:               -10.068
REMARK SMILES CC(=O)N[C@@H]1[C@@H](O)C[C@](OC[C@H]2O[C@@H](O[C@H]3[C@H](O)[C@@H](O)[C@H](OCCN=[N+]=[N-])O[C@@H]3CO)[C@H](O)[C@@H](O)[C@H]2O)(C(=O)O)O[C@H]1C(O)[C@H](O)CNC(=O)OCc1cn(-c2cnc3ccccc3c2)nn1
REMARK SMILES IDX 9 1 8 2 6 3 5 4 42 5 41 6 10 7 11 8 12 9 14 10 13 11 32 12
REMARK SMILES IDX 34 13 36 14 15 15 16 16 29 17 28 18 21 19 17 20 19 21 30 22
REMARK SMILES IDX 31 23 22 25 23 26 24 27 25 28 26 29 27 30 18 31 20 33 33 35
REMARK SMILES IDX 35 37 37 39 38 41 39 42 40 43 7 45 43 47 44 48 45 50 46 51
REMARK SMILES IDX 47 53 48 54 49 55 50 57 51 58 52 59 53 60 54 61 67 62 55 63
REMARK SMILES IDX 66 64 56 65 57 66 65 67 58 68 64 69 59 70 63 71 60 72 62 73
REMARK SMILES IDX 61 74 4 75 2 76 1 78 3 79
REMARK H PARENT 31 24 18 32 20 34 33 36 35 38 37 40 40 44 7 46 44 49 46 52
REMARK H PARENT 48 56 4 77
REMARK Flexibility Score: inf
ROOT
ATOM      1  C   UNL     1      25.581  37.880   9.009  1.00  0.00     0.272 C 
ATOM      2  C   UNL     1      24.277  37.250   8.675  1.00  0.00     0.113 C 
ATOM      3  C   UNL     1      24.182  35.823   9.179  1.00  0.00     0.145 C 
ATOM      4  C   UNL     1      24.623  35.884  10.642  1.00  0.00     0.142 C 
ATOM      5  C   UNL     1      26.118  36.235  10.612  1.00  0.00     0.178 C 
ATOM      6  O   UNL     1      26.106  37.595  10.235  1.00  0.00    -0.332 OA
ENDROOT
BRANCH   1   7
ATOM      7  O   UNL     1      25.490  39.288   8.973  1.00  0.00    -0.338 OA
BRANCH   7   8
ATOM      8  C   UNL     1      24.989  39.793   7.805  1.00  0.00     0.199 C 
BRANCH   8   9
ATOM      9  C   UNL     1      25.929  40.869   7.305  1.00  0.00     0.179 C 
ATOM     10  C   UNL     1      27.743  42.176   7.825  1.00  0.00     0.282 C 
ATOM     11  O   UNL     1      27.096  40.969   8.035  1.00  0.00    -0.341 OA
ATOM     12  C   UNL     1      27.436  42.771   6.482  1.00  0.00     0.202 C 
ATOM     13  C   UNL     1      27.168  41.765   5.418  1.00  0.00     0.179 C 
ATOM     14  C   UNL     1      26.044  40.862   5.839  1.00  0.00     0.177 C 
BRANCH  10  15
ATOM     15  O   UNL     1      29.093  42.015   8.049  1.00  0.00    -0.341 OA
BRANCH  15  16
ATOM     16  C   UNL     1      29.394  40.838   8.736  1.00  0.00     0.184 C 
ATOM     17  C   UNL     1      29.789  41.079  10.172  1.00  0.00     0.178 C 
ATOM     18  O   UNL     1      30.917  40.445  10.589  1.00  0.00    -0.341 OA
ATOM     19  C   UNL     1      31.081  39.133  10.238  1.00  0.00     0.281 C 
ATOM     20  C   UNL     1      30.356  39.965   7.980  1.00  0.00     0.180 C 
ATOM     21  C   UNL     1      30.737  38.789   8.821  1.00  0.00     0.202 C 
BRANCH  17  22
ATOM     22  C   UNL     1      28.588  40.889  11.101  1.00  0.00     0.191 C 
BRANCH  22  23
ATOM     23  O   UNL     1      27.805  39.801  10.729  1.00  0.00    -0.394 OA
ATOM     24  H   UNL     1      27.151  39.548  11.411  1.00  0.00     0.210 HD
ENDBRANCH  22  23
ENDBRANCH  17  22
BRANCH  19  25
ATOM     25  O   UNL     1      30.495  38.245  11.143  1.00  0.00    -0.350 OA
BRANCH  25  26
ATOM     26  C   UNL     1      31.425  37.596  11.928  1.00  0.00     0.169 C 
BRANCH  26  27
ATOM     27  C   UNL     1      31.155  37.790  13.402  1.00  0.00     0.119 C 
BRANCH  27  28
ATOM     28  N   UNL     1      30.038  38.689  13.608  1.00  0.00    -0.092 NA
ATOM     29  N   UNL     1      30.170  39.791  14.138  1.00  0.00     0.001 N 
ATOM     30  N   UNL     1      30.356  41.000  14.282  1.00  0.00    -0.003 NA
ENDBRANCH  27  28
ENDBRANCH  26  27
ENDBRANCH  25  26
ENDBRANCH  19  25
BRANCH  20  31
ATOM     31  O   UNL     1      29.686  39.471   6.839  1.00  0.00    -0.387 OA
ATOM     32  H   UNL     1      28.758  39.203   7.078  1.00  0.00     0.211 HD
ENDBRANCH  20  31
BRANCH  21  33
ATOM     33  O   UNL     1      31.806  38.142   8.158  1.00  0.00    -0.385 OA
ATOM     34  H   UNL     1      32.600  38.754   8.130  1.00  0.00     0.211 HD
ENDBRANCH  21  33
ENDBRANCH  15  16
ENDBRANCH  10  15
BRANCH  12  35
ATOM     35  O   UNL     1      26.391  43.689   6.505  1.00  0.00    -0.385 OA
ATOM     36  H   UNL     1      25.893  43.661   7.357  1.00  0.00     0.211 HD
ENDBRANCH  12  35
BRANCH  13  37
ATOM     37  O   UNL     1      28.324  41.045   5.110  1.00  0.00    -0.387 OA
ATOM     38  H   UNL     1      28.419  40.971   4.147  1.00  0.00     0.211 HD
ENDBRANCH  13  37
BRANCH  14  39
ATOM     39  O   UNL     1      26.297  39.612   5.284  1.00  0.00    -0.387 OA
ATOM     40  H   UNL     1      26.814  39.026   5.869  1.00  0.00     0.211 HD
ENDBRANCH  14  39
ENDBRANCH   8   9
ENDBRANCH   7   8
ENDBRANCH   1   7
BRANCH   1  41
ATOM     41  C   UNL     1      26.594  37.434   7.990  1.00  0.00     0.364 C 
ATOM     42  O   UNL     1      27.840  37.604   8.194  1.00  0.00    -0.246 OA
BRANCH  41  43
ATOM     43  O   UNL     1      26.278  36.829   6.796  1.00  0.00    -0.477 OA
ATOM     44  H   UNL     1      25.748  37.303   6.048  1.00  0.00     0.296 HD
ENDBRANCH  41  43
ENDBRANCH   1  41
BRANCH   3  45
ATOM     45  O   UNL     1      22.918  35.300   9.046  1.00  0.00    -0.391 OA
ATOM     46  H   UNL     1      22.773  34.659   9.773  1.00  0.00     0.211 HD
ENDBRANCH   3  45
BRANCH   5  47
ATOM     47  C   UNL     1      26.718  36.209  11.991  1.00  0.00     0.176 C 
BRANCH  47  48
ATOM     48  O   UNL     1      27.753  37.181  12.012  1.00  0.00    -0.388 OA
ATOM     49  H   UNL     1      27.388  38.081  12.210  1.00  0.00     0.211 HD
ENDBRANCH  47  48
BRANCH  47  50
ATOM     50  C   UNL     1      27.389  34.895  12.365  1.00  0.00     0.165 C 
BRANCH  50  51
ATOM     51  O   UNL     1      26.618  34.476  13.508  1.00  0.00    -0.388 OA
ATOM     52  H   UNL     1      27.248  34.400  14.262  1.00  0.00     0.211 HD
ENDBRANCH  50  51
BRANCH  50  53
ATOM     53  C   UNL     1      28.753  35.154  12.969  1.00  0.00     0.154 C 
BRANCH  53  54
ATOM     54  N   UNL     1      29.191  34.244  13.958  1.00  0.00    -0.319 N 
ATOM     55  C   UNL     1      29.429  34.577  15.309  1.00  0.00     0.407 C 
ATOM     56  H   UNL     1      29.353  33.234  13.649  1.00  0.00     0.167 HD
ATOM     57  O   UNL     1      29.259  35.754  15.682  1.00  0.00    -0.225 OA
BRANCH  55  58
ATOM     58  O   UNL     1      29.843  33.578  16.160  1.00  0.00    -0.443 OA
BRANCH  58  59
ATOM     59  C   UNL     1      29.862  32.226  15.791  1.00  0.00     0.294 C 
BRANCH  59  60
ATOM     60  C   UNL     1      28.578  31.570  16.194  1.00  0.00     0.121 A 
ATOM     61  C   UNL     1      27.562  31.146  15.404  1.00  0.00     0.144 A 
ATOM     62  N   UNL     1      28.238  31.303  17.477  1.00  0.00    -0.131 NA
ATOM     63  N   UNL     1      26.630  30.632  16.228  1.00  0.00    -0.219 N 
ATOM     64  N   UNL     1      27.052  30.732  17.491  1.00  0.00    -0.062 NA
BRANCH  63  65
ATOM     65  C   UNL     1      25.392  30.076  15.794  1.00  0.00     0.085 A 
ATOM     66  C   UNL     1      24.629  29.363  16.662  1.00  0.00     0.140 A 
ATOM     67  C   UNL     1      24.991  30.286  14.484  1.00  0.00     0.040 A 
ATOM     68  N   UNL     1      23.457  28.848  16.236  1.00  0.00    -0.254 NA
ATOM     69  C   UNL     1      23.802  29.758  14.072  1.00  0.00     0.002 A 
ATOM     70  C   UNL     1      23.063  29.046  14.973  1.00  0.00     0.070 A 
ATOM     71  C   UNL     1      23.382  29.954  12.773  1.00  0.00     0.010 A 
ATOM     72  C   UNL     1      21.848  28.510  14.545  1.00  0.00     0.029 A 
ATOM     73  C   UNL     1      22.172  29.413  12.370  1.00  0.00     0.001 A 
ATOM     74  C   UNL     1      21.394  28.680  13.268  1.00  0.00     0.002 A 
ENDBRANCH  63  65
ENDBRANCH  59  60
ENDBRANCH  58  59
ENDBRANCH  55  58
ENDBRANCH  53  54
ENDBRANCH  50  53
ENDBRANCH  47  50
ENDBRANCH   5  47
BRANCH   4  75
ATOM     75  N   UNL     1      24.288  34.707  11.348  1.00  0.00    -0.348 N 
ATOM     76  C   UNL     1      23.078  34.641  12.136  1.00  0.00     0.217 C 
ATOM     77  H   UNL     1      24.851  33.832  11.344  1.00  0.00     0.163 HD
ATOM     78  C   UNL     1      22.717  33.430  12.874  1.00  0.00     0.114 C 
ATOM     79  O   UNL     1      22.354  35.681  12.152  1.00  0.00    -0.275 OA
ENDBRANCH   4  75
TORSDOF 30
BEGIN_RES LYS A 131
REMARK  4 active torsions:
REMARK  status: ('A' for Active; 'I' for Inactive)
REMARK    1  A    between atoms: CA   and  CB  
REMARK    2  A    between atoms: CB   and  CG  
REMARK    3  A    between atoms: CG   and  CD  
REMARK    4  A    between atoms: CD   and  CE  
ROOT
ATOM      1  CA  LYS A 131      29.867  25.555  16.977  1.00 20.52     0.186 C 
ENDROOT
BRANCH   1   2
ATOM      2  CB  LYS A 131      28.345  25.722  17.026  1.00 20.94     0.034 C 
BRANCH   2   3
ATOM      3  CG  LYS A 131      27.601  24.403  16.887  1.00 22.96     0.005 C 
BRANCH   3   4
ATOM      4  CD  LYS A 131      26.153  24.525  17.272  1.00 24.33     0.041 C 
BRANCH   4   5
ATOM      5  CE  LYS A 131      25.976  24.104  18.727  1.00 26.91     0.338 C 
ATOM      6  NZ  LYS A 131      25.005  22.989  18.830  1.00 27.40     0.618 N 
ENDBRANCH   4   5
ENDBRANCH   3   4
ENDBRANCH   2   3
ENDBRANCH   1   2
END_RES LYS A 131
BEGIN_RES LYS A 135
REMARK  4 active torsions:
REMARK  status: ('A' for Active; 'I' for Inactive)
REMARK    5  A    between atoms: CA   and  CB  
REMARK    6  A    between atoms: CB   and  CG  
REMARK    7  A    between atoms: CG   and  CD  
REMARK    8  A    between atoms: CD   and  CE  
ROOT
ATOM      7  CA  LYS A 135      33.193  34.663   9.290  1.00 25.02     0.186 C 
ENDROOT
BRANCH   7   8
ATOM      8  CB  LYS A 135      32.060  35.360  10.034  1.00 26.63     0.034 C 
BRANCH   8   9
ATOM      9  CG  LYS A 135      30.701  34.776   9.746  1.00 29.45     0.005 C 
BRANCH   9  10
ATOM     10  CD  LYS A 135      30.441  34.734   8.248  1.00 32.00     0.041 C 
BRANCH  10  11
ATOM     11  CE  LYS A 135      28.959  34.576   7.969  1.00 34.25     0.338 C 
ATOM     12  NZ  LYS A 135      28.264  33.926   9.115  1.00 35.99     0.618 N 
ENDBRANCH  10  11
ENDBRANCH   9  10
ENDBRANCH   8   9
ENDBRANCH   7   8
END_RES LYS A 135
