REMARK VINA RESULT:    -5.655      7.128     12.623
REMARK INTER + INTRA:         -22.145
REMARK INTER:                 -12.901
REMARK INTRA:                  -9.245
REMARK UNBOUND:                -8.226
REMARK SMILES CC(=O)N[C@@H]1[C@@H](O)C[C@](OC[C@H]2O[C@@H](O[C@H]3[C@H](O)[C@@H](O)[C@H](OCCN=[N+]=[N-])O[C@@H]3CO)[C@H](O)[C@@H](O)[C@H]2O)(C(=O)O)O[C@H]1C(O)[C@H](O)CNC(=O)OCc1cn(-c2ccccc2Br)nn1
REMARK SMILES IDX 9 1 8 2 6 3 5 4 42 5 41 6 10 7 11 8 12 9 14 10 13 11 32 12
REMARK SMILES IDX 34 13 36 14 15 15 16 16 29 17 28 18 21 19 17 20 19 21 30 22
REMARK SMILES IDX 31 23 22 25 23 26 24 27 25 28 26 29 27 30 18 31 20 33 33 35
REMARK SMILES IDX 35 37 37 39 38 41 39 42 40 43 7 45 43 47 44 48 45 50 46 51
REMARK SMILES IDX 47 53 48 54 49 55 50 57 51 58 52 59 53 60 54 61 64 62 55 63
REMARK SMILES IDX 63 64 56 65 57 66 61 67 58 68 60 69 62 70 59 71 4 72 2 73
REMARK SMILES IDX 1 75 3 76
REMARK H PARENT 31 24 18 32 20 34 33 36 35 38 37 40 40 44 7 46 44 49 46 52
REMARK H PARENT 48 56 4 74
REMARK Flexibility Score: inf
ROOT
ATOM      1  C   UNL     1      31.239  29.048  21.047  1.00  0.00     0.272 C 
ATOM      2  C   UNL     1      30.670  29.018  22.415  1.00  0.00     0.113 C 
ATOM      3  C   UNL     1      31.730  28.890  23.460  1.00  0.00     0.145 C 
ATOM      4  C   UNL     1      32.926  29.755  23.278  1.00  0.00     0.142 C 
ATOM      5  C   UNL     1      32.984  30.361  21.919  1.00  0.00     0.178 C 
ATOM      6  O   UNL     1      32.472  29.645  20.891  1.00  0.00    -0.332 OA
ENDROOT
BRANCH   1   7
ATOM      7  O   UNL     1      30.448  29.650  20.086  1.00  0.00    -0.338 OA
BRANCH   7   8
ATOM      8  C   UNL     1      29.111  29.673  20.298  1.00  0.00     0.199 C 
BRANCH   8   9
ATOM      9  C   UNL     1      28.534  30.808  19.416  1.00  0.00     0.179 C 
ATOM     10  C   UNL     1      29.190  32.897  18.678  1.00  0.00     0.282 C 
ATOM     11  O   UNL     1      29.075  32.002  19.708  1.00  0.00    -0.341 OA
ATOM     12  C   UNL     1      28.003  32.873  17.742  1.00  0.00     0.202 C 
ATOM     13  C   UNL     1      27.772  31.479  17.199  1.00  0.00     0.179 C 
ATOM     14  C   UNL     1      28.561  30.450  17.985  1.00  0.00     0.177 C 
BRANCH  10  15
ATOM     15  O   UNL     1      30.399  32.797  18.004  1.00  0.00    -0.341 OA
BRANCH  15  16
ATOM     16  C   UNL     1      30.837  33.972  17.439  1.00  0.00     0.184 C 
ATOM     17  C   UNL     1      31.430  33.815  16.060  1.00  0.00     0.178 C 
ATOM     18  O   UNL     1      31.427  35.077  15.486  1.00  0.00    -0.341 OA
ATOM     19  C   UNL     1      32.115  36.028  16.169  1.00  0.00     0.281 C 
ATOM     20  C   UNL     1      31.958  34.593  18.264  1.00  0.00     0.180 C 
ATOM     21  C   UNL     1      32.554  35.730  17.542  1.00  0.00     0.202 C 
BRANCH  17  22
ATOM     22  C   UNL     1      30.699  32.863  15.172  1.00  0.00     0.191 C 
BRANCH  22  23
ATOM     23  O   UNL     1      31.164  31.572  15.409  1.00  0.00    -0.394 OA
ATOM     24  H   UNL     1      30.946  31.305  16.319  1.00  0.00     0.210 HD
ENDBRANCH  22  23
ENDBRANCH  17  22
BRANCH  19  25
ATOM     25  O   UNL     1      31.280  37.169  16.208  1.00  0.00    -0.350 OA
BRANCH  25  26
ATOM     26  C   UNL     1      30.494  37.308  15.099  1.00  0.00     0.169 C 
BRANCH  26  27
ATOM     27  C   UNL     1      31.158  37.932  13.911  1.00  0.00     0.119 C 
BRANCH  27  28
ATOM     28  N   UNL     1      30.887  37.074  12.768  1.00  0.00    -0.092 NA
ATOM     29  N   UNL     1      29.818  37.156  12.181  1.00  0.00     0.001 N 
ATOM     30  N   UNL     1      28.783  37.268  11.535  1.00  0.00    -0.003 NA
ENDBRANCH  27  28
ENDBRANCH  26  27
ENDBRANCH  25  26
ENDBRANCH  19  25
BRANCH  20  31
ATOM     31  O   UNL     1      31.508  35.003  19.509  1.00  0.00    -0.387 OA
ATOM     32  H   UNL     1      30.798  34.426  19.876  1.00  0.00     0.211 HD
ENDBRANCH  20  31
BRANCH  21  33
ATOM     33  O   UNL     1      33.965  35.525  17.591  1.00  0.00    -0.385 OA
ATOM     34  H   UNL     1      34.253  35.279  18.501  1.00  0.00     0.211 HD
ENDBRANCH  21  33
ENDBRANCH  15  16
ENDBRANCH  10  15
BRANCH  12  35
ATOM     35  O   UNL     1      26.862  33.401  18.347  1.00  0.00    -0.385 OA
ATOM     36  H   UNL     1      27.088  34.128  18.977  1.00  0.00     0.211 HD
ENDBRANCH  12  35
BRANCH  13  37
ATOM     37  O   UNL     1      28.010  31.429  15.839  1.00  0.00    -0.387 OA
ATOM     38  H   UNL     1      28.203  30.513  15.552  1.00  0.00     0.211 HD
ENDBRANCH  13  37
BRANCH  14  39
ATOM     39  O   UNL     1      29.831  30.382  17.437  1.00  0.00    -0.387 OA
ATOM     40  H   UNL     1      30.000  31.087  16.766  1.00  0.00     0.211 HD
ENDBRANCH  14  39
ENDBRANCH   8   9
ENDBRANCH   7   8
ENDBRANCH   1   7
BRANCH   1  41
ATOM     41  C   UNL     1      31.493  27.599  20.675  1.00  0.00     0.364 C 
ATOM     42  O   UNL     1      30.955  26.734  21.399  1.00  0.00    -0.246 OA
BRANCH  41  43
ATOM     43  O   UNL     1      32.260  27.212  19.616  1.00  0.00    -0.477 OA
ATOM     44  H   UNL     1      32.347  27.821  18.788  1.00  0.00     0.296 HD
ENDBRANCH  41  43
ENDBRANCH   1  41
BRANCH   3  45
ATOM     45  O   UNL     1      31.131  29.116  24.721  1.00  0.00    -0.391 OA
ATOM     46  H   UNL     1      30.874  28.226  25.088  1.00  0.00     0.211 HD
ENDBRANCH   3  45
BRANCH   5  47
ATOM     47  C   UNL     1      32.572  31.833  21.945  1.00  0.00     0.176 C 
BRANCH  47  48
ATOM     48  O   UNL     1      31.892  32.230  20.821  1.00  0.00    -0.388 OA
ATOM     49  H   UNL     1      32.480  32.751  20.199  1.00  0.00     0.211 HD
ENDBRANCH  47  48
BRANCH  47  50
ATOM     50  C   UNL     1      33.799  32.748  22.098  1.00  0.00     0.165 C 
BRANCH  50  51
ATOM     51  O   UNL     1      33.633  33.813  21.250  1.00  0.00    -0.388 OA
ATOM     52  H   UNL     1      33.126  33.654  20.436  1.00  0.00     0.211 HD
ENDBRANCH  50  51
BRANCH  50  53
ATOM     53  C   UNL     1      35.051  31.992  21.793  1.00  0.00     0.154 C 
BRANCH  53  54
ATOM     54  N   UNL     1      35.998  32.778  21.078  1.00  0.00    -0.319 N 
ATOM     55  C   UNL     1      37.374  32.523  20.901  1.00  0.00     0.407 C 
ATOM     56  H   UNL     1      35.646  33.672  20.610  1.00  0.00     0.167 HD
ATOM     57  O   UNL     1      37.897  31.513  21.381  1.00  0.00    -0.225 OA
BRANCH  55  58
ATOM     58  O   UNL     1      38.173  33.409  20.179  1.00  0.00    -0.443 OA
BRANCH  58  59
ATOM     59  C   UNL     1      37.895  34.778  20.005  1.00  0.00     0.294 C 
BRANCH  59  60
ATOM     60  C   UNL     1      37.608  35.089  18.567  1.00  0.00     0.121 A 
ATOM     61  C   UNL     1      38.290  34.531  17.487  1.00  0.00     0.144 A 
ATOM     62  N   UNL     1      36.715  35.916  18.047  1.00  0.00    -0.131 NA
ATOM     63  N   UNL     1      37.766  35.057  16.370  1.00  0.00    -0.219 N 
ATOM     64  N   UNL     1      36.816  35.891  16.714  1.00  0.00    -0.062 NA
BRANCH  63  65
ATOM     65  C   UNL     1      38.160  34.773  15.039  1.00  0.00     0.081 A 
ATOM     66  C   UNL     1      37.564  33.771  14.307  1.00  0.00     0.029 A 
ATOM     67  C   UNL     1      39.156  35.502  14.447  1.00  0.00     0.043 A 
ATOM     68  C   UNL     1      37.977  33.522  13.001  1.00  0.00     0.002 A 
ATOM     69  C   UNL     1      39.569  35.261  13.159  1.00  0.00     0.018 A 
ATOM     70  Br  UNL     1      40.010  36.894  15.428  1.00  0.00    -0.048 Br
ATOM     71  C   UNL     1      38.981  34.264  12.417  1.00  0.00     0.001 A 
ENDBRANCH  63  65
ENDBRANCH  59  60
ENDBRANCH  58  59
ENDBRANCH  55  58
ENDBRANCH  53  54
ENDBRANCH  50  53
ENDBRANCH  47  50
ENDBRANCH   5  47
BRANCH   4  72
ATOM     72  N   UNL     1      34.169  29.080  23.578  1.00  0.00    -0.348 N 
ATOM     73  C   UNL     1      34.663  29.003  24.903  1.00  0.00     0.217 C 
ATOM     74  H   UNL     1      34.720  28.637  22.817  1.00  0.00     0.163 HD
ATOM     75  C   UNL     1      35.955  28.286  25.123  1.00  0.00     0.114 C 
ATOM     76  O   UNL     1      34.059  29.508  25.867  1.00  0.00    -0.275 OA
ENDBRANCH   4  72
TORSDOF 30
BEGIN_RES LYS A 131
REMARK  4 active torsions:
REMARK  status: ('A' for Active; 'I' for Inactive)
REMARK    1  A    between atoms: CA   and  CB  
REMARK    2  A    between atoms: CB   and  CG  
REMARK    3  A    between atoms: CG   and  CD  
REMARK    4  A    between atoms: CD   and  CE  
ROOT
ATOM      1  CA  LYS A 131      29.867  25.555  16.977  1.00 20.52     0.186 C 
ENDROOT
BRANCH   1   2
ATOM      2  CB  LYS A 131      28.345  25.722  17.026  1.00 20.94     0.034 C 
BRANCH   2   3
ATOM      3  CG  LYS A 131      27.599  24.429  16.736  1.00 22.96     0.005 C 
BRANCH   3   4
ATOM      4  CD  LYS A 131      26.984  23.839  17.975  1.00 24.33     0.041 C 
BRANCH   4   5
ATOM      5  CE  LYS A 131      25.703  23.099  17.605  1.00 26.91     0.338 C 
ATOM      6  NZ  LYS A 131      24.898  22.819  18.817  1.00 27.40     0.618 N 
ENDBRANCH   4   5
ENDBRANCH   3   4
ENDBRANCH   2   3
ENDBRANCH   1   2
END_RES LYS A 131
BEGIN_RES LYS A 135
REMARK  4 active torsions:
REMARK  status: ('A' for Active; 'I' for Inactive)
REMARK    5  A    between atoms: CA   and  CB  
REMARK    6  A    between atoms: CB   and  CG  
REMARK    7  A    between atoms: CG   and  CD  
REMARK    8  A    between atoms: CD   and  CE  
ROOT
ATOM      7  CA  LYS A 135      33.193  34.663   9.290  1.00 25.02     0.186 C 
ENDROOT
BRANCH   7   8
ATOM      8  CB  LYS A 135      32.060  35.360  10.034  1.00 26.63     0.034 C 
BRANCH   8   9
ATOM      9  CG  LYS A 135      30.722  34.688   9.861  1.00 29.45     0.005 C 
BRANCH   9  10
ATOM     10  CD  LYS A 135      30.258  34.781   8.416  1.00 32.00     0.041 C 
BRANCH  10  11
ATOM     11  CE  LYS A 135      28.770  34.506   8.316  1.00 34.25     0.338 C 
ATOM     12  NZ  LYS A 135      28.245  33.926   9.583  1.00 35.99     0.618 N 
ENDBRANCH  10  11
ENDBRANCH   9  10
ENDBRANCH   8   9
ENDBRANCH   7   8
END_RES LYS A 135
