REMARK VINA RESULT:    -7.383      4.616      8.268
REMARK INTER + INTRA:         -21.104
REMARK INTER:                  -8.954
REMARK INTRA:                 -12.150
REMARK UNBOUND:                -1.206
REMARK SMILES CC(=O)N[C@@H]1[C@@H](O)C[C@](OC[C@H]2O[C@@H](O[C@H]3[C@H](O)[C@@H](O)[C@H](OCCN=[N+]=[N-])O[C@@H]3CO)[C@H](O)[C@@H](O)[C@H]2O)(C(=O)O)O[C@H]1C(O)[C@H](O)CNC(=O)OCc1cn(C2CCc3ccccc3NC2=O)nn1
REMARK SMILES IDX 43 1 42 2 9 3 8 4 41 5 6 6 5 7 10 8 11 9 12 10 14 11 13 12
REMARK SMILES IDX 32 13 34 14 36 15 15 16 16 17 29 18 28 19 21 20 17 21 19 22
REMARK SMILES IDX 30 23 31 24 22 26 23 27 24 28 25 29 26 30 27 31 18 32 20 34
REMARK SMILES IDX 33 36 35 38 37 40 38 42 39 43 40 44 7 46 4 48 2 49 1 51 3 52
REMARK SMILES IDX 44 53 45 55 46 56 47 58 48 59 49 60 50 62 51 63 52 64 53 65
REMARK SMILES IDX 54 66 69 67 55 68 68 69 56 70 57 71 66 73 65 74 67 75 64 77
REMARK SMILES IDX 59 78 63 79 60 80 62 81 61 82 58 83
REMARK H PARENT 31 25 18 33 20 35 33 37 35 39 37 41 40 45 7 47 4 50 44 54
REMARK H PARENT 46 57 48 61 65 76
REMARK Flexibility Score: 90.00
ROOT
ATOM      1  C   UNL     1      30.212  33.044  14.703  1.00  0.00     0.176 C 
ENDROOT
BRANCH   1   2
ATOM      2  C   UNL     1      30.307  34.568  14.915  1.00  0.00     0.178 C 
ATOM      3  C   UNL     1      29.396  36.143  13.373  1.00  0.00     0.272 C 
ATOM      4  C   UNL     1      30.751  36.599  13.009  1.00  0.00     0.113 C 
ATOM      5  O   UNL     1      29.280  35.245  14.436  1.00  0.00    -0.332 OA
ATOM      6  C   UNL     1      31.780  35.530  13.153  1.00  0.00     0.145 C 
ATOM      7  C   UNL     1      31.704  35.015  14.583  1.00  0.00     0.142 C 
BRANCH   3   8
ATOM      8  O   UNL     1      28.664  35.602  12.375  1.00  0.00    -0.338 OA
BRANCH   8   9
ATOM      9  C   UNL     1      28.213  36.253  11.315  1.00  0.00     0.199 C 
BRANCH   9  10
ATOM     10  C   UNL     1      26.817  36.320  10.872  1.00  0.00     0.179 C 
ATOM     11  C   UNL     1      24.712  35.727  11.628  1.00  0.00     0.282 C 
ATOM     12  O   UNL     1      26.029  35.965  12.019  1.00  0.00    -0.341 OA
ATOM     13  C   UNL     1      24.313  36.269  10.313  1.00  0.00     0.202 C 
ATOM     14  C   UNL     1      24.990  37.513   9.849  1.00  0.00     0.179 C 
ATOM     15  C   UNL     1      26.294  37.725  10.576  1.00  0.00     0.177 C 
BRANCH  11  16
ATOM     16  O   UNL     1      23.863  36.103  12.690  1.00  0.00    -0.341 OA
BRANCH  16  17
ATOM     17  C   UNL     1      23.815  35.159  13.682  1.00  0.00     0.184 C 
ATOM     18  C   UNL     1      24.444  35.560  14.990  1.00  0.00     0.178 C 
ATOM     19  O   UNL     1      24.155  34.528  15.885  1.00  0.00    -0.341 OA
ATOM     20  C   UNL     1      24.968  33.424  15.673  1.00  0.00     0.281 C 
ATOM     21  C   UNL     1      24.498  33.870  13.250  1.00  0.00     0.180 C 
ATOM     22  C   UNL     1      25.439  33.310  14.254  1.00  0.00     0.202 C 
BRANCH  18  23
ATOM     23  C   UNL     1      23.815  36.815  15.561  1.00  0.00     0.191 C 
BRANCH  23  24
ATOM     24  O   UNL     1      24.407  37.969  15.052  1.00  0.00    -0.394 OA
ATOM     25  H   UNL     1      25.387  37.946  15.082  1.00  0.00     0.210 HD
ENDBRANCH  23  24
ENDBRANCH  18  23
BRANCH  20  26
ATOM     26  O   UNL     1      24.294  32.295  16.099  1.00  0.00    -0.350 OA
BRANCH  26  27
ATOM     27  C   UNL     1      24.898  31.133  15.650  1.00  0.00     0.169 C 
BRANCH  27  28
ATOM     28  C   UNL     1      24.290  29.866  16.159  1.00  0.00     0.119 C 
BRANCH  28  29
ATOM     29  N   UNL     1      23.637  29.177  15.059  1.00  0.00    -0.092 NA
ATOM     30  N   UNL     1      23.596  29.661  13.913  1.00  0.00     0.001 N 
ATOM     31  N   UNL     1      24.048  30.001  12.810  1.00  0.00    -0.003 NA
ENDBRANCH  28  29
ENDBRANCH  27  28
ENDBRANCH  26  27
ENDBRANCH  20  26
BRANCH  21  32
ATOM     32  O   UNL     1      23.565  32.925  12.798  1.00  0.00    -0.387 OA
ATOM     33  H   UNL     1      23.111  32.530  13.586  1.00  0.00     0.211 HD
ENDBRANCH  21  32
BRANCH  22  34
ATOM     34  O   UNL     1      26.736  33.865  14.150  1.00  0.00    -0.385 OA
ATOM     35  H   UNL     1      26.734  34.723  13.685  1.00  0.00     0.211 HD
ENDBRANCH  22  34
ENDBRANCH  16  17
ENDBRANCH  11  16
BRANCH  13  36
ATOM     36  O   UNL     1      24.333  35.252   9.353  1.00  0.00    -0.385 OA
ATOM     37  H   UNL     1      25.172  35.308   8.826  1.00  0.00     0.211 HD
ENDBRANCH  13  36
BRANCH  14  38
ATOM     38  O   UNL     1      24.165  38.635   9.893  1.00  0.00    -0.387 OA
ATOM     39  H   UNL     1      23.958  38.861   8.949  1.00  0.00     0.211 HD
ENDBRANCH  14  38
BRANCH  15  40
ATOM     40  O   UNL     1      26.053  38.391  11.804  1.00  0.00    -0.387 OA
ATOM     41  H   UNL     1      25.087  38.565  11.824  1.00  0.00     0.211 HD
ENDBRANCH  15  40
ENDBRANCH   9  10
ENDBRANCH   8   9
ENDBRANCH   3   8
BRANCH   3  42
ATOM     42  C   UNL     1      28.699  37.347  13.967  1.00  0.00     0.364 C 
ATOM     43  O   UNL     1      29.287  38.377  14.203  1.00  0.00    -0.246 OA
BRANCH  42  44
ATOM     44  O   UNL     1      27.332  37.279  14.258  1.00  0.00    -0.477 OA
ATOM     45  H   UNL     1      26.892  37.889  14.927  1.00  0.00     0.296 HD
ENDBRANCH  42  44
ENDBRANCH   3  42
BRANCH   6  46
ATOM     46  O   UNL     1      31.443  34.501  12.257  1.00  0.00    -0.391 OA
ATOM     47  H   UNL     1      31.882  34.587  11.395  1.00  0.00     0.211 HD
ENDBRANCH   6  46
BRANCH   7  48
ATOM     48  N   UNL     1      32.243  36.014  15.444  1.00  0.00    -0.348 N 
ATOM     49  C   UNL     1      32.647  35.689  16.769  1.00  0.00     0.217 C 
ATOM     50  H   UNL     1      32.352  37.006  15.127  1.00  0.00     0.163 HD
ATOM     51  C   UNL     1      33.213  36.697  17.706  1.00  0.00     0.114 C 
ATOM     52  O   UNL     1      32.515  34.517  17.140  1.00  0.00    -0.275 OA
ENDBRANCH   7  48
ENDBRANCH   1   2
BRANCH   1  53
ATOM     53  O   UNL     1      31.500  32.499  14.685  1.00  0.00    -0.388 OA
ATOM     54  H   UNL     1      31.657  31.844  15.401  1.00  0.00     0.211 HD
ENDBRANCH   1  53
BRANCH   1  55
ATOM     55  C   UNL     1      29.432  32.353  15.761  1.00  0.00     0.165 C 
BRANCH  55  56
ATOM     56  O   UNL     1      28.555  33.163  16.471  1.00  0.00    -0.388 OA
ATOM     57  H   UNL     1      27.822  32.586  16.814  1.00  0.00     0.211 HD
ENDBRANCH  55  56
BRANCH  55  58
ATOM     58  C   UNL     1      30.218  31.562  16.755  1.00  0.00     0.154 C 
BRANCH  58  59
ATOM     59  N   UNL     1      30.563  32.252  17.960  1.00  0.00    -0.319 N 
ATOM     60  C   UNL     1      30.754  31.624  19.212  1.00  0.00     0.407 C 
ATOM     61  H   UNL     1      30.682  33.285  17.915  1.00  0.00     0.167 HD
ATOM     62  O   UNL     1      30.627  30.381  19.339  1.00  0.00    -0.225 OA
BRANCH  60  63
ATOM     63  O   UNL     1      31.084  32.392  20.303  1.00  0.00    -0.443 OA
BRANCH  63  64
ATOM     64  C   UNL     1      30.155  32.965  21.155  1.00  0.00     0.294 C 
BRANCH  64  65
ATOM     65  C   UNL     1      29.035  33.530  20.400  1.00  0.00     0.120 A 
ATOM     66  C   UNL     1      28.840  34.855  20.094  1.00  0.00     0.139 A 
ATOM     67  N   UNL     1      27.975  32.884  19.858  1.00  0.00    -0.132 NA
ATOM     68  N   UNL     1      27.690  34.988  19.386  1.00  0.00    -0.240 N 
ATOM     69  N   UNL     1      27.195  33.773  19.265  1.00  0.00    -0.066 NA
BRANCH  68  70
ATOM     70  C   UNL     1      27.117  36.238  18.861  1.00  0.00     0.198 C 
BRANCH  70  71
ATOM     71  C   UNL     1      27.396  37.284  19.873  1.00  0.00     0.042 CG0
ATOM     72  G   UNL     1      27.271  38.701  19.433  1.00  0.00     0.000 G0
ENDBRANCH  70  71
BRANCH  70  73
ATOM     73  C   UNL     1      27.722  36.429  17.539  1.00  0.00     0.249 C 
ATOM     74  N   UNL     1      28.806  37.252  17.138  1.00  0.00    -0.324 N 
ATOM     75  O   UNL     1      27.194  35.753  16.615  1.00  0.00    -0.272 OA
ATOM     76  H   UNL     1      29.335  37.001  16.275  1.00  0.00     0.170 HD
BRANCH  74  77
ATOM     77  C   UNL     1      29.231  38.429  17.858  1.00  0.00     0.044 A 
ATOM     78  C   UNL     1      28.583  39.113  18.880  1.00  0.00    -0.024 A 
ATOM     79  C   UNL     1      30.456  38.880  17.417  1.00  0.00     0.026 A 
ATOM     80  C   UNL     1      29.134  40.230  19.464  1.00  0.00     0.006 A 
ATOM     81  C   UNL     1      31.033  39.999  17.986  1.00  0.00     0.002 A 
ATOM     82  C   UNL     1      30.356  40.666  19.013  1.00  0.00     0.000 A 
BRANCH  78  83
ATOM     83  C   UNL     1      27.258  38.705  19.427  1.00  0.00     0.040 CG0
ATOM     84  G   UNL     1      27.388  37.289  19.868  1.00  0.00     0.000 G0
ENDBRANCH  78  83
ENDBRANCH  74  77
ENDBRANCH  70  73
ENDBRANCH  68  70
ENDBRANCH  64  65
ENDBRANCH  63  64
ENDBRANCH  60  63
ENDBRANCH  58  59
ENDBRANCH  55  58
ENDBRANCH   1  55
TORSDOF 30
BEGIN_RES LYS A 131
REMARK  4 active torsions:
REMARK  status: ('A' for Active; 'I' for Inactive)
REMARK    1  A    between atoms: CA   and  CB  
REMARK    2  A    between atoms: CB   and  CG  
REMARK    3  A    between atoms: CG   and  CD  
REMARK    4  A    between atoms: CD   and  CE  
ROOT
ATOM      1  CA  LYS A 131      29.867  25.555  16.977  1.00 20.52     0.186 C 
ENDROOT
BRANCH   1   2
ATOM      2  CB  LYS A 131      28.345  25.722  17.026  1.00 20.94     0.034 C 
BRANCH   2   3
ATOM      3  CG  LYS A 131      27.599  24.479  16.566  1.00 22.96     0.005 C 
BRANCH   3   4
ATOM      4  CD  LYS A 131      27.067  23.678  17.721  1.00 24.33     0.041 C 
BRANCH   4   5
ATOM      5  CE  LYS A 131      25.639  23.235  17.419  1.00 26.91     0.338 C 
ATOM      6  NZ  LYS A 131      24.832  24.380  16.935  1.00 27.40     0.618 N 
ENDBRANCH   4   5
ENDBRANCH   3   4
ENDBRANCH   2   3
ENDBRANCH   1   2
END_RES LYS A 131
BEGIN_RES LYS A 135
REMARK  4 active torsions:
REMARK  status: ('A' for Active; 'I' for Inactive)
REMARK    5  A    between atoms: CA   and  CB  
REMARK    6  A    between atoms: CB   and  CG  
REMARK    7  A    between atoms: CG   and  CD  
REMARK    8  A    between atoms: CD   and  CE  
ROOT
ATOM      7  CA  LYS A 135      33.193  34.663   9.290  1.00 25.02     0.186 C 
ENDROOT
BRANCH   7   8
ATOM      8  CB  LYS A 135      32.060  35.360  10.034  1.00 26.63     0.034 C 
BRANCH   8   9
ATOM      9  CG  LYS A 135      30.902  35.740   9.148  1.00 29.45     0.005 C 
BRANCH   9  10
ATOM     10  CD  LYS A 135      30.306  34.508   8.485  1.00 32.00     0.041 C 
BRANCH  10  11
ATOM     11  CE  LYS A 135      28.888  34.785   8.023  1.00 34.25     0.338 C 
ATOM     12  NZ  LYS A 135      28.879  35.626   6.794  1.00 35.99     0.618 N 
ENDBRANCH  10  11
ENDBRANCH   9  10
ENDBRANCH   8   9
ENDBRANCH   7   8
END_RES LYS A 135
