REMARK VINA RESULT:    -5.463      3.087      8.459
REMARK INTER + INTRA:         -23.288
REMARK INTER:                 -13.900
REMARK INTRA:                  -9.388
REMARK UNBOUND:                -9.203
REMARK SMILES CC(=O)N[C@@H]1[C@@H](O)C[C@](OC[C@H]2O[C@@H](O[C@H]3[C@H](O)[C@@H](O)[C@H](OCCN=[N+]=[N-])O[C@@H]3CO)[C@H](O)[C@@H](O)[C@H]2O)(C(=O)O)O[C@H]1C(O)[C@H](O)CNC(=O)OCc1cn(Cc2ccc(C#N)cc2)nn1
REMARK SMILES IDX 9 1 8 2 6 3 5 4 42 5 41 6 10 7 11 8 12 9 14 10 13 11 32 12
REMARK SMILES IDX 34 13 36 14 15 15 16 16 29 17 28 18 21 19 17 20 19 21 30 22
REMARK SMILES IDX 31 23 22 25 23 26 24 27 25 28 26 29 27 30 18 31 20 33 33 35
REMARK SMILES IDX 35 37 37 39 38 41 39 42 40 43 7 45 43 47 44 48 45 50 46 51
REMARK SMILES IDX 47 53 48 54 49 55 50 57 51 58 52 59 53 60 54 61 66 62 55 63
REMARK SMILES IDX 65 64 56 65 57 66 58 67 64 68 59 69 63 70 60 71 61 72 62 73
REMARK SMILES IDX 4 74 2 75 1 77 3 78
REMARK H PARENT 31 24 18 32 20 34 33 36 35 38 37 40 40 44 7 46 44 49 46 52
REMARK H PARENT 48 56 4 76
REMARK Flexibility Score: inf
ROOT
ATOM      1  C   UNL     1      24.434  35.836  10.493  1.00  0.00     0.272 C 
ATOM      2  C   UNL     1      25.177  34.886   9.621  1.00  0.00     0.113 C 
ATOM      3  C   UNL     1      26.076  35.514   8.616  1.00  0.00     0.145 C 
ATOM      4  C   UNL     1      25.468  36.870   8.223  1.00  0.00     0.142 C 
ATOM      5  C   UNL     1      23.990  36.741   8.431  1.00  0.00     0.178 C 
ATOM      6  O   UNL     1      23.697  36.783   9.765  1.00  0.00    -0.332 OA
ENDROOT
BRANCH   1   7
ATOM      7  O   UNL     1      25.172  36.462  11.475  1.00  0.00    -0.338 OA
BRANCH   7   8
ATOM      8  C   UNL     1      24.632  37.605  11.960  1.00  0.00     0.199 C 
BRANCH   8   9
ATOM      9  C   UNL     1      25.691  38.518  12.604  1.00  0.00     0.179 C 
ATOM     10  C   UNL     1      27.828  38.389  13.465  1.00  0.00     0.282 C 
ATOM     11  O   UNL     1      26.710  37.672  13.041  1.00  0.00    -0.341 OA
ATOM     12  C   UNL     1      28.446  39.209  12.380  1.00  0.00     0.202 C 
ATOM     13  C   UNL     1      27.623  39.077  11.120  1.00  0.00     0.179 C 
ATOM     14  C   UNL     1      26.199  39.432  11.520  1.00  0.00     0.177 C 
BRANCH  10  15
ATOM     15  O   UNL     1      28.768  37.455  13.893  1.00  0.00    -0.341 OA
BRANCH  15  16
ATOM     16  C   UNL     1      28.402  36.139  13.616  1.00  0.00     0.184 C 
ATOM     17  C   UNL     1      28.274  35.378  14.886  1.00  0.00     0.178 C 
ATOM     18  O   UNL     1      29.358  34.639  15.264  1.00  0.00    -0.341 OA
ATOM     19  C   UNL     1      30.516  34.839  14.558  1.00  0.00     0.281 C 
ATOM     20  C   UNL     1      29.267  35.508  12.572  1.00  0.00     0.180 C 
ATOM     21  C   UNL     1      30.263  34.512  13.103  1.00  0.00     0.202 C 
BRANCH  17  22
ATOM     22  C   UNL     1      26.994  34.545  14.845  1.00  0.00     0.191 C 
BRANCH  22  23
ATOM     23  O   UNL     1      26.284  34.921  13.704  1.00  0.00    -0.394 OA
ATOM     24  H   UNL     1      26.705  34.539  12.875  1.00  0.00     0.210 HD
ENDBRANCH  22  23
ENDBRANCH  17  22
BRANCH  19  25
ATOM     25  O   UNL     1      31.446  33.900  15.049  1.00  0.00    -0.350 OA
BRANCH  25  26
ATOM     26  C   UNL     1      30.862  32.646  15.170  1.00  0.00     0.169 C 
BRANCH  26  27
ATOM     27  C   UNL     1      30.967  32.136  16.594  1.00  0.00     0.119 C 
BRANCH  27  28
ATOM     28  N   UNL     1      29.765  31.446  17.019  1.00  0.00    -0.092 NA
ATOM     29  N   UNL     1      29.075  30.856  16.204  1.00  0.00     0.001 N 
ATOM     30  N   UNL     1      28.508  29.902  15.649  1.00  0.00    -0.003 NA
ENDBRANCH  27  28
ENDBRANCH  26  27
ENDBRANCH  25  26
ENDBRANCH  19  25
BRANCH  20  31
ATOM     31  O   UNL     1      28.533  34.961  11.512  1.00  0.00    -0.387 OA
ATOM     32  H   UNL     1      28.882  34.049  11.289  1.00  0.00     0.211 HD
ENDBRANCH  20  31
BRANCH  21  33
ATOM     33  O   UNL     1      31.455  34.529  12.375  1.00  0.00    -0.385 OA
ATOM     34  H   UNL     1      31.360  35.243  11.692  1.00  0.00     0.211 HD
ENDBRANCH  21  33
ENDBRANCH  15  16
ENDBRANCH  10  15
BRANCH  12  35
ATOM     35  O   UNL     1      28.582  40.548  12.675  1.00  0.00    -0.385 OA
ATOM     36  H   UNL     1      29.446  40.887  12.307  1.00  0.00     0.211 HD
ENDBRANCH  12  35
BRANCH  13  37
ATOM     37  O   UNL     1      27.736  37.773  10.664  1.00  0.00    -0.387 OA
ATOM     38  H   UNL     1      26.922  37.231  10.760  1.00  0.00     0.211 HD
ENDBRANCH  13  37
BRANCH  14  39
ATOM     39  O   UNL     1      25.341  39.532  10.451  1.00  0.00    -0.387 OA
ATOM     40  H   UNL     1      24.850  38.691  10.335  1.00  0.00     0.211 HD
ENDBRANCH  14  39
ENDBRANCH   8   9
ENDBRANCH   7   8
ENDBRANCH   1   7
BRANCH   1  41
ATOM     41  C   UNL     1      23.364  35.032  11.174  1.00  0.00     0.364 C 
ATOM     42  O   UNL     1      23.531  34.628  12.329  1.00  0.00    -0.246 OA
BRANCH  41  43
ATOM     43  O   UNL     1      22.204  34.762  10.487  1.00  0.00    -0.477 OA
ATOM     44  H   UNL     1      21.707  33.882  10.541  1.00  0.00     0.296 HD
ENDBRANCH  41  43
ENDBRANCH   1  41
BRANCH   3  45
ATOM     45  O   UNL     1      27.398  35.601   8.948  1.00  0.00    -0.391 OA
ATOM     46  H   UNL     1      27.722  36.523   8.893  1.00  0.00     0.211 HD
ENDBRANCH   3  45
BRANCH   5  47
ATOM     47  C   UNL     1      23.178  37.781   7.647  1.00  0.00     0.176 C 
BRANCH  47  48
ATOM     48  O   UNL     1      22.549  37.038   6.621  1.00  0.00    -0.388 OA
ATOM     49  H   UNL     1      21.676  37.463   6.430  1.00  0.00     0.211 HD
ENDBRANCH  47  48
BRANCH  47  50
ATOM     50  C   UNL     1      22.153  38.415   8.477  1.00  0.00     0.165 C 
BRANCH  50  51
ATOM     51  O   UNL     1      22.739  39.317   9.416  1.00  0.00    -0.388 OA
ATOM     52  H   UNL     1      23.617  39.566   8.987  1.00  0.00     0.211 HD
ENDBRANCH  50  51
BRANCH  50  53
ATOM     53  C   UNL     1      21.196  37.535   9.178  1.00  0.00     0.154 C 
BRANCH  53  54
ATOM     54  N   UNL     1      20.745  36.328   8.641  1.00  0.00    -0.319 N 
ATOM     55  C   UNL     1      19.531  36.015   8.002  1.00  0.00     0.407 C 
ATOM     56  H   UNL     1      21.417  35.486   8.713  1.00  0.00     0.167 HD
ATOM     57  O   UNL     1      18.635  36.845   7.795  1.00  0.00    -0.225 OA
BRANCH  55  58
ATOM     58  O   UNL     1      19.268  34.712   7.551  1.00  0.00    -0.443 OA
BRANCH  58  59
ATOM     59  C   UNL     1      17.929  34.261   7.427  1.00  0.00     0.294 C 
BRANCH  59  60
ATOM     60  C   UNL     1      17.710  33.165   8.436  1.00  0.00     0.120 A 
ATOM     61  C   UNL     1      17.875  33.322   9.796  1.00  0.00     0.138 A 
ATOM     62  N   UNL     1      17.344  31.884   8.245  1.00  0.00    -0.132 NA
ATOM     63  N   UNL     1      17.605  32.130  10.389  1.00  0.00    -0.248 N 
ATOM     64  N   UNL     1      17.298  31.320   9.430  1.00  0.00    -0.067 NA
BRANCH  63  65
ATOM     65  C   UNL     1      17.701  31.934  11.827  1.00  0.00     0.181 C 
BRANCH  65  66
ATOM     66  C   UNL     1      19.078  31.359  12.045  1.00  0.00    -0.026 A 
ATOM     67  C   UNL     1      20.098  32.220  12.368  1.00  0.00     0.007 A 
ATOM     68  C   UNL     1      19.289  29.985  11.914  1.00  0.00     0.007 A 
ATOM     69  C   UNL     1      21.387  31.786  12.581  1.00  0.00     0.020 A 
ATOM     70  C   UNL     1      20.574  29.553  12.126  1.00  0.00     0.020 A 
ATOM     71  C   UNL     1      21.580  30.407  12.445  1.00  0.00     0.052 A 
BRANCH  71  72
ATOM     72  C   UNL     1      22.941  29.925  12.645  1.00  0.00     0.099 C 
ATOM     73  N   UNL     1      24.020  29.523  12.815  1.00  0.00    -0.192 NA
ENDBRANCH  71  72
ENDBRANCH  65  66
ENDBRANCH  63  65
ENDBRANCH  59  60
ENDBRANCH  58  59
ENDBRANCH  55  58
ENDBRANCH  53  54
ENDBRANCH  50  53
ENDBRANCH  47  50
ENDBRANCH   5  47
BRANCH   4  74
ATOM     74  N   UNL     1      25.861  37.218   6.880  1.00  0.00    -0.348 N 
ATOM     75  C   UNL     1      27.016  38.022   6.696  1.00  0.00     0.217 C 
ATOM     76  H   UNL     1      25.339  36.904   6.048  1.00  0.00     0.163 HD
ATOM     77  C   UNL     1      27.480  38.417   5.354  1.00  0.00     0.114 C 
ATOM     78  O   UNL     1      27.695  38.433   7.696  1.00  0.00    -0.275 OA
ENDBRANCH   4  74
TORSDOF 32
BEGIN_RES LYS A 131
REMARK  4 active torsions:
REMARK  status: ('A' for Active; 'I' for Inactive)
REMARK    1  A    between atoms: CA   and  CB  
REMARK    2  A    between atoms: CB   and  CG  
REMARK    3  A    between atoms: CG   and  CD  
REMARK    4  A    between atoms: CD   and  CE  
ROOT
ATOM      1  CA  LYS A 131      29.867  25.555  16.977  1.00 20.52     0.186 C 
ENDROOT
BRANCH   1   2
ATOM      2  CB  LYS A 131      28.345  25.722  17.026  1.00 20.94     0.034 C 
BRANCH   2   3
ATOM      3  CG  LYS A 131      27.603  24.395  16.988  1.00 22.96     0.005 C 
BRANCH   3   4
ATOM      4  CD  LYS A 131      26.252  24.482  17.641  1.00 24.33     0.041 C 
BRANCH   4   5
ATOM      5  CE  LYS A 131      25.503  23.169  17.439  1.00 26.91     0.338 C 
ATOM      6  NZ  LYS A 131      24.419  23.030  18.440  1.00 27.40     0.618 N 
ENDBRANCH   4   5
ENDBRANCH   3   4
ENDBRANCH   2   3
ENDBRANCH   1   2
END_RES LYS A 131
BEGIN_RES LYS A 135
REMARK  4 active torsions:
REMARK  status: ('A' for Active; 'I' for Inactive)
REMARK    5  A    between atoms: CA   and  CB  
REMARK    6  A    between atoms: CB   and  CG  
REMARK    7  A    between atoms: CG   and  CD  
REMARK    8  A    between atoms: CD   and  CE  
ROOT
ATOM      7  CA  LYS A 135      33.193  34.663   9.290  1.00 25.02     0.186 C 
ENDROOT
BRANCH   7   8
ATOM      8  CB  LYS A 135      32.060  35.360  10.034  1.00 26.63     0.034 C 
BRANCH   8   9
ATOM      9  CG  LYS A 135      30.853  35.633   9.174  1.00 29.45     0.005 C 
BRANCH   9  10
ATOM     10  CD  LYS A 135      30.714  37.123   8.902  1.00 32.00     0.041 C 
BRANCH  10  11
ATOM     11  CE  LYS A 135      31.185  37.929  10.097  1.00 34.25     0.338 C 
ATOM     12  NZ  LYS A 135      32.143  38.991   9.684  1.00 35.99     0.618 N 
ENDBRANCH  10  11
ENDBRANCH   9  10
ENDBRANCH   8   9
ENDBRANCH   7   8
END_RES LYS A 135
