REMARK VINA RESULT:    -3.902      3.250      8.360
REMARK INTER + INTRA:         -21.358
REMARK INTER:                 -10.289
REMARK INTRA:                 -11.069
REMARK UNBOUND:               -11.069
REMARK SMILES COCC(C(N)=O)n1cc(COC(=O)NC[C@@H](O)C(O)[C@@H]2O[C@@](OC[C@H]3O[C@@H](O[C@H]4[C@H](O)[C@@H](O)[C@H](OCCN=[N+]=[N-])O[C@@H]4CO)[C@H](O)[C@@H](O)[C@H]3O)(C(=O)O)C[C@H](O)[C@H]2NC(C)=O)nn1
REMARK SMILES IDX 23 1 55 2 56 3 58 4 21 5 22 6 24 7 25 8 26 9 28 10 27 11
REMARK SMILES IDX 46 12 48 13 50 14 29 15 30 16 43 17 42 18 35 19 31 20 33 21
REMARK SMILES IDX 44 22 45 23 36 25 37 26 38 27 39 28 40 29 41 30 32 31 34 33
REMARK SMILES IDX 47 35 49 37 51 39 52 41 53 42 54 43 57 45 19 47 20 48 17 50
REMARK SMILES IDX 18 51 16 53 15 54 13 55 14 57 12 58 11 59 10 60 9 61 63 62
REMARK SMILES IDX 8 63 64 64 4 65 3 66 2 67 1 68 5 69 7 70 6 71 59 74 60 75
REMARK SMILES IDX 61 77 62 78
REMARK H PARENT 45 24 32 32 34 34 47 36 49 38 51 40 54 44 57 46 20 49 18 52
REMARK H PARENT 15 56 6 72 6 73 59 76
REMARK Flexibility Score: inf
ROOT
ATOM      1  C   UNL     1      28.803  31.938  16.372  1.00  0.00     0.272 C 
ATOM      2  C   UNL     1      30.039  31.596  15.632  1.00  0.00     0.113 C 
ATOM      3  C   UNL     1      30.929  32.719  15.244  1.00  0.00     0.145 C 
ATOM      4  C   UNL     1      30.110  33.913  14.834  1.00  0.00     0.142 C 
ATOM      5  C   UNL     1      28.699  33.414  14.566  1.00  0.00     0.178 C 
ATOM      6  O   UNL     1      28.136  32.987  15.740  1.00  0.00    -0.332 OA
ENDROOT
BRANCH   1   7
ATOM      7  O   UNL     1      28.932  32.274  17.691  1.00  0.00    -0.338 OA
BRANCH   7   8
ATOM      8  C   UNL     1      27.813  32.618  18.376  1.00  0.00     0.199 C 
BRANCH   8   9
ATOM      9  C   UNL     1      28.122  33.470  19.614  1.00  0.00     0.179 C 
ATOM     10  C   UNL     1      29.393  32.167  21.058  1.00  0.00     0.282 C 
ATOM     11  O   UNL     1      28.156  32.717  20.753  1.00  0.00    -0.341 OA
ATOM     12  C   UNL     1      30.491  33.173  21.096  1.00  0.00     0.202 C 
ATOM     13  C   UNL     1      30.599  33.943  19.821  1.00  0.00     0.179 C 
ATOM     14  C   UNL     1      29.252  34.414  19.405  1.00  0.00     0.177 C 
BRANCH  10  15
ATOM     15  O   UNL     1      29.712  31.094  20.246  1.00  0.00    -0.341 OA
BRANCH  15  16
ATOM     16  C   UNL     1      29.542  29.889  20.925  1.00  0.00     0.184 C 
ATOM     17  C   UNL     1      30.654  28.920  20.789  1.00  0.00     0.178 C 
ATOM     18  O   UNL     1      30.500  27.842  21.624  1.00  0.00    -0.341 OA
ATOM     19  C   UNL     1      29.173  27.484  21.871  1.00  0.00     0.281 C 
ATOM     20  C   UNL     1      28.301  29.233  20.294  1.00  0.00     0.180 C 
ATOM     21  C   UNL     1      28.296  27.790  20.667  1.00  0.00     0.202 C 
BRANCH  17  22
ATOM     22  C   UNL     1      32.032  29.492  21.067  1.00  0.00     0.191 C 
BRANCH  22  23
ATOM     23  O   UNL     1      32.906  28.469  21.426  1.00  0.00    -0.394 OA
ATOM     24  H   UNL     1      33.660  28.798  21.969  1.00  0.00     0.210 HD
ENDBRANCH  22  23
ENDBRANCH  17  22
BRANCH  19  25
ATOM     25  O   UNL     1      28.747  28.068  23.011  1.00  0.00    -0.350 OA
BRANCH  25  26
ATOM     26  C   UNL     1      28.615  27.352  24.150  1.00  0.00     0.169 C 
BRANCH  26  27
ATOM     27  C   UNL     1      27.865  26.067  24.090  1.00  0.00     0.119 C 
BRANCH  27  28
ATOM     28  N   UNL     1      26.448  26.236  24.134  1.00  0.00    -0.092 NA
ATOM     29  N   UNL     1      25.848  26.677  23.158  1.00  0.00     0.001 N 
ATOM     30  N   UNL     1      25.153  26.647  22.129  1.00  0.00    -0.003 NA
ENDBRANCH  27  28
ENDBRANCH  26  27
ENDBRANCH  25  26
ENDBRANCH  19  25
BRANCH  20  31
ATOM     31  O   UNL     1      27.152  29.884  20.740  1.00  0.00    -0.387 OA
ATOM     32  H   UNL     1      26.750  30.307  19.947  1.00  0.00     0.211 HD
ENDBRANCH  20  31
BRANCH  21  33
ATOM     33  O   UNL     1      28.788  26.995  19.609  1.00  0.00    -0.385 OA
ATOM     34  H   UNL     1      29.788  26.993  19.644  1.00  0.00     0.211 HD
ENDBRANCH  21  33
ENDBRANCH  15  16
ENDBRANCH  10  15
BRANCH  12  35
ATOM     35  O   UNL     1      30.159  34.101  22.102  1.00  0.00    -0.385 OA
ATOM     36  H   UNL     1      29.781  33.647  22.884  1.00  0.00     0.211 HD
ENDBRANCH  12  35
BRANCH  13  37
ATOM     37  O   UNL     1      31.296  33.253  18.831  1.00  0.00    -0.387 OA
ATOM     38  H   UNL     1      32.202  33.070  19.201  1.00  0.00     0.211 HD
ENDBRANCH  13  37
BRANCH  14  39
ATOM     39  O   UNL     1      29.254  34.819  18.069  1.00  0.00    -0.387 OA
ATOM     40  H   UNL     1      28.621  35.572  17.929  1.00  0.00     0.211 HD
ENDBRANCH  14  39
ENDBRANCH   8   9
ENDBRANCH   7   8
ENDBRANCH   1   7
BRANCH   1  41
ATOM     41  C   UNL     1      27.866  30.766  16.227  1.00  0.00     0.364 C 
ATOM     42  O   UNL     1      26.765  30.880  15.656  1.00  0.00    -0.246 OA
BRANCH  41  43
ATOM     43  O   UNL     1      28.251  29.555  16.740  1.00  0.00    -0.477 OA
ATOM     44  H   UNL     1      27.659  28.740  16.728  1.00  0.00     0.296 HD
ENDBRANCH  41  43
ENDBRANCH   1  41
BRANCH   3  45
ATOM     45  O   UNL     1      31.889  33.040  16.199  1.00  0.00    -0.391 OA
ATOM     46  H   UNL     1      31.454  33.442  16.992  1.00  0.00     0.211 HD
ENDBRANCH   3  45
BRANCH   5  47
ATOM     47  C   UNL     1      27.864  34.539  13.985  1.00  0.00     0.176 C 
BRANCH  47  48
ATOM     48  O   UNL     1      26.574  34.182  13.736  1.00  0.00    -0.388 OA
ATOM     49  H   UNL     1      26.086  33.708  14.422  1.00  0.00     0.211 HD
ENDBRANCH  47  48
BRANCH  47  50
ATOM     50  C   UNL     1      27.912  35.741  14.889  1.00  0.00     0.165 C 
BRANCH  50  51
ATOM     51  O   UNL     1      27.004  35.478  15.945  1.00  0.00    -0.388 OA
ATOM     52  H   UNL     1      26.076  35.643  15.622  1.00  0.00     0.211 HD
ENDBRANCH  50  51
BRANCH  50  53
ATOM     53  C   UNL     1      27.460  37.014  14.259  1.00  0.00     0.154 C 
BRANCH  53  54
ATOM     54  N   UNL     1      26.063  37.290  14.337  1.00  0.00    -0.319 N 
ATOM     55  C   UNL     1      25.171  37.083  13.250  1.00  0.00     0.407 C 
ATOM     56  H   UNL     1      25.637  37.668  15.226  1.00  0.00     0.167 HD
ATOM     57  O   UNL     1      25.615  36.645  12.178  1.00  0.00    -0.225 OA
BRANCH  55  58
ATOM     58  O   UNL     1      23.804  37.359  13.353  1.00  0.00    -0.443 OA
BRANCH  58  59
ATOM     59  C   UNL     1      22.995  36.799  14.344  1.00  0.00     0.294 C 
BRANCH  59  60
ATOM     60  C   UNL     1      23.325  35.416  14.706  1.00  0.00     0.120 A 
ATOM     61  C   UNL     1      22.710  34.309  14.175  1.00  0.00     0.139 A 
ATOM     62  N   UNL     1      24.255  35.026  15.586  1.00  0.00    -0.132 NA
ATOM     63  N   UNL     1      23.289  33.256  14.756  1.00  0.00    -0.237 N 
ATOM     64  N   UNL     1      24.218  33.704  15.603  1.00  0.00    -0.066 NA
BRANCH  63  65
ATOM     65  C   UNL     1      22.955  31.868  14.497  1.00  0.00     0.223 C 
BRANCH  65  66
ATOM     66  C   UNL     1      24.045  31.261  13.676  1.00  0.00     0.197 C 
BRANCH  66  67
ATOM     67  O   UNL     1      24.099  29.897  13.818  1.00  0.00    -0.382 OA
ATOM     68  C   UNL     1      23.642  29.253  12.698  1.00  0.00     0.195 C 
ENDBRANCH  66  67
ENDBRANCH  65  66
BRANCH  65  69
ATOM     69  C   UNL     1      22.864  31.197  15.837  1.00  0.00     0.244 C 
ATOM     70  O   UNL     1      21.736  30.962  16.314  1.00  0.00    -0.273 OA
ATOM     71  N   UNL     1      24.060  30.853  16.515  1.00  0.00    -0.368 N 
ATOM     72  H   UNL     1      24.423  31.351  17.345  1.00  0.00     0.159 HD
ATOM     73  H   UNL     1      24.607  30.044  16.147  1.00  0.00     0.159 HD
ENDBRANCH  65  69
ENDBRANCH  63  65
ENDBRANCH  59  60
ENDBRANCH  58  59
ENDBRANCH  55  58
ENDBRANCH  53  54
ENDBRANCH  50  53
ENDBRANCH  47  50
ENDBRANCH   5  47
BRANCH   4  74
ATOM     74  N   UNL     1      30.684  34.571  13.663  1.00  0.00    -0.348 N 
ATOM     75  C   UNL     1      31.711  35.551  13.739  1.00  0.00     0.217 C 
ATOM     76  H   UNL     1      30.346  34.328  12.698  1.00  0.00     0.163 HD
ATOM     77  C   UNL     1      32.305  36.225  12.574  1.00  0.00     0.114 C 
ATOM     78  O   UNL     1      32.136  35.854  14.905  1.00  0.00    -0.275 OA
ENDBRANCH   4  74
TORSDOF 33
BEGIN_RES LYS A 131
REMARK  4 active torsions:
REMARK  status: ('A' for Active; 'I' for Inactive)
REMARK    1  A    between atoms: CA   and  CB  
REMARK    2  A    between atoms: CB   and  CG  
REMARK    3  A    between atoms: CG   and  CD  
REMARK    4  A    between atoms: CD   and  CE  
ROOT
ATOM      1  CA  LYS A 131      29.867  25.555  16.977  1.00 20.52     0.186 C 
ENDROOT
BRANCH   1   2
ATOM      2  CB  LYS A 131      28.345  25.722  17.026  1.00 20.94     0.034 C 
BRANCH   2   3
ATOM      3  CG  LYS A 131      27.601  24.401  16.901  1.00 22.96     0.005 C 
BRANCH   3   4
ATOM      4  CD  LYS A 131      26.617  24.198  18.019  1.00 24.33     0.041 C 
BRANCH   4   5
ATOM      5  CE  LYS A 131      25.905  25.514  18.317  1.00 26.91     0.338 C 
ATOM      6  NZ  LYS A 131      24.613  25.580  17.594  1.00 27.40     0.618 N 
ENDBRANCH   4   5
ENDBRANCH   3   4
ENDBRANCH   2   3
ENDBRANCH   1   2
END_RES LYS A 131
BEGIN_RES LYS A 135
REMARK  4 active torsions:
REMARK  status: ('A' for Active; 'I' for Inactive)
REMARK    5  A    between atoms: CA   and  CB  
REMARK    6  A    between atoms: CB   and  CG  
REMARK    7  A    between atoms: CG   and  CD  
REMARK    8  A    between atoms: CD   and  CE  
ROOT
ATOM      7  CA  LYS A 135      33.193  34.663   9.290  1.00 25.02     0.186 C 
ENDROOT
BRANCH   7   8
ATOM      8  CB  LYS A 135      32.060  35.360  10.034  1.00 26.63     0.034 C 
BRANCH   8   9
ATOM      9  CG  LYS A 135      30.791  35.473   9.230  1.00 29.45     0.005 C 
BRANCH   9  10
ATOM     10  CD  LYS A 135      30.237  34.094   8.905  1.00 32.00     0.041 C 
BRANCH  10  11
ATOM     11  CE  LYS A 135      28.734  34.064   9.104  1.00 34.25     0.338 C 
ATOM     12  NZ  LYS A 135      28.371  34.418  10.505  1.00 35.99     0.618 N 
ENDBRANCH  10  11
ENDBRANCH   9  10
ENDBRANCH   8   9
ENDBRANCH   7   8
END_RES LYS A 135
