REMARK VINA RESULT:    -5.237      3.772     10.465
REMARK INTER + INTRA:         -21.562
REMARK INTER:                 -13.210
REMARK INTRA:                  -8.352
REMARK UNBOUND:                -8.212
REMARK SMILES CC(=O)N[C@@H]1[C@@H](O)C[C@](OC[C@H]2O[C@@H](O[C@H]3[C@H](O)[C@@H](O)[C@H](OCCN=[N+]=[N-])O[C@@H]3CO)[C@H](O)[C@@H](O)[C@H]2O)(C(=O)O)O[C@H]1C(O)[C@H](O)CNC(=O)OCc1cn(-c2ccc(CO)cn2)nn1
REMARK SMILES IDX 9 1 8 2 6 3 5 4 42 5 41 6 10 7 11 8 12 9 14 10 13 11 32 12
REMARK SMILES IDX 34 13 36 14 15 15 16 16 29 17 28 18 21 19 17 20 19 21 30 22
REMARK SMILES IDX 31 23 22 25 23 26 24 27 25 28 26 29 27 30 18 31 20 33 33 35
REMARK SMILES IDX 35 37 37 39 38 41 39 42 40 43 7 45 43 47 44 48 45 50 46 51
REMARK SMILES IDX 47 53 48 54 49 55 50 57 51 58 52 59 53 60 54 61 65 62 55 63
REMARK SMILES IDX 64 64 56 65 57 66 63 67 58 68 62 69 59 70 60 71 61 72 4 74
REMARK SMILES IDX 2 75 1 77 3 78
REMARK H PARENT 31 24 18 32 20 34 33 36 35 38 37 40 40 44 7 46 44 49 46 52
REMARK H PARENT 48 56 61 73 4 76
REMARK Flexibility Score: inf
ROOT
ATOM      1  C   UNL     1      25.878  30.281  15.779  1.00  0.00     0.272 C 
ATOM      2  C   UNL     1      25.661  29.229  16.801  1.00  0.00     0.113 C 
ATOM      3  C   UNL     1      24.203  29.002  17.092  1.00  0.00     0.145 C 
ATOM      4  C   UNL     1      23.431  28.863  15.794  1.00  0.00     0.142 C 
ATOM      5  C   UNL     1      23.740  29.981  14.885  1.00  0.00     0.178 C 
ATOM      6  O   UNL     1      25.062  30.175  14.681  1.00  0.00    -0.332 OA
ENDROOT
BRANCH   1   7
ATOM      7  O   UNL     1      27.179  30.347  15.311  1.00  0.00    -0.338 OA
BRANCH   7   8
ATOM      8  C   UNL     1      28.123  30.290  16.317  1.00  0.00     0.199 C 
BRANCH   8   9
ATOM      9  C   UNL     1      29.214  31.279  16.040  1.00  0.00     0.179 C 
ATOM     10  C   UNL     1      29.733  33.064  14.753  1.00  0.00     0.282 C 
ATOM     11  O   UNL     1      28.705  32.497  15.550  1.00  0.00    -0.341 OA
ATOM     12  C   UNL     1      30.999  33.092  15.506  1.00  0.00     0.202 C 
ATOM     13  C   UNL     1      30.889  32.830  16.998  1.00  0.00     0.179 C 
ATOM     14  C   UNL     1      30.005  31.615  17.262  1.00  0.00     0.177 C 
BRANCH  10  15
ATOM     15  O   UNL     1      29.305  34.302  14.263  1.00  0.00    -0.341 OA
BRANCH  15  16
ATOM     16  C   UNL     1      28.944  35.176  15.265  1.00  0.00     0.184 C 
ATOM     17  C   UNL     1      27.487  35.510  15.342  1.00  0.00     0.178 C 
ATOM     18  O   UNL     1      27.199  36.830  15.005  1.00  0.00    -0.341 OA
ATOM     19  C   UNL     1      27.639  37.180  13.754  1.00  0.00     0.281 C 
ATOM     20  C   UNL     1      29.687  36.492  14.970  1.00  0.00     0.180 C 
ATOM     21  C   UNL     1      29.146  36.926  13.600  1.00  0.00     0.202 C 
BRANCH  17  22
ATOM     22  C   UNL     1      27.080  35.387  16.823  1.00  0.00     0.191 C 
BRANCH  22  23
ATOM     23  O   UNL     1      27.551  34.171  17.342  1.00  0.00    -0.394 OA
ATOM     24  H   UNL     1      27.953  34.311  18.252  1.00  0.00     0.210 HD
ENDBRANCH  22  23
ENDBRANCH  17  22
BRANCH  19  25
ATOM     25  O   UNL     1      27.394  38.538  13.567  1.00  0.00    -0.350 OA
BRANCH  25  26
ATOM     26  C   UNL     1      26.980  38.846  12.297  1.00  0.00     0.169 C 
BRANCH  26  27
ATOM     27  C   UNL     1      26.044  37.742  11.824  1.00  0.00     0.119 C 
BRANCH  27  28
ATOM     28  N   UNL     1      24.662  38.200  11.864  1.00  0.00    -0.092 NA
ATOM     29  N   UNL     1      24.229  39.109  11.177  1.00  0.00     0.001 N 
ATOM     30  N   UNL     1      23.633  39.712  10.284  1.00  0.00    -0.003 NA
ENDBRANCH  27  28
ENDBRANCH  26  27
ENDBRANCH  25  26
ENDBRANCH  19  25
BRANCH  20  31
ATOM     31  O   UNL     1      29.510  37.436  15.944  1.00  0.00    -0.387 OA
ATOM     32  H   UNL     1      30.369  37.692  16.311  1.00  0.00     0.211 HD
ENDBRANCH  20  31
BRANCH  21  33
ATOM     33  O   UNL     1      29.360  35.850  12.742  1.00  0.00    -0.385 OA
ATOM     34  H   UNL     1      28.505  35.357  12.665  1.00  0.00     0.211 HD
ENDBRANCH  21  33
ENDBRANCH  15  16
ENDBRANCH  10  15
BRANCH  12  35
ATOM     35  O   UNL     1      31.876  32.123  14.964  1.00  0.00    -0.385 OA
ATOM     36  H   UNL     1      32.752  32.522  14.723  1.00  0.00     0.211 HD
ENDBRANCH  12  35
BRANCH  13  37
ATOM     37  O   UNL     1      30.481  33.953  17.697  1.00  0.00    -0.387 OA
ATOM     38  H   UNL     1      31.123  34.272  18.350  1.00  0.00     0.211 HD
ENDBRANCH  13  37
BRANCH  14  39
ATOM     39  O   UNL     1      29.194  31.919  18.334  1.00  0.00    -0.387 OA
ATOM     40  H   UNL     1      28.260  31.913  18.049  1.00  0.00     0.211 HD
ENDBRANCH  14  39
ENDBRANCH   8   9
ENDBRANCH   7   8
ENDBRANCH   1   7
BRANCH   1  41
ATOM     41  C   UNL     1      25.598  31.661  16.338  1.00  0.00     0.364 C 
ATOM     42  O   UNL     1      25.373  32.659  15.613  1.00  0.00    -0.246 OA
BRANCH  41  43
ATOM     43  O   UNL     1      25.582  31.871  17.703  1.00  0.00    -0.477 OA
ATOM     44  H   UNL     1      26.322  31.463  18.288  1.00  0.00     0.296 HD
ENDBRANCH  41  43
ENDBRANCH   1  41
BRANCH   3  45
ATOM     45  O   UNL     1      24.118  27.746  17.724  1.00  0.00    -0.391 OA
ATOM     46  H   UNL     1      24.447  27.012  17.174  1.00  0.00     0.211 HD
ENDBRANCH   3  45
BRANCH   5  47
ATOM     47  C   UNL     1      23.006  29.905  13.559  1.00  0.00     0.176 C 
BRANCH  47  48
ATOM     48  O   UNL     1      23.622  28.963  12.737  1.00  0.00    -0.388 OA
ATOM     49  H   UNL     1      23.042  28.175  12.616  1.00  0.00     0.211 HD
ENDBRANCH  47  48
BRANCH  47  50
ATOM     50  C   UNL     1      22.904  31.180  12.812  1.00  0.00     0.165 C 
BRANCH  50  51
ATOM     51  O   UNL     1      23.902  32.101  13.158  1.00  0.00    -0.388 OA
ATOM     52  H   UNL     1      24.115  32.106  14.104  1.00  0.00     0.211 HD
ENDBRANCH  50  51
BRANCH  50  53
ATOM     53  C   UNL     1      21.552  31.835  12.800  1.00  0.00     0.154 C 
BRANCH  53  54
ATOM     54  N   UNL     1      21.578  33.057  12.042  1.00  0.00    -0.319 N 
ATOM     55  C   UNL     1      21.715  34.301  12.704  1.00  0.00     0.407 C 
ATOM     56  H   UNL     1      21.492  33.024  10.974  1.00  0.00     0.167 HD
ATOM     57  O   UNL     1      21.821  34.402  13.946  1.00  0.00    -0.225 OA
BRANCH  55  58
ATOM     58  O   UNL     1      21.740  35.501  11.986  1.00  0.00    -0.443 OA
BRANCH  58  59
ATOM     59  C   UNL     1      21.615  35.468  10.593  1.00  0.00     0.294 C 
BRANCH  59  60
ATOM     60  C   UNL     1      22.835  35.717   9.836  1.00  0.00     0.121 A 
ATOM     61  C   UNL     1      24.057  35.118  10.019  1.00  0.00     0.146 A 
ATOM     62  N   UNL     1      22.996  36.582   8.820  1.00  0.00    -0.131 NA
ATOM     63  N   UNL     1      24.922  35.630   9.120  1.00  0.00    -0.202 N 
ATOM     64  N   UNL     1      24.239  36.512   8.413  1.00  0.00    -0.061 NA
BRANCH  63  65
ATOM     65  C   UNL     1      26.286  35.256   9.006  1.00  0.00     0.155 A 
ATOM     66  C   UNL     1      27.039  35.569   7.879  1.00  0.00     0.049 A 
ATOM     67  N   UNL     1      26.903  34.574   9.985  1.00  0.00    -0.237 NA
ATOM     68  C   UNL     1      28.370  35.187   7.782  1.00  0.00     0.011 A 
ATOM     69  C   UNL     1      28.201  34.192   9.912  1.00  0.00     0.119 A 
ATOM     70  C   UNL     1      28.976  34.488   8.803  1.00  0.00    -0.004 A 
BRANCH  70  71
ATOM     71  C   UNL     1      30.402  34.080   8.692  1.00  0.00     0.193 C 
BRANCH  71  72
ATOM     72  O   UNL     1      31.121  34.992   7.919  1.00  0.00    -0.392 OA
ATOM     73  H   UNL     1      31.958  34.616   7.578  1.00  0.00     0.211 HD
ENDBRANCH  71  72
ENDBRANCH  70  71
ENDBRANCH  63  65
ENDBRANCH  59  60
ENDBRANCH  58  59
ENDBRANCH  55  58
ENDBRANCH  53  54
ENDBRANCH  50  53
ENDBRANCH  47  50
ENDBRANCH   5  47
BRANCH   4  74
ATOM     74  N   UNL     1      22.001  28.766  16.092  1.00  0.00    -0.348 N 
ATOM     75  C   UNL     1      21.223  27.683  15.689  1.00  0.00     0.217 C 
ATOM     76  H   UNL     1      21.566  29.539  16.633  1.00  0.00     0.163 HD
ATOM     77  C   UNL     1      19.757  27.713  16.057  1.00  0.00     0.114 C 
ATOM     78  O   UNL     1      21.657  26.712  15.054  1.00  0.00    -0.275 OA
ENDBRANCH   4  74
TORSDOF 32
BEGIN_RES LYS A 131
REMARK  4 active torsions:
REMARK  status: ('A' for Active; 'I' for Inactive)
REMARK    1  A    between atoms: CA   and  CB  
REMARK    2  A    between atoms: CB   and  CG  
REMARK    3  A    between atoms: CG   and  CD  
REMARK    4  A    between atoms: CD   and  CE  
ROOT
ATOM      1  CA  LYS A 131      29.867  25.555  16.977  1.00 20.52     0.186 C 
ENDROOT
BRANCH   1   2
ATOM      2  CB  LYS A 131      28.345  25.722  17.026  1.00 20.94     0.034 C 
BRANCH   2   3
ATOM      3  CG  LYS A 131      27.599  24.420  16.777  1.00 22.96     0.005 C 
BRANCH   3   4
ATOM      4  CD  LYS A 131      26.946  23.894  18.025  1.00 24.33     0.041 C 
BRANCH   4   5
ATOM      5  CE  LYS A 131      25.557  24.508  18.169  1.00 26.91     0.338 C 
ATOM      6  NZ  LYS A 131      24.806  24.399  16.896  1.00 27.40     0.618 N 
ENDBRANCH   4   5
ENDBRANCH   3   4
ENDBRANCH   2   3
ENDBRANCH   1   2
END_RES LYS A 131
BEGIN_RES LYS A 135
REMARK  4 active torsions:
REMARK  status: ('A' for Active; 'I' for Inactive)
REMARK    5  A    between atoms: CA   and  CB  
REMARK    6  A    between atoms: CB   and  CG  
REMARK    7  A    between atoms: CG   and  CD  
REMARK    8  A    between atoms: CD   and  CE  
ROOT
ATOM      7  CA  LYS A 135      33.193  34.663   9.290  1.00 25.02     0.186 C 
ENDROOT
BRANCH   7   8
ATOM      8  CB  LYS A 135      32.060  35.360  10.034  1.00 26.63     0.034 C 
BRANCH   8   9
ATOM      9  CG  LYS A 135      32.506  36.061  11.291  1.00 29.45     0.005 C 
BRANCH   9  10
ATOM     10  CD  LYS A 135      32.064  37.517  11.279  1.00 32.00     0.041 C 
BRANCH  10  11
ATOM     11  CE  LYS A 135      31.035  37.752  10.191  1.00 34.25     0.338 C 
ATOM     12  NZ  LYS A 135      30.132  38.883  10.542  1.00 35.99     0.618 N 
ENDBRANCH  10  11
ENDBRANCH   9  10
ENDBRANCH   8   9
ENDBRANCH   7   8
END_RES LYS A 135
