REMARK VINA RESULT:    -3.784      5.422     10.301
REMARK INTER + INTRA:         -21.338
REMARK INTER:                 -12.400
REMARK INTRA:                  -8.938
REMARK UNBOUND:               -11.690
REMARK SMILES CC(=O)N[C@@H]1[C@@H](O)C[C@](OC[C@H]2O[C@@H](O[C@H]3[C@H](O)[C@@H](O)[C@H](OCCN=[N+]=[N-])O[C@@H]3CO)[C@H](O)[C@@H](O)[C@H]2O)(C(=O)O)O[C@H]1C(O)[C@H](O)CNC(=O)OCc1cn(CCO)nn1
REMARK SMILES IDX 9 1 8 2 6 3 5 4 42 5 41 6 10 7 11 8 12 9 14 10 13 11 32 12
REMARK SMILES IDX 34 13 36 14 15 15 16 16 29 17 28 18 21 19 17 20 19 21 30 22
REMARK SMILES IDX 31 23 22 25 23 26 24 27 25 28 26 29 27 30 18 31 20 33 33 35
REMARK SMILES IDX 35 37 37 39 38 41 39 42 40 43 7 45 43 47 44 48 45 50 46 51
REMARK SMILES IDX 47 53 48 54 49 55 50 57 51 58 52 59 53 60 54 61 60 62 55 63
REMARK SMILES IDX 59 64 56 65 57 66 58 67 4 69 2 70 1 72 3 73
REMARK H PARENT 31 24 18 32 20 34 33 36 35 38 37 40 40 44 7 46 44 49 46 52
REMARK H PARENT 48 56 58 68 4 71
REMARK Flexibility Score: inf
ROOT
ATOM      1  C   UNL     1      26.984  37.292  11.615  1.00  0.00     0.272 C 
ATOM      2  C   UNL     1      26.493  35.911  11.909  1.00  0.00     0.113 C 
ATOM      3  C   UNL     1      25.045  35.784  11.523  1.00  0.00     0.145 C 
ATOM      4  C   UNL     1      24.971  36.164  10.044  1.00  0.00     0.142 C 
ATOM      5  C   UNL     1      25.336  37.642   9.972  1.00  0.00     0.178 C 
ATOM      6  O   UNL     1      26.705  37.656  10.331  1.00  0.00    -0.332 OA
ENDROOT
BRANCH   1   7
ATOM      7  O   UNL     1      28.384  37.381  11.788  1.00  0.00    -0.338 OA
BRANCH   7   8
ATOM      8  C   UNL     1      29.009  36.232  12.146  1.00  0.00     0.199 C 
BRANCH   8   9
ATOM      9  C   UNL     1      29.919  36.454  13.365  1.00  0.00     0.179 C 
ATOM     10  C   UNL     1      30.989  35.341  15.097  1.00  0.00     0.282 C 
ATOM     11  O   UNL     1      30.040  35.280  14.077  1.00  0.00    -0.341 OA
ATOM     12  C   UNL     1      32.379  35.579  14.569  1.00  0.00     0.202 C 
ATOM     13  C   UNL     1      32.408  36.195  13.193  1.00  0.00     0.179 C 
ATOM     14  C   UNL     1      31.218  37.095  13.015  1.00  0.00     0.177 C 
BRANCH  10  15
ATOM     15  O   UNL     1      30.950  34.154  15.723  1.00  0.00    -0.341 OA
BRANCH  15  16
ATOM     16  C   UNL     1      29.792  33.509  15.934  1.00  0.00     0.184 C 
ATOM     17  C   UNL     1      28.972  33.735  17.124  1.00  0.00     0.178 C 
ATOM     18  O   UNL     1      28.360  32.561  17.527  1.00  0.00    -0.341 OA
ATOM     19  C   UNL     1      27.842  31.750  16.570  1.00  0.00     0.281 C 
ATOM     20  C   UNL     1      30.174  32.005  15.943  1.00  0.00     0.180 C 
ATOM     21  C   UNL     1      28.899  31.290  15.553  1.00  0.00     0.202 C 
BRANCH  17  22
ATOM     22  C   UNL     1      27.872  34.773  16.919  1.00  0.00     0.191 C 
BRANCH  22  23
ATOM     23  O   UNL     1      26.861  34.652  17.873  1.00  0.00    -0.394 OA
ATOM     24  H   UNL     1      26.723  33.703  18.053  1.00  0.00     0.210 HD
ENDBRANCH  22  23
ENDBRANCH  17  22
BRANCH  19  25
ATOM     25  O   UNL     1      26.698  32.167  15.950  1.00  0.00    -0.350 OA
BRANCH  25  26
ATOM     26  C   UNL     1      25.525  31.618  16.372  1.00  0.00     0.169 C 
BRANCH  26  27
ATOM     27  C   UNL     1      25.298  30.279  15.754  1.00  0.00     0.119 C 
BRANCH  27  28
ATOM     28  N   UNL     1      25.211  29.266  16.819  1.00  0.00    -0.092 NA
ATOM     29  N   UNL     1      26.239  28.580  16.969  1.00  0.00     0.001 N 
ATOM     30  N   UNL     1      27.282  28.263  17.569  1.00  0.00    -0.003 NA
ENDBRANCH  27  28
ENDBRANCH  26  27
ENDBRANCH  25  26
ENDBRANCH  19  25
BRANCH  20  31
ATOM     31  O   UNL     1      31.218  31.759  15.091  1.00  0.00    -0.387 OA
ATOM     32  H   UNL     1      32.056  31.525  15.566  1.00  0.00     0.211 HD
ENDBRANCH  20  31
BRANCH  21  33
ATOM     33  O   UNL     1      29.078  29.933  15.530  1.00  0.00    -0.385 OA
ATOM     34  H   UNL     1      29.701  29.638  14.821  1.00  0.00     0.211 HD
ENDBRANCH  21  33
ENDBRANCH  15  16
ENDBRANCH  10  15
BRANCH  12  35
ATOM     35  O   UNL     1      33.000  36.513  15.414  1.00  0.00    -0.385 OA
ATOM     36  H   UNL     1      33.602  37.121  14.942  1.00  0.00     0.211 HD
ENDBRANCH  12  35
BRANCH  13  37
ATOM     37  O   UNL     1      32.499  35.205  12.249  1.00  0.00    -0.387 OA
ATOM     38  H   UNL     1      32.232  34.305  12.619  1.00  0.00     0.211 HD
ENDBRANCH  13  37
BRANCH  14  39
ATOM     39  O   UNL     1      31.163  37.438  11.646  1.00  0.00    -0.387 OA
ATOM     40  H   UNL     1      30.470  38.126  11.484  1.00  0.00     0.211 HD
ENDBRANCH  14  39
ENDBRANCH   8   9
ENDBRANCH   7   8
ENDBRANCH   1   7
BRANCH   1  41
ATOM     41  C   UNL     1      26.437  38.217  12.630  1.00  0.00     0.364 C 
ATOM     42  O   UNL     1      26.302  39.439  12.431  1.00  0.00    -0.246 OA
BRANCH  41  43
ATOM     43  O   UNL     1      26.043  37.750  13.872  1.00  0.00    -0.477 OA
ATOM     44  H   UNL     1      26.511  36.958  14.346  1.00  0.00     0.296 HD
ENDBRANCH  41  43
ENDBRANCH   1  41
BRANCH   3  45
ATOM     45  O   UNL     1      24.627  34.438  11.602  1.00  0.00    -0.391 OA
ATOM     46  H   UNL     1      24.946  33.956  10.791  1.00  0.00     0.211 HD
ENDBRANCH   3  45
BRANCH   5  47
ATOM     47  C   UNL     1      25.322  38.077   8.542  1.00  0.00     0.176 C 
BRANCH  47  48
ATOM     48  O   UNL     1      25.812  37.084   7.693  1.00  0.00    -0.388 OA
ATOM     49  H   UNL     1      25.083  36.525   7.314  1.00  0.00     0.211 HD
ENDBRANCH  47  48
BRANCH  47  50
ATOM     50  C   UNL     1      24.083  38.663   7.987  1.00  0.00     0.165 C 
BRANCH  50  51
ATOM     51  O   UNL     1      23.694  37.669   6.987  1.00  0.00    -0.388 OA
ATOM     52  H   UNL     1      24.048  36.796   7.273  1.00  0.00     0.211 HD
ENDBRANCH  50  51
BRANCH  50  53
ATOM     53  C   UNL     1      24.306  39.880   7.106  1.00  0.00     0.154 C 
BRANCH  53  54
ATOM     54  N   UNL     1      25.487  39.807   6.307  1.00  0.00    -0.319 N 
ATOM     55  C   UNL     1      25.741  40.768   5.296  1.00  0.00     0.407 C 
ATOM     56  H   UNL     1      26.199  39.033   6.436  1.00  0.00     0.167 HD
ATOM     57  O   UNL     1      24.856  41.677   5.149  1.00  0.00    -0.225 OA
BRANCH  55  58
ATOM     58  O   UNL     1      26.837  40.810   4.477  1.00  0.00    -0.443 OA
BRANCH  58  59
ATOM     59  C   UNL     1      27.492  39.602   4.139  1.00  0.00     0.294 C 
BRANCH  59  60
ATOM     60  C   UNL     1      28.224  39.013   5.264  1.00  0.00     0.120 A 
ATOM     61  C   UNL     1      29.312  39.573   5.886  1.00  0.00     0.138 A 
ATOM     62  N   UNL     1      28.002  37.853   5.902  1.00  0.00    -0.132 NA
ATOM     63  N   UNL     1      29.726  38.756   6.875  1.00  0.00    -0.250 N 
ATOM     64  N   UNL     1      28.919  37.720   6.869  1.00  0.00    -0.067 NA
BRANCH  63  65
ATOM     65  C   UNL     1      30.863  39.006   7.771  1.00  0.00     0.174 C 
BRANCH  65  66
ATOM     66  C   UNL     1      30.343  39.684   9.014  1.00  0.00     0.179 C 
BRANCH  66  67
ATOM     67  O   UNL     1      29.413  38.814   9.608  1.00  0.00    -0.394 OA
ATOM     68  H   UNL     1      28.878  39.236  10.303  1.00  0.00     0.210 HD
ENDBRANCH  66  67
ENDBRANCH  65  66
ENDBRANCH  63  65
ENDBRANCH  59  60
ENDBRANCH  58  59
ENDBRANCH  55  58
ENDBRANCH  53  54
ENDBRANCH  50  53
ENDBRANCH  47  50
ENDBRANCH   5  47
BRANCH   4  69
ATOM     69  N   UNL     1      23.767  35.776   9.422  1.00  0.00    -0.348 N 
ATOM     70  C   UNL     1      22.466  36.052   9.903  1.00  0.00     0.217 C 
ATOM     71  H   UNL     1      23.804  35.251   8.511  1.00  0.00     0.163 HD
ATOM     72  C   UNL     1      21.289  35.578   9.146  1.00  0.00     0.114 C 
ATOM     73  O   UNL     1      22.296  36.685  10.956  1.00  0.00    -0.275 OA
ENDBRANCH   4  69
TORSDOF 32
BEGIN_RES LYS A 131
REMARK  4 active torsions:
REMARK  status: ('A' for Active; 'I' for Inactive)
REMARK    1  A    between atoms: CA   and  CB  
REMARK    2  A    between atoms: CB   and  CG  
REMARK    3  A    between atoms: CG   and  CD  
REMARK    4  A    between atoms: CD   and  CE  
ROOT
ATOM      1  CA  LYS A 131      29.867  25.555  16.977  1.00 20.52     0.186 C 
ENDROOT
BRANCH   1   2
ATOM      2  CB  LYS A 131      28.345  25.722  17.026  1.00 20.94     0.034 C 
BRANCH   2   3
ATOM      3  CG  LYS A 131      27.601  24.403  16.882  1.00 22.96     0.005 C 
BRANCH   3   4
ATOM      4  CD  LYS A 131      26.181  24.499  17.366  1.00 24.33     0.041 C 
BRANCH   4   5
ATOM      5  CE  LYS A 131      25.621  23.096  17.581  1.00 26.91     0.338 C 
ATOM      6  NZ  LYS A 131      25.167  22.928  18.982  1.00 27.40     0.618 N 
ENDBRANCH   4   5
ENDBRANCH   3   4
ENDBRANCH   2   3
ENDBRANCH   1   2
END_RES LYS A 131
BEGIN_RES LYS A 135
REMARK  4 active torsions:
REMARK  status: ('A' for Active; 'I' for Inactive)
REMARK    5  A    between atoms: CA   and  CB  
REMARK    6  A    between atoms: CB   and  CG  
REMARK    7  A    between atoms: CG   and  CD  
REMARK    8  A    between atoms: CD   and  CE  
ROOT
ATOM      7  CA  LYS A 135      33.193  34.663   9.290  1.00 25.02     0.186 C 
ENDROOT
BRANCH   7   8
ATOM      8  CB  LYS A 135      32.060  35.360  10.034  1.00 26.63     0.034 C 
BRANCH   8   9
ATOM      9  CG  LYS A 135      30.824  35.563   9.196  1.00 29.45     0.005 C 
BRANCH   9  10
ATOM     10  CD  LYS A 135      30.157  34.230   8.892  1.00 32.00     0.041 C 
BRANCH  10  11
ATOM     11  CE  LYS A 135      28.692  34.432   8.558  1.00 34.25     0.338 C 
ATOM     12  NZ  LYS A 135      27.818  33.709   9.524  1.00 35.99     0.618 N 
ENDBRANCH  10  11
ENDBRANCH   9  10
ENDBRANCH   8   9
ENDBRANCH   7   8
END_RES LYS A 135
