REMARK VINA RESULT:    -4.280      4.599      9.509
REMARK INTER + INTRA:         -23.032
REMARK INTER:                 -11.824
REMARK INTRA:                 -11.209
REMARK UNBOUND:               -12.122
REMARK SMILES CC(=O)N[C@@H]1[C@@H](O)C[C@](OC[C@H]2O[C@@H](O[C@H]3[C@H](O)[C@@H](O)[C@H](OCCN=[N+]=[N-])O[C@@H]3CO)[C@H](O)[C@@H](O)[C@H]2O)(C(=O)O)O[C@H]1C(O)[C@H](O)CNC(=O)OCc1cn(-c2ccc(O)c([N+](=O)[O-])c2)nn1
REMARK SMILES IDX 9 1 8 2 6 3 5 4 42 5 41 6 10 7 11 8 12 9 14 10 13 11 32 12
REMARK SMILES IDX 34 13 36 14 15 15 16 16 29 17 28 18 21 19 17 20 19 21 30 22
REMARK SMILES IDX 31 23 22 25 23 26 24 27 25 28 26 29 27 30 18 31 20 33 33 35
REMARK SMILES IDX 35 37 37 39 38 41 39 42 40 43 7 45 43 47 44 48 45 50 46 51
REMARK SMILES IDX 47 53 48 54 49 55 50 57 51 58 52 59 53 60 54 61 67 62 55 63
REMARK SMILES IDX 66 64 56 65 57 66 65 67 58 68 61 69 59 70 62 71 63 72 64 73
REMARK SMILES IDX 60 74 4 76 2 77 1 79 3 80
REMARK H PARENT 31 24 18 32 20 34 33 36 35 38 37 40 40 44 7 46 44 49 46 52
REMARK H PARENT 48 56 60 75 4 78
REMARK Flexibility Score: inf
ROOT
ATOM      1  C   UNL     1      26.368  39.594   8.756  1.00  0.00     0.272 C 
ATOM      2  C   UNL     1      25.695  40.802   8.076  1.00  0.00     0.113 C 
ATOM      3  C   UNL     1      25.048  40.337   6.776  1.00  0.00     0.145 C 
ATOM      4  C   UNL     1      26.250  39.978   5.864  1.00  0.00     0.142 C 
ATOM      5  C   UNL     1      27.291  39.253   6.670  1.00  0.00     0.178 C 
ATOM      6  O   UNL     1      26.717  38.657   7.808  1.00  0.00    -0.332 OA
ENDROOT
BRANCH   1   7
ATOM      7  O   UNL     1      25.389  39.068   9.579  1.00  0.00    -0.338 OA
BRANCH   7   8
ATOM      8  C   UNL     1      25.381  39.492  10.874  1.00  0.00     0.199 C 
BRANCH   8   9
ATOM      9  C   UNL     1      25.132  38.222  11.723  1.00  0.00     0.179 C 
ATOM     10  C   UNL     1      24.793  36.015  11.324  1.00  0.00     0.282 C 
ATOM     11  O   UNL     1      24.599  37.317  10.856  1.00  0.00    -0.341 OA
ATOM     12  C   UNL     1      26.237  35.699  11.143  1.00  0.00     0.202 C 
ATOM     13  C   UNL     1      27.055  36.609  12.023  1.00  0.00     0.179 C 
ATOM     14  C   UNL     1      26.383  37.868  12.424  1.00  0.00     0.177 C 
BRANCH  10  15
ATOM     15  O   UNL     1      23.929  35.140  10.651  1.00  0.00    -0.341 OA
BRANCH  15  16
ATOM     16  C   UNL     1      22.928  35.884  10.057  1.00  0.00     0.184 C 
ATOM     17  C   UNL     1      21.553  35.323  10.179  1.00  0.00     0.178 C 
ATOM     18  O   UNL     1      20.663  36.322   9.805  1.00  0.00    -0.341 OA
ATOM     19  C   UNL     1      20.733  36.541   8.397  1.00  0.00     0.281 C 
ATOM     20  C   UNL     1      23.190  35.967   8.530  1.00  0.00     0.180 C 
ATOM     21  C   UNL     1      22.112  36.897   7.982  1.00  0.00     0.202 C 
BRANCH  17  22
ATOM     22  C   UNL     1      21.180  34.795  11.523  1.00  0.00     0.191 C 
BRANCH  22  23
ATOM     23  O   UNL     1      21.706  33.531  11.729  1.00  0.00    -0.394 OA
ATOM     24  H   UNL     1      22.065  33.207  10.843  1.00  0.00     0.210 HD
ENDBRANCH  22  23
ENDBRANCH  17  22
BRANCH  19  25
ATOM     25  O   UNL     1      19.872  37.614   8.200  1.00  0.00    -0.350 OA
BRANCH  25  26
ATOM     26  C   UNL     1      20.296  38.787   8.795  1.00  0.00     0.169 C 
BRANCH  26  27
ATOM     27  C   UNL     1      19.167  39.521   9.449  1.00  0.00     0.119 C 
BRANCH  27  28
ATOM     28  N   UNL     1      19.117  40.871   8.892  1.00  0.00    -0.092 NA
ATOM     29  N   UNL     1      19.005  41.016   7.654  1.00  0.00     0.001 N 
ATOM     30  N   UNL     1      18.481  41.347   6.575  1.00  0.00    -0.003 NA
ENDBRANCH  27  28
ENDBRANCH  26  27
ENDBRANCH  25  26
ENDBRANCH  19  25
BRANCH  20  31
ATOM     31  O   UNL     1      24.417  36.558   8.272  1.00  0.00    -0.387 OA
ATOM     32  H   UNL     1      24.404  37.105   7.439  1.00  0.00     0.211 HD
ENDBRANCH  20  31
BRANCH  21  33
ATOM     33  O   UNL     1      22.235  36.812   6.597  1.00  0.00    -0.385 OA
ATOM     34  H   UNL     1      21.806  36.009   6.244  1.00  0.00     0.211 HD
ENDBRANCH  21  33
ENDBRANCH  15  16
ENDBRANCH  10  15
BRANCH  12  35
ATOM     35  O   UNL     1      26.551  34.371  11.412  1.00  0.00    -0.385 OA
ATOM     36  H   UNL     1      26.966  34.276  12.317  1.00  0.00     0.211 HD
ENDBRANCH  12  35
BRANCH  13  37
ATOM     37  O   UNL     1      28.287  36.789  11.385  1.00  0.00    -0.387 OA
ATOM     38  H   UNL     1      28.318  36.140  10.631  1.00  0.00     0.211 HD
ENDBRANCH  13  37
BRANCH  14  39
ATOM     39  O   UNL     1      27.336  38.908  12.375  1.00  0.00    -0.387 OA
ATOM     40  H   UNL     1      27.068  39.690  12.901  1.00  0.00     0.211 HD
ENDBRANCH  14  39
ENDBRANCH   8   9
ENDBRANCH   7   8
ENDBRANCH   1   7
BRANCH   1  41
ATOM     41  C   UNL     1      27.451  40.146   9.562  1.00  0.00     0.364 C 
ATOM     42  O   UNL     1      27.479  41.295  10.079  1.00  0.00    -0.246 OA
BRANCH  41  43
ATOM     43  O   UNL     1      28.579  39.363   9.813  1.00  0.00    -0.477 OA
ATOM     44  H   UNL     1      29.494  39.580   9.432  1.00  0.00     0.296 HD
ENDBRANCH  41  43
ENDBRANCH   1  41
BRANCH   3  45
ATOM     45  O   UNL     1      24.249  39.242   6.971  1.00  0.00    -0.391 OA
ATOM     46  H   UNL     1      24.245  39.007   7.930  1.00  0.00     0.211 HD
ENDBRANCH   3  45
BRANCH   5  47
ATOM     47  C   UNL     1      27.864  38.125   5.848  1.00  0.00     0.176 C 
BRANCH  47  48
ATOM     48  O   UNL     1      27.406  38.264   4.547  1.00  0.00    -0.388 OA
ATOM     49  H   UNL     1      27.134  39.191   4.334  1.00  0.00     0.211 HD
ENDBRANCH  47  48
BRANCH  47  50
ATOM     50  C   UNL     1      29.371  38.070   5.836  1.00  0.00     0.165 C 
BRANCH  50  51
ATOM     51  O   UNL     1      29.725  37.847   7.193  1.00  0.00    -0.388 OA
ATOM     52  H   UNL     1      30.136  36.945   7.311  1.00  0.00     0.211 HD
ENDBRANCH  50  51
BRANCH  50  53
ATOM     53  C   UNL     1      29.976  39.394   5.464  1.00  0.00     0.154 C 
BRANCH  53  54
ATOM     54  N   UNL     1      30.613  39.990   6.608  1.00  0.00    -0.319 N 
ATOM     55  C   UNL     1      30.296  41.244   7.169  1.00  0.00     0.407 C 
ATOM     56  H   UNL     1      31.399  39.457   7.094  1.00  0.00     0.167 HD
ATOM     57  O   UNL     1      29.394  41.901   6.632  1.00  0.00    -0.225 OA
BRANCH  55  58
ATOM     58  O   UNL     1      30.915  41.789   8.269  1.00  0.00    -0.443 OA
BRANCH  58  59
ATOM     59  C   UNL     1      32.141  41.285   8.735  1.00  0.00     0.294 C 
BRANCH  59  60
ATOM     60  C   UNL     1      31.868  40.019   9.479  1.00  0.00     0.121 A 
ATOM     61  C   UNL     1      31.799  39.885  10.868  1.00  0.00     0.144 A 
ATOM     62  N   UNL     1      31.645  38.776   9.033  1.00  0.00    -0.131 NA
ATOM     63  N   UNL     1      31.548  38.615  11.166  1.00  0.00    -0.220 N 
ATOM     64  N   UNL     1      31.460  37.966  10.014  1.00  0.00    -0.062 NA
BRANCH  63  65
ATOM     65  C   UNL     1      31.407  38.051  12.481  1.00  0.00     0.073 A 
ATOM     66  C   UNL     1      30.730  38.714  13.459  1.00  0.00     0.033 A 
ATOM     67  C   UNL     1      31.942  36.833  12.800  1.00  0.00     0.118 A 
ATOM     68  C   UNL     1      30.565  38.216  14.730  1.00  0.00     0.056 A 
ATOM     69  C   UNL     1      31.790  36.296  14.095  1.00  0.00     0.312 A 
ATOM     70  C   UNL     1      31.108  36.959  15.080  1.00  0.00     0.194 A 
BRANCH  69  71
ATOM     71  N   UNL     1      32.367  35.037  14.334  1.00  0.00     0.066 N 
ATOM     72  O   UNL     1      31.581  34.085  14.633  1.00  0.00    -0.258 OA
ATOM     73  O   UNL     1      33.707  34.833  14.258  1.00  0.00    -0.258 OA
ENDBRANCH  69  71
BRANCH  70  74
ATOM     74  O   UNL     1      30.911  36.503  16.372  1.00  0.00    -0.502 OA
ATOM     75  H   UNL     1      30.102  36.056  16.665  1.00  0.00     0.293 HD
ENDBRANCH  70  74
ENDBRANCH  63  65
ENDBRANCH  59  60
ENDBRANCH  58  59
ENDBRANCH  55  58
ENDBRANCH  53  54
ENDBRANCH  50  53
ENDBRANCH  47  50
ENDBRANCH   5  47
BRANCH   4  76
ATOM     76  N   UNL     1      26.716  41.260   5.375  1.00  0.00    -0.348 N 
ATOM     77  C   UNL     1      26.888  41.504   3.973  1.00  0.00     0.217 C 
ATOM     78  H   UNL     1      26.937  42.035   6.026  1.00  0.00     0.163 HD
ATOM     79  C   UNL     1      27.366  42.823   3.495  1.00  0.00     0.114 C 
ATOM     80  O   UNL     1      26.621  40.568   3.161  1.00  0.00    -0.275 OA
ENDBRANCH   4  76
TORSDOF 32
BEGIN_RES LYS A 131
REMARK  4 active torsions:
REMARK  status: ('A' for Active; 'I' for Inactive)
REMARK    1  A    between atoms: CA   and  CB  
REMARK    2  A    between atoms: CB   and  CG  
REMARK    3  A    between atoms: CG   and  CD  
REMARK    4  A    between atoms: CD   and  CE  
ROOT
ATOM      1  CA  LYS A 131      29.867  25.555  16.977  1.00 20.52     0.186 C 
ENDROOT
BRANCH   1   2
ATOM      2  CB  LYS A 131      28.345  25.722  17.026  1.00 20.94     0.034 C 
BRANCH   2   3
ATOM      3  CG  LYS A 131      27.601  24.401  16.906  1.00 22.96     0.005 C 
BRANCH   3   4
ATOM      4  CD  LYS A 131      26.158  24.524  17.310  1.00 24.33     0.041 C 
BRANCH   4   5
ATOM      5  CE  LYS A 131      25.769  23.332  18.179  1.00 26.91     0.338 C 
ATOM      6  NZ  LYS A 131      24.753  22.499  17.492  1.00 27.40     0.618 N 
ENDBRANCH   4   5
ENDBRANCH   3   4
ENDBRANCH   2   3
ENDBRANCH   1   2
END_RES LYS A 131
BEGIN_RES LYS A 135
REMARK  4 active torsions:
REMARK  status: ('A' for Active; 'I' for Inactive)
REMARK    5  A    between atoms: CA   and  CB  
REMARK    6  A    between atoms: CB   and  CG  
REMARK    7  A    between atoms: CG   and  CD  
REMARK    8  A    between atoms: CD   and  CE  
ROOT
ATOM      7  CA  LYS A 135      33.193  34.663   9.290  1.00 25.02     0.186 C 
ENDROOT
BRANCH   7   8
ATOM      8  CB  LYS A 135      32.060  35.360  10.034  1.00 26.63     0.034 C 
BRANCH   8   9
ATOM      9  CG  LYS A 135      30.773  34.576  10.043  1.00 29.45     0.005 C 
BRANCH   9  10
ATOM     10  CD  LYS A 135      30.180  34.503   8.645  1.00 32.00     0.041 C 
BRANCH  10  11
ATOM     11  CE  LYS A 135      28.708  34.141   8.709  1.00 34.25     0.338 C 
ATOM     12  NZ  LYS A 135      27.878  35.138   7.977  1.00 35.99     0.618 N 
ENDBRANCH  10  11
ENDBRANCH   9  10
ENDBRANCH   8   9
ENDBRANCH   7   8
END_RES LYS A 135
