REMARK VINA RESULT:    -3.822      5.108     10.372
REMARK INTER + INTRA:         -23.178
REMARK INTER:                 -11.019
REMARK INTRA:                 -12.158
REMARK UNBOUND:               -13.100
REMARK SMILES CC(=O)N[C@@H]1[C@@H](O)C[C@](OC[C@H]2O[C@@H](O[C@H]3[C@H](O)[C@@H](O)[C@H](OCCN=[N+]=[N-])O[C@@H]3CO)[C@H](O)[C@@H](O)[C@H]2O)(C(=O)O)O[C@H]1C(O)[C@H](O)CNC(=O)OCc1cn(CCNS(C)(=O)=O)nn1
REMARK SMILES IDX 43 1 42 2 9 3 8 4 41 5 6 6 5 7 10 8 11 9 12 10 14 11 13 12
REMARK SMILES IDX 32 13 34 14 36 15 15 16 16 17 29 18 28 19 21 20 17 21 19 22
REMARK SMILES IDX 30 23 31 24 22 26 23 27 24 28 25 29 26 30 27 31 18 32 20 34
REMARK SMILES IDX 33 36 35 38 37 40 38 42 39 43 40 44 7 46 4 48 2 49 1 51 3 52
REMARK SMILES IDX 44 53 45 55 46 56 47 58 48 59 49 60 50 62 51 63 52 64 53 65
REMARK SMILES IDX 54 66 64 67 55 68 63 69 56 70 57 71 58 72 59 74 61 75 62 76
REMARK SMILES IDX 60 77
REMARK H PARENT 31 25 18 33 20 35 33 37 35 39 37 41 40 45 7 47 4 50 44 54
REMARK H PARENT 46 57 48 61 58 73
REMARK Flexibility Score: inf
ROOT
ATOM      1  C   UNL     1      29.841  33.949  14.254  1.00  0.00     0.176 C 
ENDROOT
BRANCH   1   2
ATOM      2  C   UNL     1      30.002  35.471  14.080  1.00  0.00     0.178 C 
ATOM      3  C   UNL     1      29.488  37.074  12.452  1.00  0.00     0.272 C 
ATOM      4  C   UNL     1      30.892  37.453  12.195  1.00  0.00     0.113 C 
ATOM      5  O   UNL     1      29.373  35.771  12.920  1.00  0.00    -0.332 OA
ATOM      6  C   UNL     1      31.925  36.668  12.956  1.00  0.00     0.145 C 
ATOM      7  C   UNL     1      31.435  35.835  14.090  1.00  0.00     0.142 C 
BRANCH   3   8
ATOM      8  O   UNL     1      28.629  37.115  11.350  1.00  0.00    -0.338 OA
BRANCH   8   9
ATOM      9  C   UNL     1      28.921  38.154  10.483  1.00  0.00     0.199 C 
BRANCH   9  10
ATOM     10  C   UNL     1      28.569  37.776   9.086  1.00  0.00     0.179 C 
ATOM     11  C   UNL     1      26.864  37.419   7.575  1.00  0.00     0.282 C 
ATOM     12  O   UNL     1      27.230  37.985   8.808  1.00  0.00    -0.341 OA
ATOM     13  C   UNL     1      27.587  38.057   6.440  1.00  0.00     0.202 C 
ATOM     14  C   UNL     1      29.063  37.792   6.644  1.00  0.00     0.179 C 
ATOM     15  C   UNL     1      29.483  38.241   8.002  1.00  0.00     0.177 C 
BRANCH  11  16
ATOM     16  O   UNL     1      25.512  37.550   7.465  1.00  0.00    -0.341 OA
BRANCH  16  17
ATOM     17  C   UNL     1      24.801  37.485   8.614  1.00  0.00     0.184 C 
ATOM     18  C   UNL     1      24.173  36.218   9.041  1.00  0.00     0.178 C 
ATOM     19  O   UNL     1      23.086  36.520   9.862  1.00  0.00    -0.341 OA
ATOM     20  C   UNL     1      22.011  36.978   9.155  1.00  0.00     0.281 C 
ATOM     21  C   UNL     1      23.724  38.603   8.671  1.00  0.00     0.180 C 
ATOM     22  C   UNL     1      22.490  37.944   8.091  1.00  0.00     0.202 C 
BRANCH  18  23
ATOM     23  C   UNL     1      25.118  35.429   9.940  1.00  0.00     0.191 C 
BRANCH  23  24
ATOM     24  O   UNL     1      25.790  36.314  10.815  1.00  0.00    -0.394 OA
ATOM     25  H   UNL     1      26.714  36.479  10.525  1.00  0.00     0.210 HD
ENDBRANCH  23  24
ENDBRANCH  18  23
BRANCH  20  26
ATOM     26  O   UNL     1      21.060  37.579   9.993  1.00  0.00    -0.350 OA
BRANCH  26  27
ATOM     27  C   UNL     1      20.001  36.771  10.320  1.00  0.00     0.169 C 
BRANCH  27  28
ATOM     28  C   UNL     1      19.735  35.849   9.173  1.00  0.00     0.119 C 
BRANCH  28  29
ATOM     29  N   UNL     1      19.182  34.574   9.610  1.00  0.00    -0.092 NA
ATOM     30  N   UNL     1      19.565  34.195  10.731  1.00  0.00     0.001 N 
ATOM     31  N   UNL     1      19.801  33.544  11.743  1.00  0.00    -0.003 NA
ENDBRANCH  28  29
ENDBRANCH  27  28
ENDBRANCH  26  27
ENDBRANCH  20  26
BRANCH  21  32
ATOM     32  O   UNL     1      23.447  38.923  10.003  1.00  0.00    -0.387 OA
ATOM     33  H   UNL     1      22.464  38.897  10.142  1.00  0.00     0.211 HD
ENDBRANCH  21  32
BRANCH  22  34
ATOM     34  O   UNL     1      22.698  37.336   6.874  1.00  0.00    -0.385 OA
ATOM     35  H   UNL     1      23.562  36.856   6.802  1.00  0.00     0.211 HD
ENDBRANCH  22  34
ENDBRANCH  16  17
ENDBRANCH  11  16
BRANCH  13  36
ATOM     36  O   UNL     1      27.267  37.433   5.225  1.00  0.00    -0.385 OA
ATOM     37  H   UNL     1      27.814  37.780   4.474  1.00  0.00     0.211 HD
ENDBRANCH  13  36
BRANCH  14  38
ATOM     38  O   UNL     1      29.828  38.278   5.612  1.00  0.00    -0.387 OA
ATOM     39  H   UNL     1      30.178  37.543   5.017  1.00  0.00     0.211 HD
ENDBRANCH  14  38
BRANCH  15  40
ATOM     40  O   UNL     1      29.516  39.632   8.020  1.00  0.00    -0.387 OA
ATOM     41  H   UNL     1      30.296  40.008   7.537  1.00  0.00     0.211 HD
ENDBRANCH  15  40
ENDBRANCH   9  10
ENDBRANCH   8   9
ENDBRANCH   3   8
BRANCH   3  42
ATOM     42  C   UNL     1      28.859  37.986  13.437  1.00  0.00     0.364 C 
ATOM     43  O   UNL     1      29.536  38.858  14.076  1.00  0.00    -0.246 OA
BRANCH  42  44
ATOM     44  O   UNL     1      27.515  37.982  13.751  1.00  0.00    -0.477 OA
ATOM     45  H   UNL     1      27.148  37.649  14.639  1.00  0.00     0.296 HD
ENDBRANCH  42  44
ENDBRANCH   3  42
BRANCH   6  46
ATOM     46  O   UNL     1      32.691  35.889  12.101  1.00  0.00    -0.391 OA
ATOM     47  H   UNL     1      33.583  36.235  11.897  1.00  0.00     0.211 HD
ENDBRANCH   6  46
BRANCH   7  48
ATOM     48  N   UNL     1      31.755  36.546  15.339  1.00  0.00    -0.348 N 
ATOM     49  C   UNL     1      32.163  35.960  16.541  1.00  0.00     0.217 C 
ATOM     50  H   UNL     1      31.708  37.626  15.338  1.00  0.00     0.163 HD
ATOM     51  C   UNL     1      32.449  36.796  17.760  1.00  0.00     0.114 C 
ATOM     52  O   UNL     1      32.305  34.713  16.661  1.00  0.00    -0.275 OA
ENDBRANCH   7  48
ENDBRANCH   1   2
BRANCH   1  53
ATOM     53  O   UNL     1      31.121  33.369  14.297  1.00  0.00    -0.388 OA
ATOM     54  H   UNL     1      31.218  32.957  15.175  1.00  0.00     0.211 HD
ENDBRANCH   1  53
BRANCH   1  55
ATOM     55  C   UNL     1      29.147  33.649  15.531  1.00  0.00     0.165 C 
BRANCH  55  56
ATOM     56  O   UNL     1      29.808  32.811  16.395  1.00  0.00    -0.388 OA
ATOM     57  H   UNL     1      29.362  32.721  17.279  1.00  0.00     0.211 HD
ENDBRANCH  55  56
BRANCH  55  58
ATOM     58  C   UNL     1      27.700  33.283  15.412  1.00  0.00     0.154 C 
BRANCH  58  59
ATOM     59  N   UNL     1      26.990  34.153  14.514  1.00  0.00    -0.319 N 
ATOM     60  C   UNL     1      25.736  33.676  13.972  1.00  0.00     0.407 C 
ATOM     61  H   UNL     1      27.315  35.091  14.230  1.00  0.00     0.167 HD
ATOM     62  O   UNL     1      25.353  32.540  14.352  1.00  0.00    -0.225 OA
BRANCH  60  63
ATOM     63  O   UNL     1      25.016  34.438  13.088  1.00  0.00    -0.443 OA
BRANCH  63  64
ATOM     64  C   UNL     1      23.781  34.996  13.472  1.00  0.00     0.294 C 
BRANCH  64  65
ATOM     65  C   UNL     1      23.944  36.397  13.901  1.00  0.00     0.120 A 
ATOM     66  C   UNL     1      23.060  37.445  13.703  1.00  0.00     0.138 A 
ATOM     67  N   UNL     1      24.952  36.913  14.589  1.00  0.00    -0.132 NA
ATOM     68  N   UNL     1      23.546  38.551  14.268  1.00  0.00    -0.251 N 
ATOM     69  N   UNL     1      24.716  38.212  14.811  1.00  0.00    -0.067 NA
BRANCH  68  70
ATOM     70  C   UNL     1      22.925  39.866  14.278  1.00  0.00     0.162 C 
BRANCH  70  71
ATOM     71  C   UNL     1      23.484  40.707  13.132  1.00  0.00     0.122 C 
BRANCH  71  72
ATOM     72  N   UNL     1      24.886  40.951  13.315  1.00  0.00    -0.214 NA
ATOM     73  H   UNL     1      25.242  40.332  14.092  1.00  0.00     0.141 HD
BRANCH  72  74
ATOM     74  S   UNL     1      25.820  40.583  11.918  1.00  0.00     0.208 S 
ATOM     75  O   UNL     1      25.822  39.082  11.676  1.00  0.00    -0.213 OA
ATOM     76  O   UNL     1      25.121  41.254  10.752  1.00  0.00    -0.213 OA
ATOM     77  C   UNL     1      27.469  41.196  12.075  1.00  0.00     0.176 C 
ENDBRANCH  72  74
ENDBRANCH  71  72
ENDBRANCH  70  71
ENDBRANCH  68  70
ENDBRANCH  64  65
ENDBRANCH  63  64
ENDBRANCH  60  63
ENDBRANCH  58  59
ENDBRANCH  55  58
ENDBRANCH   1  55
TORSDOF 33
BEGIN_RES LYS A 131
REMARK  4 active torsions:
REMARK  status: ('A' for Active; 'I' for Inactive)
REMARK    1  A    between atoms: CA   and  CB  
REMARK    2  A    between atoms: CB   and  CG  
REMARK    3  A    between atoms: CG   and  CD  
REMARK    4  A    between atoms: CD   and  CE  
ROOT
ATOM      1  CA  LYS A 131      29.867  25.555  16.977  1.00 20.52     0.186 C 
ENDROOT
BRANCH   1   2
ATOM      2  CB  LYS A 131      28.345  25.722  17.026  1.00 20.94     0.034 C 
BRANCH   2   3
ATOM      3  CG  LYS A 131      27.601  24.402  16.892  1.00 22.96     0.005 C 
BRANCH   3   4
ATOM      4  CD  LYS A 131      26.682  24.149  18.054  1.00 24.33     0.041 C 
BRANCH   4   5
ATOM      5  CE  LYS A 131      25.878  25.410  18.351  1.00 26.91     0.338 C 
ATOM      6  NZ  LYS A 131      25.831  25.664  19.811  1.00 27.40     0.618 N 
ENDBRANCH   4   5
ENDBRANCH   3   4
ENDBRANCH   2   3
ENDBRANCH   1   2
END_RES LYS A 131
BEGIN_RES LYS A 135
REMARK  4 active torsions:
REMARK  status: ('A' for Active; 'I' for Inactive)
REMARK    5  A    between atoms: CA   and  CB  
REMARK    6  A    between atoms: CB   and  CG  
REMARK    7  A    between atoms: CG   and  CD  
REMARK    8  A    between atoms: CD   and  CE  
ROOT
ATOM      7  CA  LYS A 135      33.193  34.663   9.290  1.00 25.02     0.186 C 
ENDROOT
BRANCH   7   8
ATOM      8  CB  LYS A 135      32.060  35.360  10.034  1.00 26.63     0.034 C 
BRANCH   8   9
ATOM      9  CG  LYS A 135      30.730  34.664   9.895  1.00 29.45     0.005 C 
BRANCH   9  10
ATOM     10  CD  LYS A 135      30.334  34.552   8.431  1.00 32.00     0.041 C 
BRANCH  10  11
ATOM     11  CE  LYS A 135      28.830  34.403   8.297  1.00 34.25     0.338 C 
ATOM     12  NZ  LYS A 135      28.241  33.786   9.517  1.00 35.99     0.618 N 
ENDBRANCH  10  11
ENDBRANCH   9  10
ENDBRANCH   8   9
ENDBRANCH   7   8
END_RES LYS A 135
