REMARK VINA RESULT:    -4.182      5.242      8.892
REMARK INTER + INTRA:         -22.289
REMARK INTER:                 -11.387
REMARK INTRA:                 -10.902
REMARK UNBOUND:               -11.507
REMARK SMILES COc1ccc(Cn2cc(COC(=O)NC[C@@H](O)C(O)[C@@H]3O[C@@](OC[C@H]4O[C@@H](O[C@H]5[C@H](O)[C@@H](O)[C@H](OCCN=[N+]=[N-])O[C@@H]5CO)[C@H](O)[C@@H](O)[C@H]4O)(C(=O)O)C[C@H](O)[C@H]3NC(C)=O)nn2)cc1
REMARK SMILES IDX 23 1 55 2 56 3 58 4 21 5 22 6 24 7 25 8 26 9 28 10 27 11
REMARK SMILES IDX 46 12 48 13 50 14 29 15 30 16 43 17 42 18 35 19 31 20 33 21
REMARK SMILES IDX 44 22 45 23 36 25 37 26 38 27 39 28 40 29 41 30 32 31 34 33
REMARK SMILES IDX 47 35 49 37 51 39 52 41 53 42 54 43 57 45 19 47 20 48 17 50
REMARK SMILES IDX 18 51 16 53 15 54 13 55 14 57 12 58 11 59 10 60 9 61 63 62
REMARK SMILES IDX 8 63 64 64 7 65 6 66 5 67 65 68 4 69 66 70 3 71 2 72 1 73
REMARK SMILES IDX 59 74 60 75 61 77 62 78
REMARK H PARENT 45 24 32 32 34 34 47 36 49 38 51 40 54 44 57 46 20 49 18 52
REMARK H PARENT 15 56 59 76
REMARK Flexibility Score: inf
ROOT
ATOM      1  C   UNL     1      31.806  34.714  14.598  1.00  0.00     0.272 C 
ATOM      2  C   UNL     1      31.551  35.964  15.414  1.00  0.00     0.113 C 
ATOM      3  C   UNL     1      31.682  37.189  14.530  1.00  0.00     0.145 C 
ATOM      4  C   UNL     1      30.968  37.063  13.216  1.00  0.00     0.142 C 
ATOM      5  C   UNL     1      30.343  35.695  12.999  1.00  0.00     0.178 C 
ATOM      6  O   UNL     1      31.170  34.675  13.425  1.00  0.00    -0.332 OA
ENDROOT
BRANCH   1   7
ATOM      7  O   UNL     1      31.814  33.598  15.364  1.00  0.00    -0.338 OA
BRANCH   7   8
ATOM      8  C   UNL     1      31.623  33.604  16.688  1.00  0.00     0.199 C 
BRANCH   8   9
ATOM      9  C   UNL     1      30.193  33.313  17.087  1.00  0.00     0.179 C 
ATOM     10  C   UNL     1      28.483  31.962  16.426  1.00  0.00     0.282 C 
ATOM     11  O   UNL     1      29.863  31.976  16.723  1.00  0.00    -0.341 OA
ATOM     12  C   UNL     1      27.699  32.769  17.394  1.00  0.00     0.202 C 
ATOM     13  C   UNL     1      28.384  33.157  18.661  1.00  0.00     0.179 C 
ATOM     14  C   UNL     1      29.868  33.437  18.527  1.00  0.00     0.177 C 
BRANCH  10  15
ATOM     15  O   UNL     1      28.033  30.705  16.138  1.00  0.00    -0.341 OA
BRANCH  15  16
ATOM     16  C   UNL     1      27.021  30.208  16.931  1.00  0.00     0.184 C 
ATOM     17  C   UNL     1      27.349  28.925  17.656  1.00  0.00     0.178 C 
ATOM     18  O   UNL     1      26.198  28.170  17.876  1.00  0.00    -0.341 OA
ATOM     19  C   UNL     1      25.053  28.964  18.065  1.00  0.00     0.281 C 
ATOM     20  C   UNL     1      25.917  29.776  15.946  1.00  0.00     0.180 C 
ATOM     21  C   UNL     1      24.653  29.665  16.753  1.00  0.00     0.202 C 
BRANCH  17  22
ATOM     22  C   UNL     1      28.017  29.103  18.982  1.00  0.00     0.191 C 
BRANCH  22  23
ATOM     23  O   UNL     1      29.235  29.755  18.804  1.00  0.00    -0.394 OA
ATOM     24  H   UNL     1      29.559  29.526  17.886  1.00  0.00     0.210 HD
ENDBRANCH  22  23
ENDBRANCH  17  22
BRANCH  19  25
ATOM     25  O   UNL     1      25.146  29.856  19.084  1.00  0.00    -0.350 OA
BRANCH  25  26
ATOM     26  C   UNL     1      24.252  30.879  19.163  1.00  0.00     0.169 C 
BRANCH  26  27
ATOM     27  C   UNL     1      24.722  32.173  19.712  1.00  0.00     0.119 C 
BRANCH  27  28
ATOM     28  N   UNL     1      24.530  33.289  18.853  1.00  0.00    -0.092 NA
ATOM     29  N   UNL     1      24.899  34.445  19.108  1.00  0.00     0.001 N 
ATOM     30  N   UNL     1      25.570  35.500  19.045  1.00  0.00    -0.003 NA
ENDBRANCH  27  28
ENDBRANCH  26  27
ENDBRANCH  25  26
ENDBRANCH  19  25
BRANCH  20  31
ATOM     31  O   UNL     1      25.835  30.602  14.860  1.00  0.00    -0.387 OA
ATOM     32  H   UNL     1      26.437  31.408  14.949  1.00  0.00     0.211 HD
ENDBRANCH  20  31
BRANCH  21  33
ATOM     33  O   UNL     1      23.671  28.947  16.071  1.00  0.00    -0.385 OA
ATOM     34  H   UNL     1      23.402  29.458  15.262  1.00  0.00     0.211 HD
ENDBRANCH  21  33
ENDBRANCH  15  16
ENDBRANCH  10  15
BRANCH  12  35
ATOM     35  O   UNL     1      27.120  33.912  16.786  1.00  0.00    -0.385 OA
ATOM     36  H   UNL     1      26.296  33.633  16.282  1.00  0.00     0.211 HD
ENDBRANCH  12  35
BRANCH  13  37
ATOM     37  O   UNL     1      28.137  32.224  19.696  1.00  0.00    -0.387 OA
ATOM     38  H   UNL     1      28.555  32.574  20.524  1.00  0.00     0.211 HD
ENDBRANCH  13  37
BRANCH  14  39
ATOM     39  O   UNL     1      30.624  32.596  19.338  1.00  0.00    -0.387 OA
ATOM     40  H   UNL     1      30.528  32.814  20.297  1.00  0.00     0.211 HD
ENDBRANCH  14  39
ENDBRANCH   8   9
ENDBRANCH   7   8
ENDBRANCH   1   7
BRANCH   1  41
ATOM     41  C   UNL     1      33.342  34.832  14.323  1.00  0.00     0.364 C 
ATOM     42  O   UNL     1      34.103  35.229  15.232  1.00  0.00    -0.246 OA
BRANCH  41  43
ATOM     43  O   UNL     1      33.902  34.519  13.133  1.00  0.00    -0.477 OA
ATOM     44  H   UNL     1      34.841  34.617  12.835  1.00  0.00     0.296 HD
ENDBRANCH  41  43
ENDBRANCH   1  41
BRANCH   3  45
ATOM     45  O   UNL     1      31.082  38.226  15.305  1.00  0.00    -0.391 OA
ATOM     46  H   UNL     1      30.336  38.639  14.800  1.00  0.00     0.211 HD
ENDBRANCH   3  45
BRANCH   5  47
ATOM     47  C   UNL     1      28.963  35.744  13.530  1.00  0.00     0.176 C 
BRANCH  47  48
ATOM     48  O   UNL     1      28.537  34.524  14.130  1.00  0.00    -0.388 OA
ATOM     49  H   UNL     1      28.021  34.031  13.457  1.00  0.00     0.211 HD
ENDBRANCH  47  48
BRANCH  47  50
ATOM     50  C   UNL     1      27.870  35.818  12.424  1.00  0.00     0.165 C 
BRANCH  50  51
ATOM     51  O   UNL     1      27.856  36.897  11.634  1.00  0.00    -0.388 OA
ATOM     52  H   UNL     1      27.428  36.702  10.764  1.00  0.00     0.211 HD
ENDBRANCH  50  51
BRANCH  50  53
ATOM     53  C   UNL     1      26.516  35.632  13.144  1.00  0.00     0.154 C 
BRANCH  53  54
ATOM     54  N   UNL     1      25.712  34.611  12.557  1.00  0.00    -0.319 N 
ATOM     55  C   UNL     1      25.298  33.492  13.352  1.00  0.00     0.407 C 
ATOM     56  H   UNL     1      25.422  34.654  11.575  1.00  0.00     0.167 HD
ATOM     57  O   UNL     1      25.653  33.434  14.562  1.00  0.00    -0.225 OA
BRANCH  55  58
ATOM     58  O   UNL     1      24.521  32.517  12.755  1.00  0.00    -0.443 OA
BRANCH  58  59
ATOM     59  C   UNL     1      23.133  32.395  13.123  1.00  0.00     0.294 C 
BRANCH  59  60
ATOM     60  C   UNL     1      22.808  30.956  13.211  1.00  0.00     0.120 A 
ATOM     61  C   UNL     1      21.603  30.392  13.644  1.00  0.00     0.138 A 
ATOM     62  N   UNL     1      23.599  29.921  12.908  1.00  0.00    -0.132 NA
ATOM     63  N   UNL     1      21.743  29.062  13.577  1.00  0.00    -0.248 N 
ATOM     64  N   UNL     1      22.959  28.790  13.129  1.00  0.00    -0.067 NA
BRANCH  63  65
ATOM     65  C   UNL     1      20.743  28.087  13.934  1.00  0.00     0.181 C 
BRANCH  65  66
ATOM     66  C   UNL     1      19.542  28.297  13.095  1.00  0.00    -0.026 A 
ATOM     67  C   UNL     1      18.374  28.783  13.675  1.00  0.00     0.009 A 
ATOM     68  C   UNL     1      19.524  28.049  11.748  1.00  0.00     0.009 A 
ATOM     69  C   UNL     1      17.232  29.012  12.938  1.00  0.00     0.047 A 
ATOM     70  C   UNL     1      18.364  28.282  11.001  1.00  0.00     0.047 A 
ATOM     71  C   UNL     1      17.217  28.760  11.574  1.00  0.00     0.118 A 
BRANCH  71  72
ATOM     72  O   UNL     1      16.048  29.006  10.879  1.00  0.00    -0.497 OA
ATOM     73  C   UNL     1      15.273  30.163  11.000  1.00  0.00     0.278 C 
ENDBRANCH  71  72
ENDBRANCH  65  66
ENDBRANCH  63  65
ENDBRANCH  59  60
ENDBRANCH  58  59
ENDBRANCH  55  58
ENDBRANCH  53  54
ENDBRANCH  50  53
ENDBRANCH  47  50
ENDBRANCH   5  47
BRANCH   4  74
ATOM     74  N   UNL     1      31.722  37.505  12.063  1.00  0.00    -0.348 N 
ATOM     75  C   UNL     1      31.196  38.304  11.011  1.00  0.00     0.217 C 
ATOM     76  H   UNL     1      32.708  37.218  11.973  1.00  0.00     0.163 HD
ATOM     77  C   UNL     1      32.078  38.702   9.848  1.00  0.00     0.114 C 
ATOM     78  O   UNL     1      29.999  38.676  11.049  1.00  0.00    -0.275 OA
ENDBRANCH   4  74
TORSDOF 32
BEGIN_RES LYS A 131
REMARK  4 active torsions:
REMARK  status: ('A' for Active; 'I' for Inactive)
REMARK    1  A    between atoms: CA   and  CB  
REMARK    2  A    between atoms: CB   and  CG  
REMARK    3  A    between atoms: CG   and  CD  
REMARK    4  A    between atoms: CD   and  CE  
ROOT
ATOM      1  CA  LYS A 131      29.867  25.555  16.977  1.00 20.52     0.186 C 
ENDROOT
BRANCH   1   2
ATOM      2  CB  LYS A 131      28.345  25.722  17.026  1.00 20.94     0.034 C 
BRANCH   2   3
ATOM      3  CG  LYS A 131      27.601  24.401  16.898  1.00 22.96     0.005 C 
BRANCH   3   4
ATOM      4  CD  LYS A 131      26.152  24.528  17.278  1.00 24.33     0.041 C 
BRANCH   4   5
ATOM      5  CE  LYS A 131      25.636  23.180  17.771  1.00 26.91     0.338 C 
ATOM      6  NZ  LYS A 131      25.513  23.180  19.248  1.00 27.40     0.618 N 
ENDBRANCH   4   5
ENDBRANCH   3   4
ENDBRANCH   2   3
ENDBRANCH   1   2
END_RES LYS A 131
BEGIN_RES LYS A 135
REMARK  4 active torsions:
REMARK  status: ('A' for Active; 'I' for Inactive)
REMARK    5  A    between atoms: CA   and  CB  
REMARK    6  A    between atoms: CB   and  CG  
REMARK    7  A    between atoms: CG   and  CD  
REMARK    8  A    between atoms: CD   and  CE  
ROOT
ATOM      7  CA  LYS A 135      33.193  34.663   9.290  1.00 25.02     0.186 C 
ENDROOT
BRANCH   7   8
ATOM      8  CB  LYS A 135      32.060  35.360  10.034  1.00 26.63     0.034 C 
BRANCH   8   9
ATOM      9  CG  LYS A 135      30.707  34.743   9.786  1.00 29.45     0.005 C 
BRANCH   9  10
ATOM     10  CD  LYS A 135      30.056  35.355   8.556  1.00 32.00     0.041 C 
BRANCH  10  11
ATOM     11  CE  LYS A 135      28.718  34.697   8.279  1.00 34.25     0.338 C 
ATOM     12  NZ  LYS A 135      28.292  33.845   9.424  1.00 35.99     0.618 N 
ENDBRANCH  10  11
ENDBRANCH   9  10
ENDBRANCH   8   9
ENDBRANCH   7   8
END_RES LYS A 135
