REMARK VINA RESULT:    -4.781      0.000      0.000
REMARK INTER + INTRA:         -23.635
REMARK INTER:                 -11.562
REMARK INTRA:                 -12.073
REMARK UNBOUND:               -11.308
REMARK SMILES CC(=O)N[C@@H]1[C@@H](O)C[C@](OC[C@H]2O[C@@H](O[C@H]3[C@H](O)[C@@H](O)[C@H](OCCN=[N+]=[N-])O[C@@H]3CO)[C@H](O)[C@@H](O)[C@H]2O)(C(=O)O)O[C@H]1C(O)[C@H](O)CNC(=O)OCc1cn(CCN2CCCC2)nn1
REMARK SMILES IDX 9 1 8 2 6 3 5 4 42 5 41 6 10 7 11 8 12 9 14 10 13 11 32 12
REMARK SMILES IDX 34 13 36 14 15 15 16 16 29 17 28 18 21 19 17 20 19 21 30 22
REMARK SMILES IDX 31 23 22 25 23 26 24 27 25 28 26 29 27 30 18 31 20 33 33 35
REMARK SMILES IDX 35 37 37 39 38 41 39 42 40 43 7 45 43 47 44 48 45 50 46 51
REMARK SMILES IDX 47 53 48 54 49 55 50 57 51 58 52 59 53 60 54 61 64 62 55 63
REMARK SMILES IDX 63 64 56 65 57 66 58 67 59 68 62 69 60 70 61 71 4 72 2 73
REMARK SMILES IDX 1 75 3 76
REMARK H PARENT 31 24 18 32 20 34 33 36 35 38 37 40 40 44 7 46 44 49 46 52
REMARK H PARENT 48 56 4 74
REMARK Flexibility Score: inf
ROOT
ATOM      1  C   UNL     1      27.059  38.617  12.811  1.00  0.00     0.272 C 
ATOM      2  C   UNL     1      27.155  38.739  11.322  1.00  0.00     0.113 C 
ATOM      3  C   UNL     1      27.845  37.508  10.720  1.00  0.00     0.145 C 
ATOM      4  C   UNL     1      29.299  37.545  11.269  1.00  0.00     0.142 C 
ATOM      5  C   UNL     1      29.195  37.604  12.748  1.00  0.00     0.178 C 
ATOM      6  O   UNL     1      27.864  37.530  13.172  1.00  0.00    -0.332 OA
ENDROOT
BRANCH   1   7
ATOM      7  O   UNL     1      25.787  38.211  13.220  1.00  0.00    -0.338 OA
BRANCH   7   8
ATOM      8  C   UNL     1      25.703  37.224  14.134  1.00  0.00     0.199 C 
BRANCH   8   9
ATOM      9  C   UNL     1      24.878  36.033  13.654  1.00  0.00     0.179 C 
ATOM     10  C   UNL     1      23.359  35.362  12.072  1.00  0.00     0.282 C 
ATOM     11  O   UNL     1      24.434  36.164  12.349  1.00  0.00    -0.341 OA
ATOM     12  C   UNL     1      23.512  34.032  12.728  1.00  0.00     0.202 C 
ATOM     13  C   UNL     1      24.990  33.739  12.917  1.00  0.00     0.179 C 
ATOM     14  C   UNL     1      25.635  34.736  13.860  1.00  0.00     0.177 C 
BRANCH  10  15
ATOM     15  O   UNL     1      22.977  35.322  10.764  1.00  0.00    -0.341 OA
BRANCH  15  16
ATOM     16  C   UNL     1      23.266  36.290   9.901  1.00  0.00     0.184 C 
ATOM     17  C   UNL     1      22.110  36.981   9.207  1.00  0.00     0.178 C 
ATOM     18  O   UNL     1      22.570  38.243   8.816  1.00  0.00    -0.341 OA
ATOM     19  C   UNL     1      23.378  38.010   7.665  1.00  0.00     0.281 C 
ATOM     20  C   UNL     1      24.234  35.930   8.787  1.00  0.00     0.180 C 
ATOM     21  C   UNL     1      24.599  37.258   8.154  1.00  0.00     0.202 C 
BRANCH  17  22
ATOM     22  C   UNL     1      20.868  37.087  10.026  1.00  0.00     0.191 C 
BRANCH  22  23
ATOM     23  O   UNL     1      20.241  35.844  10.020  1.00  0.00    -0.394 OA
ATOM     24  H   UNL     1      20.906  35.128   9.823  1.00  0.00     0.210 HD
ENDBRANCH  22  23
ENDBRANCH  17  22
BRANCH  19  25
ATOM     25  O   UNL     1      23.783  39.238   7.251  1.00  0.00    -0.350 OA
BRANCH  25  26
ATOM     26  C   UNL     1      24.060  40.204   8.156  1.00  0.00     0.169 C 
BRANCH  26  27
ATOM     27  C   UNL     1      25.429  40.787   8.162  1.00  0.00     0.119 C 
BRANCH  27  28
ATOM     28  N   UNL     1      26.324  40.230   7.177  1.00  0.00    -0.092 NA
ATOM     29  N   UNL     1      27.481  39.982   7.487  1.00  0.00     0.001 N 
ATOM     30  N   UNL     1      28.591  39.700   7.949  1.00  0.00    -0.003 NA
ENDBRANCH  27  28
ENDBRANCH  26  27
ENDBRANCH  25  26
ENDBRANCH  19  25
BRANCH  20  31
ATOM     31  O   UNL     1      25.411  35.399   9.293  1.00  0.00    -0.387 OA
ATOM     32  H   UNL     1      25.647  35.715  10.186  1.00  0.00     0.211 HD
ENDBRANCH  20  31
BRANCH  21  33
ATOM     33  O   UNL     1      25.581  37.151   7.197  1.00  0.00    -0.385 OA
ATOM     34  H   UNL     1      25.962  36.268   7.059  1.00  0.00     0.211 HD
ENDBRANCH  21  33
ENDBRANCH  15  16
ENDBRANCH  10  15
BRANCH  12  35
ATOM     35  O   UNL     1      22.922  33.968  13.997  1.00  0.00    -0.385 OA
ATOM     36  H   UNL     1      21.928  34.050  13.922  1.00  0.00     0.211 HD
ENDBRANCH  12  35
BRANCH  13  37
ATOM     37  O   UNL     1      25.654  33.850  11.692  1.00  0.00    -0.387 OA
ATOM     38  H   UNL     1      26.617  34.110  11.849  1.00  0.00     0.211 HD
ENDBRANCH  13  37
BRANCH  14  39
ATOM     39  O   UNL     1      26.968  34.846  13.469  1.00  0.00    -0.387 OA
ATOM     40  H   UNL     1      27.472  35.029  14.316  1.00  0.00     0.211 HD
ENDBRANCH  14  39
ENDBRANCH   8   9
ENDBRANCH   7   8
ENDBRANCH   1   7
BRANCH   1  41
ATOM     41  C   UNL     1      27.492  39.833  13.549  1.00  0.00     0.364 C 
ATOM     42  O   UNL     1      27.769  40.868  12.868  1.00  0.00    -0.246 OA
BRANCH  41  43
ATOM     43  O   UNL     1      27.625  39.947  14.907  1.00  0.00    -0.477 OA
ATOM     44  H   UNL     1      27.505  40.756  15.471  1.00  0.00     0.296 HD
ENDBRANCH  41  43
ENDBRANCH   1  41
BRANCH   3  45
ATOM     45  O   UNL     1      27.286  36.342  11.181  1.00  0.00    -0.391 OA
ATOM     46  H   UNL     1      27.465  36.178  12.146  1.00  0.00     0.211 HD
ENDBRANCH   3  45
BRANCH   5  47
ATOM     47  C   UNL     1      29.837  36.391  13.379  1.00  0.00     0.176 C 
BRANCH  47  48
ATOM     48  O   UNL     1      29.572  35.198  12.734  1.00  0.00    -0.388 OA
ATOM     49  H   UNL     1      29.597  35.232  11.753  1.00  0.00     0.211 HD
ENDBRANCH  47  48
BRANCH  47  50
ATOM     50  C   UNL     1      31.250  36.474  13.808  1.00  0.00     0.165 C 
BRANCH  50  51
ATOM     51  O   UNL     1      31.893  37.671  13.595  1.00  0.00    -0.388 OA
ATOM     52  H   UNL     1      31.454  38.468  13.967  1.00  0.00     0.211 HD
ENDBRANCH  50  51
BRANCH  50  53
ATOM     53  C   UNL     1      32.064  35.227  13.704  1.00  0.00     0.154 C 
BRANCH  53  54
ATOM     54  N   UNL     1      31.533  34.131  14.425  1.00  0.00    -0.319 N 
ATOM     55  C   UNL     1      31.790  33.926  15.826  1.00  0.00     0.407 C 
ATOM     56  H   UNL     1      30.920  33.427  13.947  1.00  0.00     0.167 HD
ATOM     57  O   UNL     1      32.496  34.693  16.507  1.00  0.00    -0.225 OA
BRANCH  55  58
ATOM     58  O   UNL     1      31.237  32.829  16.487  1.00  0.00    -0.443 OA
BRANCH  58  59
ATOM     59  C   UNL     1      30.822  31.679  15.743  1.00  0.00     0.294 C 
BRANCH  59  60
ATOM     60  C   UNL     1      29.349  31.592  15.690  1.00  0.00     0.120 A 
ATOM     61  C   UNL     1      28.477  30.551  15.836  1.00  0.00     0.138 A 
ATOM     62  N   UNL     1      28.551  32.675  15.462  1.00  0.00    -0.132 NA
ATOM     63  N   UNL     1      27.226  30.994  15.703  1.00  0.00    -0.251 N 
ATOM     64  N   UNL     1      27.302  32.321  15.469  1.00  0.00    -0.067 NA
BRANCH  63  65
ATOM     65  C   UNL     1      25.984  30.292  15.772  1.00  0.00     0.161 C 
BRANCH  65  66
ATOM     66  C   UNL     1      24.783  31.136  15.557  1.00  0.00     0.108 C 
BRANCH  66  67
ATOM     67  N   UNL     1      23.911  30.848  14.498  1.00  0.00    -0.301 NA
ATOM     68  C   UNL     1      24.403  30.382  13.264  1.00  0.00     0.084 C 
ATOM     69  C   UNL     1      22.692  30.184  14.848  1.00  0.00     0.084 C 
ATOM     70  C   UNL     1      23.566  29.179  12.854  1.00  0.00     0.017 C 
ATOM     71  C   UNL     1      22.354  29.240  13.737  1.00  0.00     0.017 C 
ENDBRANCH  66  67
ENDBRANCH  65  66
ENDBRANCH  63  65
ENDBRANCH  59  60
ENDBRANCH  58  59
ENDBRANCH  55  58
ENDBRANCH  53  54
ENDBRANCH  50  53
ENDBRANCH  47  50
ENDBRANCH   5  47
BRANCH   4  72
ATOM     72  N   UNL     1      29.925  38.700  10.653  1.00  0.00    -0.348 N 
ATOM     73  C   UNL     1      31.317  38.785  10.361  1.00  0.00     0.217 C 
ATOM     74  H   UNL     1      29.361  39.530  10.397  1.00  0.00     0.163 HD
ATOM     75  C   UNL     1      31.860  40.038   9.729  1.00  0.00     0.114 C 
ATOM     76  O   UNL     1      32.051  37.833  10.629  1.00  0.00    -0.275 OA
ENDBRANCH   4  72
TORSDOF 32
BEGIN_RES LYS A 131
REMARK  4 active torsions:
REMARK  status: ('A' for Active; 'I' for Inactive)
REMARK    1  A    between atoms: CA   and  CB  
REMARK    2  A    between atoms: CB   and  CG  
REMARK    3  A    between atoms: CG   and  CD  
REMARK    4  A    between atoms: CD   and  CE  
ROOT
ATOM      1  CA  LYS A 131      29.867  25.555  16.977  1.00 20.52     0.186 C 
ENDROOT
BRANCH   1   2
ATOM      2  CB  LYS A 131      28.345  25.722  17.026  1.00 20.94     0.034 C 
BRANCH   2   3
ATOM      3  CG  LYS A 131      27.602  24.399  16.917  1.00 22.96     0.005 C 
BRANCH   3   4
ATOM      4  CD  LYS A 131      26.614  24.211  18.035  1.00 24.33     0.041 C 
BRANCH   4   5
ATOM      5  CE  LYS A 131      26.440  25.526  18.788  1.00 26.91     0.338 C 
ATOM      6  NZ  LYS A 131      25.237  25.476  19.651  1.00 27.40     0.618 N 
ENDBRANCH   4   5
ENDBRANCH   3   4
ENDBRANCH   2   3
ENDBRANCH   1   2
END_RES LYS A 131
BEGIN_RES LYS A 135
REMARK  4 active torsions:
REMARK  status: ('A' for Active; 'I' for Inactive)
REMARK    5  A    between atoms: CA   and  CB  
REMARK    6  A    between atoms: CB   and  CG  
REMARK    7  A    between atoms: CG   and  CD  
REMARK    8  A    between atoms: CD   and  CE  
ROOT
ATOM      7  CA  LYS A 135      33.193  34.663   9.290  1.00 25.02     0.186 C 
ENDROOT
BRANCH   7   8
ATOM      8  CB  LYS A 135      32.060  35.360  10.034  1.00 26.63     0.034 C 
BRANCH   8   9
ATOM      9  CG  LYS A 135      30.698  34.796   9.722  1.00 29.45     0.005 C 
BRANCH   9  10
ATOM     10  CD  LYS A 135      30.173  35.356   8.409  1.00 32.00     0.041 C 
BRANCH  10  11
ATOM     11  CE  LYS A 135      28.803  34.785   8.096  1.00 34.25     0.338 C 
ATOM     12  NZ  LYS A 135      28.371  33.822   9.146  1.00 35.99     0.618 N 
ENDBRANCH  10  11
ENDBRANCH   9  10
ENDBRANCH   8   9
ENDBRANCH   7   8
END_RES LYS A 135
