REMARK VINA RESULT:    -5.656      2.765      5.503
REMARK INTER + INTRA:         -23.698
REMARK INTER:                 -12.978
REMARK INTRA:                 -10.720
REMARK UNBOUND:                -9.445
REMARK SMILES CC(=O)N[C@@H]1[C@@H](O)C[C@](OC[C@H]2O[C@@H](O[C@H]3[C@H](O)[C@@H](O)[C@H](OCCN=[N+]=[N-])O[C@@H]3CO)[C@H](O)[C@@H](O)[C@H]2O)(C(=O)O)O[C@H]1C(O)[C@H](O)CNC(=O)OCc1cn(Cc2cccc(Br)c2)nn1
REMARK SMILES IDX 9 1 8 2 6 3 5 4 42 5 41 6 10 7 11 8 12 9 14 10 13 11 32 12
REMARK SMILES IDX 34 13 36 14 15 15 16 16 29 17 28 18 21 19 17 20 19 21 30 22
REMARK SMILES IDX 31 23 22 25 23 26 24 27 25 28 26 29 27 30 18 31 20 33 33 35
REMARK SMILES IDX 35 37 37 39 38 41 39 42 40 43 7 45 43 47 44 48 45 50 46 51
REMARK SMILES IDX 47 53 48 54 49 55 50 57 51 58 52 59 53 60 54 61 65 62 55 63
REMARK SMILES IDX 64 64 56 65 57 66 58 67 63 68 59 69 61 70 60 71 62 72 4 73
REMARK SMILES IDX 2 74 1 76 3 77
REMARK H PARENT 31 24 18 32 20 34 33 36 35 38 37 40 40 44 7 46 44 49 46 52
REMARK H PARENT 48 56 4 75
REMARK Flexibility Score: inf
ROOT
ATOM      1  C   UNL     1      29.922  32.856  17.274  1.00  0.00     0.272 C 
ATOM      2  C   UNL     1      28.920  33.946  17.211  1.00  0.00     0.113 C 
ATOM      3  C   UNL     1      28.249  34.265  18.509  1.00  0.00     0.145 C 
ATOM      4  C   UNL     1      28.079  33.055  19.398  1.00  0.00     0.142 C 
ATOM      5  C   UNL     1      29.098  32.019  19.225  1.00  0.00     0.178 C 
ATOM      6  O   UNL     1      30.207  32.351  18.512  1.00  0.00    -0.332 OA
ENDROOT
BRANCH   1   7
ATOM      7  O   UNL     1      31.131  33.307  16.657  1.00  0.00    -0.338 OA
BRANCH   7   8
ATOM      8  C   UNL     1      31.166  34.662  16.500  1.00  0.00     0.199 C 
BRANCH   8   9
ATOM      9  C   UNL     1      31.437  35.029  15.025  1.00  0.00     0.179 C 
ATOM     10  C   UNL     1      30.182  35.215  13.056  1.00  0.00     0.282 C 
ATOM     11  O   UNL     1      30.335  34.638  14.339  1.00  0.00    -0.341 OA
ATOM     12  C   UNL     1      31.417  35.879  12.590  1.00  0.00     0.202 C 
ATOM     13  C   UNL     1      31.947  36.909  13.572  1.00  0.00     0.179 C 
ATOM     14  C   UNL     1      31.551  36.538  14.990  1.00  0.00     0.177 C 
BRANCH  10  15
ATOM     15  O   UNL     1      29.047  35.980  13.170  1.00  0.00    -0.341 OA
BRANCH  15  16
ATOM     16  C   UNL     1      27.956  35.575  12.489  1.00  0.00     0.184 C 
ATOM     17  C   UNL     1      27.319  36.767  11.821  1.00  0.00     0.178 C 
ATOM     18  O   UNL     1      26.302  36.318  10.982  1.00  0.00    -0.341 OA
ATOM     19  C   UNL     1      25.240  35.726  11.669  1.00  0.00     0.281 C 
ATOM     20  C   UNL     1      26.848  35.009  13.372  1.00  0.00     0.180 C 
ATOM     21  C   UNL     1      25.788  34.511  12.377  1.00  0.00     0.202 C 
BRANCH  17  22
ATOM     22  C   UNL     1      28.334  37.462  10.978  1.00  0.00     0.191 C 
BRANCH  22  23
ATOM     23  O   UNL     1      29.026  38.408  11.712  1.00  0.00    -0.394 OA
ATOM     24  H   UNL     1      29.705  38.816  11.115  1.00  0.00     0.210 HD
ENDBRANCH  22  23
ENDBRANCH  17  22
BRANCH  19  25
ATOM     25  O   UNL     1      24.293  35.417  10.716  1.00  0.00    -0.350 OA
BRANCH  25  26
ATOM     26  C   UNL     1      24.523  35.931   9.470  1.00  0.00     0.169 C 
BRANCH  26  27
ATOM     27  C   UNL     1      23.723  37.172   9.148  1.00  0.00     0.119 C 
BRANCH  27  28
ATOM     28  N   UNL     1      22.882  36.855   8.015  1.00  0.00    -0.092 NA
ATOM     29  N   UNL     1      21.966  36.047   8.042  1.00  0.00     0.001 N 
ATOM     30  N   UNL     1      20.985  35.324   8.208  1.00  0.00    -0.003 NA
ENDBRANCH  27  28
ENDBRANCH  26  27
ENDBRANCH  25  26
ENDBRANCH  19  25
BRANCH  20  31
ATOM     31  O   UNL     1      27.233  33.942  14.132  1.00  0.00    -0.387 OA
ATOM     32  H   UNL     1      27.459  33.127  13.630  1.00  0.00     0.211 HD
ENDBRANCH  20  31
BRANCH  21  33
ATOM     33  O   UNL     1      24.860  33.809  13.100  1.00  0.00    -0.385 OA
ATOM     34  H   UNL     1      25.144  33.663  14.059  1.00  0.00     0.211 HD
ENDBRANCH  21  33
ENDBRANCH  15  16
ENDBRANCH  10  15
BRANCH  12  35
ATOM     35  O   UNL     1      32.406  34.873  12.442  1.00  0.00    -0.385 OA
ATOM     36  H   UNL     1      31.961  34.003  12.271  1.00  0.00     0.211 HD
ENDBRANCH  12  35
BRANCH  13  37
ATOM     37  O   UNL     1      31.578  38.207  13.232  1.00  0.00    -0.387 OA
ATOM     38  H   UNL     1      30.718  38.429  13.716  1.00  0.00     0.211 HD
ENDBRANCH  13  37
BRANCH  14  39
ATOM     39  O   UNL     1      30.349  37.075  15.390  1.00  0.00    -0.387 OA
ATOM     40  H   UNL     1      30.084  36.711  16.289  1.00  0.00     0.211 HD
ENDBRANCH  14  39
ENDBRANCH   8   9
ENDBRANCH   7   8
ENDBRANCH   1   7
BRANCH   1  41
ATOM     41  C   UNL     1      29.478  31.737  16.390  1.00  0.00     0.364 C 
ATOM     42  O   UNL     1      30.278  30.758  16.180  1.00  0.00    -0.246 OA
BRANCH  41  43
ATOM     43  O   UNL     1      28.269  31.644  15.759  1.00  0.00    -0.477 OA
ATOM     44  H   UNL     1      27.496  32.220  16.118  1.00  0.00     0.296 HD
ENDBRANCH  41  43
ENDBRANCH   1  41
BRANCH   3  45
ATOM     45  O   UNL     1      28.859  35.332  19.153  1.00  0.00    -0.391 OA
ATOM     46  H   UNL     1      28.886  36.157  18.621  1.00  0.00     0.211 HD
ENDBRANCH   3  45
BRANCH   5  47
ATOM     47  C   UNL     1      29.529  31.383  20.557  1.00  0.00     0.176 C 
BRANCH  47  48
ATOM     48  O   UNL     1      28.315  31.329  21.352  1.00  0.00    -0.388 OA
ATOM     49  H   UNL     1      28.611  31.276  22.296  1.00  0.00     0.211 HD
ENDBRANCH  47  48
BRANCH  47  50
ATOM     50  C   UNL     1      30.022  29.986  20.458  1.00  0.00     0.165 C 
BRANCH  50  51
ATOM     51  O   UNL     1      30.521  29.877  19.106  1.00  0.00    -0.388 OA
ATOM     52  H   UNL     1      30.470  28.907  18.849  1.00  0.00     0.211 HD
ENDBRANCH  50  51
BRANCH  50  53
ATOM     53  C   UNL     1      29.022  28.883  20.547  1.00  0.00     0.154 C 
BRANCH  53  54
ATOM     54  N   UNL     1      28.317  28.625  19.301  1.00  0.00    -0.319 N 
ATOM     55  C   UNL     1      26.951  28.988  19.195  1.00  0.00     0.407 C 
ATOM     56  H   UNL     1      28.786  28.186  18.489  1.00  0.00     0.167 HD
ATOM     57  O   UNL     1      26.359  29.521  20.175  1.00  0.00    -0.225 OA
BRANCH  55  58
ATOM     58  O   UNL     1      26.234  28.769  18.019  1.00  0.00    -0.443 OA
BRANCH  58  59
ATOM     59  C   UNL     1      24.981  29.447  17.854  1.00  0.00     0.294 C 
BRANCH  59  60
ATOM     60  C   UNL     1      24.975  30.089  16.519  1.00  0.00     0.120 A 
ATOM     61  C   UNL     1      24.536  29.574  15.324  1.00  0.00     0.138 A 
ATOM     62  N   UNL     1      25.418  31.329  16.272  1.00  0.00    -0.132 NA
ATOM     63  N   UNL     1      24.729  30.523  14.389  1.00  0.00    -0.248 N 
ATOM     64  N   UNL     1      25.265  31.577  14.987  1.00  0.00    -0.067 NA
BRANCH  63  65
ATOM     65  C   UNL     1      24.396  30.385  12.974  1.00  0.00     0.181 C 
BRANCH  65  66
ATOM     66  C   UNL     1      22.935  30.532  12.747  1.00  0.00    -0.025 A 
ATOM     67  C   UNL     1      22.337  31.774  12.805  1.00  0.00     0.006 A 
ATOM     68  C   UNL     1      22.112  29.466  12.477  1.00  0.00     0.021 A 
ATOM     69  C   UNL     1      20.990  31.977  12.608  1.00  0.00     0.002 A 
ATOM     70  C   UNL     1      20.762  29.633  12.274  1.00  0.00     0.018 A 
ATOM     71  C   UNL     1      20.174  30.870  12.333  1.00  0.00     0.016 A 
ATOM     72  Br  UNL     1      19.612  28.150  11.896  1.00  0.00    -0.051 Br
ENDBRANCH  65  66
ENDBRANCH  63  65
ENDBRANCH  59  60
ENDBRANCH  58  59
ENDBRANCH  55  58
ENDBRANCH  53  54
ENDBRANCH  50  53
ENDBRANCH  47  50
ENDBRANCH   5  47
BRANCH   4  73
ATOM     73  N   UNL     1      26.722  32.487  19.189  1.00  0.00    -0.348 N 
ATOM     74  C   UNL     1      25.619  32.967  19.937  1.00  0.00     0.217 C 
ATOM     75  H   UNL     1      26.558  31.722  18.487  1.00  0.00     0.163 HD
ATOM     76  C   UNL     1      24.235  32.407  19.744  1.00  0.00     0.114 C 
ATOM     77  O   UNL     1      25.814  33.883  20.780  1.00  0.00    -0.275 OA
ENDBRANCH   4  73
TORSDOF 31
BEGIN_RES LYS A 131
REMARK  4 active torsions:
REMARK  status: ('A' for Active; 'I' for Inactive)
REMARK    1  A    between atoms: CA   and  CB  
REMARK    2  A    between atoms: CB   and  CG  
REMARK    3  A    between atoms: CG   and  CD  
REMARK    4  A    between atoms: CD   and  CE  
ROOT
ATOM      1  CA  LYS A 131      29.867  25.555  16.977  1.00 20.52     0.186 C 
ENDROOT
BRANCH   1   2
ATOM      2  CB  LYS A 131      28.345  25.722  17.026  1.00 20.94     0.034 C 
BRANCH   2   3
ATOM      3  CG  LYS A 131      27.602  24.399  16.928  1.00 22.96     0.005 C 
BRANCH   3   4
ATOM      4  CD  LYS A 131      26.163  24.525  17.344  1.00 24.33     0.041 C 
BRANCH   4   5
ATOM      5  CE  LYS A 131      26.083  25.238  18.690  1.00 26.91     0.338 C 
ATOM      6  NZ  LYS A 131      24.743  25.842  18.879  1.00 27.40     0.618 N 
ENDBRANCH   4   5
ENDBRANCH   3   4
ENDBRANCH   2   3
ENDBRANCH   1   2
END_RES LYS A 131
BEGIN_RES LYS A 135
REMARK  4 active torsions:
REMARK  status: ('A' for Active; 'I' for Inactive)
REMARK    5  A    between atoms: CA   and  CB  
REMARK    6  A    between atoms: CB   and  CG  
REMARK    7  A    between atoms: CG   and  CD  
REMARK    8  A    between atoms: CD   and  CE  
ROOT
ATOM      7  CA  LYS A 135      33.193  34.663   9.290  1.00 25.02     0.186 C 
ENDROOT
BRANCH   7   8
ATOM      8  CB  LYS A 135      32.060  35.360  10.034  1.00 26.63     0.034 C 
BRANCH   8   9
ATOM      9  CG  LYS A 135      30.883  35.701   9.157  1.00 29.45     0.005 C 
BRANCH   9  10
ATOM     10  CD  LYS A 135      30.366  34.460   8.446  1.00 32.00     0.041 C 
BRANCH  10  11
ATOM     11  CE  LYS A 135      28.851  34.482   8.369  1.00 34.25     0.338 C 
ATOM     12  NZ  LYS A 135      28.244  33.775   9.530  1.00 35.99     0.618 N 
ENDBRANCH  10  11
ENDBRANCH   9  10
ENDBRANCH   8   9
ENDBRANCH   7   8
END_RES LYS A 135
