REMARK VINA RESULT:    -5.063      7.637     12.857
REMARK INTER + INTRA:         -22.487
REMARK INTER:                 -10.102
REMARK INTRA:                 -12.385
REMARK UNBOUND:                -9.729
REMARK SMILES CC(=O)N[C@@H]1[C@@H](O)C[C@](OC[C@H]2O[C@@H](O[C@H]3[C@H](O)[C@@H](O)[C@H](OCCN=[N+]=[N-])O[C@@H]3CO)[C@H](O)[C@@H](O)[C@H]2O)(C(=O)O)O[C@H]1C(O)[C@H](O)CNC(=O)OCc1cn(-c2ncccc2C#N)nn1
REMARK SMILES IDX 9 1 8 2 6 3 5 4 42 5 41 6 10 7 11 8 12 9 14 10 13 11 32 12
REMARK SMILES IDX 34 13 36 14 15 15 16 16 29 17 28 18 21 19 17 20 19 21 30 22
REMARK SMILES IDX 31 23 22 25 23 26 24 27 25 28 26 29 27 30 18 31 20 33 33 35
REMARK SMILES IDX 35 37 37 39 38 41 39 42 40 43 7 45 43 47 44 48 45 50 46 51
REMARK SMILES IDX 47 53 48 54 49 55 50 57 51 58 52 59 53 60 54 61 65 62 55 63
REMARK SMILES IDX 64 64 56 65 57 66 61 67 58 68 60 69 59 70 62 71 63 72 4 73
REMARK SMILES IDX 2 74 1 76 3 77
REMARK H PARENT 31 24 18 32 20 34 33 36 35 38 37 40 40 44 7 46 44 49 46 52
REMARK H PARENT 48 56 4 75
REMARK Flexibility Score: inf
ROOT
ATOM      1  C   UNL     1      25.406  37.114  10.998  1.00  0.00     0.272 C 
ATOM      2  C   UNL     1      25.287  35.727  11.470  1.00  0.00     0.113 C 
ATOM      3  C   UNL     1      25.103  35.611  12.932  1.00  0.00     0.145 C 
ATOM      4  C   UNL     1      24.417  36.749  13.614  1.00  0.00     0.142 C 
ATOM      5  C   UNL     1      23.908  37.849  12.726  1.00  0.00     0.178 C 
ATOM      6  O   UNL     1      24.566  38.021  11.602  1.00  0.00    -0.332 OA
ENDROOT
BRANCH   1   7
ATOM      7  O   UNL     1      25.323  37.413   9.698  1.00  0.00    -0.338 OA
BRANCH   7   8
ATOM      8  C   UNL     1      25.167  36.740   8.600  1.00  0.00     0.199 C 
BRANCH   8   9
ATOM      9  C   UNL     1      23.872  37.234   7.945  1.00  0.00     0.179 C 
ATOM     10  C   UNL     1      21.748  37.923   8.340  1.00  0.00     0.282 C 
ATOM     11  O   UNL     1      22.810  37.056   8.789  1.00  0.00    -0.341 OA
ATOM     12  C   UNL     1      22.089  39.332   8.664  1.00  0.00     0.202 C 
ATOM     13  C   UNL     1      23.478  39.697   8.132  1.00  0.00     0.179 C 
ATOM     14  C   UNL     1      23.970  38.570   7.306  1.00  0.00     0.177 C 
BRANCH  10  15
ATOM     15  O   UNL     1      20.566  37.538   8.870  1.00  0.00    -0.341 OA
BRANCH  15  16
ATOM     16  C   UNL     1      19.695  36.939   8.005  1.00  0.00     0.184 C 
ATOM     17  C   UNL     1      18.247  37.031   8.570  1.00  0.00     0.178 C 
ATOM     18  O   UNL     1      17.849  35.749   8.943  1.00  0.00    -0.341 OA
ATOM     19  C   UNL     1      18.778  35.179   9.827  1.00  0.00     0.281 C 
ATOM     20  C   UNL     1      19.984  35.488   7.719  1.00  0.00     0.180 C 
ATOM     21  C   UNL     1      19.957  34.694   9.030  1.00  0.00     0.202 C 
BRANCH  17  22
ATOM     22  C   UNL     1      17.363  37.625   7.521  1.00  0.00     0.191 C 
BRANCH  22  23
ATOM     23  O   UNL     1      16.386  36.715   7.079  1.00  0.00    -0.394 OA
ATOM     24  H   UNL     1      16.307  35.938   7.682  1.00  0.00     0.210 HD
ENDBRANCH  22  23
ENDBRANCH  17  22
BRANCH  19  25
ATOM     25  O   UNL     1      18.123  34.167  10.490  1.00  0.00    -0.350 OA
BRANCH  25  26
ATOM     26  C   UNL     1      17.091  33.619   9.706  1.00  0.00     0.169 C 
BRANCH  26  27
ATOM     27  C   UNL     1      17.085  32.109   9.823  1.00  0.00     0.119 C 
BRANCH  27  28
ATOM     28  N   UNL     1      16.519  31.603   8.565  1.00  0.00    -0.092 NA
ATOM     29  N   UNL     1      16.881  32.217   7.527  1.00  0.00     0.001 N 
ATOM     30  N   UNL     1      16.895  32.963   6.537  1.00  0.00    -0.003 NA
ENDBRANCH  27  28
ENDBRANCH  26  27
ENDBRANCH  25  26
ENDBRANCH  19  25
BRANCH  20  31
ATOM     31  O   UNL     1      19.106  34.929   6.820  1.00  0.00    -0.387 OA
ATOM     32  H   UNL     1      18.690  35.520   6.172  1.00  0.00     0.211 HD
ENDBRANCH  20  31
BRANCH  21  33
ATOM     33  O   UNL     1      21.158  34.866   9.709  1.00  0.00    -0.385 OA
ATOM     34  H   UNL     1      20.970  35.466  10.482  1.00  0.00     0.211 HD
ENDBRANCH  21  33
ENDBRANCH  15  16
ENDBRANCH  10  15
BRANCH  12  35
ATOM     35  O   UNL     1      21.159  40.203   8.123  1.00  0.00    -0.385 OA
ATOM     36  H   UNL     1      21.654  41.051   7.871  1.00  0.00     0.211 HD
ENDBRANCH  12  35
BRANCH  13  37
ATOM     37  O   UNL     1      24.335  39.956   9.227  1.00  0.00    -0.387 OA
ATOM     38  H   UNL     1      24.454  39.127   9.770  1.00  0.00     0.211 HD
ENDBRANCH  13  37
BRANCH  14  39
ATOM     39  O   UNL     1      25.262  38.762   6.807  1.00  0.00    -0.387 OA
ATOM     40  H   UNL     1      25.379  39.723   6.515  1.00  0.00     0.211 HD
ENDBRANCH  14  39
ENDBRANCH   8   9
ENDBRANCH   7   8
ENDBRANCH   1   7
BRANCH   1  41
ATOM     41  C   UNL     1      26.809  37.556  11.410  1.00  0.00     0.364 C 
ATOM     42  O   UNL     1      27.053  38.466  12.184  1.00  0.00    -0.246 OA
BRANCH  41  43
ATOM     43  O   UNL     1      27.919  36.877  10.867  1.00  0.00    -0.477 OA
ATOM     44  H   UNL     1      27.875  36.378   9.992  1.00  0.00     0.296 HD
ENDBRANCH  41  43
ENDBRANCH   1  41
BRANCH   3  45
ATOM     45  O   UNL     1      24.504  34.380  13.260  1.00  0.00    -0.391 OA
ATOM     46  H   UNL     1      24.002  34.567  14.119  1.00  0.00     0.211 HD
ENDBRANCH   3  45
BRANCH   5  47
ATOM     47  C   UNL     1      22.370  37.740  12.526  1.00  0.00     0.176 C 
BRANCH  47  48
ATOM     48  O   UNL     1      22.186  36.813  11.457  1.00  0.00    -0.388 OA
ATOM     49  H   UNL     1      22.837  36.964  10.751  1.00  0.00     0.211 HD
ENDBRANCH  47  48
BRANCH  47  50
ATOM     50  C   UNL     1      21.685  38.949  12.148  1.00  0.00     0.165 C 
BRANCH  50  51
ATOM     51  O   UNL     1      21.914  40.099  12.943  1.00  0.00    -0.388 OA
ATOM     52  H   UNL     1      22.802  40.499  12.680  1.00  0.00     0.211 HD
ENDBRANCH  50  51
BRANCH  50  53
ATOM     53  C   UNL     1      20.193  38.847  12.112  1.00  0.00     0.154 C 
BRANCH  53  54
ATOM     54  N   UNL     1      19.557  37.607  12.315  1.00  0.00    -0.319 N 
ATOM     55  C   UNL     1      18.776  37.167  13.383  1.00  0.00     0.407 C 
ATOM     56  H   UNL     1      19.686  36.858  11.531  1.00  0.00     0.167 HD
ATOM     57  O   UNL     1      18.571  37.967  14.329  1.00  0.00    -0.225 OA
BRANCH  55  58
ATOM     58  O   UNL     1      18.242  35.863  13.367  1.00  0.00    -0.443 OA
BRANCH  58  59
ATOM     59  C   UNL     1      18.804  34.896  14.204  1.00  0.00     0.294 C 
BRANCH  59  60
ATOM     60  C   UNL     1      19.902  34.182  13.582  1.00  0.00     0.121 A 
ATOM     61  C   UNL     1      20.324  32.944  13.892  1.00  0.00     0.146 A 
ATOM     62  N   UNL     1      20.765  34.674  12.590  1.00  0.00    -0.131 NA
ATOM     63  N   UNL     1      21.389  32.631  13.166  1.00  0.00    -0.201 N 
ATOM     64  N   UNL     1      21.590  33.683  12.429  1.00  0.00    -0.060 NA
BRANCH  63  65
ATOM     65  C   UNL     1      22.142  31.439  13.092  1.00  0.00     0.173 A 
ATOM     66  N   UNL     1      23.443  31.541  13.473  1.00  0.00    -0.236 NA
ATOM     67  C   UNL     1      21.629  30.267  12.522  1.00  0.00     0.097 A 
ATOM     68  C   UNL     1      24.295  30.393  13.262  1.00  0.00     0.113 A 
ATOM     69  C   UNL     1      22.503  29.217  12.344  1.00  0.00     0.025 A 
ATOM     70  C   UNL     1      23.778  29.321  12.713  1.00  0.00     0.022 A 
BRANCH  67  71
ATOM     71  C   UNL     1      20.255  30.051  12.197  1.00  0.00     0.103 C 
ATOM     72  N   UNL     1      19.086  29.869  11.942  1.00  0.00    -0.192 NA
ENDBRANCH  67  71
ENDBRANCH  63  65
ENDBRANCH  59  60
ENDBRANCH  58  59
ENDBRANCH  55  58
ENDBRANCH  53  54
ENDBRANCH  50  53
ENDBRANCH  47  50
ENDBRANCH   5  47
BRANCH   4  73
ATOM     73  N   UNL     1      25.282  37.133  14.708  1.00  0.00    -0.348 N 
ATOM     74  C   UNL     1      24.933  37.783  15.894  1.00  0.00     0.217 C 
ATOM     75  H   UNL     1      26.339  36.912  14.611  1.00  0.00     0.163 HD
ATOM     76  C   UNL     1      25.977  38.062  16.959  1.00  0.00     0.114 C 
ATOM     77  O   UNL     1      23.782  38.176  16.187  1.00  0.00    -0.275 OA
ENDBRANCH   4  73
TORSDOF 31
BEGIN_RES LYS A 131
REMARK  4 active torsions:
REMARK  status: ('A' for Active; 'I' for Inactive)
REMARK    1  A    between atoms: CA   and  CB  
REMARK    2  A    between atoms: CB   and  CG  
REMARK    3  A    between atoms: CG   and  CD  
REMARK    4  A    between atoms: CD   and  CE  
ROOT
ATOM      1  CA  LYS A 131      29.867  25.555  16.977  1.00 20.52     0.186 C 
ENDROOT
BRANCH   1   2
ATOM      2  CB  LYS A 131      28.345  25.722  17.026  1.00 20.94     0.034 C 
BRANCH   2   3
ATOM      3  CG  LYS A 131      27.599  24.478  16.567  1.00 22.96     0.005 C 
BRANCH   3   4
ATOM      4  CD  LYS A 131      26.960  23.746  17.714  1.00 24.33     0.041 C 
BRANCH   4   5
ATOM      5  CE  LYS A 131      25.458  24.011  17.714  1.00 26.91     0.338 C 
ATOM      6  NZ  LYS A 131      25.112  25.034  18.729  1.00 27.40     0.618 N 
ENDBRANCH   4   5
ENDBRANCH   3   4
ENDBRANCH   2   3
ENDBRANCH   1   2
END_RES LYS A 131
BEGIN_RES LYS A 135
REMARK  4 active torsions:
REMARK  status: ('A' for Active; 'I' for Inactive)
REMARK    5  A    between atoms: CA   and  CB  
REMARK    6  A    between atoms: CB   and  CG  
REMARK    7  A    between atoms: CG   and  CD  
REMARK    8  A    between atoms: CD   and  CE  
ROOT
ATOM      7  CA  LYS A 135      33.193  34.663   9.290  1.00 25.02     0.186 C 
ENDROOT
BRANCH   7   8
ATOM      8  CB  LYS A 135      32.060  35.360  10.034  1.00 26.63     0.034 C 
BRANCH   8   9
ATOM      9  CG  LYS A 135      30.797  35.491   9.222  1.00 29.45     0.005 C 
BRANCH   9  10
ATOM     10  CD  LYS A 135      30.028  34.179   9.211  1.00 32.00     0.041 C 
BRANCH  10  11
ATOM     11  CE  LYS A 135      28.661  34.368   8.582  1.00 34.25     0.338 C 
ATOM     12  NZ  LYS A 135      27.593  33.767   9.429  1.00 35.99     0.618 N 
ENDBRANCH  10  11
ENDBRANCH   9  10
ENDBRANCH   8   9
ENDBRANCH   7   8
END_RES LYS A 135
