REMARK VINA RESULT:    -4.899      6.276     12.934
REMARK INTER + INTRA:         -23.199
REMARK INTER:                 -14.836
REMARK INTRA:                  -8.364
REMARK UNBOUND:               -10.853
REMARK SMILES CC(=O)N[C@@H]1[C@@H](O)C[C@](OC[C@H]2O[C@@H](O[C@H]3[C@H](O)[C@@H](O)[C@H](OCCN=[N+]=[N-])O[C@@H]3CO)[C@H](O)[C@@H](O)[C@H]2O)(C(=O)O)O[C@H]1C(O)[C@H](O)CNC(=O)OCc1cn(-c2ncn3c2c(=O)n(C(C)C)c2ccccc23)nn1
REMARK SMILES IDX 9 1 8 2 6 3 5 4 42 5 41 6 10 7 11 8 12 9 14 10 13 11 32 12
REMARK SMILES IDX 34 13 36 14 15 15 16 16 29 17 28 18 21 19 17 20 19 21 30 22
REMARK SMILES IDX 31 23 22 25 23 26 24 27 25 28 26 29 27 30 18 31 20 33 33 35
REMARK SMILES IDX 35 37 37 39 38 41 39 42 40 43 7 45 43 47 44 48 45 50 46 51
REMARK SMILES IDX 47 53 48 54 49 55 50 57 51 58 52 59 53 60 54 61 74 62 55 63
REMARK SMILES IDX 73 64 56 65 57 66 60 67 58 68 59 69 61 70 72 71 63 72 62 73
REMARK SMILES IDX 71 74 67 75 70 76 68 77 69 78 64 79 65 80 66 81 4 82 2 83
REMARK SMILES IDX 1 85 3 86
REMARK H PARENT 31 24 18 32 20 34 33 36 35 38 37 40 40 44 7 46 44 49 46 52
REMARK H PARENT 48 56 4 84
REMARK Flexibility Score: inf
ROOT
ATOM      1  C   UNL     1      31.494  31.518  21.797  1.00  0.00     0.272 C 
ATOM      2  C   UNL     1      32.945  31.884  21.954  1.00  0.00     0.113 C 
ATOM      3  C   UNL     1      33.708  30.893  22.729  1.00  0.00     0.145 C 
ATOM      4  C   UNL     1      33.435  29.462  22.366  1.00  0.00     0.142 C 
ATOM      5  C   UNL     1      32.069  29.230  21.827  1.00  0.00     0.178 C 
ATOM      6  O   UNL     1      31.463  30.225  21.183  1.00  0.00    -0.332 OA
ENDROOT
BRANCH   1   7
ATOM      7  O   UNL     1      31.010  32.306  20.791  1.00  0.00    -0.338 OA
BRANCH   7   8
ATOM      8  C   UNL     1      29.829  32.255  20.243  1.00  0.00     0.199 C 
BRANCH   8   9
ATOM      9  C   UNL     1      29.517  32.417  18.795  1.00  0.00     0.179 C 
ATOM     10  C   UNL     1      30.680  33.000  16.864  1.00  0.00     0.282 C 
ATOM     11  O   UNL     1      30.770  32.805  18.217  1.00  0.00    -0.341 OA
ATOM     12  C   UNL     1      30.330  31.725  16.118  1.00  0.00     0.202 C 
ATOM     13  C   UNL     1      29.092  31.078  16.713  1.00  0.00     0.179 C 
ATOM     14  C   UNL     1      29.253  31.030  18.207  1.00  0.00     0.177 C 
BRANCH  10  15
ATOM     15  O   UNL     1      31.934  33.415  16.429  1.00  0.00    -0.341 OA
BRANCH  15  16
ATOM     16  C   UNL     1      32.036  34.782  16.443  1.00  0.00     0.184 C 
ATOM     17  C   UNL     1      30.791  35.405  15.924  1.00  0.00     0.178 C 
ATOM     18  O   UNL     1      30.810  35.798  14.610  1.00  0.00    -0.341 OA
ATOM     19  C   UNL     1      31.680  35.128  13.790  1.00  0.00     0.281 C 
ATOM     20  C   UNL     1      33.277  35.287  15.737  1.00  0.00     0.180 C 
ATOM     21  C   UNL     1      33.111  35.189  14.265  1.00  0.00     0.202 C 
BRANCH  17  22
ATOM     22  C   UNL     1      30.374  36.569  16.797  1.00  0.00     0.191 C 
BRANCH  22  23
ATOM     23  O   UNL     1      30.761  37.730  16.084  1.00  0.00    -0.394 OA
ATOM     24  H   UNL     1      29.985  38.335  16.108  1.00  0.00     0.210 HD
ENDBRANCH  22  23
ENDBRANCH  17  22
BRANCH  19  25
ATOM     25  O   UNL     1      31.665  35.783  12.546  1.00  0.00    -0.350 OA
BRANCH  25  26
ATOM     26  C   UNL     1      31.804  37.142  12.627  1.00  0.00     0.169 C 
BRANCH  26  27
ATOM     27  C   UNL     1      30.749  37.949  11.938  1.00  0.00     0.119 C 
BRANCH  27  28
ATOM     28  N   UNL     1      31.469  38.936  11.117  1.00  0.00    -0.092 NA
ATOM     29  N   UNL     1      31.596  40.102  11.423  1.00  0.00     0.001 N 
ATOM     30  N   UNL     1      31.540  41.334  11.496  1.00  0.00    -0.003 NA
ENDBRANCH  27  28
ENDBRANCH  26  27
ENDBRANCH  25  26
ENDBRANCH  19  25
BRANCH  20  31
ATOM     31  O   UNL     1      33.553  36.584  16.186  1.00  0.00    -0.387 OA
ATOM     32  H   UNL     1      34.389  36.850  15.703  1.00  0.00     0.211 HD
ENDBRANCH  20  31
BRANCH  21  33
ATOM     33  O   UNL     1      33.753  34.009  13.848  1.00  0.00    -0.385 OA
ATOM     34  H   UNL     1      34.234  34.138  12.990  1.00  0.00     0.211 HD
ENDBRANCH  21  33
ENDBRANCH  15  16
ENDBRANCH  10  15
BRANCH  12  35
ATOM     35  O   UNL     1      29.991  32.085  14.816  1.00  0.00    -0.385 OA
ATOM     36  H   UNL     1      30.781  32.172  14.232  1.00  0.00     0.211 HD
ENDBRANCH  12  35
BRANCH  13  37
ATOM     37  O   UNL     1      29.093  29.742  16.271  1.00  0.00    -0.387 OA
ATOM     38  H   UNL     1      28.971  29.710  15.282  1.00  0.00     0.211 HD
ENDBRANCH  13  37
BRANCH  14  39
ATOM     39  O   UNL     1      30.409  30.242  18.447  1.00  0.00    -0.387 OA
ATOM     40  H   UNL     1      31.166  30.577  17.909  1.00  0.00     0.211 HD
ENDBRANCH  14  39
ENDBRANCH   8   9
ENDBRANCH   7   8
ENDBRANCH   1   7
BRANCH   1  41
ATOM     41  C   UNL     1      30.748  31.422  23.044  1.00  0.00     0.364 C 
ATOM     42  O   UNL     1      30.958  32.109  24.042  1.00  0.00    -0.246 OA
BRANCH  41  43
ATOM     43  O   UNL     1      29.699  30.492  23.173  1.00  0.00    -0.477 OA
ATOM     44  H   UNL     1      29.532  29.824  22.431  1.00  0.00     0.296 HD
ENDBRANCH  41  43
ENDBRANCH   1  41
BRANCH   3  45
ATOM     45  O   UNL     1      35.082  31.172  22.508  1.00  0.00    -0.391 OA
ATOM     46  H   UNL     1      35.219  31.560  21.614  1.00  0.00     0.211 HD
ENDBRANCH   3  45
BRANCH   5  47
ATOM     47  C   UNL     1      31.991  27.973  20.979  1.00  0.00     0.176 C 
BRANCH  47  48
ATOM     48  O   UNL     1      32.293  28.275  19.669  1.00  0.00    -0.388 OA
ATOM     49  H   UNL     1      32.985  27.686  19.276  1.00  0.00     0.211 HD
ENDBRANCH  47  48
BRANCH  47  50
ATOM     50  C   UNL     1      30.698  27.243  21.070  1.00  0.00     0.165 C 
BRANCH  50  51
ATOM     51  O   UNL     1      29.679  27.702  20.280  1.00  0.00    -0.388 OA
ATOM     52  H   UNL     1      29.688  27.353  19.359  1.00  0.00     0.211 HD
ENDBRANCH  50  51
BRANCH  50  53
ATOM     53  C   UNL     1      30.216  27.038  22.474  1.00  0.00     0.154 C 
BRANCH  53  54
ATOM     54  N   UNL     1      28.822  26.582  22.481  1.00  0.00    -0.319 N 
ATOM     55  C   UNL     1      27.831  27.182  23.275  1.00  0.00     0.407 C 
ATOM     56  H   UNL     1      28.538  25.764  21.862  1.00  0.00     0.167 HD
ATOM     57  O   UNL     1      28.104  28.145  24.038  1.00  0.00    -0.225 OA
BRANCH  55  58
ATOM     58  O   UNL     1      26.524  26.679  23.195  1.00  0.00    -0.443 OA
BRANCH  58  59
ATOM     59  C   UNL     1      26.011  26.221  21.977  1.00  0.00     0.294 C 
BRANCH  59  60
ATOM     60  C   UNL     1      25.552  27.350  21.083  1.00  0.00     0.121 A 
ATOM     61  C   UNL     1      25.639  27.389  19.710  1.00  0.00     0.146 A 
ATOM     62  N   UNL     1      24.977  28.509  21.441  1.00  0.00    -0.131 NA
ATOM     63  N   UNL     1      25.116  28.567  19.257  1.00  0.00    -0.200 N 
ATOM     64  N   UNL     1      24.729  29.213  20.340  1.00  0.00    -0.060 NA
BRANCH  63  65
ATOM     65  C   UNL     1      25.027  28.966  17.890  1.00  0.00     0.186 A 
ATOM     66  N   UNL     1      25.970  29.657  17.229  1.00  0.00    -0.216 NA
ATOM     67  C   UNL     1      24.023  28.775  16.974  1.00  0.00     0.158 A 
ATOM     68  C   UNL     1      25.568  29.882  15.963  1.00  0.00     0.207 A 
ATOM     69  N   UNL     1      24.346  29.336  15.782  1.00  0.00    -0.291 N 
ATOM     70  C   UNL     1      22.820  28.132  17.114  1.00  0.00     0.279 A 
ATOM     71  C   UNL     1      23.513  29.278  14.728  1.00  0.00     0.071 A 
ATOM     72  N   UNL     1      21.958  28.057  16.068  1.00  0.00    -0.302 N 
ATOM     73  O   UNL     1      22.491  27.596  18.218  1.00  0.00    -0.267 OA
ATOM     74  C   UNL     1      23.835  29.849  13.527  1.00  0.00     0.029 A 
ATOM     75  C   UNL     1      22.310  28.627  14.895  1.00  0.00     0.068 A 
ATOM     76  C   UNL     1      22.962  29.794  12.429  1.00  0.00     0.002 A 
ATOM     77  C   UNL     1      21.454  28.575  13.811  1.00  0.00     0.028 A 
ATOM     78  C   UNL     1      21.758  29.147  12.581  1.00  0.00     0.002 A 
BRANCH  72  79
ATOM     79  C   UNL     1      20.677  27.363  16.214  1.00  0.00     0.085 C 
ATOM     80  C   UNL     1      19.492  28.252  16.032  1.00  0.00     0.031 C 
ATOM     81  C   UNL     1      20.627  26.083  15.418  1.00  0.00     0.031 C 
ENDBRANCH  72  79
ENDBRANCH  63  65
ENDBRANCH  59  60
ENDBRANCH  58  59
ENDBRANCH  55  58
ENDBRANCH  53  54
ENDBRANCH  50  53
ENDBRANCH  47  50
ENDBRANCH   5  47
BRANCH   4  82
ATOM     82  N   UNL     1      33.734  28.634  23.515  1.00  0.00    -0.348 N 
ATOM     83  C   UNL     1      35.019  28.112  23.784  1.00  0.00     0.217 C 
ATOM     84  H   UNL     1      32.973  28.397  24.196  1.00  0.00     0.163 HD
ATOM     85  C   UNL     1      35.314  27.258  24.972  1.00  0.00     0.114 C 
ATOM     86  O   UNL     1      35.949  28.388  22.971  1.00  0.00    -0.275 OA
ENDBRANCH   4  82
TORSDOF 31
BEGIN_RES LYS A 131
REMARK  4 active torsions:
REMARK  status: ('A' for Active; 'I' for Inactive)
REMARK    1  A    between atoms: CA   and  CB  
REMARK    2  A    between atoms: CB   and  CG  
REMARK    3  A    between atoms: CG   and  CD  
REMARK    4  A    between atoms: CD   and  CE  
ROOT
ATOM      1  CA  LYS A 131      29.867  25.555  16.977  1.00 20.52     0.186 C 
ENDROOT
BRANCH   1   2
ATOM      2  CB  LYS A 131      28.345  25.722  17.026  1.00 20.94     0.034 C 
BRANCH   2   3
ATOM      3  CG  LYS A 131      27.601  24.401  16.905  1.00 22.96     0.005 C 
BRANCH   3   4
ATOM      4  CD  LYS A 131      26.158  24.524  17.309  1.00 24.33     0.041 C 
BRANCH   4   5
ATOM      5  CE  LYS A 131      25.725  23.258  18.042  1.00 26.91     0.338 C 
ATOM      6  NZ  LYS A 131      25.557  23.529  19.490  1.00 27.40     0.618 N 
ENDBRANCH   4   5
ENDBRANCH   3   4
ENDBRANCH   2   3
ENDBRANCH   1   2
END_RES LYS A 131
BEGIN_RES LYS A 135
REMARK  4 active torsions:
REMARK  status: ('A' for Active; 'I' for Inactive)
REMARK    5  A    between atoms: CA   and  CB  
REMARK    6  A    between atoms: CB   and  CG  
REMARK    7  A    between atoms: CG   and  CD  
REMARK    8  A    between atoms: CD   and  CE  
ROOT
ATOM      7  CA  LYS A 135      33.193  34.663   9.290  1.00 25.02     0.186 C 
ENDROOT
BRANCH   7   8
ATOM      8  CB  LYS A 135      32.060  35.360  10.034  1.00 26.63     0.034 C 
BRANCH   8   9
ATOM      9  CG  LYS A 135      30.802  35.505   9.217  1.00 29.45     0.005 C 
BRANCH   9  10
ATOM     10  CD  LYS A 135      29.909  34.286   9.384  1.00 32.00     0.041 C 
BRANCH  10  11
ATOM     11  CE  LYS A 135      28.601  34.671  10.048  1.00 34.25     0.338 C 
ATOM     12  NZ  LYS A 135      27.536  33.673   9.752  1.00 35.99     0.618 N 
ENDBRANCH  10  11
ENDBRANCH   9  10
ENDBRANCH   8   9
ENDBRANCH   7   8
END_RES LYS A 135
