REMARK VINA RESULT:    -5.374      2.831      8.205
REMARK INTER + INTRA:         -21.334
REMARK INTER:                 -10.457
REMARK INTRA:                 -10.877
REMARK UNBOUND:                -8.107
REMARK SMILES CC(=O)N[C@@H]1[C@@H](O)C[C@](OC[C@H]2O[C@@H](O[C@H]3[C@H](O)[C@@H](O)[C@H](OCCN=[N+]=[N-])O[C@@H]3CO)[C@H](O)[C@@H](O)[C@H]2O)(C(=O)O)O[C@H]1C(O)[C@H](O)CNC(=O)OCc1cn(C2CCN(C)CC2)nn1
REMARK SMILES IDX 9 1 8 2 6 3 5 4 42 5 41 6 10 7 11 8 12 9 14 10 13 11 32 12
REMARK SMILES IDX 34 13 36 14 15 15 16 16 29 17 28 18 21 19 17 20 19 21 30 22
REMARK SMILES IDX 31 23 22 25 23 26 24 27 25 28 26 29 27 30 18 31 20 33 33 35
REMARK SMILES IDX 35 37 37 39 38 41 39 42 40 43 7 45 43 47 44 48 45 50 46 51
REMARK SMILES IDX 47 53 48 54 49 55 50 57 51 58 52 59 53 60 54 61 64 62 55 63
REMARK SMILES IDX 63 64 56 65 57 66 62 67 58 68 61 69 59 70 60 71 4 72 2 73
REMARK SMILES IDX 1 75 3 76
REMARK H PARENT 31 24 18 32 20 34 33 36 35 38 37 40 40 44 7 46 44 49 46 52
REMARK H PARENT 48 56 4 74
REMARK Flexibility Score: inf
ROOT
ATOM      1  C   UNL     1      24.450  40.934   8.168  1.00  0.00     0.272 C 
ATOM      2  C   UNL     1      23.748  41.130   9.499  1.00  0.00     0.113 C 
ATOM      3  C   UNL     1      22.343  40.696   9.567  1.00  0.00     0.145 C 
ATOM      4  C   UNL     1      22.036  39.415   8.822  1.00  0.00     0.142 C 
ATOM      5  C   UNL     1      23.025  39.094   7.769  1.00  0.00     0.178 C 
ATOM      6  O   UNL     1      24.269  39.552   7.838  1.00  0.00    -0.332 OA
ENDROOT
BRANCH   1   7
ATOM      7  O   UNL     1      25.774  41.008   8.373  1.00  0.00    -0.338 OA
BRANCH   7   8
ATOM      8  C   UNL     1      26.759  40.216   8.113  1.00  0.00     0.199 C 
BRANCH   8   9
ATOM      9  C   UNL     1      27.778  40.459   7.044  1.00  0.00     0.179 C 
ATOM     10  C   UNL     1      29.489  38.809   7.270  1.00  0.00     0.282 C 
ATOM     11  O   UNL     1      28.978  40.033   7.543  1.00  0.00    -0.341 OA
ATOM     12  C   UNL     1      28.627  37.950   6.453  1.00  0.00     0.202 C 
ATOM     13  C   UNL     1      28.262  38.785   5.214  1.00  0.00     0.179 C 
ATOM     14  C   UNL     1      27.412  39.899   5.711  1.00  0.00     0.177 C 
BRANCH  10  15
ATOM     15  O   UNL     1      29.908  38.331   8.505  1.00  0.00    -0.341 OA
BRANCH  15  16
ATOM     16  C   UNL     1      29.373  38.877   9.598  1.00  0.00     0.184 C 
ATOM     17  C   UNL     1      30.423  39.384  10.525  1.00  0.00     0.178 C 
ATOM     18  O   UNL     1      29.834  40.295  11.409  1.00  0.00    -0.341 OA
ATOM     19  C   UNL     1      28.964  39.638  12.247  1.00  0.00     0.281 C 
ATOM     20  C   UNL     1      28.568  37.891  10.459  1.00  0.00     0.180 C 
ATOM     21  C   UNL     1      27.958  38.757  11.557  1.00  0.00     0.202 C 
BRANCH  17  22
ATOM     22  C   UNL     1      31.643  39.932   9.870  1.00  0.00     0.191 C 
BRANCH  22  23
ATOM     23  O   UNL     1      31.293  41.066   9.150  1.00  0.00    -0.394 OA
ATOM     24  H   UNL     1      32.086  41.524   8.770  1.00  0.00     0.210 HD
ENDBRANCH  22  23
ENDBRANCH  17  22
BRANCH  19  25
ATOM     25  O   UNL     1      28.221  40.629  12.903  1.00  0.00    -0.350 OA
BRANCH  25  26
ATOM     26  C   UNL     1      27.341  41.300  12.092  1.00  0.00     0.169 C 
BRANCH  26  27
ATOM     27  C   UNL     1      26.814  42.584  12.699  1.00  0.00     0.119 C 
BRANCH  27  28
ATOM     28  N   UNL     1      25.374  42.675  12.554  1.00  0.00    -0.092 NA
ATOM     29  N   UNL     1      24.629  41.869  13.110  1.00  0.00     0.001 N 
ATOM     30  N   UNL     1      23.837  40.930  13.200  1.00  0.00    -0.003 NA
ENDBRANCH  27  28
ENDBRANCH  26  27
ENDBRANCH  25  26
ENDBRANCH  19  25
BRANCH  20  31
ATOM     31  O   UNL     1      27.523  37.316   9.787  1.00  0.00    -0.387 OA
ATOM     32  H   UNL     1      27.047  38.009   9.280  1.00  0.00     0.211 HD
ENDBRANCH  20  31
BRANCH  21  33
ATOM     33  O   UNL     1      27.322  37.953  12.469  1.00  0.00    -0.385 OA
ATOM     34  H   UNL     1      26.652  37.375  12.068  1.00  0.00     0.211 HD
ENDBRANCH  21  33
ENDBRANCH  15  16
ENDBRANCH  10  15
BRANCH  12  35
ATOM     35  O   UNL     1      29.253  36.831   5.907  1.00  0.00    -0.385 OA
ATOM     36  H   UNL     1      30.126  36.679   6.348  1.00  0.00     0.211 HD
ENDBRANCH  12  35
BRANCH  13  37
ATOM     37  O   UNL     1      27.651  38.040   4.236  1.00  0.00    -0.387 OA
ATOM     38  H   UNL     1      27.073  38.649   3.709  1.00  0.00     0.211 HD
ENDBRANCH  13  37
BRANCH  14  39
ATOM     39  O   UNL     1      26.092  39.459   5.754  1.00  0.00    -0.387 OA
ATOM     40  H   UNL     1      25.438  40.176   5.585  1.00  0.00     0.211 HD
ENDBRANCH  14  39
ENDBRANCH   8   9
ENDBRANCH   7   8
ENDBRANCH   1   7
BRANCH   1  41
ATOM     41  C   UNL     1      23.783  41.739   7.156  1.00  0.00     0.364 C 
ATOM     42  O   UNL     1      24.222  41.633   5.939  1.00  0.00    -0.246 OA
BRANCH  41  43
ATOM     43  O   UNL     1      22.742  42.623   7.257  1.00  0.00    -0.477 OA
ATOM     44  H   UNL     1      22.731  43.430   7.880  1.00  0.00     0.296 HD
ENDBRANCH  41  43
ENDBRANCH   1  41
BRANCH   3  45
ATOM     45  O   UNL     1      21.986  40.516  10.937  1.00  0.00    -0.391 OA
ATOM     46  H   UNL     1      22.785  40.440  11.500  1.00  0.00     0.211 HD
ENDBRANCH   3  45
BRANCH   5  47
ATOM     47  C   UNL     1      23.119  37.558   7.554  1.00  0.00     0.176 C 
BRANCH  47  48
ATOM     48  O   UNL     1      21.886  37.083   7.128  1.00  0.00    -0.388 OA
ATOM     49  H   UNL     1      21.575  36.306   7.637  1.00  0.00     0.211 HD
ENDBRANCH  47  48
BRANCH  47  50
ATOM     50  C   UNL     1      23.570  36.892   8.771  1.00  0.00     0.165 C 
BRANCH  50  51
ATOM     51  O   UNL     1      24.995  36.684   8.608  1.00  0.00    -0.388 OA
ATOM     52  H   UNL     1      25.140  35.835   8.125  1.00  0.00     0.211 HD
ENDBRANCH  50  51
BRANCH  50  53
ATOM     53  C   UNL     1      22.996  35.607   9.189  1.00  0.00     0.154 C 
BRANCH  53  54
ATOM     54  N   UNL     1      23.480  34.862  10.273  1.00  0.00    -0.319 N 
ATOM     55  C   UNL     1      22.961  34.823  11.591  1.00  0.00     0.407 C 
ATOM     56  H   UNL     1      24.347  34.247  10.097  1.00  0.00     0.167 HD
ATOM     57  O   UNL     1      21.939  35.461  11.906  1.00  0.00    -0.225 OA
BRANCH  55  58
ATOM     58  O   UNL     1      23.633  34.036  12.553  1.00  0.00    -0.443 OA
BRANCH  58  59
ATOM     59  C   UNL     1      24.405  34.680  13.535  1.00  0.00     0.294 C 
BRANCH  59  60
ATOM     60  C   UNL     1      25.803  34.776  13.052  1.00  0.00     0.120 A 
ATOM     61  C   UNL     1      26.957  34.588  13.832  1.00  0.00     0.138 A 
ATOM     62  N   UNL     1      26.286  35.039  11.829  1.00  0.00    -0.132 NA
ATOM     63  N   UNL     1      28.052  34.741  13.067  1.00  0.00    -0.249 N 
ATOM     64  N   UNL     1      27.618  35.012  11.865  1.00  0.00    -0.067 NA
BRANCH  63  65
ATOM     65  C   UNL     1      29.424  34.624  13.501  1.00  0.00     0.111 C 
ATOM     66  C   UNL     1      30.060  35.979  13.369  1.00  0.00     0.043 C 
ATOM     67  C   UNL     1      29.534  34.161  14.927  1.00  0.00     0.043 C 
ATOM     68  C   UNL     1      30.167  36.615  14.736  1.00  0.00     0.086 C 
ATOM     69  C   UNL     1      30.869  34.472  15.550  1.00  0.00     0.086 C 
ATOM     70  N   UNL     1      31.187  35.883  15.486  1.00  0.00    -0.306 NA
ATOM     71  C   UNL     1      32.451  36.054  14.790  1.00  0.00     0.105 C 
ENDBRANCH  63  65
ENDBRANCH  59  60
ENDBRANCH  58  59
ENDBRANCH  55  58
ENDBRANCH  53  54
ENDBRANCH  50  53
ENDBRANCH  47  50
ENDBRANCH   5  47
BRANCH   4  72
ATOM     72  N   UNL     1      20.684  39.413   8.299  1.00  0.00    -0.348 N 
ATOM     73  C   UNL     1      19.745  38.491   8.815  1.00  0.00     0.217 C 
ATOM     74  H   UNL     1      20.374  40.075   7.547  1.00  0.00     0.163 HD
ATOM     75  C   UNL     1      18.336  38.445   8.307  1.00  0.00     0.114 C 
ATOM     76  O   UNL     1      20.092  37.677   9.730  1.00  0.00    -0.275 OA
ENDBRANCH   4  72
TORSDOF 30
BEGIN_RES LYS A 131
REMARK  4 active torsions:
REMARK  status: ('A' for Active; 'I' for Inactive)
REMARK    1  A    between atoms: CA   and  CB  
REMARK    2  A    between atoms: CB   and  CG  
REMARK    3  A    between atoms: CG   and  CD  
REMARK    4  A    between atoms: CD   and  CE  
ROOT
ATOM      1  CA  LYS A 131      29.867  25.555  16.977  1.00 20.52     0.186 C 
ENDROOT
BRANCH   1   2
ATOM      2  CB  LYS A 131      28.345  25.722  17.026  1.00 20.94     0.034 C 
BRANCH   2   3
ATOM      3  CG  LYS A 131      27.601  24.402  16.894  1.00 22.96     0.005 C 
BRANCH   3   4
ATOM      4  CD  LYS A 131      26.149  24.531  17.260  1.00 24.33     0.041 C 
BRANCH   4   5
ATOM      5  CE  LYS A 131      26.005  25.483  18.443  1.00 26.91     0.338 C 
ATOM      6  NZ  LYS A 131      24.952  26.491  18.172  1.00 27.40     0.618 N 
ENDBRANCH   4   5
ENDBRANCH   3   4
ENDBRANCH   2   3
ENDBRANCH   1   2
END_RES LYS A 131
BEGIN_RES LYS A 135
REMARK  4 active torsions:
REMARK  status: ('A' for Active; 'I' for Inactive)
REMARK    5  A    between atoms: CA   and  CB  
REMARK    6  A    between atoms: CB   and  CG  
REMARK    7  A    between atoms: CG   and  CD  
REMARK    8  A    between atoms: CD   and  CE  
ROOT
ATOM      7  CA  LYS A 135      33.193  34.663   9.290  1.00 25.02     0.186 C 
ENDROOT
BRANCH   7   8
ATOM      8  CB  LYS A 135      32.060  35.360  10.034  1.00 26.63     0.034 C 
BRANCH   8   9
ATOM      9  CG  LYS A 135      30.776  34.571  10.052  1.00 29.45     0.005 C 
BRANCH   9  10
ATOM     10  CD  LYS A 135      30.042  34.710   8.727  1.00 32.00     0.041 C 
BRANCH  10  11
ATOM     11  CE  LYS A 135      28.673  34.064   8.806  1.00 34.25     0.338 C 
ATOM     12  NZ  LYS A 135      27.707  34.739   7.896  1.00 35.99     0.618 N 
ENDBRANCH  10  11
ENDBRANCH   9  10
ENDBRANCH   8   9
ENDBRANCH   7   8
END_RES LYS A 135
