REMARK VINA RESULT:    -5.146      2.128      5.820
REMARK INTER + INTRA:         -23.130
REMARK INTER:                 -11.893
REMARK INTRA:                 -11.237
REMARK UNBOUND:               -10.464
REMARK SMILES CC(=O)N[C@@H]1[C@@H](O)C[C@](OC[C@H]2O[C@@H](O[C@H]3[C@H](O)[C@@H](O)[C@H](OCCN=[N+]=[N-])O[C@@H]3CO)[C@H](O)[C@@H](O)[C@H]2O)(C(=O)O)O[C@H]1C(O)[C@H](O)CNC(=O)OCc1cn(-c2c3ccccc3nc3ccccc23)nn1
REMARK SMILES IDX 9 1 8 2 6 3 5 4 42 5 41 6 10 7 11 8 12 9 14 10 13 11 32 12
REMARK SMILES IDX 34 13 36 14 15 15 16 16 29 17 28 18 21 19 17 20 19 21 30 22
REMARK SMILES IDX 31 23 22 25 23 26 24 27 25 28 26 29 27 30 18 31 20 33 33 35
REMARK SMILES IDX 35 37 37 39 38 41 39 42 40 43 7 45 43 47 44 48 45 50 46 51
REMARK SMILES IDX 47 53 48 54 49 55 50 57 51 58 52 59 53 60 54 61 71 62 55 63
REMARK SMILES IDX 70 64 56 65 57 66 69 67 58 68 62 69 64 70 68 71 59 72 61 73
REMARK SMILES IDX 63 74 65 75 67 76 60 77 66 78 4 79 2 80 1 82 3 83
REMARK H PARENT 31 24 18 32 20 34 33 36 35 38 37 40 40 44 7 46 44 49 46 52
REMARK H PARENT 48 56 4 81
REMARK Flexibility Score: inf
ROOT
ATOM      1  C   UNL     1      29.501  32.358  17.405  1.00  0.00     0.272 C 
ATOM      2  C   UNL     1      29.813  31.328  16.211  1.00  0.00     0.113 C 
ATOM      3  C   UNL     1      28.682  30.368  16.276  1.00  0.00     0.145 C 
ATOM      4  C   UNL     1      27.307  31.001  16.210  1.00  0.00     0.142 C 
ATOM      5  C   UNL     1      27.246  32.383  16.712  1.00  0.00     0.178 C 
ATOM      6  O   UNL     1      28.419  33.005  16.976  1.00  0.00    -0.332 OA
ENDROOT
BRANCH   1   7
ATOM      7  O   UNL     1      30.620  33.182  17.271  1.00  0.00    -0.338 OA
BRANCH   7   8
ATOM      8  C   UNL     1      31.494  32.876  16.284  1.00  0.00     0.199 C 
BRANCH   8   9
ATOM      9  C   UNL     1      31.765  33.955  15.309  1.00  0.00     0.179 C 
ATOM     10  C   UNL     1      30.877  35.314  13.632  1.00  0.00     0.282 C 
ATOM     11  O   UNL     1      30.677  34.245  14.532  1.00  0.00    -0.341 OA
ATOM     12  C   UNL     1      32.270  35.775  13.535  1.00  0.00     0.202 C 
ATOM     13  C   UNL     1      32.864  36.082  14.890  1.00  0.00     0.179 C 
ATOM     14  C   UNL     1      32.307  35.222  15.976  1.00  0.00     0.177 C 
BRANCH  10  15
ATOM     15  O   UNL     1      29.974  36.331  13.909  1.00  0.00    -0.341 OA
BRANCH  15  16
ATOM     16  C   UNL     1      28.659  35.850  14.109  1.00  0.00     0.184 C 
ATOM     17  C   UNL     1      27.842  36.112  12.908  1.00  0.00     0.178 C 
ATOM     18  O   UNL     1      26.445  36.107  13.159  1.00  0.00    -0.341 OA
ATOM     19  C   UNL     1      26.194  37.171  14.016  1.00  0.00     0.281 C 
ATOM     20  C   UNL     1      28.159  36.651  15.321  1.00  0.00     0.180 C 
ATOM     21  C   UNL     1      26.658  36.679  15.396  1.00  0.00     0.202 C 
BRANCH  17  22
ATOM     22  C   UNL     1      28.080  35.067  11.828  1.00  0.00     0.191 C 
BRANCH  22  23
ATOM     23  O   UNL     1      26.989  34.271  11.588  1.00  0.00    -0.394 OA
ATOM     24  H   UNL     1      26.994  33.997  10.634  1.00  0.00     0.210 HD
ENDBRANCH  22  23
ENDBRANCH  17  22
BRANCH  19  25
ATOM     25  O   UNL     1      24.849  37.441  13.975  1.00  0.00    -0.350 OA
BRANCH  25  26
ATOM     26  C   UNL     1      24.529  38.700  13.476  1.00  0.00     0.169 C 
BRANCH  26  27
ATOM     27  C   UNL     1      23.976  39.615  14.547  1.00  0.00     0.119 C 
BRANCH  27  28
ATOM     28  N   UNL     1      23.468  38.762  15.616  1.00  0.00    -0.092 NA
ATOM     29  N   UNL     1      23.284  39.216  16.750  1.00  0.00     0.001 N 
ATOM     30  N   UNL     1      23.019  39.632  17.880  1.00  0.00    -0.003 NA
ENDBRANCH  27  28
ENDBRANCH  26  27
ENDBRANCH  25  26
ENDBRANCH  19  25
BRANCH  20  31
ATOM     31  O   UNL     1      28.748  36.168  16.479  1.00  0.00    -0.387 OA
ATOM     32  H   UNL     1      29.732  36.095  16.412  1.00  0.00     0.211 HD
ENDBRANCH  20  31
BRANCH  21  33
ATOM     33  O   UNL     1      26.264  37.544  16.392  1.00  0.00    -0.385 OA
ATOM     34  H   UNL     1      25.259  37.537  16.408  1.00  0.00     0.211 HD
ENDBRANCH  21  33
ENDBRANCH  15  16
ENDBRANCH  10  15
BRANCH  12  35
ATOM     35  O   UNL     1      33.051  34.864  12.806  1.00  0.00    -0.385 OA
ATOM     36  H   UNL     1      33.022  35.191  11.858  1.00  0.00     0.211 HD
ENDBRANCH  12  35
BRANCH  13  37
ATOM     37  O   UNL     1      32.645  37.448  15.148  1.00  0.00    -0.387 OA
ATOM     38  H   UNL     1      33.561  37.871  15.118  1.00  0.00     0.211 HD
ENDBRANCH  13  37
BRANCH  14  39
ATOM     39  O   UNL     1      31.356  35.857  16.748  1.00  0.00    -0.387 OA
ATOM     40  H   UNL     1      31.704  36.660  17.214  1.00  0.00     0.211 HD
ENDBRANCH  14  39
ENDBRANCH   8   9
ENDBRANCH   7   8
ENDBRANCH   1   7
BRANCH   1  41
ATOM     41  C   UNL     1      29.525  31.521  18.558  1.00  0.00     0.364 C 
ATOM     42  O   UNL     1      28.706  31.702  19.516  1.00  0.00    -0.246 OA
BRANCH  41  43
ATOM     43  O   UNL     1      30.396  30.448  18.780  1.00  0.00    -0.477 OA
ATOM     44  H   UNL     1      31.141  30.559  19.456  1.00  0.00     0.296 HD
ENDBRANCH  41  43
ENDBRANCH   1  41
BRANCH   3  45
ATOM     45  O   UNL     1      28.855  29.468  15.197  1.00  0.00    -0.391 OA
ATOM     46  H   UNL     1      28.836  28.539  15.548  1.00  0.00     0.211 HD
ENDBRANCH   3  45
BRANCH   5  47
ATOM     47  C   UNL     1      26.517  33.323  15.713  1.00  0.00     0.176 C 
BRANCH  47  48
ATOM     48  O   UNL     1      26.941  33.090  14.438  1.00  0.00    -0.388 OA
ATOM     49  H   UNL     1      26.450  32.345  13.968  1.00  0.00     0.211 HD
ENDBRANCH  47  48
BRANCH  47  50
ATOM     50  C   UNL     1      25.091  33.477  15.984  1.00  0.00     0.165 C 
BRANCH  50  51
ATOM     51  O   UNL     1      24.597  32.879  17.146  1.00  0.00    -0.388 OA
ATOM     52  H   UNL     1      24.870  33.375  17.958  1.00  0.00     0.211 HD
ENDBRANCH  50  51
BRANCH  50  53
ATOM     53  C   UNL     1      24.137  33.462  14.853  1.00  0.00     0.154 C 
BRANCH  53  54
ATOM     54  N   UNL     1      24.451  34.127  13.644  1.00  0.00    -0.319 N 
ATOM     55  C   UNL     1      23.637  34.164  12.493  1.00  0.00     0.407 C 
ATOM     56  H   UNL     1      25.399  34.659  13.592  1.00  0.00     0.167 HD
ATOM     57  O   UNL     1      22.543  33.591  12.380  1.00  0.00    -0.225 OA
BRANCH  55  58
ATOM     58  O   UNL     1      24.040  34.888  11.354  1.00  0.00    -0.443 OA
BRANCH  58  59
ATOM     59  C   UNL     1      23.243  35.901  10.764  1.00  0.00     0.294 C 
BRANCH  59  60
ATOM     60  C   UNL     1      24.126  36.976  10.228  1.00  0.00     0.121 A 
ATOM     61  C   UNL     1      25.480  36.924   9.974  1.00  0.00     0.144 A 
ATOM     62  N   UNL     1      23.759  38.223   9.899  1.00  0.00    -0.131 NA
ATOM     63  N   UNL     1      25.911  38.116   9.503  1.00  0.00    -0.219 N 
ATOM     64  N   UNL     1      24.837  38.888   9.470  1.00  0.00    -0.062 NA
BRANCH  63  65
ATOM     65  C   UNL     1      27.259  38.454   9.128  1.00  0.00     0.085 A 
ATOM     66  C   UNL     1      28.125  38.995  10.066  1.00  0.00     0.027 A 
ATOM     67  C   UNL     1      27.733  38.264   7.851  1.00  0.00     0.027 A 
ATOM     68  C   UNL     1      27.711  39.210  11.363  1.00  0.00     0.012 A 
ATOM     69  C   UNL     1      29.437  39.343   9.752  1.00  0.00     0.073 A 
ATOM     70  C   UNL     1      29.035  38.620   7.582  1.00  0.00     0.073 A 
ATOM     71  C   UNL     1      26.936  37.735   6.879  1.00  0.00     0.012 A 
ATOM     72  C   UNL     1      28.572  39.746  12.296  1.00  0.00     0.001 A 
ATOM     73  C   UNL     1      30.294  39.879  10.688  1.00  0.00     0.029 A 
ATOM     74  N   UNL     1      29.866  39.145   8.500  1.00  0.00    -0.248 NA
ATOM     75  C   UNL     1      29.546  38.444   6.313  1.00  0.00     0.029 A 
ATOM     76  C   UNL     1      27.476  37.567   5.610  1.00  0.00     0.001 A 
ATOM     77  C   UNL     1      29.882  40.094  11.981  1.00  0.00     0.002 A 
ATOM     78  C   UNL     1      28.774  37.910   5.297  1.00  0.00     0.002 A 
ENDBRANCH  63  65
ENDBRANCH  59  60
ENDBRANCH  58  59
ENDBRANCH  55  58
ENDBRANCH  53  54
ENDBRANCH  50  53
ENDBRANCH  47  50
ENDBRANCH   5  47
BRANCH   4  79
ATOM     79  N   UNL     1      26.350  30.108  16.823  1.00  0.00    -0.348 N 
ATOM     80  C   UNL     1      25.168  29.630  16.182  1.00  0.00     0.217 C 
ATOM     81  H   UNL     1      26.487  29.767  17.802  1.00  0.00     0.163 HD
ATOM     82  C   UNL     1      24.247  28.709  16.930  1.00  0.00     0.114 C 
ATOM     83  O   UNL     1      24.948  30.001  15.018  1.00  0.00    -0.275 OA
ENDBRANCH   4  79
TORSDOF 30
BEGIN_RES LYS A 131
REMARK  4 active torsions:
REMARK  status: ('A' for Active; 'I' for Inactive)
REMARK    1  A    between atoms: CA   and  CB  
REMARK    2  A    between atoms: CB   and  CG  
REMARK    3  A    between atoms: CG   and  CD  
REMARK    4  A    between atoms: CD   and  CE  
ROOT
ATOM      1  CA  LYS A 131      29.867  25.555  16.977  1.00 20.52     0.186 C 
ENDROOT
BRANCH   1   2
ATOM      2  CB  LYS A 131      28.345  25.722  17.026  1.00 20.94     0.034 C 
BRANCH   2   3
ATOM      3  CG  LYS A 131      27.602  24.399  16.919  1.00 22.96     0.005 C 
BRANCH   3   4
ATOM      4  CD  LYS A 131      26.133  24.550  17.203  1.00 24.33     0.041 C 
BRANCH   4   5
ATOM      5  CE  LYS A 131      25.922  25.680  18.206  1.00 26.91     0.338 C 
ATOM      6  NZ  LYS A 131      25.742  25.134  19.572  1.00 27.40     0.618 N 
ENDBRANCH   4   5
ENDBRANCH   3   4
ENDBRANCH   2   3
ENDBRANCH   1   2
END_RES LYS A 131
BEGIN_RES LYS A 135
REMARK  4 active torsions:
REMARK  status: ('A' for Active; 'I' for Inactive)
REMARK    5  A    between atoms: CA   and  CB  
REMARK    6  A    between atoms: CB   and  CG  
REMARK    7  A    between atoms: CG   and  CD  
REMARK    8  A    between atoms: CD   and  CE  
ROOT
ATOM      7  CA  LYS A 135      33.193  34.663   9.290  1.00 25.02     0.186 C 
ENDROOT
BRANCH   7   8
ATOM      8  CB  LYS A 135      32.060  35.360  10.034  1.00 26.63     0.034 C 
BRANCH   8   9
ATOM      9  CG  LYS A 135      30.893  35.723   9.152  1.00 29.45     0.005 C 
BRANCH   9  10
ATOM     10  CD  LYS A 135      30.599  34.604   8.165  1.00 32.00     0.041 C 
BRANCH  10  11
ATOM     11  CE  LYS A 135      29.306  34.878   7.419  1.00 34.25     0.338 C 
ATOM     12  NZ  LYS A 135      28.123  34.651   8.295  1.00 35.99     0.618 N 
ENDBRANCH  10  11
ENDBRANCH   9  10
ENDBRANCH   8   9
ENDBRANCH   7   8
END_RES LYS A 135
