REMARK VINA RESULT:    -4.568      4.706     11.397
REMARK INTER + INTRA:         -22.958
REMARK INTER:                 -13.737
REMARK INTRA:                  -9.221
REMARK UNBOUND:               -11.447
REMARK SMILES CC(=O)N[C@@H]1[C@@H](O)C[C@](OC[C@H]2O[C@@H](O[C@H]3[C@H](O)[C@@H](O)[C@H](OCCN=[N+]=[N-])O[C@@H]3CO)[C@H](O)[C@@H](O)[C@H]2O)(C(=O)O)O[C@H]1C(O)[C@H](O)CNC(=O)OCc1cn(-c2ccccc2C(C)C)nn1
REMARK SMILES IDX 9 1 8 2 6 3 5 4 42 5 41 6 10 7 11 8 12 9 14 10 13 11 32 12
REMARK SMILES IDX 34 13 36 14 15 15 16 16 29 17 28 18 21 19 17 20 19 21 30 22
REMARK SMILES IDX 31 23 22 25 23 26 24 27 25 28 26 29 27 30 18 31 20 33 33 35
REMARK SMILES IDX 35 37 37 39 38 41 39 42 40 43 7 45 43 47 44 48 45 50 46 51
REMARK SMILES IDX 47 53 48 54 49 55 50 57 51 58 52 59 53 60 54 61 66 62 55 63
REMARK SMILES IDX 65 64 56 65 61 66 57 67 60 68 58 69 59 70 62 71 63 72 64 73
REMARK SMILES IDX 4 74 2 75 1 77 3 78
REMARK H PARENT 31 24 18 32 20 34 33 36 35 38 37 40 40 44 7 46 44 49 46 52
REMARK H PARENT 48 56 4 76
REMARK Flexibility Score: inf
ROOT
ATOM      1  C   UNL     1      30.864  33.287  17.229  1.00  0.00     0.272 C 
ATOM      2  C   UNL     1      31.999  34.274  17.085  1.00  0.00     0.113 C 
ATOM      3  C   UNL     1      31.453  35.652  17.425  1.00  0.00     0.145 C 
ATOM      4  C   UNL     1      30.479  36.033  16.296  1.00  0.00     0.142 C 
ATOM      5  C   UNL     1      29.545  34.897  16.115  1.00  0.00     0.178 C 
ATOM      6  O   UNL     1      29.647  34.031  17.193  1.00  0.00    -0.332 OA
ENDROOT
BRANCH   1   7
ATOM      7  O   UNL     1      30.839  32.704  18.442  1.00  0.00    -0.338 OA
BRANCH   7   8
ATOM      8  C   UNL     1      29.995  32.771  19.413  1.00  0.00     0.199 C 
BRANCH   8   9
ATOM      9  C   UNL     1      29.422  31.590  20.128  1.00  0.00     0.179 C 
ATOM     10  C   UNL     1      27.619  30.216  20.293  1.00  0.00     0.282 C 
ATOM     11  O   UNL     1      28.077  31.418  19.917  1.00  0.00    -0.341 OA
ATOM     12  C   UNL     1      28.515  29.406  21.220  1.00  0.00     0.202 C 
ATOM     13  C   UNL     1      29.901  29.248  20.655  1.00  0.00     0.179 C 
ATOM     14  C   UNL     1      30.125  30.310  19.619  1.00  0.00     0.177 C 
BRANCH  10  15
ATOM     15  O   UNL     1      27.152  29.375  19.330  1.00  0.00    -0.341 OA
BRANCH  15  16
ATOM     16  C   UNL     1      26.145  29.793  18.497  1.00  0.00     0.184 C 
ATOM     17  C   UNL     1      24.964  28.881  18.479  1.00  0.00     0.178 C 
ATOM     18  O   UNL     1      24.664  28.396  17.254  1.00  0.00    -0.341 OA
ATOM     19  C   UNL     1      24.463  29.245  16.211  1.00  0.00     0.281 C 
ATOM     20  C   UNL     1      26.562  30.172  17.135  1.00  0.00     0.180 C 
ATOM     21  C   UNL     1      25.313  30.510  16.338  1.00  0.00     0.202 C 
BRANCH  17  22
ATOM     22  C   UNL     1      23.692  29.518  19.061  1.00  0.00     0.191 C 
BRANCH  22  23
ATOM     23  O   UNL     1      24.102  30.631  19.832  1.00  0.00    -0.394 OA
ATOM     24  H   UNL     1      24.718  30.259  20.538  1.00  0.00     0.210 HD
ENDBRANCH  22  23
ENDBRANCH  17  22
BRANCH  19  25
ATOM     25  O   UNL     1      23.150  29.631  16.146  1.00  0.00    -0.350 OA
BRANCH  25  26
ATOM     26  C   UNL     1      22.338  29.010  15.251  1.00  0.00     0.169 C 
BRANCH  26  27
ATOM     27  C   UNL     1      22.955  28.388  14.054  1.00  0.00     0.119 C 
BRANCH  27  28
ATOM     28  N   UNL     1      22.901  29.244  12.916  1.00  0.00    -0.092 NA
ATOM     29  N   UNL     1      23.185  30.424  12.869  1.00  0.00     0.001 N 
ATOM     30  N   UNL     1      23.649  31.555  12.955  1.00  0.00    -0.003 NA
ENDBRANCH  27  28
ENDBRANCH  26  27
ENDBRANCH  25  26
ENDBRANCH  19  25
BRANCH  20  31
ATOM     31  O   UNL     1      27.377  31.300  17.071  1.00  0.00    -0.387 OA
ATOM     32  H   UNL     1      26.857  32.032  16.672  1.00  0.00     0.211 HD
ENDBRANCH  20  31
BRANCH  21  33
ATOM     33  O   UNL     1      25.649  30.930  15.049  1.00  0.00    -0.385 OA
ATOM     34  H   UNL     1      24.915  31.518  14.739  1.00  0.00     0.211 HD
ENDBRANCH  21  33
ENDBRANCH  15  16
ENDBRANCH  10  15
BRANCH  12  35
ATOM     35  O   UNL     1      28.548  30.047  22.447  1.00  0.00    -0.385 OA
ATOM     36  H   UNL     1      28.972  30.957  22.344  1.00  0.00     0.211 HD
ENDBRANCH  12  35
BRANCH  13  37
ATOM     37  O   UNL     1      30.030  27.964  20.109  1.00  0.00    -0.387 OA
ATOM     38  H   UNL     1      30.424  28.082  19.209  1.00  0.00     0.211 HD
ENDBRANCH  13  37
BRANCH  14  39
ATOM     39  O   UNL     1      29.508  29.951  18.439  1.00  0.00    -0.387 OA
ATOM     40  H   UNL     1      28.624  30.394  18.410  1.00  0.00     0.211 HD
ENDBRANCH  14  39
ENDBRANCH   8   9
ENDBRANCH   7   8
ENDBRANCH   1   7
BRANCH   1  41
ATOM     41  C   UNL     1      30.833  32.325  16.121  1.00  0.00     0.364 C 
ATOM     42  O   UNL     1      29.940  31.407  16.190  1.00  0.00    -0.246 OA
BRANCH  41  43
ATOM     43  O   UNL     1      31.635  32.266  15.012  1.00  0.00    -0.477 OA
ATOM     44  H   UNL     1      31.851  31.451  14.468  1.00  0.00     0.296 HD
ENDBRANCH  41  43
ENDBRANCH   1  41
BRANCH   3  45
ATOM     45  O   UNL     1      30.657  35.574  18.573  1.00  0.00    -0.391 OA
ATOM     46  H   UNL     1      31.246  35.290  19.315  1.00  0.00     0.211 HD
ENDBRANCH   3  45
BRANCH   5  47
ATOM     47  C   UNL     1      28.085  35.216  16.003  1.00  0.00     0.176 C 
BRANCH  47  48
ATOM     48  O   UNL     1      27.769  35.766  17.294  1.00  0.00    -0.388 OA
ATOM     49  H   UNL     1      26.971  35.207  17.558  1.00  0.00     0.211 HD
ENDBRANCH  47  48
BRANCH  47  50
ATOM     50  C   UNL     1      27.152  34.060  15.829  1.00  0.00     0.165 C 
BRANCH  50  51
ATOM     51  O   UNL     1      27.631  33.070  15.014  1.00  0.00    -0.388 OA
ATOM     52  H   UNL     1      27.546  33.400  14.083  1.00  0.00     0.211 HD
ENDBRANCH  50  51
BRANCH  50  53
ATOM     53  C   UNL     1      25.729  34.450  15.690  1.00  0.00     0.154 C 
BRANCH  53  54
ATOM     54  N   UNL     1      25.102  34.083  14.435  1.00  0.00    -0.319 N 
ATOM     55  C   UNL     1      24.908  35.029  13.399  1.00  0.00     0.407 C 
ATOM     56  H   UNL     1      24.769  33.115  14.240  1.00  0.00     0.167 HD
ATOM     57  O   UNL     1      25.250  36.230  13.480  1.00  0.00    -0.225 OA
BRANCH  55  58
ATOM     58  O   UNL     1      24.305  34.694  12.162  1.00  0.00    -0.443 OA
BRANCH  58  59
ATOM     59  C   UNL     1      23.448  35.599  11.537  1.00  0.00     0.294 C 
BRANCH  59  60
ATOM     60  C   UNL     1      24.055  36.006  10.238  1.00  0.00     0.121 A 
ATOM     61  C   UNL     1      25.365  35.983   9.816  1.00  0.00     0.144 A 
ATOM     62  N   UNL     1      23.371  36.506   9.160  1.00  0.00    -0.131 NA
ATOM     63  N   UNL     1      25.476  36.441   8.558  1.00  0.00    -0.220 N 
ATOM     64  N   UNL     1      24.226  36.752   8.190  1.00  0.00    -0.062 NA
BRANCH  63  65
ATOM     65  C   UNL     1      26.634  36.579   7.741  1.00  0.00     0.070 A 
ATOM     66  C   UNL     1      27.079  37.839   7.409  1.00  0.00    -0.020 A 
ATOM     67  C   UNL     1      27.343  35.508   7.244  1.00  0.00     0.029 A 
ATOM     68  C   UNL     1      28.190  38.016   6.608  1.00  0.00     0.006 A 
ATOM     69  C   UNL     1      28.457  35.667   6.442  1.00  0.00     0.002 A 
ATOM     70  C   UNL     1      28.888  36.938   6.118  1.00  0.00     0.000 A 
BRANCH  66  71
ATOM     71  C   UNL     1      26.355  39.016   7.930  1.00  0.00     0.015 C 
ATOM     72  C   UNL     1      25.692  39.720   6.755  1.00  0.00     0.012 C 
ATOM     73  C   UNL     1      27.359  39.997   8.554  1.00  0.00     0.012 C 
ENDBRANCH  66  71
ENDBRANCH  63  65
ENDBRANCH  59  60
ENDBRANCH  58  59
ENDBRANCH  55  58
ENDBRANCH  53  54
ENDBRANCH  50  53
ENDBRANCH  47  50
ENDBRANCH   5  47
BRANCH   4  74
ATOM     74  N   UNL     1      31.279  36.301  15.123  1.00  0.00    -0.348 N 
ATOM     75  C   UNL     1      30.886  37.105  14.041  1.00  0.00     0.217 C 
ATOM     76  H   UNL     1      32.242  35.851  15.070  1.00  0.00     0.163 HD
ATOM     77  C   UNL     1      31.834  37.281  12.891  1.00  0.00     0.114 C 
ATOM     78  O   UNL     1      29.779  37.659  14.030  1.00  0.00    -0.275 OA
ENDBRANCH   4  74
TORSDOF 31
BEGIN_RES LYS A 131
REMARK  4 active torsions:
REMARK  status: ('A' for Active; 'I' for Inactive)
REMARK    1  A    between atoms: CA   and  CB  
REMARK    2  A    between atoms: CB   and  CG  
REMARK    3  A    between atoms: CG   and  CD  
REMARK    4  A    between atoms: CD   and  CE  
ROOT
ATOM      1  CA  LYS A 131      29.867  25.555  16.977  1.00 20.52     0.186 C 
ENDROOT
BRANCH   1   2
ATOM      2  CB  LYS A 131      28.345  25.722  17.026  1.00 20.94     0.034 C 
BRANCH   2   3
ATOM      3  CG  LYS A 131      27.603  24.395  16.987  1.00 22.96     0.005 C 
BRANCH   3   4
ATOM      4  CD  LYS A 131      26.135  24.558  17.267  1.00 24.33     0.041 C 
BRANCH   4   5
ATOM      5  CE  LYS A 131      25.912  24.660  18.772  1.00 26.91     0.338 C 
ATOM      6  NZ  LYS A 131      24.588  25.260  19.061  1.00 27.40     0.618 N 
ENDBRANCH   4   5
ENDBRANCH   3   4
ENDBRANCH   2   3
ENDBRANCH   1   2
END_RES LYS A 131
BEGIN_RES LYS A 135
REMARK  4 active torsions:
REMARK  status: ('A' for Active; 'I' for Inactive)
REMARK    5  A    between atoms: CA   and  CB  
REMARK    6  A    between atoms: CB   and  CG  
REMARK    7  A    between atoms: CG   and  CD  
REMARK    8  A    between atoms: CD   and  CE  
ROOT
ATOM      7  CA  LYS A 135      33.193  34.663   9.290  1.00 25.02     0.186 C 
ENDROOT
BRANCH   7   8
ATOM      8  CB  LYS A 135      32.060  35.360  10.034  1.00 26.63     0.034 C 
BRANCH   8   9
ATOM      9  CG  LYS A 135      30.697  35.080   9.455  1.00 29.45     0.005 C 
BRANCH   9  10
ATOM     10  CD  LYS A 135      29.605  35.606  10.374  1.00 32.00     0.041 C 
BRANCH  10  11
ATOM     11  CE  LYS A 135      29.403  37.094  10.162  1.00 34.25     0.338 C 
ATOM     12  NZ  LYS A 135      28.298  37.612  11.016  1.00 35.99     0.618 N 
ENDBRANCH  10  11
ENDBRANCH   9  10
ENDBRANCH   8   9
ENDBRANCH   7   8
END_RES LYS A 135
