REMARK VINA RESULT:    -4.939      2.206      3.236
REMARK INTER + INTRA:         -23.301
REMARK INTER:                 -13.556
REMARK INTRA:                  -9.745
REMARK UNBOUND:               -10.853
REMARK SMILES CC(=O)N[C@@H]1[C@@H](O)C[C@](OC[C@H]2O[C@@H](O[C@H]3[C@H](O)[C@@H](O)[C@H](OCCN=[N+]=[N-])O[C@@H]3CO)[C@H](O)[C@@H](O)[C@H]2O)(C(=O)O)O[C@H]1C(O)[C@H](O)CNC(=O)OCc1cn(-c2ncn3c2c(=O)n(C(C)C)c2ccccc23)nn1
REMARK SMILES IDX 9 1 8 2 6 3 5 4 42 5 41 6 10 7 11 8 12 9 14 10 13 11 32 12
REMARK SMILES IDX 34 13 36 14 15 15 16 16 29 17 28 18 21 19 17 20 19 21 30 22
REMARK SMILES IDX 31 23 22 25 23 26 24 27 25 28 26 29 27 30 18 31 20 33 33 35
REMARK SMILES IDX 35 37 37 39 38 41 39 42 40 43 7 45 43 47 44 48 45 50 46 51
REMARK SMILES IDX 47 53 48 54 49 55 50 57 51 58 52 59 53 60 54 61 74 62 55 63
REMARK SMILES IDX 73 64 56 65 57 66 60 67 58 68 59 69 61 70 72 71 63 72 62 73
REMARK SMILES IDX 71 74 67 75 70 76 68 77 69 78 64 79 65 80 66 81 4 82 2 83
REMARK SMILES IDX 1 85 3 86
REMARK H PARENT 31 24 18 32 20 34 33 36 35 38 37 40 40 44 7 46 44 49 46 52
REMARK H PARENT 48 56 4 84
REMARK Flexibility Score: inf
ROOT
ATOM      1  C   UNL     1      23.387  36.951   9.436  1.00  0.00     0.272 C 
ATOM      2  C   UNL     1      22.822  35.840   8.593  1.00  0.00     0.113 C 
ATOM      3  C   UNL     1      21.366  35.691   8.739  1.00  0.00     0.145 C 
ATOM      4  C   UNL     1      20.595  36.980   8.717  1.00  0.00     0.142 C 
ATOM      5  C   UNL     1      21.369  38.150   9.208  1.00  0.00     0.178 C 
ATOM      6  O   UNL     1      22.692  38.144   9.060  1.00  0.00    -0.332 OA
ENDROOT
BRANCH   1   7
ATOM      7  O   UNL     1      24.638  37.203   8.944  1.00  0.00    -0.338 OA
BRANCH   7   8
ATOM      8  C   UNL     1      25.002  38.183   8.167  1.00  0.00     0.199 C 
BRANCH   8   9
ATOM      9  C   UNL     1      26.009  38.118   7.072  1.00  0.00     0.179 C 
ATOM     10  C   UNL     1      28.069  39.098   6.601  1.00  0.00     0.282 C 
ATOM     11  O   UNL     1      27.034  39.026   7.497  1.00  0.00    -0.341 OA
ATOM     12  C   UNL     1      28.806  37.779   6.461  1.00  0.00     0.202 C 
ATOM     13  C   UNL     1      27.835  36.650   6.163  1.00  0.00     0.179 C 
ATOM     14  C   UNL     1      26.685  36.747   7.128  1.00  0.00     0.177 C 
BRANCH  10  15
ATOM     15  O   UNL     1      28.969  40.036   7.094  1.00  0.00    -0.341 OA
BRANCH  15  16
ATOM     16  C   UNL     1      29.029  39.994   8.462  1.00  0.00     0.184 C 
ATOM     17  C   UNL     1      29.360  41.333   9.013  1.00  0.00     0.178 C 
ATOM     18  O   UNL     1      30.674  41.547   9.343  1.00  0.00    -0.341 OA
ATOM     19  C   UNL     1      31.598  40.795   8.666  1.00  0.00     0.281 C 
ATOM     20  C   UNL     1      29.952  38.909   8.977  1.00  0.00     0.180 C 
ATOM     21  C   UNL     1      31.370  39.310   8.802  1.00  0.00     0.202 C 
BRANCH  17  22
ATOM     22  C   UNL     1      28.479  41.652  10.203  1.00  0.00     0.191 C 
BRANCH  22  23
ATOM     23  O   UNL     1      29.264  41.349  11.342  1.00  0.00    -0.394 OA
ATOM     24  H   UNL     1      29.031  42.024  12.020  1.00  0.00     0.210 HD
ENDBRANCH  22  23
ENDBRANCH  17  22
BRANCH  19  25
ATOM     25  O   UNL     1      32.849  41.043   9.258  1.00  0.00    -0.350 OA
BRANCH  25  26
ATOM     26  C   UNL     1      33.623  41.941   8.575  1.00  0.00     0.169 C 
BRANCH  26  27
ATOM     27  C   UNL     1      34.065  41.519   7.210  1.00  0.00     0.119 C 
BRANCH  27  28
ATOM     28  N   UNL     1      34.567  40.143   7.356  1.00  0.00    -0.092 NA
ATOM     29  N   UNL     1      35.743  39.848   7.322  1.00  0.00     0.001 N 
ATOM     30  N   UNL     1      36.860  39.414   7.026  1.00  0.00    -0.003 NA
ENDBRANCH  27  28
ENDBRANCH  26  27
ENDBRANCH  25  26
ENDBRANCH  19  25
BRANCH  20  31
ATOM     31  O   UNL     1      29.610  38.621  10.304  1.00  0.00    -0.387 OA
ATOM     32  H   UNL     1      30.486  38.524  10.780  1.00  0.00     0.211 HD
ENDBRANCH  20  31
BRANCH  21  33
ATOM     33  O   UNL     1      31.838  38.694   7.627  1.00  0.00    -0.385 OA
ATOM     34  H   UNL     1      31.324  37.872   7.415  1.00  0.00     0.211 HD
ENDBRANCH  21  33
ENDBRANCH  15  16
ENDBRANCH  10  15
BRANCH  12  35
ATOM     35  O   UNL     1      29.633  37.881   5.345  1.00  0.00    -0.385 OA
ATOM     36  H   UNL     1      30.144  38.725   5.333  1.00  0.00     0.211 HD
ENDBRANCH  12  35
BRANCH  13  37
ATOM     37  O   UNL     1      28.511  35.455   6.471  1.00  0.00    -0.387 OA
ATOM     38  H   UNL     1      29.489  35.628   6.554  1.00  0.00     0.211 HD
ENDBRANCH  13  37
BRANCH  14  39
ATOM     39  O   UNL     1      27.253  36.607   8.422  1.00  0.00    -0.387 OA
ATOM     40  H   UNL     1      26.556  36.350   9.072  1.00  0.00     0.211 HD
ENDBRANCH  14  39
ENDBRANCH   8   9
ENDBRANCH   7   8
ENDBRANCH   1   7
BRANCH   1  41
ATOM     41  C   UNL     1      23.211  36.783  10.871  1.00  0.00     0.364 C 
ATOM     42  O   UNL     1      23.003  37.700  11.665  1.00  0.00    -0.246 OA
BRANCH  41  43
ATOM     43  O   UNL     1      23.274  35.501  11.449  1.00  0.00    -0.477 OA
ATOM     44  H   UNL     1      22.513  34.850  11.301  1.00  0.00     0.296 HD
ENDBRANCH  41  43
ENDBRANCH   1  41
BRANCH   3  45
ATOM     45  O   UNL     1      20.930  34.873   7.663  1.00  0.00    -0.391 OA
ATOM     46  H   UNL     1      21.698  34.534   7.150  1.00  0.00     0.211 HD
ENDBRANCH   3  45
BRANCH   5  47
ATOM     47  C   UNL     1      20.819  39.464   8.682  1.00  0.00     0.176 C 
BRANCH  47  48
ATOM     48  O   UNL     1      21.784  40.111   7.943  1.00  0.00    -0.388 OA
ATOM     49  H   UNL     1      22.678  39.689   8.001  1.00  0.00     0.211 HD
ENDBRANCH  47  48
BRANCH  47  50
ATOM     50  C   UNL     1      20.259  40.364   9.727  1.00  0.00     0.165 C 
BRANCH  50  51
ATOM     51  O   UNL     1      18.978  40.805   9.533  1.00  0.00    -0.388 OA
ATOM     52  H   UNL     1      18.898  41.562   8.909  1.00  0.00     0.211 HD
ENDBRANCH  50  51
BRANCH  50  53
ATOM     53  C   UNL     1      21.156  41.510  10.082  1.00  0.00     0.154 C 
BRANCH  53  54
ATOM     54  N   UNL     1      22.031  41.154  11.205  1.00  0.00    -0.319 N 
ATOM     55  C   UNL     1      23.416  40.974  11.061  1.00  0.00     0.407 C 
ATOM     56  H   UNL     1      21.609  41.025  12.174  1.00  0.00     0.167 HD
ATOM     57  O   UNL     1      23.975  41.099   9.941  1.00  0.00    -0.225 OA
BRANCH  55  58
ATOM     58  O   UNL     1      24.164  40.649  12.202  1.00  0.00    -0.443 OA
BRANCH  58  59
ATOM     59  C   UNL     1      25.563  40.678  12.169  1.00  0.00     0.294 C 
BRANCH  59  60
ATOM     60  C   UNL     1      26.163  39.300  12.003  1.00  0.00     0.121 A 
ATOM     61  C   UNL     1      26.264  38.333  12.977  1.00  0.00     0.146 A 
ATOM     62  N   UNL     1      26.697  38.756  10.897  1.00  0.00    -0.131 NA
ATOM     63  N   UNL     1      26.856  37.221  12.449  1.00  0.00    -0.200 N 
ATOM     64  N   UNL     1      27.101  37.522  11.189  1.00  0.00    -0.060 NA
BRANCH  63  65
ATOM     65  C   UNL     1      27.126  36.009  13.153  1.00  0.00     0.186 A 
ATOM     66  N   UNL     1      26.197  35.111  13.521  1.00  0.00    -0.216 NA
ATOM     67  C   UNL     1      28.313  35.496  13.613  1.00  0.00     0.158 A 
ATOM     68  C   UNL     1      26.782  34.091  14.178  1.00  0.00     0.207 A 
ATOM     69  N   UNL     1      28.113  34.313  14.247  1.00  0.00    -0.291 N 
ATOM     70  C   UNL     1      29.583  36.004  13.515  1.00  0.00     0.279 A 
ATOM     71  C   UNL     1      29.133  33.623  14.786  1.00  0.00     0.071 A 
ATOM     72  N   UNL     1      30.633  35.329  14.049  1.00  0.00    -0.302 N 
ATOM     73  O   UNL     1      29.801  37.108  12.926  1.00  0.00    -0.267 OA
ATOM     74  C   UNL     1      28.932  32.432  15.431  1.00  0.00     0.029 A 
ATOM     75  C   UNL     1      30.399  34.154  14.675  1.00  0.00     0.068 A 
ATOM     76  C   UNL     1      29.996  31.714  15.998  1.00  0.00     0.002 A 
ATOM     77  C   UNL     1      31.444  33.444  15.234  1.00  0.00     0.028 A 
ATOM     78  C   UNL     1      31.265  32.234  15.894  1.00  0.00     0.002 A 
BRANCH  72  79
ATOM     79  C   UNL     1      31.990  35.866  13.937  1.00  0.00     0.085 C 
ATOM     80  C   UNL     1      32.461  36.012  12.528  1.00  0.00     0.031 C 
ATOM     81  C   UNL     1      32.193  37.089  14.795  1.00  0.00     0.031 C 
ENDBRANCH  72  79
ENDBRANCH  63  65
ENDBRANCH  59  60
ENDBRANCH  58  59
ENDBRANCH  55  58
ENDBRANCH  53  54
ENDBRANCH  50  53
ENDBRANCH  47  50
ENDBRANCH   5  47
BRANCH   4  82
ATOM     82  N   UNL     1      19.356  36.782   9.440  1.00  0.00    -0.348 N 
ATOM     83  C   UNL     1      18.080  36.967   8.860  1.00  0.00     0.217 C 
ATOM     84  H   UNL     1      19.383  36.487  10.445  1.00  0.00     0.163 HD
ATOM     85  C   UNL     1      16.810  36.761   9.617  1.00  0.00     0.114 C 
ATOM     86  O   UNL     1      18.031  37.324   7.647  1.00  0.00    -0.275 OA
ENDBRANCH   4  82
TORSDOF 31
BEGIN_RES LYS A 131
REMARK  4 active torsions:
REMARK  status: ('A' for Active; 'I' for Inactive)
REMARK    1  A    between atoms: CA   and  CB  
REMARK    2  A    between atoms: CB   and  CG  
REMARK    3  A    between atoms: CG   and  CD  
REMARK    4  A    between atoms: CD   and  CE  
ROOT
ATOM      1  CA  LYS A 131      29.867  25.555  16.977  1.00 20.52     0.186 C 
ENDROOT
BRANCH   1   2
ATOM      2  CB  LYS A 131      28.345  25.722  17.026  1.00 20.94     0.034 C 
BRANCH   2   3
ATOM      3  CG  LYS A 131      27.600  24.411  16.824  1.00 22.96     0.005 C 
BRANCH   3   4
ATOM      4  CD  LYS A 131      26.693  24.092  17.979  1.00 24.33     0.041 C 
BRANCH   4   5
ATOM      5  CE  LYS A 131      25.807  25.297  18.280  1.00 26.91     0.338 C 
ATOM      6  NZ  LYS A 131      25.809  25.592  19.732  1.00 27.40     0.618 N 
ENDBRANCH   4   5
ENDBRANCH   3   4
ENDBRANCH   2   3
ENDBRANCH   1   2
END_RES LYS A 131
BEGIN_RES LYS A 135
REMARK  4 active torsions:
REMARK  status: ('A' for Active; 'I' for Inactive)
REMARK    5  A    between atoms: CA   and  CB  
REMARK    6  A    between atoms: CB   and  CG  
REMARK    7  A    between atoms: CG   and  CD  
REMARK    8  A    between atoms: CD   and  CE  
ROOT
ATOM      7  CA  LYS A 135      33.193  34.663   9.290  1.00 25.02     0.186 C 
ENDROOT
BRANCH   7   8
ATOM      8  CB  LYS A 135      32.060  35.360  10.034  1.00 26.63     0.034 C 
BRANCH   8   9
ATOM      9  CG  LYS A 135      30.744  35.322   9.300  1.00 29.45     0.005 C 
BRANCH   9  10
ATOM     10  CD  LYS A 135      29.645  34.775  10.198  1.00 32.00     0.041 C 
BRANCH  10  11
ATOM     11  CE  LYS A 135      28.798  33.765   9.448  1.00 34.25     0.338 C 
ATOM     12  NZ  LYS A 135      27.393  33.771   9.943  1.00 35.99     0.618 N 
ENDBRANCH  10  11
ENDBRANCH   9  10
ENDBRANCH   8   9
ENDBRANCH   7   8
END_RES LYS A 135
