REMARK VINA RESULT:    -3.884      3.507      7.617
REMARK INTER + INTRA:         -23.237
REMARK INTER:                 -10.973
REMARK INTRA:                 -12.263
REMARK UNBOUND:               -13.108
REMARK SMILES CC(=O)N[C@@H]1[C@@H](O)C[C@](OC[C@H]2O[C@@H](O[C@H]3[C@H](O)[C@@H](O)[C@H](OCCN=[N+]=[N-])O[C@@H]3CO)[C@H](O)[C@@H](O)[C@H]2O)(C(=O)O)O[C@H]1C(O)[C@H](O)CNC(=O)OCc1cn(-c2cccc(C=CC(=O)O)c2)nn1
REMARK SMILES IDX 43 1 42 2 9 3 8 4 41 5 6 6 5 7 10 8 11 9 12 10 14 11 13 12
REMARK SMILES IDX 32 13 34 14 36 15 15 16 16 17 29 18 28 19 21 20 17 21 19 22
REMARK SMILES IDX 30 23 31 24 22 26 23 27 24 28 25 29 26 30 27 31 18 32 20 34
REMARK SMILES IDX 33 36 35 38 37 40 38 42 39 43 40 44 7 46 4 48 2 49 1 51 3 52
REMARK SMILES IDX 44 53 45 55 46 56 47 58 48 59 49 60 50 62 51 63 52 64 53 65
REMARK SMILES IDX 54 66 68 67 55 68 67 69 56 70 66 71 57 72 60 73 58 74 59 75
REMARK SMILES IDX 61 76 62 77 63 78 64 79 65 80
REMARK H PARENT 31 25 18 33 20 35 33 37 35 39 37 41 40 45 7 47 4 50 44 54
REMARK H PARENT 46 57 48 61 65 81
REMARK Flexibility Score: inf
ROOT
ATOM      1  C   UNL     1      26.659  37.137  15.725  1.00  0.00     0.176 C 
ENDROOT
BRANCH   1   2
ATOM      2  C   UNL     1      27.945  36.582  15.147  1.00  0.00     0.178 C 
ATOM      3  C   UNL     1      29.880  37.415  14.091  1.00  0.00     0.272 C 
ATOM      4  C   UNL     1      30.086  35.825  14.120  1.00  0.00     0.113 C 
ATOM      5  O   UNL     1      28.616  37.637  14.594  1.00  0.00    -0.332 OA
ATOM      6  C   UNL     1      28.940  35.271  13.351  1.00  0.00     0.145 C 
ATOM      7  C   UNL     1      27.648  35.551  14.093  1.00  0.00     0.142 C 
BRANCH   3   8
ATOM      8  O   UNL     1      29.892  37.678  12.778  1.00  0.00    -0.338 OA
BRANCH   8   9
ATOM      9  C   UNL     1      30.364  38.764  12.193  1.00  0.00     0.199 C 
BRANCH   9  10
ATOM     10  C   UNL     1      30.731  38.716  10.725  1.00  0.00     0.179 C 
ATOM     11  C   UNL     1      29.391  38.115   8.872  1.00  0.00     0.282 C 
ATOM     12  O   UNL     1      29.915  37.837  10.119  1.00  0.00    -0.341 OA
ATOM     13  C   UNL     1      30.346  38.929   8.093  1.00  0.00     0.202 C 
ATOM     14  C   UNL     1      30.780  40.209   8.740  1.00  0.00     0.179 C 
ATOM     15  C   UNL     1      30.488  40.130  10.216  1.00  0.00     0.177 C 
BRANCH  11  16
ATOM     16  O   UNL     1      28.128  38.623   9.086  1.00  0.00    -0.341 OA
BRANCH  16  17
ATOM     17  C   UNL     1      27.181  37.734   9.461  1.00  0.00     0.184 C 
ATOM     18  C   UNL     1      26.135  37.567   8.403  1.00  0.00     0.178 C 
ATOM     19  O   UNL     1      25.457  36.372   8.744  1.00  0.00    -0.341 OA
ATOM     20  C   UNL     1      24.651  36.595   9.863  1.00  0.00     0.281 C 
ATOM     21  C   UNL     1      26.411  38.181  10.708  1.00  0.00     0.180 C 
ATOM     22  C   UNL     1      25.412  37.094  11.046  1.00  0.00     0.202 C 
BRANCH  18  23
ATOM     23  C   UNL     1      26.651  37.456   7.013  1.00  0.00     0.191 C 
BRANCH  23  24
ATOM     24  O   UNL     1      26.640  38.716   6.420  1.00  0.00    -0.394 OA
ATOM     25  H   UNL     1      26.094  39.356   6.974  1.00  0.00     0.210 HD
ENDBRANCH  23  24
ENDBRANCH  18  23
BRANCH  20  26
ATOM     26  O   UNL     1      24.054  35.381  10.193  1.00  0.00    -0.350 OA
BRANCH  26  27
ATOM     27  C   UNL     1      22.779  35.263   9.647  1.00  0.00     0.169 C 
BRANCH  27  28
ATOM     28  C   UNL     1      21.780  35.293  10.782  1.00  0.00     0.119 C 
BRANCH  28  29
ATOM     29  N   UNL     1      21.582  36.658  11.209  1.00  0.00    -0.092 NA
ATOM     30  N   UNL     1      21.022  37.478  10.459  1.00  0.00     0.001 N 
ATOM     31  N   UNL     1      20.852  38.373   9.616  1.00  0.00    -0.003 NA
ENDBRANCH  28  29
ENDBRANCH  27  28
ENDBRANCH  26  27
ENDBRANCH  20  26
BRANCH  21  32
ATOM     32  O   UNL     1      27.238  38.329  11.814  1.00  0.00    -0.387 OA
ATOM     33  H   UNL     1      27.424  39.299  11.877  1.00  0.00     0.211 HD
ENDBRANCH  21  32
BRANCH  22  34
ATOM     34  O   UNL     1      24.474  37.695  11.918  1.00  0.00    -0.385 OA
ATOM     35  H   UNL     1      23.567  37.698  11.539  1.00  0.00     0.211 HD
ENDBRANCH  22  34
ENDBRANCH  16  17
ENDBRANCH  11  16
BRANCH  13  36
ATOM     36  O   UNL     1      31.527  38.165   7.861  1.00  0.00    -0.385 OA
ATOM     37  H   UNL     1      32.174  38.332   8.602  1.00  0.00     0.211 HD
ENDBRANCH  13  36
BRANCH  14  38
ATOM     38  O   UNL     1      30.221  41.352   8.164  1.00  0.00    -0.387 OA
ATOM     39  H   UNL     1      29.349  41.583   8.573  1.00  0.00     0.211 HD
ENDBRANCH  14  38
BRANCH  15  40
ATOM     40  O   UNL     1      29.181  40.517  10.441  1.00  0.00    -0.387 OA
ATOM     41  H   UNL     1      28.680  39.849  11.004  1.00  0.00     0.211 HD
ENDBRANCH  15  40
ENDBRANCH   9  10
ENDBRANCH   8   9
ENDBRANCH   3   8
BRANCH   3  42
ATOM     42  C   UNL     1      30.901  37.942  14.982  1.00  0.00     0.364 C 
ATOM     43  O   UNL     1      30.775  38.738  15.930  1.00  0.00    -0.246 OA
BRANCH  42  44
ATOM     44  O   UNL     1      32.233  37.510  14.768  1.00  0.00    -0.477 OA
ATOM     45  H   UNL     1      32.860  38.148  14.254  1.00  0.00     0.296 HD
ENDBRANCH  42  44
ENDBRANCH   3  42
BRANCH   6  46
ATOM     46  O   UNL     1      28.912  35.996  12.113  1.00  0.00    -0.391 OA
ATOM     47  H   UNL     1      28.685  35.370  11.371  1.00  0.00     0.211 HD
ENDBRANCH   6  46
BRANCH   7  48
ATOM     48  N   UNL     1      26.932  34.406  14.524  1.00  0.00    -0.348 N 
ATOM     49  C   UNL     1      27.311  33.449  15.470  1.00  0.00     0.217 C 
ATOM     50  H   UNL     1      25.973  34.207  14.058  1.00  0.00     0.163 HD
ATOM     51  C   UNL     1      26.376  32.289  15.755  1.00  0.00     0.114 C 
ATOM     52  O   UNL     1      28.392  33.478  16.117  1.00  0.00    -0.275 OA
ENDBRANCH   7  48
ENDBRANCH   1   2
BRANCH   1  53
ATOM     53  O   UNL     1      26.455  36.608  16.987  1.00  0.00    -0.388 OA
ATOM     54  H   UNL     1      27.154  36.006  17.300  1.00  0.00     0.211 HD
ENDBRANCH   1  53
BRANCH   1  55
ATOM     55  C   UNL     1      26.726  38.654  15.907  1.00  0.00     0.165 C 
BRANCH  55  56
ATOM     56  O   UNL     1      27.166  39.042  17.142  1.00  0.00    -0.388 OA
ATOM     57  H   UNL     1      26.469  39.080  17.836  1.00  0.00     0.211 HD
ENDBRANCH  55  56
BRANCH  55  58
ATOM     58  C   UNL     1      25.426  39.300  15.547  1.00  0.00     0.154 C 
BRANCH  58  59
ATOM     59  N   UNL     1      24.565  38.417  14.846  1.00  0.00    -0.319 N 
ATOM     60  C   UNL     1      23.165  38.401  15.038  1.00  0.00     0.407 C 
ATOM     61  H   UNL     1      24.951  37.729  14.145  1.00  0.00     0.167 HD
ATOM     62  O   UNL     1      22.611  39.185  15.858  1.00  0.00    -0.225 OA
BRANCH  60  63
ATOM     63  O   UNL     1      22.325  37.535  14.342  1.00  0.00    -0.443 OA
BRANCH  63  64
ATOM     64  C   UNL     1      21.930  36.341  15.028  1.00  0.00     0.294 C 
BRANCH  64  65
ATOM     65  C   UNL     1      22.637  35.219  14.383  1.00  0.00     0.121 A 
ATOM     66  C   UNL     1      22.187  33.912  14.212  1.00  0.00     0.144 A 
ATOM     67  N   UNL     1      23.860  35.266  13.831  1.00  0.00    -0.131 NA
ATOM     68  N   UNL     1      23.153  33.223  13.562  1.00  0.00    -0.220 N 
ATOM     69  N   UNL     1      24.144  34.064  13.348  1.00  0.00    -0.062 NA
BRANCH  68  70
ATOM     70  C   UNL     1      23.036  31.856  13.205  1.00  0.00     0.067 A 
ATOM     71  C   UNL     1      21.796  31.344  12.821  1.00  0.00     0.036 A 
ATOM     72  C   UNL     1      24.106  31.026  13.224  1.00  0.00     0.028 A 
ATOM     73  C   UNL     1      21.634  30.040  12.468  1.00  0.00    -0.023 A 
ATOM     74  C   UNL     1      23.989  29.684  12.871  1.00  0.00     0.003 A 
ATOM     75  C   UNL     1      22.747  29.222  12.499  1.00  0.00     0.008 A 
BRANCH  73  76
ATOM     76  C   UNL     1      20.349  29.506  12.073  1.00  0.00     0.015 C 
ATOM     77  C   UNL     1      19.349  30.296  11.773  1.00  0.00     0.094 C 
BRANCH  77  78
ATOM     78  C   UNL     1      18.065  29.711  11.378  1.00  0.00     0.328 C 
ATOM     79  O   UNL     1      17.442  28.954  12.131  1.00  0.00    -0.247 OA
BRANCH  78  80
ATOM     80  O   UNL     1      17.516  30.001  10.132  1.00  0.00    -0.478 OA
ATOM     81  H   UNL     1      17.642  29.307   9.392  1.00  0.00     0.297 HD
ENDBRANCH  78  80
ENDBRANCH  77  78
ENDBRANCH  73  76
ENDBRANCH  68  70
ENDBRANCH  64  65
ENDBRANCH  63  64
ENDBRANCH  60  63
ENDBRANCH  58  59
ENDBRANCH  55  58
ENDBRANCH   1  55
TORSDOF 33
BEGIN_RES LYS A 131
REMARK  4 active torsions:
REMARK  status: ('A' for Active; 'I' for Inactive)
REMARK    1  A    between atoms: CA   and  CB  
REMARK    2  A    between atoms: CB   and  CG  
REMARK    3  A    between atoms: CG   and  CD  
REMARK    4  A    between atoms: CD   and  CE  
ROOT
ATOM      1  CA  LYS A 131      29.867  25.555  16.977  1.00 20.52     0.186 C 
ENDROOT
BRANCH   1   2
ATOM      2  CB  LYS A 131      28.345  25.722  17.026  1.00 20.94     0.034 C 
BRANCH   2   3
ATOM      3  CG  LYS A 131      27.599  24.442  16.683  1.00 22.96     0.005 C 
BRANCH   3   4
ATOM      4  CD  LYS A 131      26.790  23.930  17.842  1.00 24.33     0.041 C 
BRANCH   4   5
ATOM      5  CE  LYS A 131      25.347  23.712  17.399  1.00 26.91     0.338 C 
ATOM      6  NZ  LYS A 131      24.544  23.142  18.507  1.00 27.40     0.618 N 
ENDBRANCH   4   5
ENDBRANCH   3   4
ENDBRANCH   2   3
ENDBRANCH   1   2
END_RES LYS A 131
BEGIN_RES LYS A 135
REMARK  4 active torsions:
REMARK  status: ('A' for Active; 'I' for Inactive)
REMARK    5  A    between atoms: CA   and  CB  
REMARK    6  A    between atoms: CB   and  CG  
REMARK    7  A    between atoms: CG   and  CD  
REMARK    8  A    between atoms: CD   and  CE  
ROOT
ATOM      7  CA  LYS A 135      33.193  34.663   9.290  1.00 25.02     0.186 C 
ENDROOT
BRANCH   7   8
ATOM      8  CB  LYS A 135      32.060  35.360  10.034  1.00 26.63     0.034 C 
BRANCH   8   9
ATOM      9  CG  LYS A 135      30.741  34.637   9.937  1.00 29.45     0.005 C 
BRANCH   9  10
ATOM     10  CD  LYS A 135      30.322  34.478   8.483  1.00 32.00     0.041 C 
BRANCH  10  11
ATOM     11  CE  LYS A 135      28.811  34.508   8.358  1.00 34.25     0.338 C 
ATOM     12  NZ  LYS A 135      28.165  33.797   9.496  1.00 35.99     0.618 N 
ENDBRANCH  10  11
ENDBRANCH   9  10
ENDBRANCH   8   9
ENDBRANCH   7   8
END_RES LYS A 135
