REMARK VINA RESULT:    -6.806      5.320      9.891
REMARK INTER + INTRA:         -20.161
REMARK INTER:                 -10.979
REMARK INTRA:                  -9.182
REMARK UNBOUND:                -1.022
REMARK SMILES CC(=O)N[C@@H]1[C@@H](O)C[C@](OC[C@H]2O[C@@H](O[C@H]3[C@H](O)[C@@H](O)[C@H](OCCN=[N+]=[N-])O[C@@H]3CO)[C@H](O)[C@@H](O)[C@H]2O)(C(=O)O)O[C@H]1C(O)[C@H](O)CNC(=O)OCc1cn(C2CC(O)C=C[C@@H](O)C2)nn1
REMARK SMILES IDX 43 1 42 2 9 3 8 4 41 5 6 6 5 7 10 8 11 9 12 10 14 11 13 12
REMARK SMILES IDX 32 13 34 14 36 15 15 16 16 17 29 18 28 19 21 20 17 21 19 22
REMARK SMILES IDX 30 23 31 24 22 26 23 27 24 28 25 29 26 30 27 31 18 32 20 34
REMARK SMILES IDX 33 36 35 38 37 40 38 42 39 43 40 44 7 46 4 48 2 49 1 51 3 52
REMARK SMILES IDX 44 53 45 55 46 56 47 58 48 59 49 60 50 62 51 63 52 64 53 65
REMARK SMILES IDX 54 66 66 67 55 68 65 69 56 70 57 71 58 72 59 74 64 76 62 77
REMARK SMILES IDX 61 78 60 79 63 81
REMARK H PARENT 31 25 18 33 20 35 33 37 35 39 37 41 40 45 7 47 4 50 44 54
REMARK H PARENT 46 57 48 61 59 75 63 82
REMARK Flexibility Score: 90.00
ROOT
ATOM      1  C   UNL     1      35.374  43.413   5.634  1.00  0.00     0.176 C 
ENDROOT
BRANCH   1   2
ATOM      2  C   UNL     1      35.675  41.925   5.697  1.00  0.00     0.178 C 
ATOM      3  C   UNL     1      34.428  39.932   5.613  1.00  0.00     0.272 C 
ATOM      4  C   UNL     1      35.546  39.158   6.211  1.00  0.00     0.113 C 
ATOM      5  O   UNL     1      34.411  41.270   5.734  1.00  0.00    -0.332 OA
ATOM      6  C   UNL     1      36.776  39.945   6.482  1.00  0.00     0.145 C 
ATOM      7  C   UNL     1      36.406  41.413   6.861  1.00  0.00     0.142 C 
BRANCH   3   8
ATOM      8  O   UNL     1      33.219  39.355   6.052  1.00  0.00    -0.338 OA
BRANCH   8   9
ATOM      9  C   UNL     1      32.921  39.574   7.366  1.00  0.00     0.199 C 
BRANCH   9  10
ATOM     10  C   UNL     1      31.433  39.876   7.546  1.00  0.00     0.179 C 
ATOM     11  C   UNL     1      29.810  38.934   8.892  1.00  0.00     0.282 C 
ATOM     12  O   UNL     1      30.820  38.733   7.949  1.00  0.00    -0.341 OA
ATOM     13  C   UNL     1      30.537  39.448  10.121  1.00  0.00     0.202 C 
ATOM     14  C   UNL     1      30.928  40.875   9.807  1.00  0.00     0.179 C 
ATOM     15  C   UNL     1      31.203  41.105   8.356  1.00  0.00     0.177 C 
BRANCH  11  16
ATOM     16  O   UNL     1      29.144  37.749   9.094  1.00  0.00    -0.341 OA
BRANCH  16  17
ATOM     17  C   UNL     1      29.264  36.943   7.959  1.00  0.00     0.184 C 
ATOM     18  C   UNL     1      28.073  37.135   7.054  1.00  0.00     0.178 C 
ATOM     19  O   UNL     1      26.924  36.520   7.480  1.00  0.00    -0.341 OA
ATOM     20  C   UNL     1      27.095  35.703   8.596  1.00  0.00     0.281 C 
ATOM     21  C   UNL     1      29.506  35.497   8.296  1.00  0.00     0.180 C 
ATOM     22  C   UNL     1      28.224  34.711   8.340  1.00  0.00     0.202 C 
BRANCH  18  23
ATOM     23  C   UNL     1      28.401  36.698   5.633  1.00  0.00     0.191 C 
BRANCH  23  24
ATOM     24  O   UNL     1      27.755  37.471   4.687  1.00  0.00    -0.394 OA
ATOM     25  H   UNL     1      27.623  38.390   4.969  1.00  0.00     0.210 HD
ENDBRANCH  23  24
ENDBRANCH  18  23
BRANCH  20  26
ATOM     26  O   UNL     1      25.891  35.027   8.766  1.00  0.00    -0.350 OA
BRANCH  26  27
ATOM     27  C   UNL     1      24.877  35.964   8.937  1.00  0.00     0.169 C 
BRANCH  27  28
ATOM     28  C   UNL     1      24.012  35.628  10.139  1.00  0.00     0.119 C 
BRANCH  28  29
ATOM     29  N   UNL     1      23.037  36.671  10.380  1.00  0.00    -0.092 NA
ATOM     30  N   UNL     1      22.905  37.115  11.532  1.00  0.00     0.001 N 
ATOM     31  N   UNL     1      22.799  37.397  12.734  1.00  0.00    -0.003 NA
ENDBRANCH  28  29
ENDBRANCH  27  28
ENDBRANCH  26  27
ENDBRANCH  20  26
BRANCH  21  32
ATOM     32  O   UNL     1      30.380  34.924   7.371  1.00  0.00    -0.387 OA
ATOM     33  H   UNL     1      30.092  35.088   6.441  1.00  0.00     0.211 HD
ENDBRANCH  21  32
BRANCH  22  34
ATOM     34  O   UNL     1      28.250  33.766   9.359  1.00  0.00    -0.385 OA
ATOM     35  H   UNL     1      27.709  32.970   9.116  1.00  0.00     0.211 HD
ENDBRANCH  22  34
ENDBRANCH  16  17
ENDBRANCH  11  16
BRANCH  13  36
ATOM     36  O   UNL     1      29.803  39.397  11.275  1.00  0.00    -0.385 OA
ATOM     37  H   UNL     1      30.183  39.871  12.032  1.00  0.00     0.211 HD
ENDBRANCH  13  36
BRANCH  14  38
ATOM     38  O   UNL     1      32.019  41.178  10.621  1.00  0.00    -0.387 OA
ATOM     39  H   UNL     1      32.815  40.633  10.368  1.00  0.00     0.211 HD
ENDBRANCH  14  38
BRANCH  15  40
ATOM     40  O   UNL     1      32.346  41.916   8.206  1.00  0.00    -0.387 OA
ATOM     41  H   UNL     1      32.227  42.640   7.574  1.00  0.00     0.211 HD
ENDBRANCH  15  40
ENDBRANCH   9  10
ENDBRANCH   8   9
ENDBRANCH   3   8
BRANCH   3  42
ATOM     42  C   UNL     1      34.476  39.642   4.129  1.00  0.00     0.364 C 
ATOM     43  O   UNL     1      35.276  38.807   3.629  1.00  0.00    -0.246 OA
BRANCH  42  44
ATOM     44  O   UNL     1      33.597  40.334   3.313  1.00  0.00    -0.477 OA
ATOM     45  H   UNL     1      33.623  41.352   3.253  1.00  0.00     0.296 HD
ENDBRANCH  42  44
ENDBRANCH   3  42
BRANCH   6  46
ATOM     46  O   UNL     1      37.536  39.379   7.477  1.00  0.00    -0.391 OA
ATOM     47  H   UNL     1      37.827  38.481   7.212  1.00  0.00     0.211 HD
ENDBRANCH   6  46
BRANCH   7  48
ATOM     48  N   UNL     1      37.563  42.057   7.351  1.00  0.00    -0.348 N 
ATOM     49  C   UNL     1      37.484  42.890   8.496  1.00  0.00     0.217 C 
ATOM     50  H   UNL     1      38.488  41.911   6.909  1.00  0.00     0.163 HD
ATOM     51  C   UNL     1      38.689  43.578   9.031  1.00  0.00     0.114 C 
ATOM     52  O   UNL     1      36.381  43.052   9.070  1.00  0.00    -0.275 OA
ENDBRANCH   7  48
ENDBRANCH   1   2
BRANCH   1  53
ATOM     53  O   UNL     1      34.398  43.528   6.719  1.00  0.00    -0.388 OA
ATOM     54  H   UNL     1      34.826  43.138   7.544  1.00  0.00     0.211 HD
ENDBRANCH   1  53
BRANCH   1  55
ATOM     55  C   UNL     1      34.546  43.824   4.451  1.00  0.00     0.165 C 
BRANCH  55  56
ATOM     56  O   UNL     1      35.246  44.616   3.573  1.00  0.00    -0.388 OA
ATOM     57  H   UNL     1      34.855  44.661   2.673  1.00  0.00     0.211 HD
ENDBRANCH  55  56
BRANCH  55  58
ATOM     58  C   UNL     1      33.335  44.637   4.896  1.00  0.00     0.154 C 
BRANCH  58  59
ATOM     59  N   UNL     1      32.080  44.017   4.618  1.00  0.00    -0.319 N 
ATOM     60  C   UNL     1      31.093  43.784   5.615  1.00  0.00     0.407 C 
ATOM     61  H   UNL     1      31.855  43.707   3.625  1.00  0.00     0.167 HD
ATOM     62  O   UNL     1      31.373  44.153   6.792  1.00  0.00    -0.225 OA
BRANCH  60  63
ATOM     63  O   UNL     1      29.899  43.183   5.288  1.00  0.00    -0.443 OA
BRANCH  63  64
ATOM     64  C   UNL     1      29.879  41.907   4.654  1.00  0.00     0.294 C 
BRANCH  64  65
ATOM     65  C   UNL     1      28.608  41.241   5.017  1.00  0.00     0.120 A 
ATOM     66  C   UNL     1      28.046  41.099   6.259  1.00  0.00     0.138 A 
ATOM     67  N   UNL     1      27.772  40.639   4.153  1.00  0.00    -0.132 NA
ATOM     68  N   UNL     1      26.886  40.412   6.106  1.00  0.00    -0.249 N 
ATOM     69  N   UNL     1      26.750  40.150   4.823  1.00  0.00    -0.067 NA
BRANCH  68  70
ATOM     70  C   UNL     1      25.952  40.025   7.173  1.00  0.00     0.115 C 
BRANCH  70  71
ATOM     71  C   UNL     1      26.619  40.239   8.490  1.00  0.00     0.063 C 
BRANCH  71  72
ATOM     72  C   UNL     1      26.006  39.284   9.518  1.00  0.00     0.139 CG0
ATOM     73  G   UNL     1      24.681  39.788   9.911  1.00  0.00     0.000 G0
BRANCH  72  74
ATOM     74  O   UNL     1      26.852  39.165  10.619  1.00  0.00    -0.389 OA
ATOM     75  H   UNL     1      26.360  39.506  11.419  1.00  0.00     0.211 HD
ENDBRANCH  72  74
ENDBRANCH  71  72
ENDBRANCH  70  71
BRANCH  70  76
ATOM     76  C   UNL     1      24.715  40.859   7.045  1.00  0.00     0.063 C 
BRANCH  76  77
ATOM     77  C   UNL     1      23.570  40.036   7.645  1.00  0.00     0.139 C 
BRANCH  77  78
ATOM     78  C   UNL     1      23.622  40.118   9.130  1.00  0.00     0.002 C 
ATOM     79  C   UNL     1      24.655  39.795   9.895  1.00  0.00     0.002 CG0
ATOM     80  G   UNL     1      25.983  39.287   9.515  1.00  0.00     0.000 G0
ENDBRANCH  77  78
BRANCH  77  81
ATOM     81  O   UNL     1      22.337  40.441   7.157  1.00  0.00    -0.389 OA
ATOM     82  H   UNL     1      21.850  40.885   7.907  1.00  0.00     0.211 HD
ENDBRANCH  77  81
ENDBRANCH  76  77
ENDBRANCH  70  76
ENDBRANCH  68  70
ENDBRANCH  64  65
ENDBRANCH  63  64
ENDBRANCH  60  63
ENDBRANCH  58  59
ENDBRANCH  55  58
ENDBRANCH   1  55
TORSDOF 32
BEGIN_RES LYS A 131
REMARK  4 active torsions:
REMARK  status: ('A' for Active; 'I' for Inactive)
REMARK    1  A    between atoms: CA   and  CB  
REMARK    2  A    between atoms: CB   and  CG  
REMARK    3  A    between atoms: CG   and  CD  
REMARK    4  A    between atoms: CD   and  CE  
ROOT
ATOM      1  CA  LYS A 131      29.867  25.555  16.977  1.00 20.52     0.186 C 
ENDROOT
BRANCH   1   2
ATOM      2  CB  LYS A 131      28.345  25.722  17.026  1.00 20.94     0.034 C 
BRANCH   2   3
ATOM      3  CG  LYS A 131      27.601  24.400  16.907  1.00 22.96     0.005 C 
BRANCH   3   4
ATOM      4  CD  LYS A 131      26.627  24.196  18.034  1.00 24.33     0.041 C 
BRANCH   4   5
ATOM      5  CE  LYS A 131      25.346  23.570  17.492  1.00 26.91     0.338 C 
ATOM      6  NZ  LYS A 131      24.453  24.615  16.939  1.00 27.40     0.618 N 
ENDBRANCH   4   5
ENDBRANCH   3   4
ENDBRANCH   2   3
ENDBRANCH   1   2
END_RES LYS A 131
BEGIN_RES LYS A 135
REMARK  4 active torsions:
REMARK  status: ('A' for Active; 'I' for Inactive)
REMARK    5  A    between atoms: CA   and  CB  
REMARK    6  A    between atoms: CB   and  CG  
REMARK    7  A    between atoms: CG   and  CD  
REMARK    8  A    between atoms: CD   and  CE  
ROOT
ATOM      7  CA  LYS A 135      33.193  34.663   9.290  1.00 25.02     0.186 C 
ENDROOT
BRANCH   7   8
ATOM      8  CB  LYS A 135      32.060  35.360  10.034  1.00 26.63     0.034 C 
BRANCH   8   9
ATOM      9  CG  LYS A 135      32.530  36.452  10.960  1.00 29.45     0.005 C 
BRANCH   9  10
ATOM     10  CD  LYS A 135      32.473  35.989  12.408  1.00 32.00     0.041 C 
BRANCH  10  11
ATOM     11  CE  LYS A 135      31.185  35.234  12.676  1.00 34.25     0.338 C 
ATOM     12  NZ  LYS A 135      31.166  34.678  14.057  1.00 35.99     0.618 N 
ENDBRANCH  10  11
ENDBRANCH   9  10
ENDBRANCH   8   9
ENDBRANCH   7   8
END_RES LYS A 135
