REMARK VINA RESULT:    -4.212      3.297      6.990
REMARK INTER + INTRA:         -22.108
REMARK INTER:                 -10.033
REMARK INTRA:                 -12.076
REMARK UNBOUND:               -11.494
REMARK SMILES CC(=O)N[C@@H]1[C@@H](O)C[C@](OC[C@H]2O[C@@H](O[C@H]3[C@H](O)[C@@H](O)[C@H](OCCN=[N+]=[N-])O[C@@H]3CO)[C@H](O)[C@@H](O)[C@H]2O)(C(=O)O)O[C@H]1C(O)[C@H](O)CNC(=O)OCc1cn(-c2ccccc2C(C)=O)nn1
REMARK SMILES IDX 9 1 8 2 6 3 5 4 42 5 41 6 10 7 11 8 12 9 14 10 13 11 32 12
REMARK SMILES IDX 34 13 36 14 15 15 16 16 29 17 28 18 21 19 17 20 19 21 30 22
REMARK SMILES IDX 31 23 22 25 23 26 24 27 25 28 26 29 27 30 18 31 20 33 33 35
REMARK SMILES IDX 35 37 37 39 38 41 39 42 40 43 7 45 43 47 44 48 45 50 46 51
REMARK SMILES IDX 47 53 48 54 49 55 50 57 51 58 52 59 53 60 54 61 66 62 55 63
REMARK SMILES IDX 65 64 56 65 61 66 57 67 60 68 58 69 59 70 62 71 64 72 63 73
REMARK SMILES IDX 4 74 2 75 1 77 3 78
REMARK H PARENT 31 24 18 32 20 34 33 36 35 38 37 40 40 44 7 46 44 49 46 52
REMARK H PARENT 48 56 4 76
REMARK Flexibility Score: inf
ROOT
ATOM      1  C   UNL     1      19.254  39.046  12.173  1.00  0.00     0.272 C 
ATOM      2  C   UNL     1      19.982  39.899  11.176  1.00  0.00     0.113 C 
ATOM      3  C   UNL     1      20.588  41.065  11.913  1.00  0.00     0.145 C 
ATOM      4  C   UNL     1      21.653  40.445  12.800  1.00  0.00     0.142 C 
ATOM      5  C   UNL     1      20.899  39.606  13.797  1.00  0.00     0.178 C 
ATOM      6  O   UNL     1      19.619  39.307  13.513  1.00  0.00    -0.332 OA
ENDROOT
BRANCH   1   7
ATOM      7  O   UNL     1      19.298  37.746  12.022  1.00  0.00    -0.338 OA
BRANCH   7   8
ATOM      8  C   UNL     1      18.661  36.886  11.292  1.00  0.00     0.199 C 
BRANCH   8   9
ATOM      9  C   UNL     1      18.878  36.626   9.850  1.00  0.00     0.179 C 
ATOM     10  C   UNL     1      20.524  36.843   8.237  1.00  0.00     0.282 C 
ATOM     11  O   UNL     1      20.260  36.891   9.594  1.00  0.00    -0.341 OA
ATOM     12  C   UNL     1      19.481  36.224   7.385  1.00  0.00     0.202 C 
ATOM     13  C   UNL     1      18.717  35.089   7.991  1.00  0.00     0.179 C 
ATOM     14  C   UNL     1      18.772  35.123   9.499  1.00  0.00     0.177 C 
BRANCH  10  15
ATOM     15  O   UNL     1      21.741  36.195   8.030  1.00  0.00    -0.341 OA
BRANCH  15  16
ATOM     16  C   UNL     1      22.793  36.853   8.664  1.00  0.00     0.184 C 
ATOM     17  C   UNL     1      23.668  37.463   7.596  1.00  0.00     0.178 C 
ATOM     18  O   UNL     1      24.954  36.989   7.577  1.00  0.00    -0.341 OA
ATOM     19  C   UNL     1      25.634  37.033   8.769  1.00  0.00     0.281 C 
ATOM     20  C   UNL     1      23.620  35.751   9.341  1.00  0.00     0.180 C 
ATOM     21  C   UNL     1      24.845  36.397   9.904  1.00  0.00     0.202 C 
BRANCH  17  22
ATOM     22  C   UNL     1      23.605  38.973   7.741  1.00  0.00     0.191 C 
BRANCH  22  23
ATOM     23  O   UNL     1      24.434  39.532   6.770  1.00  0.00    -0.394 OA
ATOM     24  H   UNL     1      23.981  40.120   6.139  1.00  0.00     0.210 HD
ENDBRANCH  22  23
ENDBRANCH  17  22
BRANCH  19  25
ATOM     25  O   UNL     1      26.110  38.281   9.119  1.00  0.00    -0.350 OA
BRANCH  25  26
ATOM     26  C   UNL     1      27.491  38.295   8.986  1.00  0.00     0.169 C 
BRANCH  26  27
ATOM     27  C   UNL     1      28.093  39.124  10.110  1.00  0.00     0.119 C 
BRANCH  27  28
ATOM     28  N   UNL     1      27.259  39.019  11.314  1.00  0.00    -0.092 NA
ATOM     29  N   UNL     1      27.461  38.036  12.027  1.00  0.00     0.001 N 
ATOM     30  N   UNL     1      27.467  37.065  12.763  1.00  0.00    -0.003 NA
ENDBRANCH  27  28
ENDBRANCH  26  27
ENDBRANCH  25  26
ENDBRANCH  19  25
BRANCH  20  31
ATOM     31  O   UNL     1      22.848  35.114  10.285  1.00  0.00    -0.387 OA
ATOM     32  H   UNL     1      22.187  34.480   9.864  1.00  0.00     0.211 HD
ENDBRANCH  20  31
BRANCH  21  33
ATOM     33  O   UNL     1      25.621  35.505  10.647  1.00  0.00    -0.385 OA
ATOM     34  H   UNL     1      25.405  34.566  10.356  1.00  0.00     0.211 HD
ENDBRANCH  21  33
ENDBRANCH  15  16
ENDBRANCH  10  15
BRANCH  12  35
ATOM     35  O   UNL     1      18.635  37.185   6.812  1.00  0.00    -0.385 OA
ATOM     36  H   UNL     1      19.151  37.923   6.400  1.00  0.00     0.211 HD
ENDBRANCH  12  35
BRANCH  13  37
ATOM     37  O   UNL     1      19.222  33.841   7.588  1.00  0.00    -0.387 OA
ATOM     38  H   UNL     1      18.815  33.653   6.702  1.00  0.00     0.211 HD
ENDBRANCH  13  37
BRANCH  14  39
ATOM     39  O   UNL     1      19.903  34.456   9.984  1.00  0.00    -0.387 OA
ATOM     40  H   UNL     1      19.731  33.988  10.841  1.00  0.00     0.211 HD
ENDBRANCH  14  39
ENDBRANCH   8   9
ENDBRANCH   7   8
ENDBRANCH   1   7
BRANCH   1  41
ATOM     41  C   UNL     1      17.861  39.576  12.166  1.00  0.00     0.364 C 
ATOM     42  O   UNL     1      17.163  39.568  13.238  1.00  0.00    -0.246 OA
BRANCH  41  43
ATOM     43  O   UNL     1      17.203  40.095  11.080  1.00  0.00    -0.477 OA
ATOM     44  H   UNL     1      17.228  41.077  10.841  1.00  0.00     0.296 HD
ENDBRANCH  41  43
ENDBRANCH   1  41
BRANCH   3  45
ATOM     45  O   UNL     1      21.149  41.899  10.949  1.00  0.00    -0.391 OA
ATOM     46  H   UNL     1      21.082  42.855  11.214  1.00  0.00     0.211 HD
ENDBRANCH   3  45
BRANCH   5  47
ATOM     47  C   UNL     1      21.759  38.358  14.180  1.00  0.00     0.176 C 
BRANCH  47  48
ATOM     48  O   UNL     1      22.615  38.871  15.228  1.00  0.00    -0.388 OA
ATOM     49  H   UNL     1      23.191  39.522  14.720  1.00  0.00     0.211 HD
ENDBRANCH  47  48
BRANCH  47  50
ATOM     50  C   UNL     1      22.645  37.958  13.078  1.00  0.00     0.165 C 
BRANCH  50  51
ATOM     51  O   UNL     1      21.989  37.107  12.154  1.00  0.00    -0.388 OA
ATOM     52  H   UNL     1      21.425  36.449  12.615  1.00  0.00     0.211 HD
ENDBRANCH  50  51
BRANCH  50  53
ATOM     53  C   UNL     1      24.080  37.737  13.246  1.00  0.00     0.154 C 
BRANCH  53  54
ATOM     54  N   UNL     1      24.477  36.727  14.155  1.00  0.00    -0.319 N 
ATOM     55  C   UNL     1      24.389  35.325  14.004  1.00  0.00     0.407 C 
ATOM     56  H   UNL     1      24.907  37.026  15.091  1.00  0.00     0.167 HD
ATOM     57  O   UNL     1      23.883  34.869  12.953  1.00  0.00    -0.225 OA
BRANCH  55  58
ATOM     58  O   UNL     1      24.829  34.411  14.951  1.00  0.00    -0.443 OA
BRANCH  58  59
ATOM     59  C   UNL     1      25.863  33.510  14.652  1.00  0.00     0.294 C 
BRANCH  59  60
ATOM     60  C   UNL     1      27.161  34.204  14.955  1.00  0.00     0.121 A 
ATOM     61  C   UNL     1      28.367  34.026  14.319  1.00  0.00     0.144 A 
ATOM     62  N   UNL     1      27.405  35.125  15.898  1.00  0.00    -0.131 NA
ATOM     63  N   UNL     1      29.293  34.850  14.910  1.00  0.00    -0.220 N 
ATOM     64  N   UNL     1      28.664  35.500  15.865  1.00  0.00    -0.062 NA
BRANCH  63  65
ATOM     65  C   UNL     1      30.664  34.901  14.534  1.00  0.00     0.077 A 
ATOM     66  C   UNL     1      31.663  34.169  15.066  1.00  0.00     0.043 A 
ATOM     67  C   UNL     1      30.962  35.809  13.499  1.00  0.00     0.029 A 
ATOM     68  C   UNL     1      32.964  34.357  14.553  1.00  0.00     0.014 A 
ATOM     69  C   UNL     1      32.242  35.973  13.018  1.00  0.00     0.002 A 
ATOM     70  C   UNL     1      33.270  35.233  13.551  1.00  0.00     0.001 A 
BRANCH  66  71
ATOM     71  C   UNL     1      31.451  33.218  16.132  1.00  0.00     0.161 C 
ATOM     72  O   UNL     1      31.742  33.651  17.312  1.00  0.00    -0.294 OA
ATOM     73  C   UNL     1      30.953  31.843  16.055  1.00  0.00     0.093 C 
ENDBRANCH  66  71
ENDBRANCH  63  65
ENDBRANCH  59  60
ENDBRANCH  58  59
ENDBRANCH  55  58
ENDBRANCH  53  54
ENDBRANCH  50  53
ENDBRANCH  47  50
ENDBRANCH   5  47
BRANCH   4  74
ATOM     74  N   UNL     1      22.496  41.428  13.410  1.00  0.00    -0.348 N 
ATOM     75  C   UNL     1      23.777  41.781  12.915  1.00  0.00     0.217 C 
ATOM     76  H   UNL     1      22.123  41.903  14.274  1.00  0.00     0.163 HD
ATOM     77  C   UNL     1      24.578  42.831  13.635  1.00  0.00     0.114 C 
ATOM     78  O   UNL     1      24.185  41.199  11.890  1.00  0.00    -0.275 OA
ENDBRANCH   4  74
TORSDOF 31
BEGIN_RES LYS A 131
REMARK  4 active torsions:
REMARK  status: ('A' for Active; 'I' for Inactive)
REMARK    1  A    between atoms: CA   and  CB  
REMARK    2  A    between atoms: CB   and  CG  
REMARK    3  A    between atoms: CG   and  CD  
REMARK    4  A    between atoms: CD   and  CE  
ROOT
ATOM      1  CA  LYS A 131      29.867  25.555  16.977  1.00 20.52     0.186 C 
ENDROOT
BRANCH   1   2
ATOM      2  CB  LYS A 131      28.345  25.722  17.026  1.00 20.94     0.034 C 
BRANCH   2   3
ATOM      3  CG  LYS A 131      27.601  24.401  16.901  1.00 22.96     0.005 C 
BRANCH   3   4
ATOM      4  CD  LYS A 131      26.151  24.530  17.277  1.00 24.33     0.041 C 
BRANCH   4   5
ATOM      5  CE  LYS A 131      25.633  23.184  17.774  1.00 26.91     0.338 C 
ATOM      6  NZ  LYS A 131      24.325  22.870  17.152  1.00 27.40     0.618 N 
ENDBRANCH   4   5
ENDBRANCH   3   4
ENDBRANCH   2   3
ENDBRANCH   1   2
END_RES LYS A 131
BEGIN_RES LYS A 135
REMARK  4 active torsions:
REMARK  status: ('A' for Active; 'I' for Inactive)
REMARK    5  A    between atoms: CA   and  CB  
REMARK    6  A    between atoms: CB   and  CG  
REMARK    7  A    between atoms: CG   and  CD  
REMARK    8  A    between atoms: CD   and  CE  
ROOT
ATOM      7  CA  LYS A 135      33.193  34.663   9.290  1.00 25.02     0.186 C 
ENDROOT
BRANCH   7   8
ATOM      8  CB  LYS A 135      32.060  35.360  10.034  1.00 26.63     0.034 C 
BRANCH   8   9
ATOM      9  CG  LYS A 135      30.718  34.702   9.842  1.00 29.45     0.005 C 
BRANCH   9  10
ATOM     10  CD  LYS A 135      30.485  34.378   8.374  1.00 32.00     0.041 C 
BRANCH  10  11
ATOM     11  CE  LYS A 135      29.049  34.673   7.985  1.00 34.25     0.338 C 
ATOM     12  NZ  LYS A 135      28.986  35.655   6.868  1.00 35.99     0.618 N 
ENDBRANCH  10  11
ENDBRANCH   9  10
ENDBRANCH   8   9
ENDBRANCH   7   8
END_RES LYS A 135
