REMARK VINA RESULT:    -3.322      2.267      3.041
REMARK INTER + INTRA:         -22.233
REMARK INTER:                 -12.002
REMARK INTRA:                 -10.231
REMARK UNBOUND:               -13.473
REMARK SMILES CC(=O)N[C@@H]1[C@@H](O)C[C@](OC[C@H]2O[C@@H](O[C@H]3[C@H](O)[C@@H](O)[C@H](OCCN=[N+]=[N-])O[C@@H]3CO)[C@H](O)[C@@H](O)[C@H]2O)(C(=O)O)O[C@H]1C(O)[C@H](O)CNC(=O)OCc1cn(CCOC(C)=O)nn1
REMARK SMILES IDX 43 1 42 2 9 3 8 4 41 5 6 6 5 7 10 8 11 9 12 10 14 11 13 12
REMARK SMILES IDX 32 13 34 14 36 15 15 16 16 17 29 18 28 19 21 20 17 21 19 22
REMARK SMILES IDX 30 23 31 24 22 26 23 27 24 28 25 29 26 30 27 31 18 32 20 34
REMARK SMILES IDX 33 36 35 38 37 40 38 42 39 43 40 44 7 46 4 48 2 49 1 51 3 52
REMARK SMILES IDX 44 53 45 55 46 56 47 58 48 59 49 60 50 62 51 63 52 64 53 65
REMARK SMILES IDX 54 66 63 67 55 68 62 69 56 70 57 71 58 72 59 73 61 74 60 75
REMARK H PARENT 31 25 18 33 20 35 33 37 35 39 37 41 40 45 7 47 4 50 44 54
REMARK H PARENT 46 57 48 61
REMARK Flexibility Score: inf
ROOT
ATOM      1  C   UNL     1      29.397  32.963  15.918  1.00  0.00     0.176 C 
ENDROOT
BRANCH   1   2
ATOM      2  C   UNL     1      29.632  33.638  14.591  1.00  0.00     0.178 C 
ATOM      3  C   UNL     1      30.944  35.393  13.721  1.00  0.00     0.272 C 
ATOM      4  C   UNL     1      30.309  34.871  12.455  1.00  0.00     0.113 C 
ATOM      5  O   UNL     1      30.698  34.533  14.826  1.00  0.00    -0.332 OA
ATOM      6  C   UNL     1      28.840  34.677  12.574  1.00  0.00     0.145 C 
ATOM      7  C   UNL     1      28.510  34.488  14.082  1.00  0.00     0.142 C 
BRANCH   3   8
ATOM      8  O   UNL     1      30.615  36.599  14.115  1.00  0.00    -0.338 OA
BRANCH   8   9
ATOM      9  C   UNL     1      30.956  37.787  13.703  1.00  0.00     0.199 C 
BRANCH   9  10
ATOM     10  C   UNL     1      30.200  38.654  12.790  1.00  0.00     0.179 C 
ATOM     11  C   UNL     1      29.374  38.641  10.638  1.00  0.00     0.282 C 
ATOM     12  O   UNL     1      29.672  37.816  11.732  1.00  0.00    -0.341 OA
ATOM     13  C   UNL     1      28.726  39.913  10.992  1.00  0.00     0.202 C 
ATOM     14  C   UNL     1      28.306  40.107  12.407  1.00  0.00     0.179 C 
ATOM     15  C   UNL     1      28.881  39.163  13.404  1.00  0.00     0.177 C 
BRANCH  11  16
ATOM     16  O   UNL     1      28.717  37.848   9.712  1.00  0.00    -0.341 OA
BRANCH  16  17
ATOM     17  C   UNL     1      28.203  38.554   8.656  1.00  0.00     0.184 C 
ATOM     18  C   UNL     1      27.067  37.780   8.026  1.00  0.00     0.178 C 
ATOM     19  O   UNL     1      26.590  38.592   6.989  1.00  0.00    -0.341 OA
ATOM     20  C   UNL     1      27.438  38.522   5.924  1.00  0.00     0.281 C 
ATOM     21  C   UNL     1      29.259  38.860   7.607  1.00  0.00     0.180 C 
ATOM     22  C   UNL     1      28.895  38.318   6.264  1.00  0.00     0.202 C 
BRANCH  18  23
ATOM     23  C   UNL     1      25.950  37.583   9.035  1.00  0.00     0.191 C 
BRANCH  23  24
ATOM     24  O   UNL     1      25.831  38.709   9.827  1.00  0.00    -0.394 OA
ATOM     25  H   UNL     1      26.555  39.335   9.525  1.00  0.00     0.210 HD
ENDBRANCH  23  24
ENDBRANCH  18  23
BRANCH  20  26
ATOM     26  O   UNL     1      27.258  39.686   5.165  1.00  0.00    -0.350 OA
BRANCH  26  27
ATOM     27  C   UNL     1      26.216  40.460   5.662  1.00  0.00     0.169 C 
BRANCH  27  28
ATOM     28  C   UNL     1      26.834  41.825   5.982  1.00  0.00     0.119 C 
BRANCH  28  29
ATOM     29  N   UNL     1      26.915  41.955   7.426  1.00  0.00    -0.092 NA
ATOM     30  N   UNL     1      27.725  42.709   7.980  1.00  0.00     0.001 N 
ATOM     31  N   UNL     1      28.756  43.138   8.532  1.00  0.00    -0.003 NA
ENDBRANCH  28  29
ENDBRANCH  27  28
ENDBRANCH  26  27
ENDBRANCH  20  26
BRANCH  21  32
ATOM     32  O   UNL     1      29.581  40.210   7.536  1.00  0.00    -0.387 OA
ATOM     33  H   UNL     1      28.886  40.763   7.102  1.00  0.00     0.211 HD
ENDBRANCH  21  32
BRANCH  22  34
ATOM     34  O   UNL     1      29.311  37.008   6.129  1.00  0.00    -0.385 OA
ATOM     35  H   UNL     1      30.092  36.863   6.738  1.00  0.00     0.211 HD
ENDBRANCH  22  34
ENDBRANCH  16  17
ENDBRANCH  11  16
BRANCH  13  36
ATOM     36  O   UNL     1      29.466  41.030  10.522  1.00  0.00    -0.385 OA
ATOM     37  H   UNL     1      30.267  40.754  10.029  1.00  0.00     0.211 HD
ENDBRANCH  13  36
BRANCH  14  38
ATOM     38  O   UNL     1      26.909  40.071  12.541  1.00  0.00    -0.387 OA
ATOM     39  H   UNL     1      26.571  41.013  12.481  1.00  0.00     0.211 HD
ENDBRANCH  14  38
BRANCH  15  40
ATOM     40  O   UNL     1      27.997  38.051  13.473  1.00  0.00    -0.387 OA
ATOM     41  H   UNL     1      28.500  37.212  13.486  1.00  0.00     0.211 HD
ENDBRANCH  15  40
ENDBRANCH   9  10
ENDBRANCH   8   9
ENDBRANCH   3   8
BRANCH   3  42
ATOM     42  C   UNL     1      32.407  35.184  13.532  1.00  0.00     0.364 C 
ATOM     43  O   UNL     1      33.248  35.009  14.433  1.00  0.00    -0.246 OA
BRANCH  42  44
ATOM     44  O   UNL     1      32.946  35.177  12.227  1.00  0.00    -0.477 OA
ATOM     45  H   UNL     1      33.233  36.054  11.818  1.00  0.00     0.296 HD
ENDBRANCH  42  44
ENDBRANCH   3  42
BRANCH   6  46
ATOM     46  O   UNL     1      28.062  35.669  12.026  1.00  0.00    -0.391 OA
ATOM     47  H   UNL     1      27.253  35.330  11.565  1.00  0.00     0.211 HD
ENDBRANCH   6  46
BRANCH   7  48
ATOM     48  N   UNL     1      27.184  33.983  14.210  1.00  0.00    -0.348 N 
ATOM     49  C   UNL     1      26.073  34.831  14.454  1.00  0.00     0.217 C 
ATOM     50  H   UNL     1      27.014  32.971  14.099  1.00  0.00     0.163 HD
ATOM     51  C   UNL     1      24.684  34.293  14.588  1.00  0.00     0.114 C 
ATOM     52  O   UNL     1      26.206  36.087  14.570  1.00  0.00    -0.275 OA
ENDBRANCH   7  48
ENDBRANCH   1   2
BRANCH   1  53
ATOM     53  O   UNL     1      29.169  34.042  16.829  1.00  0.00    -0.388 OA
ATOM     54  H   UNL     1      28.467  33.801  17.467  1.00  0.00     0.211 HD
ENDBRANCH   1  53
BRANCH   1  55
ATOM     55  C   UNL     1      30.675  32.335  16.418  1.00  0.00     0.165 C 
BRANCH  55  56
ATOM     56  O   UNL     1      31.391  31.818  15.327  1.00  0.00    -0.388 OA
ATOM     57  H   UNL     1      30.784  31.258  14.801  1.00  0.00     0.211 HD
ENDBRANCH  55  56
BRANCH  55  58
ATOM     58  C   UNL     1      30.451  31.297  17.474  1.00  0.00     0.154 C 
BRANCH  58  59
ATOM     59  N   UNL     1      29.105  30.839  17.616  1.00  0.00    -0.319 N 
ATOM     60  C   UNL     1      28.219  31.318  18.600  1.00  0.00     0.407 C 
ATOM     61  H   UNL     1      28.696  30.097  16.968  1.00  0.00     0.167 HD
ATOM     62  O   UNL     1      28.538  32.197  19.428  1.00  0.00    -0.225 OA
BRANCH  60  63
ATOM     63  O   UNL     1      26.908  30.830  18.715  1.00  0.00    -0.443 OA
BRANCH  63  64
ATOM     64  C   UNL     1      26.488  29.645  18.102  1.00  0.00     0.294 C 
BRANCH  64  65
ATOM     65  C   UNL     1      25.888  29.894  16.763  1.00  0.00     0.120 A 
ATOM     66  C   UNL     1      24.747  29.261  16.301  1.00  0.00     0.138 A 
ATOM     67  N   UNL     1      26.264  30.715  15.787  1.00  0.00    -0.132 NA
ATOM     68  N   UNL     1      24.494  29.727  15.074  1.00  0.00    -0.249 N 
ATOM     69  N   UNL     1      25.430  30.612  14.781  1.00  0.00    -0.067 NA
BRANCH  68  70
ATOM     70  C   UNL     1      23.392  29.335  14.184  1.00  0.00     0.187 C 
BRANCH  70  71
ATOM     71  C   UNL     1      23.531  30.045  12.855  1.00  0.00     0.256 C 
BRANCH  71  72
ATOM     72  O   UNL     1      22.764  31.244  12.907  1.00  0.00    -0.464 OA
BRANCH  72  73
ATOM     73  C   UNL     1      21.430  31.245  12.513  1.00  0.00     0.302 C 
ATOM     74  O   UNL     1      20.936  30.167  12.105  1.00  0.00    -0.253 OA
ATOM     75  C   UNL     1      20.580  32.480  12.562  1.00  0.00     0.139 C 
ENDBRANCH  72  73
ENDBRANCH  71  72
ENDBRANCH  70  71
ENDBRANCH  68  70
ENDBRANCH  64  65
ENDBRANCH  63  64
ENDBRANCH  60  63
ENDBRANCH  58  59
ENDBRANCH  55  58
ENDBRANCH   1  55
TORSDOF 33
BEGIN_RES LYS A 131
REMARK  4 active torsions:
REMARK  status: ('A' for Active; 'I' for Inactive)
REMARK    1  A    between atoms: CA   and  CB  
REMARK    2  A    between atoms: CB   and  CG  
REMARK    3  A    between atoms: CG   and  CD  
REMARK    4  A    between atoms: CD   and  CE  
ROOT
ATOM      1  CA  LYS A 131      29.867  25.555  16.977  1.00 20.52     0.186 C 
ENDROOT
BRANCH   1   2
ATOM      2  CB  LYS A 131      28.345  25.722  17.026  1.00 20.94     0.034 C 
BRANCH   2   3
ATOM      3  CG  LYS A 131      27.602  24.397  16.949  1.00 22.96     0.005 C 
BRANCH   3   4
ATOM      4  CD  LYS A 131      26.181  24.515  17.426  1.00 24.33     0.041 C 
BRANCH   4   5
ATOM      5  CE  LYS A 131      25.572  23.124  17.560  1.00 26.91     0.338 C 
ATOM      6  NZ  LYS A 131      24.166  23.126  17.091  1.00 27.40     0.618 N 
ENDBRANCH   4   5
ENDBRANCH   3   4
ENDBRANCH   2   3
ENDBRANCH   1   2
END_RES LYS A 131
BEGIN_RES LYS A 135
REMARK  4 active torsions:
REMARK  status: ('A' for Active; 'I' for Inactive)
REMARK    5  A    between atoms: CA   and  CB  
REMARK    6  A    between atoms: CB   and  CG  
REMARK    7  A    between atoms: CG   and  CD  
REMARK    8  A    between atoms: CD   and  CE  
ROOT
ATOM      7  CA  LYS A 135      33.193  34.663   9.290  1.00 25.02     0.186 C 
ENDROOT
BRANCH   7   8
ATOM      8  CB  LYS A 135      32.060  35.360  10.034  1.00 26.63     0.034 C 
BRANCH   8   9
ATOM      9  CG  LYS A 135      30.826  35.569   9.194  1.00 29.45     0.005 C 
BRANCH   9  10
ATOM     10  CD  LYS A 135      30.142  34.241   8.906  1.00 32.00     0.041 C 
BRANCH  10  11
ATOM     11  CE  LYS A 135      28.705  34.465   8.475  1.00 34.25     0.338 C 
ATOM     12  NZ  LYS A 135      27.762  33.695   9.332  1.00 35.99     0.618 N 
ENDBRANCH  10  11
ENDBRANCH   9  10
ENDBRANCH   8   9
ENDBRANCH   7   8
END_RES LYS A 135
