REMARK VINA RESULT:    -4.712      4.151     10.018
REMARK INTER + INTRA:         -23.611
REMARK INTER:                 -12.424
REMARK INTRA:                 -11.187
REMARK UNBOUND:               -11.187
REMARK SMILES CC(=O)N[C@@H]1[C@@H](O)C[C@](OC[C@H]2O[C@@H](O[C@H]3[C@H](O)[C@@H](O)[C@H](OCCN=[N+]=[N-])O[C@@H]3CO)[C@H](O)[C@@H](O)[C@H]2O)(C(=O)O)O[C@H]1C(O)[C@H](O)CNC(=O)OCc1cn(-c2ccc(S(=O)(=O)Nc3nccs3)cc2)nn1
REMARK SMILES IDX 43 1 42 2 9 3 8 4 41 5 6 6 5 7 10 8 11 9 12 10 14 11 13 12
REMARK SMILES IDX 32 13 34 14 36 15 15 16 16 17 29 18 28 19 21 20 17 21 19 22
REMARK SMILES IDX 30 23 31 24 22 26 23 27 24 28 25 29 26 30 27 31 18 32 20 34
REMARK SMILES IDX 33 36 35 38 37 40 38 42 39 43 40 44 7 46 4 48 2 49 1 51 3 52
REMARK SMILES IDX 44 53 45 55 46 56 47 58 48 59 49 60 50 62 51 63 52 64 53 65
REMARK SMILES IDX 54 66 72 67 55 68 71 69 56 70 57 71 70 72 58 73 69 74 59 75
REMARK SMILES IDX 60 76 61 77 62 78 63 79 64 81 65 82 68 83 66 84 67 85
REMARK H PARENT 31 25 18 33 20 35 33 37 35 39 37 41 40 45 7 47 4 50 44 54
REMARK H PARENT 46 57 48 61 63 80
REMARK Flexibility Score: inf
ROOT
ATOM      1  C   UNL     1      25.512  40.716   9.116  1.00  0.00     0.176 C 
ENDROOT
BRANCH   1   2
ATOM      2  C   UNL     1      24.541  39.585   9.067  1.00  0.00     0.178 C 
ATOM      3  C   UNL     1      24.709  37.262   9.268  1.00  0.00     0.272 C 
ATOM      4  C   UNL     1      23.188  37.478   9.113  1.00  0.00     0.113 C 
ATOM      5  O   UNL     1      25.377  38.426   9.012  1.00  0.00    -0.332 OA
ATOM      6  C   UNL     1      22.828  38.274   7.917  1.00  0.00     0.145 C 
ATOM      7  C   UNL     1      23.738  39.498   7.792  1.00  0.00     0.142 C 
BRANCH   3   8
ATOM      8  O   UNL     1      25.140  36.308   8.380  1.00  0.00    -0.338 OA
BRANCH   8   9
ATOM      9  C   UNL     1      25.503  35.110   8.943  1.00  0.00     0.199 C 
BRANCH   9  10
ATOM     10  C   UNL     1      26.975  34.802   8.797  1.00  0.00     0.179 C 
ATOM     11  C   UNL     1      29.000  35.477   8.146  1.00  0.00     0.282 C 
ATOM     12  O   UNL     1      27.749  35.943   8.615  1.00  0.00    -0.341 OA
ATOM     13  C   UNL     1      29.750  34.986   9.361  1.00  0.00     0.202 C 
ATOM     14  C   UNL     1      28.779  34.801  10.531  1.00  0.00     0.179 C 
ATOM     15  C   UNL     1      27.515  34.118  10.043  1.00  0.00     0.177 C 
BRANCH  11  16
ATOM     16  O   UNL     1      29.707  36.430   7.496  1.00  0.00    -0.341 OA
BRANCH  16  17
ATOM     17  C   UNL     1      29.173  37.706   7.526  1.00  0.00     0.184 C 
ATOM     18  C   UNL     1      29.017  38.413   6.242  1.00  0.00     0.178 C 
ATOM     19  O   UNL     1      29.112  39.810   6.499  1.00  0.00    -0.341 OA
ATOM     20  C   UNL     1      30.447  40.184   6.710  1.00  0.00     0.281 C 
ATOM     21  C   UNL     1      29.906  38.580   8.535  1.00  0.00     0.180 C 
ATOM     22  C   UNL     1      31.018  39.399   7.877  1.00  0.00     0.202 C 
BRANCH  18  23
ATOM     23  C   UNL     1      27.638  38.279   5.597  1.00  0.00     0.191 C 
BRANCH  23  24
ATOM     24  O   UNL     1      26.652  37.883   6.449  1.00  0.00    -0.394 OA
ATOM     25  H   UNL     1      26.691  38.406   7.281  1.00  0.00     0.210 HD
ENDBRANCH  23  24
ENDBRANCH  18  23
BRANCH  20  26
ATOM     26  O   UNL     1      30.471  41.535   6.972  1.00  0.00    -0.350 OA
BRANCH  26  27
ATOM     27  C   UNL     1      31.609  42.000   7.579  1.00  0.00     0.169 C 
BRANCH  27  28
ATOM     28  C   UNL     1      32.625  42.563   6.614  1.00  0.00     0.119 C 
BRANCH  28  29
ATOM     29  N   UNL     1      33.782  41.706   6.661  1.00  0.00    -0.092 NA
ATOM     30  N   UNL     1      33.903  40.807   5.833  1.00  0.00     0.001 N 
ATOM     31  N   UNL     1      33.917  39.676   5.344  1.00  0.00    -0.003 NA
ENDBRANCH  28  29
ENDBRANCH  27  28
ENDBRANCH  26  27
ENDBRANCH  20  26
BRANCH  21  32
ATOM     32  O   UNL     1      29.036  39.495   9.126  1.00  0.00    -0.387 OA
ATOM     33  H   UNL     1      28.103  39.326   8.860  1.00  0.00     0.211 HD
ENDBRANCH  21  32
BRANCH  22  34
ATOM     34  O   UNL     1      32.095  38.599   7.521  1.00  0.00    -0.385 OA
ATOM     35  H   UNL     1      32.772  39.189   7.122  1.00  0.00     0.211 HD
ENDBRANCH  22  34
ENDBRANCH  16  17
ENDBRANCH  11  16
BRANCH  13  36
ATOM     36  O   UNL     1      30.283  33.687   9.168  1.00  0.00    -0.385 OA
ATOM     37  H   UNL     1      29.842  33.029   9.726  1.00  0.00     0.211 HD
ENDBRANCH  13  36
BRANCH  14  38
ATOM     38  O   UNL     1      28.530  36.013  11.159  1.00  0.00    -0.387 OA
ATOM     39  H   UNL     1      28.111  35.892  12.051  1.00  0.00     0.211 HD
ENDBRANCH  14  38
BRANCH  15  40
ATOM     40  O   UNL     1      26.594  34.138  11.079  1.00  0.00    -0.387 OA
ATOM     41  H   UNL     1      25.767  33.663  10.898  1.00  0.00     0.211 HD
ENDBRANCH  15  40
ENDBRANCH   9  10
ENDBRANCH   8   9
ENDBRANCH   3   8
BRANCH   3  42
ATOM     42  C   UNL     1      24.899  36.833  10.656  1.00  0.00     0.364 C 
ATOM     43  O   UNL     1      24.032  36.132  11.271  1.00  0.00    -0.246 OA
BRANCH  42  44
ATOM     44  O   UNL     1      26.024  37.156  11.393  1.00  0.00    -0.477 OA
ATOM     45  H   UNL     1      26.848  36.541  11.360  1.00  0.00     0.296 HD
ENDBRANCH  42  44
ENDBRANCH   3  42
BRANCH   6  46
ATOM     46  O   UNL     1      22.836  37.530   6.737  1.00  0.00    -0.391 OA
ATOM     47  H   UNL     1      23.727  37.589   6.317  1.00  0.00     0.211 HD
ENDBRANCH   6  46
BRANCH   7  48
ATOM     48  N   UNL     1      22.971  40.645   7.459  1.00  0.00    -0.348 N 
ATOM     49  C   UNL     1      23.447  41.565   6.481  1.00  0.00     0.217 C 
ATOM     50  H   UNL     1      22.056  40.849   7.905  1.00  0.00     0.163 HD
ATOM     51  C   UNL     1      22.714  42.775   6.077  1.00  0.00     0.114 C 
ATOM     52  O   UNL     1      24.570  41.337   5.915  1.00  0.00    -0.275 OA
ENDBRANCH   7  48
ENDBRANCH   1   2
BRANCH   1  53
ATOM     53  O   UNL     1      26.576  40.430   8.203  1.00  0.00    -0.388 OA
ATOM     54  H   UNL     1      26.878  39.509   8.302  1.00  0.00     0.211 HD
ENDBRANCH   1  53
BRANCH   1  55
ATOM     55  C   UNL     1      26.106  41.040  10.457  1.00  0.00     0.165 C 
BRANCH  55  56
ATOM     56  O   UNL     1      26.917  39.891  10.753  1.00  0.00    -0.388 OA
ATOM     57  H   UNL     1      26.395  39.073  10.546  1.00  0.00     0.211 HD
ENDBRANCH  55  56
BRANCH  55  58
ATOM     58  C   UNL     1      25.056  41.008  11.561  1.00  0.00     0.154 C 
BRANCH  58  59
ATOM     59  N   UNL     1      25.514  40.065  12.547  1.00  0.00    -0.319 N 
ATOM     60  C   UNL     1      24.643  39.230  13.296  1.00  0.00     0.407 C 
ATOM     61  H   UNL     1      26.560  39.956  12.753  1.00  0.00     0.167 HD
ATOM     62  O   UNL     1      23.421  39.265  13.115  1.00  0.00    -0.225 OA
BRANCH  60  63
ATOM     63  O   UNL     1      25.133  38.351  14.255  1.00  0.00    -0.443 OA
BRANCH  63  64
ATOM     64  C   UNL     1      24.606  37.090  14.565  1.00  0.00     0.294 C 
BRANCH  64  65
ATOM     65  C   UNL     1      25.594  36.000  14.637  1.00  0.00     0.121 A 
ATOM     66  C   UNL     1      25.862  35.201  15.753  1.00  0.00     0.144 A 
ATOM     67  N   UNL     1      26.417  35.542  13.696  1.00  0.00    -0.131 NA
ATOM     68  N   UNL     1      26.828  34.295  15.451  1.00  0.00    -0.220 N 
ATOM     69  N   UNL     1      27.146  34.529  14.191  1.00  0.00    -0.062 NA
BRANCH  68  70
ATOM     70  C   UNL     1      27.351  33.309  16.358  1.00  0.00     0.066 A 
ATOM     71  C   UNL     1      28.654  32.902  16.327  1.00  0.00     0.030 A 
ATOM     72  C   UNL     1      26.487  32.750  17.284  1.00  0.00     0.030 A 
ATOM     73  C   UNL     1      29.107  31.932  17.219  1.00  0.00     0.024 A 
ATOM     74  C   UNL     1      26.887  31.792  18.184  1.00  0.00     0.024 A 
ATOM     75  C   UNL     1      28.218  31.401  18.124  1.00  0.00     0.088 A 
BRANCH  75  76
ATOM     76  S   UNL     1      28.754  30.180  19.251  1.00  0.00     0.263 S 
ATOM     77  O   UNL     1      28.001  28.902  18.936  1.00  0.00    -0.201 OA
ATOM     78  O   UNL     1      28.327  30.630  20.620  1.00  0.00    -0.201 OA
BRANCH  76  79
ATOM     79  N   UNL     1      30.441  29.980  19.138  1.00  0.00    -0.255 N 
ATOM     80  H   UNL     1      30.876  29.995  18.199  1.00  0.00     0.182 HD
BRANCH  79  81
ATOM     81  C   UNL     1      31.194  29.804  20.287  1.00  0.00     0.196 A 
ATOM     82  N   UNL     1      31.818  30.493  21.162  1.00  0.00    -0.228 NA
ATOM     83  S   UNL     1      31.540  28.103  20.949  1.00  0.00    -0.105 S 
ATOM     84  C   UNL     1      32.464  30.034  22.169  1.00  0.00     0.125 A 
ATOM     85  C   UNL     1      32.524  28.682  22.374  1.00  0.00     0.089 A 
ENDBRANCH  79  81
ENDBRANCH  76  79
ENDBRANCH  75  76
ENDBRANCH  68  70
ENDBRANCH  64  65
ENDBRANCH  63  64
ENDBRANCH  60  63
ENDBRANCH  58  59
ENDBRANCH  55  58
ENDBRANCH   1  55
TORSDOF 33
BEGIN_RES LYS A 131
REMARK  4 active torsions:
REMARK  status: ('A' for Active; 'I' for Inactive)
REMARK    1  A    between atoms: CA   and  CB  
REMARK    2  A    between atoms: CB   and  CG  
REMARK    3  A    between atoms: CG   and  CD  
REMARK    4  A    between atoms: CD   and  CE  
ROOT
ATOM      1  CA  LYS A 131      29.867  25.555  16.977  1.00 20.52     0.186 C 
ENDROOT
BRANCH   1   2
ATOM      2  CB  LYS A 131      28.345  25.722  17.026  1.00 20.94     0.034 C 
BRANCH   2   3
ATOM      3  CG  LYS A 131      27.602  24.399  16.921  1.00 22.96     0.005 C 
BRANCH   3   4
ATOM      4  CD  LYS A 131      26.639  24.198  18.058  1.00 24.33     0.041 C 
BRANCH   4   5
ATOM      5  CE  LYS A 131      26.107  25.551  18.520  1.00 26.91     0.338 C 
ATOM      6  NZ  LYS A 131      24.833  25.869  17.834  1.00 27.40     0.618 N 
ENDBRANCH   4   5
ENDBRANCH   3   4
ENDBRANCH   2   3
ENDBRANCH   1   2
END_RES LYS A 131
BEGIN_RES LYS A 135
REMARK  4 active torsions:
REMARK  status: ('A' for Active; 'I' for Inactive)
REMARK    5  A    between atoms: CA   and  CB  
REMARK    6  A    between atoms: CB   and  CG  
REMARK    7  A    between atoms: CG   and  CD  
REMARK    8  A    between atoms: CD   and  CE  
ROOT
ATOM      7  CA  LYS A 135      33.193  34.663   9.290  1.00 25.02     0.186 C 
ENDROOT
BRANCH   7   8
ATOM      8  CB  LYS A 135      32.060  35.360  10.034  1.00 26.63     0.034 C 
BRANCH   8   9
ATOM      9  CG  LYS A 135      32.508  36.068  11.287  1.00 29.45     0.005 C 
BRANCH   9  10
ATOM     10  CD  LYS A 135      31.917  37.468  11.353  1.00 32.00     0.041 C 
BRANCH  10  11
ATOM     11  CE  LYS A 135      31.399  37.762  12.748  1.00 34.25     0.338 C 
ATOM     12  NZ  LYS A 135      31.940  36.789  13.737  1.00 35.99     0.618 N 
ENDBRANCH  10  11
ENDBRANCH   9  10
ENDBRANCH   8   9
ENDBRANCH   7   8
END_RES LYS A 135
