REMARK VINA RESULT:    -5.264      4.110      8.608
REMARK INTER + INTRA:         -23.214
REMARK INTER:                 -10.176
REMARK INTRA:                 -13.039
REMARK UNBOUND:                -9.487
REMARK SMILES CC(=O)N[C@@H]1[C@@H](O)C[C@](OC[C@H]2O[C@@H](O[C@H]3[C@H](O)[C@@H](O)[C@H](OCCN=[N+]=[N-])O[C@@H]3CO)[C@H](O)[C@@H](O)[C@H]2O)(C(=O)O)O[C@H]1C(O)[C@H](O)CNC(=O)OCc1cn(Cc2ccc(C(=O)O)cc2)nn1
REMARK SMILES IDX 43 1 42 2 9 3 8 4 41 5 6 6 5 7 10 8 11 9 12 10 14 11 13 12
REMARK SMILES IDX 32 13 34 14 36 15 15 16 16 17 29 18 28 19 21 20 17 21 19 22
REMARK SMILES IDX 30 23 31 24 22 26 23 27 24 28 25 29 26 30 27 31 18 32 20 34
REMARK SMILES IDX 33 36 35 38 37 40 38 42 39 43 40 44 7 46 4 48 2 49 1 51 3 52
REMARK SMILES IDX 44 53 45 55 46 56 47 58 48 59 49 60 50 62 51 63 52 64 53 65
REMARK SMILES IDX 54 66 67 67 55 68 66 69 56 70 57 71 58 72 65 73 59 74 64 75
REMARK SMILES IDX 60 76 61 77 62 78 63 79
REMARK H PARENT 31 25 18 33 20 35 33 37 35 39 37 41 40 45 7 47 4 50 44 54
REMARK H PARENT 46 57 48 61 63 80
REMARK Flexibility Score: inf
ROOT
ATOM      1  C   UNL     1      25.753  41.505   9.629  1.00  0.00     0.176 C 
ENDROOT
BRANCH   1   2
ATOM      2  C   UNL     1      24.905  41.677   8.350  1.00  0.00     0.178 C 
ATOM      3  C   UNL     1      22.592  42.083   8.059  1.00  0.00     0.272 C 
ATOM      4  C   UNL     1      22.515  40.846   7.258  1.00  0.00     0.113 C 
ATOM      5  O   UNL     1      23.763  42.252   8.753  1.00  0.00    -0.332 OA
ATOM      6  C   UNL     1      23.472  39.768   7.724  1.00  0.00     0.145 C 
ATOM      7  C   UNL     1      24.848  40.365   7.680  1.00  0.00     0.142 C 
BRANCH   3   8
ATOM      8  O   UNL     1      21.598  42.137   9.001  1.00  0.00    -0.338 OA
BRANCH   8   9
ATOM      9  C   UNL     1      21.908  42.286  10.306  1.00  0.00     0.199 C 
BRANCH   9  10
ATOM     10  C   UNL     1      21.085  41.295  11.164  1.00  0.00     0.179 C 
ATOM     11  C   UNL     1      20.073  39.200  11.031  1.00  0.00     0.282 C 
ATOM     12  O   UNL     1      20.660  40.275  10.364  1.00  0.00    -0.341 OA
ATOM     13  C   UNL     1      19.806  39.448  12.472  1.00  0.00     0.202 C 
ATOM     14  C   UNL     1      21.107  39.847  13.134  1.00  0.00     0.179 C 
ATOM     15  C   UNL     1      21.911  40.822  12.332  1.00  0.00     0.177 C 
BRANCH  11  16
ATOM     16  O   UNL     1      20.898  38.089  10.859  1.00  0.00    -0.341 OA
BRANCH  16  17
ATOM     17  C   UNL     1      20.293  37.111  10.125  1.00  0.00     0.184 C 
ATOM     18  C   UNL     1      20.453  35.760  10.718  1.00  0.00     0.178 C 
ATOM     19  O   UNL     1      19.604  34.832  10.096  1.00  0.00    -0.341 OA
ATOM     20  C   UNL     1      19.593  35.016   8.712  1.00  0.00     0.281 C 
ATOM     21  C   UNL     1      20.958  37.137   8.735  1.00  0.00     0.180 C 
ATOM     22  C   UNL     1      20.797  35.737   8.182  1.00  0.00     0.202 C 
BRANCH  18  23
ATOM     23  C   UNL     1      20.119  35.777  12.183  1.00  0.00     0.191 C 
BRANCH  23  24
ATOM     24  O   UNL     1      21.342  36.011  12.852  1.00  0.00    -0.394 OA
ATOM     25  H   UNL     1      22.064  35.512  12.423  1.00  0.00     0.210 HD
ENDBRANCH  23  24
ENDBRANCH  18  23
BRANCH  20  26
ATOM     26  O   UNL     1      18.415  35.626   8.349  1.00  0.00    -0.350 OA
BRANCH  26  27
ATOM     27  C   UNL     1      17.293  35.164   8.998  1.00  0.00     0.169 C 
BRANCH  27  28
ATOM     28  C   UNL     1      16.165  36.136   9.104  1.00  0.00     0.119 C 
BRANCH  28  29
ATOM     29  N   UNL     1      16.692  37.313   9.814  1.00  0.00    -0.092 NA
ATOM     30  N   UNL     1      17.059  38.326   9.229  1.00  0.00     0.001 N 
ATOM     31  N   UNL     1      17.476  39.156   8.429  1.00  0.00    -0.003 NA
ENDBRANCH  28  29
ENDBRANCH  27  28
ENDBRANCH  26  27
ENDBRANCH  20  26
BRANCH  21  32
ATOM     32  O   UNL     1      20.352  38.078   7.932  1.00  0.00    -0.387 OA
ATOM     33  H   UNL     1      20.004  38.859   8.473  1.00  0.00     0.211 HD
ENDBRANCH  21  32
BRANCH  22  34
ATOM     34  O   UNL     1      21.957  35.025   8.378  1.00  0.00    -0.385 OA
ATOM     35  H   UNL     1      22.754  35.522   8.122  1.00  0.00     0.211 HD
ENDBRANCH  22  34
ENDBRANCH  16  17
ENDBRANCH  11  16
BRANCH  13  36
ATOM     36  O   UNL     1      18.842  40.451  12.661  1.00  0.00    -0.385 OA
ATOM     37  H   UNL     1      18.654  40.468  13.639  1.00  0.00     0.211 HD
ENDBRANCH  13  36
BRANCH  14  38
ATOM     38  O   UNL     1      21.892  38.731  13.426  1.00  0.00    -0.387 OA
ATOM     39  H   UNL     1      22.597  38.659  12.723  1.00  0.00     0.211 HD
ENDBRANCH  14  38
BRANCH  15  40
ATOM     40  O   UNL     1      23.135  40.282  11.913  1.00  0.00    -0.387 OA
ATOM     41  H   UNL     1      22.924  39.502  11.336  1.00  0.00     0.211 HD
ENDBRANCH  15  40
ENDBRANCH   9  10
ENDBRANCH   8   9
ENDBRANCH   3   8
BRANCH   3  42
ATOM     42  C   UNL     1      22.505  43.261   7.120  1.00  0.00     0.364 C 
ATOM     43  O   UNL     1      22.202  43.097   5.912  1.00  0.00    -0.246 OA
BRANCH  42  44
ATOM     44  O   UNL     1      22.751  44.555   7.551  1.00  0.00    -0.477 OA
ATOM     45  H   UNL     1      23.480  44.677   8.271  1.00  0.00     0.296 HD
ENDBRANCH  42  44
ENDBRANCH   3  42
BRANCH   6  46
ATOM     46  O   UNL     1      23.068  39.367   8.979  1.00  0.00    -0.391 OA
ATOM     47  H   UNL     1      22.179  38.928   8.922  1.00  0.00     0.211 HD
ENDBRANCH   6  46
BRANCH   7  48
ATOM     48  N   UNL     1      25.236  40.514   6.284  1.00  0.00    -0.348 N 
ATOM     49  C   UNL     1      26.583  40.251   5.851  1.00  0.00     0.217 C 
ATOM     50  H   UNL     1      24.590  40.814   5.524  1.00  0.00     0.163 HD
ATOM     51  C   UNL     1      26.942  40.416   4.408  1.00  0.00     0.114 C 
ATOM     52  O   UNL     1      27.419  39.890   6.696  1.00  0.00    -0.275 OA
ENDBRANCH   7  48
ENDBRANCH   1   2
BRANCH   1  53
ATOM     53  O   UNL     1      25.185  42.031  10.743  1.00  0.00    -0.388 OA
ATOM     54  H   UNL     1      25.733  42.038  11.558  1.00  0.00     0.211 HD
ENDBRANCH   1  53
BRANCH   1  55
ATOM     55  C   UNL     1      26.207  40.075   9.796  1.00  0.00     0.165 C 
BRANCH  55  56
ATOM     56  O   UNL     1      25.305  39.400  10.557  1.00  0.00    -0.388 OA
ATOM     57  H   UNL     1      24.444  39.837  10.700  1.00  0.00     0.211 HD
ENDBRANCH  55  56
BRANCH  55  58
ATOM     58  C   UNL     1      27.634  40.034  10.185  1.00  0.00     0.154 C 
BRANCH  58  59
ATOM     59  N   UNL     1      27.872  39.170  11.307  1.00  0.00    -0.319 N 
ATOM     60  C   UNL     1      27.522  39.482  12.640  1.00  0.00     0.407 C 
ATOM     61  H   UNL     1      28.338  38.233  11.155  1.00  0.00     0.167 HD
ATOM     62  O   UNL     1      26.970  40.550  12.944  1.00  0.00    -0.225 OA
BRANCH  60  63
ATOM     63  O   UNL     1      27.770  38.607  13.717  1.00  0.00    -0.443 OA
BRANCH  63  64
ATOM     64  C   UNL     1      26.700  37.880  14.293  1.00  0.00     0.294 C 
BRANCH  64  65
ATOM     65  C   UNL     1      25.770  37.341  13.286  1.00  0.00     0.120 A 
ATOM     66  C   UNL     1      25.935  36.307  12.407  1.00  0.00     0.138 A 
ATOM     67  N   UNL     1      24.539  37.839  13.060  1.00  0.00    -0.132 NA
ATOM     68  N   UNL     1      24.805  36.208  11.672  1.00  0.00    -0.248 N 
ATOM     69  N   UNL     1      23.976  37.147  12.087  1.00  0.00    -0.067 NA
BRANCH  68  70
ATOM     70  C   UNL     1      24.584  35.241  10.628  1.00  0.00     0.181 C 
BRANCH  70  71
ATOM     71  C   UNL     1      25.471  35.504   9.476  1.00  0.00    -0.026 A 
ATOM     72  C   UNL     1      25.267  36.620   8.693  1.00  0.00     0.006 A 
ATOM     73  C   UNL     1      26.500  34.620   9.165  1.00  0.00     0.006 A 
ATOM     74  C   UNL     1      26.122  36.797   7.619  1.00  0.00     0.016 A 
ATOM     75  C   UNL     1      27.346  34.802   8.094  1.00  0.00     0.016 A 
ATOM     76  C   UNL     1      27.141  35.916   7.314  1.00  0.00     0.059 A 
BRANCH  76  77
ATOM     77  C   UNL     1      28.001  36.157   6.167  1.00  0.00     0.335 C 
ATOM     78  O   UNL     1      27.629  36.908   5.254  1.00  0.00    -0.246 OA
BRANCH  77  79
ATOM     79  O   UNL     1      29.233  35.546   6.096  1.00  0.00    -0.478 OA
ATOM     80  H   UNL     1      29.438  34.678   6.587  1.00  0.00     0.297 HD
ENDBRANCH  77  79
ENDBRANCH  76  77
ENDBRANCH  70  71
ENDBRANCH  68  70
ENDBRANCH  64  65
ENDBRANCH  63  64
ENDBRANCH  60  63
ENDBRANCH  58  59
ENDBRANCH  55  58
ENDBRANCH   1  55
TORSDOF 33
BEGIN_RES LYS A 131
REMARK  4 active torsions:
REMARK  status: ('A' for Active; 'I' for Inactive)
REMARK    1  A    between atoms: CA   and  CB  
REMARK    2  A    between atoms: CB   and  CG  
REMARK    3  A    between atoms: CG   and  CD  
REMARK    4  A    between atoms: CD   and  CE  
ROOT
ATOM      1  CA  LYS A 131      29.867  25.555  16.977  1.00 20.52     0.186 C 
ENDROOT
BRANCH   1   2
ATOM      2  CB  LYS A 131      28.345  25.722  17.026  1.00 20.94     0.034 C 
BRANCH   2   3
ATOM      3  CG  LYS A 131      27.601  24.403  16.887  1.00 22.96     0.005 C 
BRANCH   3   4
ATOM      4  CD  LYS A 131      26.181  24.500  17.370  1.00 24.33     0.041 C 
BRANCH   4   5
ATOM      5  CE  LYS A 131      26.140  25.284  18.677  1.00 26.91     0.338 C 
ATOM      6  NZ  LYS A 131      25.447  24.503  19.730  1.00 27.40     0.618 N 
ENDBRANCH   4   5
ENDBRANCH   3   4
ENDBRANCH   2   3
ENDBRANCH   1   2
END_RES LYS A 131
BEGIN_RES LYS A 135
REMARK  4 active torsions:
REMARK  status: ('A' for Active; 'I' for Inactive)
REMARK    5  A    between atoms: CA   and  CB  
REMARK    6  A    between atoms: CB   and  CG  
REMARK    7  A    between atoms: CG   and  CD  
REMARK    8  A    between atoms: CD   and  CE  
ROOT
ATOM      7  CA  LYS A 135      33.193  34.663   9.290  1.00 25.02     0.186 C 
ENDROOT
BRANCH   7   8
ATOM      8  CB  LYS A 135      32.060  35.360  10.034  1.00 26.63     0.034 C 
BRANCH   8   9
ATOM      9  CG  LYS A 135      30.773  35.420   9.252  1.00 29.45     0.005 C 
BRANCH   9  10
ATOM     10  CD  LYS A 135      30.001  36.688   9.586  1.00 32.00     0.041 C 
BRANCH  10  11
ATOM     11  CE  LYS A 135      30.415  37.821   8.666  1.00 34.25     0.338 C 
ATOM     12  NZ  LYS A 135      31.159  38.873   9.413  1.00 35.99     0.618 N 
ENDBRANCH  10  11
ENDBRANCH   9  10
ENDBRANCH   8   9
ENDBRANCH   7   8
END_RES LYS A 135
