REMARK VINA RESULT:    -4.689      2.921      8.147
REMARK INTER + INTRA:         -22.470
REMARK INTER:                 -12.320
REMARK INTRA:                 -10.150
REMARK UNBOUND:               -10.516
REMARK SMILES CC(=O)N[C@@H]1[C@@H](O)C[C@](OC[C@H]2O[C@@H](O[C@H]3[C@H](O)[C@@H](O)[C@H](OCCN=[N+]=[N-])O[C@@H]3CO)[C@H](O)[C@@H](O)[C@H]2O)(C(=O)O)O[C@H]1C(O)[C@H](O)CNC(=O)OCc1cn(C(C)(C)C(=O)O)nn1
REMARK SMILES IDX 9 1 8 2 6 3 5 4 42 5 41 6 10 7 11 8 12 9 14 10 13 11 32 12
REMARK SMILES IDX 34 13 36 14 15 15 16 16 29 17 28 18 21 19 17 20 19 21 30 22
REMARK SMILES IDX 31 23 22 25 23 26 24 27 25 28 26 29 27 30 18 31 20 33 33 35
REMARK SMILES IDX 35 37 37 39 38 41 39 42 40 43 7 45 43 47 44 48 45 50 46 51
REMARK SMILES IDX 47 53 48 54 49 55 50 57 51 58 52 59 53 60 54 61 63 62 55 63
REMARK SMILES IDX 62 64 56 65 57 66 58 67 59 68 60 69 61 70 4 72 2 73 1 75
REMARK SMILES IDX 3 76
REMARK H PARENT 31 24 18 32 20 34 33 36 35 38 37 40 40 44 7 46 44 49 46 52
REMARK H PARENT 48 56 61 71 4 74
REMARK Flexibility Score: inf
ROOT
ATOM      1  C   UNL     1      28.643  35.733   9.100  1.00  0.00     0.272 C 
ATOM      2  C   UNL     1      27.885  34.523   8.740  1.00  0.00     0.113 C 
ATOM      3  C   UNL     1      26.619  34.308   9.520  1.00  0.00     0.145 C 
ATOM      4  C   UNL     1      26.722  34.972  10.859  1.00  0.00     0.142 C 
ATOM      5  C   UNL     1      28.220  34.945  11.218  1.00  0.00     0.178 C 
ATOM      6  O   UNL     1      28.828  35.929  10.472  1.00  0.00    -0.332 OA
ENDROOT
BRANCH   1   7
ATOM      7  O   UNL     1      28.154  36.892   8.580  1.00  0.00    -0.338 OA
BRANCH   7   8
ATOM      8  C   UNL     1      27.829  36.929   7.260  1.00  0.00     0.199 C 
BRANCH   8   9
ATOM      9  C   UNL     1      26.516  37.645   7.035  1.00  0.00     0.179 C 
ATOM     10  C   UNL     1      24.461  37.975   8.033  1.00  0.00     0.282 C 
ATOM     11  O   UNL     1      25.828  37.565   8.244  1.00  0.00    -0.341 OA
ATOM     12  C   UNL     1      24.502  39.436   7.792  1.00  0.00     0.202 C 
ATOM     13  C   UNL     1      25.930  39.947   7.612  1.00  0.00     0.179 C 
ATOM     14  C   UNL     1      26.711  39.063   6.650  1.00  0.00     0.177 C 
BRANCH  10  15
ATOM     15  O   UNL     1      23.818  37.512   9.140  1.00  0.00    -0.341 OA
BRANCH  15  16
ATOM     16  C   UNL     1      22.439  37.626   9.113  1.00  0.00     0.184 C 
ATOM     17  C   UNL     1      21.861  37.056  10.371  1.00  0.00     0.178 C 
ATOM     18  O   UNL     1      20.514  36.700  10.201  1.00  0.00    -0.341 OA
ATOM     19  C   UNL     1      20.356  35.556   9.433  1.00  0.00     0.281 C 
ATOM     20  C   UNL     1      21.860  36.829   7.944  1.00  0.00     0.180 C 
ATOM     21  C   UNL     1      21.469  35.450   8.412  1.00  0.00     0.202 C 
BRANCH  17  22
ATOM     22  C   UNL     1      21.840  38.096  11.503  1.00  0.00     0.191 C 
BRANCH  22  23
ATOM     23  O   UNL     1      22.185  37.443  12.669  1.00  0.00    -0.394 OA
ATOM     24  H   UNL     1      21.404  36.887  12.964  1.00  0.00     0.210 HD
ENDBRANCH  22  23
ENDBRANCH  17  22
BRANCH  19  25
ATOM     25  O   UNL     1      19.112  35.672   8.815  1.00  0.00    -0.350 OA
BRANCH  25  26
ATOM     26  C   UNL     1      18.039  35.666   9.669  1.00  0.00     0.169 C 
BRANCH  26  27
ATOM     27  C   UNL     1      16.808  35.355   8.805  1.00  0.00     0.119 C 
BRANCH  27  28
ATOM     28  N   UNL     1      16.302  34.023   9.039  1.00  0.00    -0.092 NA
ATOM     29  N   UNL     1      16.915  33.067   8.541  1.00  0.00     0.001 N 
ATOM     30  N   UNL     1      17.385  32.174   7.849  1.00  0.00    -0.003 NA
ENDBRANCH  27  28
ENDBRANCH  26  27
ENDBRANCH  25  26
ENDBRANCH  19  25
BRANCH  20  31
ATOM     31  O   UNL     1      20.714  37.463   7.478  1.00  0.00    -0.387 OA
ATOM     32  H   UNL     1      20.213  37.933   8.190  1.00  0.00     0.211 HD
ENDBRANCH  20  31
BRANCH  21  33
ATOM     33  O   UNL     1      22.597  34.835   8.940  1.00  0.00    -0.385 OA
ATOM     34  H   UNL     1      23.439  35.301   8.721  1.00  0.00     0.211 HD
ENDBRANCH  21  33
ENDBRANCH  15  16
ENDBRANCH  10  15
BRANCH  12  35
ATOM     35  O   UNL     1      23.877  39.696   6.552  1.00  0.00    -0.385 OA
ATOM     36  H   UNL     1      22.962  40.005   6.628  1.00  0.00     0.211 HD
ENDBRANCH  12  35
BRANCH  13  37
ATOM     37  O   UNL     1      26.563  40.052   8.836  1.00  0.00    -0.387 OA
ATOM     38  H   UNL     1      26.029  39.607   9.543  1.00  0.00     0.211 HD
ENDBRANCH  13  37
BRANCH  14  39
ATOM     39  O   UNL     1      28.041  39.436   6.752  1.00  0.00    -0.387 OA
ATOM     40  H   UNL     1      28.534  38.684   7.189  1.00  0.00     0.211 HD
ENDBRANCH  14  39
ENDBRANCH   8   9
ENDBRANCH   7   8
ENDBRANCH   1   7
BRANCH   1  41
ATOM     41  C   UNL     1      30.076  35.512   8.600  1.00  0.00     0.364 C 
ATOM     42  O   UNL     1      30.511  34.352   8.430  1.00  0.00    -0.246 OA
BRANCH  41  43
ATOM     43  O   UNL     1      30.911  36.579   8.330  1.00  0.00    -0.477 OA
ATOM     44  H   UNL     1      30.634  37.544   8.407  1.00  0.00     0.296 HD
ENDBRANCH  41  43
ENDBRANCH   1  41
BRANCH   3  45
ATOM     45  O   UNL     1      25.560  34.853   8.824  1.00  0.00    -0.391 OA
ATOM     46  H   UNL     1      25.086  35.555   9.341  1.00  0.00     0.211 HD
ENDBRANCH   3  45
BRANCH   5  47
ATOM     47  C   UNL     1      28.439  35.171  12.686  1.00  0.00     0.176 C 
BRANCH  47  48
ATOM     48  O   UNL     1      29.424  34.303  13.149  1.00  0.00    -0.388 OA
ATOM     49  H   UNL     1      29.279  33.378  12.787  1.00  0.00     0.211 HD
ENDBRANCH  47  48
BRANCH  47  50
ATOM     50  C   UNL     1      28.913  36.587  12.924  1.00  0.00     0.165 C 
BRANCH  50  51
ATOM     51  O   UNL     1      29.740  36.654  14.053  1.00  0.00    -0.388 OA
ATOM     52  H   UNL     1      29.348  37.301  14.680  1.00  0.00     0.211 HD
ENDBRANCH  50  51
BRANCH  50  53
ATOM     53  C   UNL     1      27.780  37.561  13.108  1.00  0.00     0.154 C 
BRANCH  53  54
ATOM     54  N   UNL     1      27.759  38.553  12.060  1.00  0.00    -0.319 N 
ATOM     55  C   UNL     1      27.824  39.937  12.347  1.00  0.00     0.407 C 
ATOM     56  H   UNL     1      27.694  38.258  11.066  1.00  0.00     0.167 HD
ATOM     57  O   UNL     1      27.905  40.373  13.524  1.00  0.00    -0.225 OA
BRANCH  55  58
ATOM     58  O   UNL     1      27.799  40.892  11.320  1.00  0.00    -0.443 OA
BRANCH  58  59
ATOM     59  C   UNL     1      29.012  41.573  10.985  1.00  0.00     0.294 C 
BRANCH  59  60
ATOM     60  C   UNL     1      29.695  40.921   9.868  1.00  0.00     0.120 A 
ATOM     61  C   UNL     1      30.655  41.477   9.062  1.00  0.00     0.139 A 
ATOM     62  N   UNL     1      29.498  39.672   9.439  1.00  0.00    -0.132 NA
ATOM     63  N   UNL     1      31.027  40.554   8.154  1.00  0.00    -0.235 N 
ATOM     64  N   UNL     1      30.295  39.469   8.423  1.00  0.00    -0.066 NA
BRANCH  63  65
ATOM     65  C   UNL     1      32.004  40.651   7.089  1.00  0.00     0.155 C 
ATOM     66  C   UNL     1      33.185  39.774   7.382  1.00  0.00     0.049 C 
ATOM     67  C   UNL     1      32.506  42.084   6.946  1.00  0.00     0.049 C 
BRANCH  65  68
ATOM     68  C   UNL     1      31.334  40.281   5.822  1.00  0.00     0.331 C 
ATOM     69  O   UNL     1      31.280  41.108   4.899  1.00  0.00    -0.250 OA
BRANCH  68  70
ATOM     70  O   UNL     1      30.783  39.018   5.699  1.00  0.00    -0.479 OA
ATOM     71  H   UNL     1      30.578  38.429   6.498  1.00  0.00     0.296 HD
ENDBRANCH  68  70
ENDBRANCH  65  68
ENDBRANCH  63  65
ENDBRANCH  59  60
ENDBRANCH  58  59
ENDBRANCH  55  58
ENDBRANCH  53  54
ENDBRANCH  50  53
ENDBRANCH  47  50
ENDBRANCH   5  47
BRANCH   4  72
ATOM     72  N   UNL     1      26.053  34.236  11.900  1.00  0.00    -0.348 N 
ATOM     73  C   UNL     1      24.665  34.356  12.196  1.00  0.00     0.217 C 
ATOM     74  H   UNL     1      26.613  33.573  12.471  1.00  0.00     0.163 HD
ATOM     75  C   UNL     1      24.048  33.553  13.297  1.00  0.00     0.114 C 
ATOM     76  O   UNL     1      23.958  35.148  11.519  1.00  0.00    -0.275 OA
ENDBRANCH   4  72
TORSDOF 32
BEGIN_RES LYS A 131
REMARK  4 active torsions:
REMARK  status: ('A' for Active; 'I' for Inactive)
REMARK    1  A    between atoms: CA   and  CB  
REMARK    2  A    between atoms: CB   and  CG  
REMARK    3  A    between atoms: CG   and  CD  
REMARK    4  A    between atoms: CD   and  CE  
ROOT
ATOM      1  CA  LYS A 131      29.867  25.555  16.977  1.00 20.52     0.186 C 
ENDROOT
BRANCH   1   2
ATOM      2  CB  LYS A 131      28.345  25.722  17.026  1.00 20.94     0.034 C 
BRANCH   2   3
ATOM      3  CG  LYS A 131      27.601  24.401  16.903  1.00 22.96     0.005 C 
BRANCH   3   4
ATOM      4  CD  LYS A 131      26.422  24.326  17.832  1.00 24.33     0.041 C 
BRANCH   4   5
ATOM      5  CE  LYS A 131      26.436  25.529  18.770  1.00 26.91     0.338 C 
ATOM      6  NZ  LYS A 131      25.530  25.300  19.920  1.00 27.40     0.618 N 
ENDBRANCH   4   5
ENDBRANCH   3   4
ENDBRANCH   2   3
ENDBRANCH   1   2
END_RES LYS A 131
BEGIN_RES LYS A 135
REMARK  4 active torsions:
REMARK  status: ('A' for Active; 'I' for Inactive)
REMARK    5  A    between atoms: CA   and  CB  
REMARK    6  A    between atoms: CB   and  CG  
REMARK    7  A    between atoms: CG   and  CD  
REMARK    8  A    between atoms: CD   and  CE  
ROOT
ATOM      7  CA  LYS A 135      33.193  34.663   9.290  1.00 25.02     0.186 C 
ENDROOT
BRANCH   7   8
ATOM      8  CB  LYS A 135      32.060  35.360  10.034  1.00 26.63     0.034 C 
BRANCH   8   9
ATOM      9  CG  LYS A 135      32.204  35.311  11.533  1.00 29.45     0.005 C 
BRANCH   9  10
ATOM     10  CD  LYS A 135      32.555  36.685  12.084  1.00 32.00     0.041 C 
BRANCH  10  11
ATOM     11  CE  LYS A 135      31.883  37.773  11.267  1.00 34.25     0.338 C 
ATOM     12  NZ  LYS A 135      31.478  38.918  12.130  1.00 35.99     0.618 N 
ENDBRANCH  10  11
ENDBRANCH   9  10
ENDBRANCH   8   9
ENDBRANCH   7   8
END_RES LYS A 135
