REMARK VINA RESULT:    -2.944      2.891      6.371
REMARK INTER + INTRA:         -22.009
REMARK INTER:                 -10.189
REMARK INTRA:                 -11.820
REMARK UNBOUND:               -13.729
REMARK SMILES CCOC(CCn1cc(COC(=O)NC[C@@H](O)C(O)[C@@H]2O[C@@](OC[C@H]3O[C@@H](O[C@H]4[C@H](O)[C@@H](O)[C@H](OCCN=[N+]=[N-])O[C@@H]4CO)[C@H](O)[C@@H](O)[C@H]3O)(C(=O)O)C[C@H](O)[C@H]2NC(C)=O)nn1)OCC
REMARK SMILES IDX 18 1 20 2 22 3 54 4 21 5 55 6 57 7 23 8 24 9 25 10 27 11
REMARK SMILES IDX 26 12 45 13 47 14 49 15 28 16 29 17 42 18 41 19 34 20 30 21
REMARK SMILES IDX 32 22 43 23 44 24 35 26 36 27 37 28 38 29 39 30 40 31 31 32
REMARK SMILES IDX 33 34 46 36 48 38 50 40 51 42 52 43 53 44 56 46 58 48 59 49
REMARK SMILES IDX 60 51 61 52 19 53 16 55 17 56 15 58 14 59 12 60 13 62 11 63
REMARK SMILES IDX 10 64 9 65 8 66 62 67 7 68 63 69 6 70 5 71 4 72 3 73 2 74
REMARK SMILES IDX 1 75 64 76 65 77 66 78
REMARK H PARENT 44 25 31 33 33 35 46 37 48 39 50 41 53 45 56 47 58 50 19 54
REMARK H PARENT 17 57 14 61
REMARK Flexibility Score: inf
ROOT
ATOM      1  C   UNL     1      30.738  36.764  13.089  1.00  0.00     0.176 C 
ENDROOT
BRANCH   1   2
ATOM      2  C   UNL     1      29.534  37.653  13.179  1.00  0.00     0.178 C 
ATOM      3  C   UNL     1      27.330  37.763  13.875  1.00  0.00     0.272 C 
ATOM      4  C   UNL     1      27.551  39.174  13.456  1.00  0.00     0.113 C 
ATOM      5  O   UNL     1      28.463  36.938  13.692  1.00  0.00    -0.332 OA
ATOM      6  C   UNL     1      28.232  39.371  12.146  1.00  0.00     0.145 C 
ATOM      7  C   UNL     1      29.063  38.128  11.801  1.00  0.00     0.142 C 
BRANCH   3   8
ATOM      8  O   UNL     1      26.266  37.111  13.398  1.00  0.00    -0.338 OA
BRANCH   8   9
ATOM      9  C   UNL     1      25.008  37.517  13.645  1.00  0.00     0.199 C 
BRANCH   9  10
ATOM     10  C   UNL     1      24.008  36.733  12.826  1.00  0.00     0.179 C 
ATOM     11  C   UNL     1      23.407  36.000  10.790  1.00  0.00     0.282 C 
ATOM     12  O   UNL     1      24.520  36.244  11.639  1.00  0.00    -0.341 OA
ATOM     13  C   UNL     1      22.681  34.818  11.314  1.00  0.00     0.202 C 
ATOM     14  C   UNL     1      22.269  35.066  12.746  1.00  0.00     0.179 C 
ATOM     15  C   UNL     1      23.375  35.595  13.620  1.00  0.00     0.177 C 
BRANCH  11  16
ATOM     16  O   UNL     1      23.864  35.884   9.473  1.00  0.00    -0.341 OA
BRANCH  16  17
ATOM     17  C   UNL     1      23.921  37.121   8.913  1.00  0.00     0.184 C 
ATOM     18  C   UNL     1      23.236  37.353   7.622  1.00  0.00     0.178 C 
ATOM     19  O   UNL     1      23.095  38.738   7.451  1.00  0.00    -0.341 OA
ATOM     20  C   UNL     1      24.350  39.335   7.259  1.00  0.00     0.281 C 
ATOM     21  C   UNL     1      25.404  37.528   8.637  1.00  0.00     0.180 C 
ATOM     22  C   UNL     1      25.308  39.040   8.393  1.00  0.00     0.202 C 
BRANCH  18  23
ATOM     23  C   UNL     1      21.869  36.739   7.605  1.00  0.00     0.191 C 
BRANCH  23  24
ATOM     24  O   UNL     1      21.119  37.083   8.730  1.00  0.00    -0.394 OA
ATOM     25  H   UNL     1      20.633  37.919   8.623  1.00  0.00     0.210 HD
ENDBRANCH  23  24
ENDBRANCH  18  23
BRANCH  20  26
ATOM     26  O   UNL     1      24.135  40.702   7.227  1.00  0.00    -0.350 OA
BRANCH  26  27
ATOM     27  C   UNL     1      23.366  41.223   8.224  1.00  0.00     0.169 C 
BRANCH  27  28
ATOM     28  C   UNL     1      23.738  42.660   8.478  1.00  0.00     0.119 C 
BRANCH  28  29
ATOM     29  N   UNL     1      25.100  42.716   9.005  1.00  0.00    -0.092 NA
ATOM     30  N   UNL     1      25.246  42.182  10.124  1.00  0.00     0.001 N 
ATOM     31  N   UNL     1      25.524  42.075  11.321  1.00  0.00    -0.003 NA
ENDBRANCH  28  29
ENDBRANCH  27  28
ENDBRANCH  26  27
ENDBRANCH  20  26
BRANCH  21  32
ATOM     32  O   UNL     1      26.201  37.260   9.717  1.00  0.00    -0.387 OA
ATOM     33  H   UNL     1      26.631  36.371   9.672  1.00  0.00     0.211 HD
ENDBRANCH  21  32
BRANCH  22  34
ATOM     34  O   UNL     1      26.533  39.574   8.099  1.00  0.00    -0.385 OA
ATOM     35  H   UNL     1      26.633  40.404   8.660  1.00  0.00     0.211 HD
ENDBRANCH  22  34
ENDBRANCH  16  17
ENDBRANCH  11  16
BRANCH  13  36
ATOM     36  O   UNL     1      21.488  34.595  10.609  1.00  0.00    -0.385 OA
ATOM     37  H   UNL     1      21.647  34.507   9.642  1.00  0.00     0.211 HD
ENDBRANCH  13  36
BRANCH  14  38
ATOM     38  O   UNL     1      21.635  33.961  13.303  1.00  0.00    -0.387 OA
ATOM     39  H   UNL     1      21.490  33.248  12.625  1.00  0.00     0.211 HD
ENDBRANCH  14  38
BRANCH  15  40
ATOM     40  O   UNL     1      24.339  34.638  13.899  1.00  0.00    -0.387 OA
ATOM     41  H   UNL     1      24.099  33.769  13.506  1.00  0.00     0.211 HD
ENDBRANCH  15  40
ENDBRANCH   9  10
ENDBRANCH   8   9
ENDBRANCH   3   8
BRANCH   3  42
ATOM     42  C   UNL     1      27.175  37.789  15.365  1.00  0.00     0.364 C 
ATOM     43  O   UNL     1      27.291  36.758  16.054  1.00  0.00    -0.246 OA
BRANCH  42  44
ATOM     44  O   UNL     1      26.893  38.971  16.042  1.00  0.00    -0.477 OA
ATOM     45  H   UNL     1      26.269  39.639  15.603  1.00  0.00     0.296 HD
ENDBRANCH  42  44
ENDBRANCH   3  42
BRANCH   6  46
ATOM     46  O   UNL     1      27.403  39.712  11.107  1.00  0.00    -0.391 OA
ATOM     47  H   UNL     1      27.531  39.170  10.289  1.00  0.00     0.211 HD
ENDBRANCH   6  46
BRANCH   7  48
ATOM     48  N   UNL     1      30.133  38.421  10.904  1.00  0.00    -0.348 N 
ATOM     49  C   UNL     1      29.906  38.256   9.509  1.00  0.00     0.217 C 
ATOM     50  H   UNL     1      31.067  38.749  11.216  1.00  0.00     0.163 HD
ATOM     51  C   UNL     1      31.001  38.552   8.549  1.00  0.00     0.114 C 
ATOM     52  O   UNL     1      28.777  37.859   9.063  1.00  0.00    -0.275 OA
ENDBRANCH   7  48
ENDBRANCH   1   2
BRANCH   1  53
ATOM     53  O   UNL     1      31.842  37.546  13.476  1.00  0.00    -0.388 OA
ATOM     54  H   UNL     1      32.478  37.003  14.026  1.00  0.00     0.211 HD
ENDBRANCH   1  53
BRANCH   1  55
ATOM     55  C   UNL     1      30.590  35.673  14.132  1.00  0.00     0.165 C 
BRANCH  55  56
ATOM     56  O   UNL     1      30.833  36.152  15.387  1.00  0.00    -0.388 OA
ATOM     57  H   UNL     1      31.572  36.809  15.443  1.00  0.00     0.211 HD
ENDBRANCH  55  56
BRANCH  55  58
ATOM     58  C   UNL     1      31.501  34.520  13.816  1.00  0.00     0.154 C 
BRANCH  58  59
ATOM     59  N   UNL     1      31.081  33.242  14.310  1.00  0.00    -0.319 N 
ATOM     60  C   UNL     1      31.296  32.766  15.613  1.00  0.00     0.407 C 
ATOM     61  H   UNL     1      30.567  32.626  13.608  1.00  0.00     0.167 HD
ATOM     62  O   UNL     1      31.879  33.425  16.490  1.00  0.00    -0.225 OA
BRANCH  60  63
ATOM     63  O   UNL     1      30.845  31.481  15.989  1.00  0.00    -0.443 OA
BRANCH  63  64
ATOM     64  C   UNL     1      29.890  31.365  17.054  1.00  0.00     0.294 C 
BRANCH  64  65
ATOM     65  C   UNL     1      28.526  31.466  16.476  1.00  0.00     0.120 A 
ATOM     66  C   UNL     1      27.701  30.435  16.094  1.00  0.00     0.138 A 
ATOM     67  N   UNL     1      27.864  32.597  16.219  1.00  0.00    -0.132 NA
ATOM     68  N   UNL     1      26.569  30.994  15.618  1.00  0.00    -0.252 N 
ATOM     69  N   UNL     1      26.701  32.305  15.709  1.00  0.00    -0.067 NA
BRANCH  68  70
ATOM     70  C   UNL     1      25.452  30.248  15.117  1.00  0.00     0.151 C 
BRANCH  70  71
ATOM     71  C   UNL     1      24.715  30.902  13.984  1.00  0.00     0.086 C 
BRANCH  71  72
ATOM     72  C   UNL     1      23.237  31.023  14.353  1.00  0.00     0.251 C 
BRANCH  72  73
ATOM     73  O   UNL     1      23.075  32.273  14.920  1.00  0.00    -0.353 OA
BRANCH  73  74
ATOM     74  C   UNL     1      22.646  32.205  16.238  1.00  0.00     0.160 C 
ATOM     75  C   UNL     1      23.423  33.156  17.126  1.00  0.00     0.035 C 
ENDBRANCH  73  74
ENDBRANCH  72  73
BRANCH  72  76
ATOM     76  O   UNL     1      22.802  29.967  15.096  1.00  0.00    -0.353 OA
BRANCH  76  77
ATOM     77  C   UNL     1      21.940  29.089  14.497  1.00  0.00     0.160 C 
ATOM     78  C   UNL     1      20.758  28.853  15.408  1.00  0.00     0.035 C 
ENDBRANCH  76  77
ENDBRANCH  72  76
ENDBRANCH  71  72
ENDBRANCH  70  71
ENDBRANCH  68  70
ENDBRANCH  64  65
ENDBRANCH  63  64
ENDBRANCH  60  63
ENDBRANCH  58  59
ENDBRANCH  55  58
ENDBRANCH   1  55
TORSDOF 36
BEGIN_RES LYS A 131
REMARK  4 active torsions:
REMARK  status: ('A' for Active; 'I' for Inactive)
REMARK    1  A    between atoms: CA   and  CB  
REMARK    2  A    between atoms: CB   and  CG  
REMARK    3  A    between atoms: CG   and  CD  
REMARK    4  A    between atoms: CD   and  CE  
ROOT
ATOM      1  CA  LYS A 131      29.867  25.555  16.977  1.00 20.52     0.186 C 
ENDROOT
BRANCH   1   2
ATOM      2  CB  LYS A 131      28.345  25.722  17.026  1.00 20.94     0.034 C 
BRANCH   2   3
ATOM      3  CG  LYS A 131      27.599  24.426  16.749  1.00 22.96     0.005 C 
BRANCH   3   4
ATOM      4  CD  LYS A 131      27.024  23.824  18.001  1.00 24.33     0.041 C 
BRANCH   4   5
ATOM      5  CE  LYS A 131      25.594  24.319  18.193  1.00 26.91     0.338 C 
ATOM      6  NZ  LYS A 131      24.896  24.407  16.888  1.00 27.40     0.618 N 
ENDBRANCH   4   5
ENDBRANCH   3   4
ENDBRANCH   2   3
ENDBRANCH   1   2
END_RES LYS A 131
BEGIN_RES LYS A 135
REMARK  4 active torsions:
REMARK  status: ('A' for Active; 'I' for Inactive)
REMARK    5  A    between atoms: CA   and  CB  
REMARK    6  A    between atoms: CB   and  CG  
REMARK    7  A    between atoms: CG   and  CD  
REMARK    8  A    between atoms: CD   and  CE  
ROOT
ATOM      7  CA  LYS A 135      33.193  34.663   9.290  1.00 25.02     0.186 C 
ENDROOT
BRANCH   7   8
ATOM      8  CB  LYS A 135      32.060  35.360  10.034  1.00 26.63     0.034 C 
BRANCH   8   9
ATOM      9  CG  LYS A 135      30.737  34.648   9.920  1.00 29.45     0.005 C 
BRANCH   9  10
ATOM     10  CD  LYS A 135      30.331  34.501   8.462  1.00 32.00     0.041 C 
BRANCH  10  11
ATOM     11  CE  LYS A 135      28.820  34.514   8.325  1.00 34.25     0.338 C 
ATOM     12  NZ  LYS A 135      28.172  33.804   9.463  1.00 35.99     0.618 N 
ENDBRANCH  10  11
ENDBRANCH   9  10
ENDBRANCH   8   9
ENDBRANCH   7   8
END_RES LYS A 135
