REMARK VINA RESULT:    -5.378      4.666     11.834
REMARK INTER + INTRA:         -21.922
REMARK INTER:                 -13.065
REMARK INTRA:                  -8.857
REMARK UNBOUND:                -8.212
REMARK SMILES CC(=O)N[C@@H]1[C@@H](O)C[C@](OC[C@H]2O[C@@H](O[C@H]3[C@H](O)[C@@H](O)[C@H](OCCN=[N+]=[N-])O[C@@H]3CO)[C@H](O)[C@@H](O)[C@H]2O)(C(=O)O)O[C@H]1C(O)[C@H](O)CNC(=O)OCc1cn(-c2ccc(CO)cn2)nn1
REMARK SMILES IDX 9 1 8 2 6 3 5 4 42 5 41 6 10 7 11 8 12 9 14 10 13 11 32 12
REMARK SMILES IDX 34 13 36 14 15 15 16 16 29 17 28 18 21 19 17 20 19 21 30 22
REMARK SMILES IDX 31 23 22 25 23 26 24 27 25 28 26 29 27 30 18 31 20 33 33 35
REMARK SMILES IDX 35 37 37 39 38 41 39 42 40 43 7 45 43 47 44 48 45 50 46 51
REMARK SMILES IDX 47 53 48 54 49 55 50 57 51 58 52 59 53 60 54 61 65 62 55 63
REMARK SMILES IDX 64 64 56 65 57 66 63 67 58 68 62 69 59 70 60 71 61 72 4 74
REMARK SMILES IDX 2 75 1 77 3 78
REMARK H PARENT 31 24 18 32 20 34 33 36 35 38 37 40 40 44 7 46 44 49 46 52
REMARK H PARENT 48 56 61 73 4 76
REMARK Flexibility Score: inf
ROOT
ATOM      1  C   UNL     1      29.864  31.961  18.034  1.00  0.00     0.272 C 
ATOM      2  C   UNL     1      29.921  33.231  18.798  1.00  0.00     0.113 C 
ATOM      3  C   UNL     1      29.154  34.338  18.131  1.00  0.00     0.145 C 
ATOM      4  C   UNL     1      27.778  33.847  17.726  1.00  0.00     0.142 C 
ATOM      5  C   UNL     1      27.880  32.587  16.969  1.00  0.00     0.178 C 
ATOM      6  O   UNL     1      28.610  31.631  17.586  1.00  0.00    -0.332 OA
ENDROOT
BRANCH   1   7
ATOM      7  O   UNL     1      30.346  30.866  18.730  1.00  0.00    -0.338 OA
BRANCH   7   8
ATOM      8  C   UNL     1      30.802  31.182  19.993  1.00  0.00     0.199 C 
BRANCH   8   9
ATOM      9  C   UNL     1      30.577  30.023  20.916  1.00  0.00     0.179 C 
ATOM     10  C   UNL     1      28.953  28.711  21.782  1.00  0.00     0.282 C 
ATOM     11  O   UNL     1      29.414  29.305  20.579  1.00  0.00    -0.341 OA
ATOM     12  C   UNL     1      30.053  27.984  22.441  1.00  0.00     0.202 C 
ATOM     13  C   UNL     1      31.295  27.754  21.597  1.00  0.00     0.179 C 
ATOM     14  C   UNL     1      31.702  29.041  20.887  1.00  0.00     0.177 C 
BRANCH  10  15
ATOM     15  O   UNL     1      27.814  27.945  21.511  1.00  0.00    -0.341 OA
BRANCH  15  16
ATOM     16  C   UNL     1      26.991  28.530  20.573  1.00  0.00     0.184 C 
ATOM     17  C   UNL     1      25.765  29.199  21.112  1.00  0.00     0.178 C 
ATOM     18  O   UNL     1      24.581  28.553  20.769  1.00  0.00    -0.341 OA
ATOM     19  C   UNL     1      24.543  27.239  21.163  1.00  0.00     0.281 C 
ATOM     20  C   UNL     1      26.509  27.388  19.660  1.00  0.00     0.180 C 
ATOM     21  C   UNL     1      25.740  26.454  20.605  1.00  0.00     0.202 C 
BRANCH  17  22
ATOM     22  C   UNL     1      25.671  30.576  20.428  1.00  0.00     0.191 C 
BRANCH  22  23
ATOM     23  O   UNL     1      26.925  30.929  19.907  1.00  0.00    -0.394 OA
ATOM     24  H   UNL     1      26.990  30.664  18.940  1.00  0.00     0.210 HD
ENDBRANCH  22  23
ENDBRANCH  17  22
BRANCH  19  25
ATOM     25  O   UNL     1      23.369  26.669  20.679  1.00  0.00    -0.350 OA
BRANCH  25  26
ATOM     26  C   UNL     1      22.605  27.538  19.944  1.00  0.00     0.169 C 
BRANCH  26  27
ATOM     27  C   UNL     1      22.055  26.781  18.742  1.00  0.00     0.119 C 
BRANCH  27  28
ATOM     28  N   UNL     1      22.984  26.865  17.623  1.00  0.00    -0.092 NA
ATOM     29  N   UNL     1      23.017  26.060  16.708  1.00  0.00     0.001 N 
ATOM     30  N   UNL     1      22.868  25.557  15.594  1.00  0.00    -0.003 NA
ENDBRANCH  27  28
ENDBRANCH  26  27
ENDBRANCH  25  26
ENDBRANCH  19  25
BRANCH  20  31
ATOM     31  O   UNL     1      25.757  27.829  18.605  1.00  0.00    -0.387 OA
ATOM     32  H   UNL     1      25.153  28.524  18.903  1.00  0.00     0.211 HD
ENDBRANCH  20  31
BRANCH  21  33
ATOM     33  O   UNL     1      26.622  26.136  21.635  1.00  0.00    -0.385 OA
ATOM     34  H   UNL     1      27.391  25.662  21.231  1.00  0.00     0.211 HD
ENDBRANCH  21  33
ENDBRANCH  15  16
ENDBRANCH  10  15
BRANCH  12  35
ATOM     35  O   UNL     1      30.446  28.700  23.597  1.00  0.00    -0.385 OA
ATOM     36  H   UNL     1      29.972  29.568  23.665  1.00  0.00     0.211 HD
ENDBRANCH  12  35
BRANCH  13  37
ATOM     37  O   UNL     1      31.146  26.685  20.730  1.00  0.00    -0.387 OA
ATOM     38  H   UNL     1      31.641  25.892  20.986  1.00  0.00     0.211 HD
ENDBRANCH  13  37
BRANCH  14  39
ATOM     39  O   UNL     1      32.061  28.706  19.599  1.00  0.00    -0.387 OA
ATOM     40  H   UNL     1      32.950  29.061  19.404  1.00  0.00     0.211 HD
ENDBRANCH  14  39
ENDBRANCH   8   9
ENDBRANCH   7   8
ENDBRANCH   1   7
BRANCH   1  41
ATOM     41  C   UNL     1      30.716  32.030  16.783  1.00  0.00     0.364 C 
ATOM     42  O   UNL     1      31.576  32.922  16.591  1.00  0.00    -0.246 OA
BRANCH  41  43
ATOM     43  O   UNL     1      30.568  31.088  15.785  1.00  0.00    -0.477 OA
ATOM     44  H   UNL     1      29.725  31.098  15.198  1.00  0.00     0.296 HD
ENDBRANCH  41  43
ENDBRANCH   1  41
BRANCH   3  45
ATOM     45  O   UNL     1      28.936  35.318  19.120  1.00  0.00    -0.391 OA
ATOM     46  H   UNL     1      28.554  36.143  18.770  1.00  0.00     0.211 HD
ENDBRANCH   3  45
BRANCH   5  47
ATOM     47  C   UNL     1      26.537  32.030  16.534  1.00  0.00     0.176 C 
BRANCH  47  48
ATOM     48  O   UNL     1      25.595  32.248  17.537  1.00  0.00    -0.388 OA
ATOM     49  H   UNL     1      25.868  31.804  18.374  1.00  0.00     0.211 HD
ENDBRANCH  47  48
BRANCH  47  50
ATOM     50  C   UNL     1      26.525  30.590  16.186  1.00  0.00     0.165 C 
BRANCH  50  51
ATOM     51  O   UNL     1      27.679  30.180  15.504  1.00  0.00    -0.388 OA
ATOM     52  H   UNL     1      28.253  30.913  15.236  1.00  0.00     0.211 HD
ENDBRANCH  50  51
BRANCH  50  53
ATOM     53  C   UNL     1      25.289  30.085  15.498  1.00  0.00     0.154 C 
BRANCH  53  54
ATOM     54  N   UNL     1      24.466  31.177  15.050  1.00  0.00    -0.319 N 
ATOM     55  C   UNL     1      24.078  31.262  13.692  1.00  0.00     0.407 C 
ATOM     56  H   UNL     1      24.148  31.926  15.748  1.00  0.00     0.167 HD
ATOM     57  O   UNL     1      24.416  30.418  12.834  1.00  0.00    -0.225 OA
BRANCH  55  58
ATOM     58  O   UNL     1      23.279  32.317  13.236  1.00  0.00    -0.443 OA
BRANCH  58  59
ATOM     59  C   UNL     1      23.760  33.628  13.324  1.00  0.00     0.294 C 
BRANCH  59  60
ATOM     60  C   UNL     1      23.834  34.366  12.070  1.00  0.00     0.121 A 
ATOM     61  C   UNL     1      24.932  34.505  11.257  1.00  0.00     0.146 A 
ATOM     62  N   UNL     1      22.845  35.054  11.476  1.00  0.00    -0.131 NA
ATOM     63  N   UNL     1      24.587  35.267  10.200  1.00  0.00    -0.202 N 
ATOM     64  N   UNL     1      23.315  35.578  10.371  1.00  0.00    -0.061 NA
BRANCH  63  65
ATOM     65  C   UNL     1      25.463  35.632   9.145  1.00  0.00     0.155 A 
ATOM     66  C   UNL     1      26.461  34.775   8.694  1.00  0.00     0.049 A 
ATOM     67  N   UNL     1      25.366  36.830   8.545  1.00  0.00    -0.237 NA
ATOM     68  C   UNL     1      27.315  35.153   7.666  1.00  0.00     0.011 A 
ATOM     69  C   UNL     1      26.188  37.220   7.541  1.00  0.00     0.119 A 
ATOM     70  C   UNL     1      27.192  36.389   7.070  1.00  0.00    -0.004 A 
BRANCH  70  71
ATOM     71  C   UNL     1      28.111  36.789   5.971  1.00  0.00     0.193 C 
BRANCH  71  72
ATOM     72  O   UNL     1      27.400  37.324   4.898  1.00  0.00    -0.392 OA
ATOM     73  H   UNL     1      27.596  38.272   4.753  1.00  0.00     0.211 HD
ENDBRANCH  71  72
ENDBRANCH  70  71
ENDBRANCH  63  65
ENDBRANCH  59  60
ENDBRANCH  58  59
ENDBRANCH  55  58
ENDBRANCH  53  54
ENDBRANCH  50  53
ENDBRANCH  47  50
ENDBRANCH   5  47
BRANCH   4  74
ATOM     74  N   UNL     1      27.094  34.898  16.971  1.00  0.00    -0.348 N 
ATOM     75  C   UNL     1      25.920  35.499  17.418  1.00  0.00     0.217 C 
ATOM     76  H   UNL     1      27.518  35.202  16.072  1.00  0.00     0.163 HD
ATOM     77  C   UNL     1      25.313  36.566  16.536  1.00  0.00     0.114 C 
ATOM     78  O   UNL     1      25.351  35.212  18.481  1.00  0.00    -0.275 OA
ENDBRANCH   4  74
TORSDOF 32
BEGIN_RES LYS A 131
REMARK  4 active torsions:
REMARK  status: ('A' for Active; 'I' for Inactive)
REMARK    1  A    between atoms: CA   and  CB  
REMARK    2  A    between atoms: CB   and  CG  
REMARK    3  A    between atoms: CG   and  CD  
REMARK    4  A    between atoms: CD   and  CE  
ROOT
ATOM      1  CA  LYS A 131      29.867  25.555  16.977  1.00 20.52     0.186 C 
ENDROOT
BRANCH   1   2
ATOM      2  CB  LYS A 131      28.345  25.722  17.026  1.00 20.94     0.034 C 
BRANCH   2   3
ATOM      3  CG  LYS A 131      27.602  24.398  16.933  1.00 22.96     0.005 C 
BRANCH   3   4
ATOM      4  CD  LYS A 131      26.151  24.535  17.303  1.00 24.33     0.041 C 
BRANCH   4   5
ATOM      5  CE  LYS A 131      25.794  23.490  18.355  1.00 26.91     0.338 C 
ATOM      6  NZ  LYS A 131      24.339  23.207  18.331  1.00 27.40     0.618 N 
ENDBRANCH   4   5
ENDBRANCH   3   4
ENDBRANCH   2   3
ENDBRANCH   1   2
END_RES LYS A 131
BEGIN_RES LYS A 135
REMARK  4 active torsions:
REMARK  status: ('A' for Active; 'I' for Inactive)
REMARK    5  A    between atoms: CA   and  CB  
REMARK    6  A    between atoms: CB   and  CG  
REMARK    7  A    between atoms: CG   and  CD  
REMARK    8  A    between atoms: CD   and  CE  
ROOT
ATOM      7  CA  LYS A 135      33.193  34.663   9.290  1.00 25.02     0.186 C 
ENDROOT
BRANCH   7   8
ATOM      8  CB  LYS A 135      32.060  35.360  10.034  1.00 26.63     0.034 C 
BRANCH   8   9
ATOM      9  CG  LYS A 135      30.692  35.024   9.500  1.00 29.45     0.005 C 
BRANCH   9  10
ATOM     10  CD  LYS A 135      29.697  34.859  10.638  1.00 32.00     0.041 C 
BRANCH  10  11
ATOM     11  CE  LYS A 135      30.280  35.383  11.936  1.00 34.25     0.338 C 
ATOM     12  NZ  LYS A 135      30.056  34.423  13.052  1.00 35.99     0.618 N 
ENDBRANCH  10  11
ENDBRANCH   9  10
ENDBRANCH   8   9
ENDBRANCH   7   8
END_RES LYS A 135
