REMARK VINA RESULT:    -4.494      5.389     12.456
REMARK INTER + INTRA:         -23.471
REMARK INTER:                 -11.386
REMARK INTRA:                 -12.085
REMARK UNBOUND:               -12.409
REMARK SMILES CC(=O)N[C@@H]1[C@@H](O)C[C@](OC[C@H]2O[C@@H](O[C@H]3[C@H](O)[C@@H](O)[C@H](OCCN=[N+]=[N-])O[C@@H]3CO)[C@H](O)[C@@H](O)[C@H]2O)(C(=O)O)O[C@H]1C(O)[C@H](O)CNC(=O)OCc1cn(C2c3ccccc3-c3ccccc32)nn1
REMARK SMILES IDX 9 1 8 2 6 3 5 4 42 5 41 6 10 7 11 8 12 9 14 10 13 11 32 12
REMARK SMILES IDX 34 13 36 14 15 15 16 16 29 17 28 18 21 19 17 20 19 21 30 22
REMARK SMILES IDX 31 23 22 25 23 26 24 27 25 28 26 29 27 30 18 31 20 33 33 35
REMARK SMILES IDX 35 37 37 39 38 41 39 42 40 43 7 45 43 47 44 48 45 50 46 51
REMARK SMILES IDX 47 53 48 54 49 55 50 57 51 58 52 59 53 60 54 61 70 62 55 63
REMARK SMILES IDX 69 64 56 65 57 66 68 67 58 68 62 69 63 70 67 71 59 72 61 73
REMARK SMILES IDX 64 74 66 75 60 76 65 77 4 78 2 79 1 81 3 82
REMARK H PARENT 31 24 18 32 20 34 33 36 35 38 37 40 40 44 7 46 44 49 46 52
REMARK H PARENT 48 56 4 80
REMARK Flexibility Score: inf
ROOT
ATOM      1  C   UNL     1      31.329  34.999  15.644  1.00  0.00     0.272 C 
ATOM      2  C   UNL     1      32.468  35.929  15.533  1.00  0.00     0.113 C 
ATOM      3  C   UNL     1      33.072  36.269  16.843  1.00  0.00     0.145 C 
ATOM      4  C   UNL     1      32.161  36.038  18.017  1.00  0.00     0.142 C 
ATOM      5  C   UNL     1      30.749  36.198  17.570  1.00  0.00     0.178 C 
ATOM      6  O   UNL     1      30.332  35.426  16.534  1.00  0.00    -0.332 OA
ENDROOT
BRANCH   1   7
ATOM      7  O   UNL     1      31.696  33.726  15.994  1.00  0.00    -0.338 OA
BRANCH   7   8
ATOM      8  C   UNL     1      30.823  33.024  16.780  1.00  0.00     0.199 C 
BRANCH   8   9
ATOM      9  C   UNL     1      30.533  31.677  16.156  1.00  0.00     0.179 C 
ATOM     10  C   UNL     1      29.540  30.833  18.105  1.00  0.00     0.282 C 
ATOM     11  O   UNL     1      30.520  30.735  17.158  1.00  0.00    -0.341 OA
ATOM     12  C   UNL     1      28.218  31.088  17.489  1.00  0.00     0.202 C 
ATOM     13  C   UNL     1      28.336  30.595  16.035  1.00  0.00     0.179 C 
ATOM     14  C   UNL     1      29.242  31.662  15.383  1.00  0.00     0.177 C 
BRANCH  10  15
ATOM     15  O   UNL     1      29.919  31.620  19.159  1.00  0.00    -0.341 OA
BRANCH  15  16
ATOM     16  C   UNL     1      29.885  31.048  20.402  1.00  0.00     0.184 C 
ATOM     17  C   UNL     1      29.417  32.016  21.423  1.00  0.00     0.178 C 
ATOM     18  O   UNL     1      30.097  31.918  22.633  1.00  0.00    -0.341 OA
ATOM     19  C   UNL     1      30.487  30.657  22.947  1.00  0.00     0.281 C 
ATOM     20  C   UNL     1      31.317  30.579  20.648  1.00  0.00     0.180 C 
ATOM     21  C   UNL     1      31.665  30.295  22.049  1.00  0.00     0.202 C 
BRANCH  17  22
ATOM     22  C   UNL     1      27.944  31.854  21.728  1.00  0.00     0.191 C 
BRANCH  22  23
ATOM     23  O   UNL     1      27.395  30.795  20.965  1.00  0.00    -0.394 OA
ATOM     24  H   UNL     1      27.539  29.926  21.448  1.00  0.00     0.210 HD
ENDBRANCH  22  23
ENDBRANCH  17  22
BRANCH  19  25
ATOM     25  O   UNL     1      29.547  29.657  22.786  1.00  0.00    -0.350 OA
BRANCH  25  26
ATOM     26  C   UNL     1      29.979  28.411  23.142  1.00  0.00     0.169 C 
BRANCH  26  27
ATOM     27  C   UNL     1      29.414  27.262  22.381  1.00  0.00     0.119 C 
BRANCH  27  28
ATOM     28  N   UNL     1      29.636  27.356  20.952  1.00  0.00    -0.092 NA
ATOM     29  N   UNL     1      28.660  27.684  20.265  1.00  0.00     0.001 N 
ATOM     30  N   UNL     1      27.711  27.905  19.504  1.00  0.00    -0.003 NA
ENDBRANCH  27  28
ENDBRANCH  26  27
ENDBRANCH  25  26
ENDBRANCH  19  25
BRANCH  20  31
ATOM     31  O   UNL     1      31.549  29.399  19.893  1.00  0.00    -0.387 OA
ATOM     32  H   UNL     1      32.520  29.215  19.836  1.00  0.00     0.211 HD
ENDBRANCH  20  31
BRANCH  21  33
ATOM     33  O   UNL     1      32.741  31.094  22.459  1.00  0.00    -0.385 OA
ATOM     34  H   UNL     1      32.649  32.037  22.164  1.00  0.00     0.211 HD
ENDBRANCH  21  33
ENDBRANCH  15  16
ENDBRANCH  10  15
BRANCH  12  35
ATOM     35  O   UNL     1      27.189  30.328  18.042  1.00  0.00    -0.385 OA
ATOM     36  H   UNL     1      26.448  30.933  18.282  1.00  0.00     0.211 HD
ENDBRANCH  12  35
BRANCH  13  37
ATOM     37  O   UNL     1      27.127  30.645  15.382  1.00  0.00    -0.387 OA
ATOM     38  H   UNL     1      26.448  30.199  15.943  1.00  0.00     0.211 HD
ENDBRANCH  13  37
BRANCH  14  39
ATOM     39  O   UNL     1      28.586  32.865  15.562  1.00  0.00    -0.387 OA
ATOM     40  H   UNL     1      28.130  32.930  16.437  1.00  0.00     0.211 HD
ENDBRANCH  14  39
ENDBRANCH   8   9
ENDBRANCH   7   8
ENDBRANCH   1   7
BRANCH   1  41
ATOM     41  C   UNL     1      30.564  34.952  14.322  1.00  0.00     0.364 C 
ATOM     42  O   UNL     1      31.162  34.525  13.329  1.00  0.00    -0.246 OA
BRANCH  41  43
ATOM     43  O   UNL     1      29.258  35.367  14.230  1.00  0.00    -0.477 OA
ATOM     44  H   UNL     1      28.629  35.000  13.505  1.00  0.00     0.296 HD
ENDBRANCH  41  43
ENDBRANCH   1  41
BRANCH   3  45
ATOM     45  O   UNL     1      34.301  35.660  17.100  1.00  0.00    -0.391 OA
ATOM     46  H   UNL     1      35.047  36.100  16.669  1.00  0.00     0.211 HD
ENDBRANCH   3  45
BRANCH   5  47
ATOM     47  C   UNL     1      29.830  35.948  18.764  1.00  0.00     0.176 C 
BRANCH  47  48
ATOM     48  O   UNL     1      30.278  34.857  19.464  1.00  0.00    -0.388 OA
ATOM     49  H   UNL     1      30.653  35.124  20.357  1.00  0.00     0.211 HD
ENDBRANCH  47  48
BRANCH  47  50
ATOM     50  C   UNL     1      28.435  35.759  18.251  1.00  0.00     0.165 C 
BRANCH  50  51
ATOM     51  O   UNL     1      27.897  37.004  17.881  1.00  0.00    -0.388 OA
ATOM     52  H   UNL     1      28.592  37.580  17.494  1.00  0.00     0.211 HD
ENDBRANCH  50  51
BRANCH  50  53
ATOM     53  C   UNL     1      27.585  35.298  19.441  1.00  0.00     0.154 C 
BRANCH  53  54
ATOM     54  N   UNL     1      27.115  33.975  19.162  1.00  0.00    -0.319 N 
ATOM     55  C   UNL     1      25.773  33.619  19.409  1.00  0.00     0.407 C 
ATOM     56  H   UNL     1      27.774  33.262  18.767  1.00  0.00     0.167 HD
ATOM     57  O   UNL     1      24.956  34.446  19.891  1.00  0.00    -0.225 OA
BRANCH  55  58
ATOM     58  O   UNL     1      25.291  32.355  19.136  1.00  0.00    -0.443 OA
BRANCH  58  59
ATOM     59  C   UNL     1      24.145  32.123  18.330  1.00  0.00     0.294 C 
BRANCH  59  60
ATOM     60  C   UNL     1      24.524  32.419  16.925  1.00  0.00     0.120 A 
ATOM     61  C   UNL     1      23.797  32.166  15.770  1.00  0.00     0.139 A 
ATOM     62  N   UNL     1      25.660  32.998  16.509  1.00  0.00    -0.132 NA
ATOM     63  N   UNL     1      24.499  32.593  14.708  1.00  0.00    -0.240 N 
ATOM     64  N   UNL     1      25.626  33.093  15.191  1.00  0.00    -0.066 NA
BRANCH  63  65
ATOM     65  C   UNL     1      24.096  32.519  13.302  1.00  0.00     0.170 C 
ATOM     66  C   UNL     1      22.977  33.443  13.099  1.00  0.00    -0.011 A 
ATOM     67  C   UNL     1      23.526  31.195  12.999  1.00  0.00    -0.011 A 
ATOM     68  C   UNL     1      22.878  34.824  13.222  1.00  0.00     0.007 A 
ATOM     69  C   UNL     1      21.849  32.768  12.718  1.00  0.00    -0.012 A 
ATOM     70  C   UNL     1      22.203  31.351  12.658  1.00  0.00    -0.012 A 
ATOM     71  C   UNL     1      24.061  29.920  12.998  1.00  0.00     0.007 A 
ATOM     72  C   UNL     1      21.690  35.471  12.969  1.00  0.00     0.000 A 
ATOM     73  C   UNL     1      20.652  33.421  12.464  1.00  0.00     0.009 A 
ATOM     74  C   UNL     1      21.423  30.269  12.321  1.00  0.00     0.009 A 
ATOM     75  C   UNL     1      23.298  28.824  12.665  1.00  0.00     0.000 A 
ATOM     76  C   UNL     1      20.547  34.787  12.583  1.00  0.00     0.001 A 
ATOM     77  C   UNL     1      21.973  29.000  12.325  1.00  0.00     0.001 A 
ENDBRANCH  63  65
ENDBRANCH  59  60
ENDBRANCH  58  59
ENDBRANCH  55  58
ENDBRANCH  53  54
ENDBRANCH  50  53
ENDBRANCH  47  50
ENDBRANCH   5  47
BRANCH   4  78
ATOM     78  N   UNL     1      32.419  37.143  18.960  1.00  0.00    -0.348 N 
ATOM     79  C   UNL     1      33.290  36.986  20.069  1.00  0.00     0.217 C 
ATOM     80  H   UNL     1      31.941  38.038  18.789  1.00  0.00     0.163 HD
ATOM     81  C   UNL     1      33.541  38.117  21.017  1.00  0.00     0.114 C 
ATOM     82  O   UNL     1      33.847  35.865  20.230  1.00  0.00    -0.275 OA
ENDBRANCH   4  78
TORSDOF 30
BEGIN_RES LYS A 131
REMARK  4 active torsions:
REMARK  status: ('A' for Active; 'I' for Inactive)
REMARK    1  A    between atoms: CA   and  CB  
REMARK    2  A    between atoms: CB   and  CG  
REMARK    3  A    between atoms: CG   and  CD  
REMARK    4  A    between atoms: CD   and  CE  
ROOT
ATOM      1  CA  LYS A 131      29.867  25.555  16.977  1.00 20.52     0.186 C 
ENDROOT
BRANCH   1   2
ATOM      2  CB  LYS A 131      28.345  25.722  17.026  1.00 20.94     0.034 C 
BRANCH   2   3
ATOM      3  CG  LYS A 131      27.602  24.398  16.930  1.00 22.96     0.005 C 
BRANCH   3   4
ATOM      4  CD  LYS A 131      26.149  24.537  17.289  1.00 24.33     0.041 C 
BRANCH   4   5
ATOM      5  CE  LYS A 131      26.001  24.576  18.807  1.00 26.91     0.338 C 
ATOM      6  NZ  LYS A 131      25.506  23.275  19.313  1.00 27.40     0.618 N 
ENDBRANCH   4   5
ENDBRANCH   3   4
ENDBRANCH   2   3
ENDBRANCH   1   2
END_RES LYS A 131
BEGIN_RES LYS A 135
REMARK  4 active torsions:
REMARK  status: ('A' for Active; 'I' for Inactive)
REMARK    5  A    between atoms: CA   and  CB  
REMARK    6  A    between atoms: CB   and  CG  
REMARK    7  A    between atoms: CG   and  CD  
REMARK    8  A    between atoms: CD   and  CE  
ROOT
ATOM      7  CA  LYS A 135      33.193  34.663   9.290  1.00 25.02     0.186 C 
ENDROOT
BRANCH   7   8
ATOM      8  CB  LYS A 135      32.060  35.360  10.034  1.00 26.63     0.034 C 
BRANCH   8   9
ATOM      9  CG  LYS A 135      30.702  35.116   9.428  1.00 29.45     0.005 C 
BRANCH   9  10
ATOM     10  CD  LYS A 135      29.792  36.315   9.650  1.00 32.00     0.041 C 
BRANCH  10  11
ATOM     11  CE  LYS A 135      28.706  35.980  10.655  1.00 34.25     0.338 C 
ATOM     12  NZ  LYS A 135      28.634  34.513  10.898  1.00 35.99     0.618 N 
ENDBRANCH  10  11
ENDBRANCH   9  10
ENDBRANCH   8   9
ENDBRANCH   7   8
END_RES LYS A 135
