REMARK VINA RESULT:    -4.259      3.552      8.864
REMARK INTER + INTRA:         -22.490
REMARK INTER:                 -11.710
REMARK INTRA:                 -10.779
REMARK UNBOUND:               -11.507
REMARK SMILES COc1ccc(Cn2cc(COC(=O)NC[C@@H](O)C(O)[C@@H]3O[C@@](OC[C@H]4O[C@@H](O[C@H]5[C@H](O)[C@@H](O)[C@H](OCCN=[N+]=[N-])O[C@@H]5CO)[C@H](O)[C@@H](O)[C@H]4O)(C(=O)O)C[C@H](O)[C@H]3NC(C)=O)nn2)cc1
REMARK SMILES IDX 23 1 55 2 56 3 58 4 21 5 22 6 24 7 25 8 26 9 28 10 27 11
REMARK SMILES IDX 46 12 48 13 50 14 29 15 30 16 43 17 42 18 35 19 31 20 33 21
REMARK SMILES IDX 44 22 45 23 36 25 37 26 38 27 39 28 40 29 41 30 32 31 34 33
REMARK SMILES IDX 47 35 49 37 51 39 52 41 53 42 54 43 57 45 19 47 20 48 17 50
REMARK SMILES IDX 18 51 16 53 15 54 13 55 14 57 12 58 11 59 10 60 9 61 63 62
REMARK SMILES IDX 8 63 64 64 7 65 6 66 5 67 65 68 4 69 66 70 3 71 2 72 1 73
REMARK SMILES IDX 59 74 60 75 61 77 62 78
REMARK H PARENT 45 24 32 32 34 34 47 36 49 38 51 40 54 44 57 46 20 49 18 52
REMARK H PARENT 15 56 59 76
REMARK Flexibility Score: inf
ROOT
ATOM      1  C   UNL     1      20.778  36.254   8.938  1.00  0.00     0.272 C 
ATOM      2  C   UNL     1      19.685  36.872   9.784  1.00  0.00     0.113 C 
ATOM      3  C   UNL     1      18.943  35.787  10.538  1.00  0.00     0.145 C 
ATOM      4  C   UNL     1      19.845  34.786  11.197  1.00  0.00     0.142 C 
ATOM      5  C   UNL     1      21.317  35.009  10.893  1.00  0.00     0.178 C 
ATOM      6  O   UNL     1      21.526  35.346   9.570  1.00  0.00    -0.332 OA
ENDROOT
BRANCH   1   7
ATOM      7  O   UNL     1      21.398  37.169   8.157  1.00  0.00    -0.338 OA
BRANCH   7   8
ATOM      8  C   UNL     1      21.960  38.288   8.627  1.00  0.00     0.199 C 
BRANCH   8   9
ATOM      9  C   UNL     1      23.426  38.414   8.272  1.00  0.00     0.179 C 
ATOM     10  C   UNL     1      25.167  39.817   8.703  1.00  0.00     0.282 C 
ATOM     11  O   UNL     1      24.105  39.112   9.311  1.00  0.00    -0.341 OA
ATOM     12  C   UNL     1      25.855  39.002   7.671  1.00  0.00     0.202 C 
ATOM     13  C   UNL     1      25.581  37.536   7.674  1.00  0.00     0.179 C 
ATOM     14  C   UNL     1      24.171  37.149   8.074  1.00  0.00     0.177 C 
BRANCH  10  15
ATOM     15  O   UNL     1      25.943  40.467   9.620  1.00  0.00    -0.341 OA
BRANCH  15  16
ATOM     16  C   UNL     1      26.856  39.703  10.316  1.00  0.00     0.184 C 
ATOM     17  C   UNL     1      26.667  39.691  11.814  1.00  0.00     0.178 C 
ATOM     18  O   UNL     1      27.884  39.493  12.466  1.00  0.00    -0.341 OA
ATOM     19  C   UNL     1      28.771  38.687  11.732  1.00  0.00     0.281 C 
ATOM     20  C   UNL     1      28.202  40.432  10.143  1.00  0.00     0.180 C 
ATOM     21  C   UNL     1      29.271  39.428  10.478  1.00  0.00     0.202 C 
BRANCH  17  22
ATOM     22  C   UNL     1      25.722  38.649  12.324  1.00  0.00     0.191 C 
BRANCH  22  23
ATOM     23  O   UNL     1      25.451  37.735  11.309  1.00  0.00    -0.394 OA
ATOM     24  H   UNL     1      25.676  36.828  11.662  1.00  0.00     0.210 HD
ENDBRANCH  22  23
ENDBRANCH  17  22
BRANCH  19  25
ATOM     25  O   UNL     1      28.286  37.460  11.411  1.00  0.00    -0.350 OA
BRANCH  25  26
ATOM     26  C   UNL     1      28.706  36.370  12.109  1.00  0.00     0.169 C 
BRANCH  26  27
ATOM     27  C   UNL     1      27.680  35.416  12.593  1.00  0.00     0.119 C 
BRANCH  27  28
ATOM     28  N   UNL     1      26.744  34.997  11.608  1.00  0.00    -0.092 NA
ATOM     29  N   UNL     1      27.049  34.572  10.485  1.00  0.00     0.001 N 
ATOM     30  N   UNL     1      27.220  33.759   9.548  1.00  0.00    -0.003 NA
ENDBRANCH  27  28
ENDBRANCH  26  27
ENDBRANCH  25  26
ENDBRANCH  19  25
BRANCH  20  31
ATOM     31  O   UNL     1      28.325  41.013   8.912  1.00  0.00    -0.387 OA
ATOM     32  H   UNL     1      28.621  41.977   8.974  1.00  0.00     0.211 HD
ENDBRANCH  20  31
BRANCH  21  33
ATOM     33  O   UNL     1      30.500  40.046  10.706  1.00  0.00    -0.385 OA
ATOM     34  H   UNL     1      30.783  40.516   9.878  1.00  0.00     0.211 HD
ENDBRANCH  21  33
ENDBRANCH  15  16
ENDBRANCH  10  15
BRANCH  12  35
ATOM     35  O   UNL     1      25.667  39.528   6.367  1.00  0.00    -0.385 OA
ATOM     36  H   UNL     1      25.708  40.532   6.410  1.00  0.00     0.211 HD
ENDBRANCH  12  35
BRANCH  13  37
ATOM     37  O   UNL     1      26.536  36.827   8.442  1.00  0.00    -0.387 OA
ATOM     38  H   UNL     1      27.078  37.492   8.940  1.00  0.00     0.211 HD
ENDBRANCH  13  37
BRANCH  14  39
ATOM     39  O   UNL     1      24.163  36.322   9.193  1.00  0.00    -0.387 OA
ATOM     40  H   UNL     1      25.060  35.964   9.401  1.00  0.00     0.211 HD
ENDBRANCH  14  39
ENDBRANCH   8   9
ENDBRANCH   7   8
ENDBRANCH   1   7
BRANCH   1  41
ATOM     41  C   UNL     1      19.940  35.522   7.837  1.00  0.00     0.364 C 
ATOM     42  O   UNL     1      19.070  36.155   7.201  1.00  0.00    -0.246 OA
BRANCH  41  43
ATOM     43  O   UNL     1      20.110  34.216   7.530  1.00  0.00    -0.477 OA
ATOM     44  H   UNL     1      19.857  33.411   8.047  1.00  0.00     0.296 HD
ENDBRANCH  41  43
ENDBRANCH   1  41
BRANCH   3  45
ATOM     45  O   UNL     1      18.216  36.507  11.532  1.00  0.00    -0.391 OA
ATOM     46  H   UNL     1      17.281  36.647  11.236  1.00  0.00     0.211 HD
ENDBRANCH   3  45
BRANCH   5  47
ATOM     47  C   UNL     1      21.859  35.906  11.937  1.00  0.00     0.176 C 
BRANCH  47  48
ATOM     48  O   UNL     1      22.769  36.882  11.437  1.00  0.00    -0.388 OA
ATOM     49  H   UNL     1      22.287  37.734  11.386  1.00  0.00     0.211 HD
ENDBRANCH  47  48
BRANCH  47  50
ATOM     50  C   UNL     1      22.839  35.200  12.919  1.00  0.00     0.165 C 
BRANCH  50  51
ATOM     51  O   UNL     1      24.120  35.583  12.902  1.00  0.00    -0.388 OA
ATOM     52  H   UNL     1      24.708  34.861  12.566  1.00  0.00     0.211 HD
ENDBRANCH  50  51
BRANCH  50  53
ATOM     53  C   UNL     1      22.702  33.685  12.648  1.00  0.00     0.154 C 
BRANCH  53  54
ATOM     54  N   UNL     1      22.831  32.897  13.830  1.00  0.00    -0.319 N 
ATOM     55  C   UNL     1      24.116  32.379  14.196  1.00  0.00     0.407 C 
ATOM     56  H   UNL     1      22.025  32.688  14.427  1.00  0.00     0.167 HD
ATOM     57  O   UNL     1      25.113  32.634  13.465  1.00  0.00    -0.225 OA
BRANCH  55  58
ATOM     58  O   UNL     1      24.211  31.616  15.346  1.00  0.00    -0.443 OA
BRANCH  58  59
ATOM     59  C   UNL     1      25.145  30.520  15.392  1.00  0.00     0.294 C 
BRANCH  59  60
ATOM     60  C   UNL     1      26.404  31.017  15.985  1.00  0.00     0.120 A 
ATOM     61  C   UNL     1      27.701  30.582  15.692  1.00  0.00     0.138 A 
ATOM     62  N   UNL     1      26.548  31.963  16.920  1.00  0.00    -0.132 NA
ATOM     63  N   UNL     1      28.539  31.285  16.462  1.00  0.00    -0.248 N 
ATOM     64  N   UNL     1      27.826  32.121  17.203  1.00  0.00    -0.067 NA
BRANCH  63  65
ATOM     65  C   UNL     1      29.974  31.158  16.488  1.00  0.00     0.181 C 
BRANCH  65  66
ATOM     66  C   UNL     1      30.578  32.388  15.929  1.00  0.00    -0.026 A 
ATOM     67  C   UNL     1      30.206  32.823  14.660  1.00  0.00     0.009 A 
ATOM     68  C   UNL     1      31.491  33.146  16.614  1.00  0.00     0.009 A 
ATOM     69  C   UNL     1      30.725  33.969  14.098  1.00  0.00     0.047 A 
ATOM     70  C   UNL     1      32.017  34.309  16.042  1.00  0.00     0.047 A 
ATOM     71  C   UNL     1      31.649  34.734  14.795  1.00  0.00     0.118 A 
BRANCH  71  72
ATOM     72  O   UNL     1      32.139  35.876  14.189  1.00  0.00    -0.497 OA
ATOM     73  C   UNL     1      32.472  35.984  12.836  1.00  0.00     0.278 C 
ENDBRANCH  71  72
ENDBRANCH  65  66
ENDBRANCH  63  65
ENDBRANCH  59  60
ENDBRANCH  58  59
ENDBRANCH  55  58
ENDBRANCH  53  54
ENDBRANCH  50  53
ENDBRANCH  47  50
ENDBRANCH   5  47
BRANCH   4  74
ATOM     74  N   UNL     1      19.458  33.402  11.024  1.00  0.00    -0.348 N 
ATOM     75  C   UNL     1      18.368  32.779  11.690  1.00  0.00     0.217 C 
ATOM     76  H   UNL     1      20.010  32.808  10.388  1.00  0.00     0.163 HD
ATOM     77  C   UNL     1      18.059  31.320  11.435  1.00  0.00     0.114 C 
ATOM     78  O   UNL     1      17.664  33.441  12.489  1.00  0.00    -0.275 OA
ENDBRANCH   4  74
TORSDOF 32
BEGIN_RES LYS A 131
REMARK  4 active torsions:
REMARK  status: ('A' for Active; 'I' for Inactive)
REMARK    1  A    between atoms: CA   and  CB  
REMARK    2  A    between atoms: CB   and  CG  
REMARK    3  A    between atoms: CG   and  CD  
REMARK    4  A    between atoms: CD   and  CE  
ROOT
ATOM      1  CA  LYS A 131      29.867  25.555  16.977  1.00 20.52     0.186 C 
ENDROOT
BRANCH   1   2
ATOM      2  CB  LYS A 131      28.345  25.722  17.026  1.00 20.94     0.034 C 
BRANCH   2   3
ATOM      3  CG  LYS A 131      27.601  24.403  16.888  1.00 22.96     0.005 C 
BRANCH   3   4
ATOM      4  CD  LYS A 131      26.596  24.202  17.988  1.00 24.33     0.041 C 
BRANCH   4   5
ATOM      5  CE  LYS A 131      25.599  23.123  17.576  1.00 26.91     0.338 C 
ATOM      6  NZ  LYS A 131      24.415  23.732  16.926  1.00 27.40     0.618 N 
ENDBRANCH   4   5
ENDBRANCH   3   4
ENDBRANCH   2   3
ENDBRANCH   1   2
END_RES LYS A 131
BEGIN_RES LYS A 135
REMARK  4 active torsions:
REMARK  status: ('A' for Active; 'I' for Inactive)
REMARK    5  A    between atoms: CA   and  CB  
REMARK    6  A    between atoms: CB   and  CG  
REMARK    7  A    between atoms: CG   and  CD  
REMARK    8  A    between atoms: CD   and  CE  
ROOT
ATOM      7  CA  LYS A 135      33.193  34.663   9.290  1.00 25.02     0.186 C 
ENDROOT
BRANCH   7   8
ATOM      8  CB  LYS A 135      32.060  35.360  10.034  1.00 26.63     0.034 C 
BRANCH   8   9
ATOM      9  CG  LYS A 135      30.694  34.828   9.687  1.00 29.45     0.005 C 
BRANCH   9  10
ATOM     10  CD  LYS A 135      30.616  34.472   8.210  1.00 32.00     0.041 C 
BRANCH  10  11
ATOM     11  CE  LYS A 135      29.546  35.296   7.519  1.00 34.25     0.338 C 
ATOM     12  NZ  LYS A 135      29.661  36.736   7.881  1.00 35.99     0.618 N 
ENDBRANCH  10  11
ENDBRANCH   9  10
ENDBRANCH   8   9
ENDBRANCH   7   8
END_RES LYS A 135
