REMARK VINA RESULT:    -4.144      3.179      8.865
REMARK INTER + INTRA:         -21.992
REMARK INTER:                  -7.611
REMARK INTRA:                 -14.381
REMARK UNBOUND:               -11.308
REMARK SMILES CC(=O)N[C@@H]1[C@@H](O)C[C@](OC[C@H]2O[C@@H](O[C@H]3[C@H](O)[C@@H](O)[C@H](OCCN=[N+]=[N-])O[C@@H]3CO)[C@H](O)[C@@H](O)[C@H]2O)(C(=O)O)O[C@H]1C(O)[C@H](O)CNC(=O)OCc1cn(CCN2CCCC2)nn1
REMARK SMILES IDX 9 1 8 2 6 3 5 4 42 5 41 6 10 7 11 8 12 9 14 10 13 11 32 12
REMARK SMILES IDX 34 13 36 14 15 15 16 16 29 17 28 18 21 19 17 20 19 21 30 22
REMARK SMILES IDX 31 23 22 25 23 26 24 27 25 28 26 29 27 30 18 31 20 33 33 35
REMARK SMILES IDX 35 37 37 39 38 41 39 42 40 43 7 45 43 47 44 48 45 50 46 51
REMARK SMILES IDX 47 53 48 54 49 55 50 57 51 58 52 59 53 60 54 61 64 62 55 63
REMARK SMILES IDX 63 64 56 65 57 66 58 67 59 68 62 69 60 70 61 71 4 72 2 73
REMARK SMILES IDX 1 75 3 76
REMARK H PARENT 31 24 18 32 20 34 33 36 35 38 37 40 40 44 7 46 44 49 46 52
REMARK H PARENT 48 56 4 74
REMARK Flexibility Score: inf
ROOT
ATOM      1  C   UNL     1      27.858  37.699   7.970  1.00  0.00     0.272 C 
ATOM      2  C   UNL     1      28.194  38.256   9.317  1.00  0.00     0.113 C 
ATOM      3  C   UNL     1      27.575  39.648   9.499  1.00  0.00     0.145 C 
ATOM      4  C   UNL     1      28.282  40.551   8.450  1.00  0.00     0.142 C 
ATOM      5  C   UNL     1      28.095  39.896   7.131  1.00  0.00     0.178 C 
ATOM      6  O   UNL     1      27.300  38.751   7.234  1.00  0.00    -0.332 OA
ENDROOT
BRANCH   1   7
ATOM      7  O   UNL     1      26.811  36.776   8.034  1.00  0.00    -0.338 OA
BRANCH   7   8
ATOM      8  C   UNL     1      25.700  37.031   7.316  1.00  0.00     0.199 C 
BRANCH   8   9
ATOM      9  C   UNL     1      24.443  37.134   8.176  1.00  0.00     0.179 C 
ATOM     10  C   UNL     1      23.657  36.932  10.321  1.00  0.00     0.282 C 
ATOM     11  O   UNL     1      24.713  37.287   9.525  1.00  0.00    -0.341 OA
ATOM     12  C   UNL     1      22.369  37.374   9.715  1.00  0.00     0.202 C 
ATOM     13  C   UNL     1      22.626  38.579   8.828  1.00  0.00     0.179 C 
ATOM     14  C   UNL     1      23.526  38.225   7.661  1.00  0.00     0.177 C 
BRANCH  10  15
ATOM     15  O   UNL     1      23.799  37.213  11.648  1.00  0.00    -0.341 OA
BRANCH  15  16
ATOM     16  C   UNL     1      24.986  37.337  12.233  1.00  0.00     0.184 C 
ATOM     17  C   UNL     1      25.300  36.409  13.388  1.00  0.00     0.178 C 
ATOM     18  O   UNL     1      26.694  36.325  13.471  1.00  0.00    -0.341 OA
ATOM     19  C   UNL     1      27.110  37.544  14.081  1.00  0.00     0.281 C 
ATOM     20  C   UNL     1      25.346  38.725  12.735  1.00  0.00     0.180 C 
ATOM     21  C   UNL     1      26.821  38.639  13.073  1.00  0.00     0.202 C 
BRANCH  17  22
ATOM     22  C   UNL     1      24.681  35.057  13.284  1.00  0.00     0.191 C 
BRANCH  22  23
ATOM     23  O   UNL     1      25.487  34.276  12.461  1.00  0.00    -0.394 OA
ATOM     24  H   UNL     1      25.835  34.824  11.705  1.00  0.00     0.210 HD
ENDBRANCH  22  23
ENDBRANCH  17  22
BRANCH  19  25
ATOM     25  O   UNL     1      28.458  37.444  14.212  1.00  0.00    -0.350 OA
BRANCH  25  26
ATOM     26  C   UNL     1      29.188  36.817  13.262  1.00  0.00     0.169 C 
BRANCH  26  27
ATOM     27  C   UNL     1      30.644  37.116  13.187  1.00  0.00     0.119 C 
BRANCH  27  28
ATOM     28  N   UNL     1      31.033  37.937  12.066  1.00  0.00    -0.092 NA
ATOM     29  N   UNL     1      30.567  39.062  11.954  1.00  0.00     0.001 N 
ATOM     30  N   UNL     1      30.094  40.202  12.005  1.00  0.00    -0.003 NA
ENDBRANCH  27  28
ENDBRANCH  26  27
ENDBRANCH  25  26
ENDBRANCH  19  25
BRANCH  20  31
ATOM     31  O   UNL     1      25.229  39.673  11.729  1.00  0.00    -0.387 OA
ATOM     32  H   UNL     1      25.618  39.406  10.874  1.00  0.00     0.211 HD
ENDBRANCH  20  31
BRANCH  21  33
ATOM     33  O   UNL     1      27.369  39.849  13.426  1.00  0.00    -0.385 OA
ATOM     34  H   UNL     1      27.421  40.525  12.729  1.00  0.00     0.211 HD
ENDBRANCH  21  33
ENDBRANCH  15  16
ENDBRANCH  10  15
BRANCH  12  35
ATOM     35  O   UNL     1      21.772  36.398   8.907  1.00  0.00    -0.385 OA
ATOM     36  H   UNL     1      21.408  36.815   8.072  1.00  0.00     0.211 HD
ENDBRANCH  12  35
BRANCH  13  37
ATOM     37  O   UNL     1      23.282  39.573   9.560  1.00  0.00    -0.387 OA
ATOM     38  H   UNL     1      22.797  40.452   9.452  1.00  0.00     0.211 HD
ENDBRANCH  13  37
BRANCH  14  39
ATOM     39  O   UNL     1      24.230  39.383   7.337  1.00  0.00    -0.387 OA
ATOM     40  H   UNL     1      25.015  39.069   6.799  1.00  0.00     0.211 HD
ENDBRANCH  14  39
ENDBRANCH   8   9
ENDBRANCH   7   8
ENDBRANCH   1   7
BRANCH   1  41
ATOM     41  C   UNL     1      29.021  37.132   7.239  1.00  0.00     0.364 C 
ATOM     42  O   UNL     1      28.806  36.612   6.101  1.00  0.00    -0.246 OA
BRANCH  41  43
ATOM     43  O   UNL     1      30.319  37.115   7.678  1.00  0.00    -0.477 OA
ATOM     44  H   UNL     1      30.695  36.641   8.467  1.00  0.00     0.296 HD
ENDBRANCH  41  43
ENDBRANCH   1  41
BRANCH   3  45
ATOM     45  O   UNL     1      26.241  39.651   9.178  1.00  0.00    -0.391 OA
ATOM     46  H   UNL     1      26.053  39.251   8.286  1.00  0.00     0.211 HD
ENDBRANCH   3  45
BRANCH   5  47
ATOM     47  C   UNL     1      27.314  40.789   6.195  1.00  0.00     0.176 C 
BRANCH  47  48
ATOM     48  O   UNL     1      27.906  42.010   5.937  1.00  0.00    -0.388 OA
ATOM     49  H   UNL     1      27.391  42.799   6.216  1.00  0.00     0.211 HD
ENDBRANCH  47  48
BRANCH  47  50
ATOM     50  C   UNL     1      26.728  40.200   4.972  1.00  0.00     0.165 C 
BRANCH  50  51
ATOM     51  O   UNL     1      27.314  39.051   4.494  1.00  0.00    -0.388 OA
ATOM     52  H   UNL     1      27.794  38.506   5.157  1.00  0.00     0.211 HD
ENDBRANCH  50  51
BRANCH  50  53
ATOM     53  C   UNL     1      26.157  41.149   3.970  1.00  0.00     0.154 C 
BRANCH  53  54
ATOM     54  N   UNL     1      25.007  41.840   4.422  1.00  0.00    -0.319 N 
ATOM     55  C   UNL     1      24.995  43.260   4.651  1.00  0.00     0.407 C 
ATOM     56  H   UNL     1      24.113  41.322   4.600  1.00  0.00     0.167 HD
ATOM     57  O   UNL     1      25.990  43.986   4.471  1.00  0.00    -0.225 OA
BRANCH  55  58
ATOM     58  O   UNL     1      23.830  43.889   5.093  1.00  0.00    -0.443 OA
BRANCH  58  59
ATOM     59  C   UNL     1      23.001  43.254   6.072  1.00  0.00     0.294 C 
BRANCH  59  60
ATOM     60  C   UNL     1      23.698  43.163   7.370  1.00  0.00     0.120 A 
ATOM     61  C   UNL     1      23.913  44.067   8.371  1.00  0.00     0.138 A 
ATOM     62  N   UNL     1      24.300  42.019   7.809  1.00  0.00    -0.132 NA
ATOM     63  N   UNL     1      24.605  43.489   9.353  1.00  0.00    -0.251 N 
ATOM     64  N   UNL     1      24.834  42.214   8.977  1.00  0.00    -0.067 NA
BRANCH  63  65
ATOM     65  C   UNL     1      25.067  44.021  10.596  1.00  0.00     0.161 C 
BRANCH  65  66
ATOM     66  C   UNL     1      25.060  43.056  11.723  1.00  0.00     0.108 C 
BRANCH  66  67
ATOM     67  N   UNL     1      26.270  42.679  12.323  1.00  0.00    -0.301 NA
ATOM     68  C   UNL     1      27.483  42.755  11.612  1.00  0.00     0.084 C 
ATOM     69  C   UNL     1      26.448  43.076  13.687  1.00  0.00     0.084 C 
ATOM     70  C   UNL     1      28.504  43.444  12.506  1.00  0.00     0.017 C 
ATOM     71  C   UNL     1      27.897  43.403  13.878  1.00  0.00     0.017 C 
ENDBRANCH  66  67
ENDBRANCH  65  66
ENDBRANCH  63  65
ENDBRANCH  59  60
ENDBRANCH  58  59
ENDBRANCH  55  58
ENDBRANCH  53  54
ENDBRANCH  50  53
ENDBRANCH  47  50
ENDBRANCH   5  47
BRANCH   4  72
ATOM     72  N   UNL     1      29.661  40.662   8.888  1.00  0.00    -0.348 N 
ATOM     73  C   UNL     1      30.498  41.776   8.593  1.00  0.00     0.217 C 
ATOM     74  H   UNL     1      30.096  39.909   9.450  1.00  0.00     0.163 HD
ATOM     75  C   UNL     1      31.918  41.782   9.092  1.00  0.00     0.114 C 
ATOM     76  O   UNL     1      30.047  42.716   7.936  1.00  0.00    -0.275 OA
ENDBRANCH   4  72
TORSDOF 32
BEGIN_RES LYS A 131
REMARK  4 active torsions:
REMARK  status: ('A' for Active; 'I' for Inactive)
REMARK    1  A    between atoms: CA   and  CB  
REMARK    2  A    between atoms: CB   and  CG  
REMARK    3  A    between atoms: CG   and  CD  
REMARK    4  A    between atoms: CD   and  CE  
ROOT
ATOM      1  CA  LYS A 131      29.867  25.555  16.977  1.00 20.52     0.186 C 
ENDROOT
BRANCH   1   2
ATOM      2  CB  LYS A 131      28.345  25.722  17.026  1.00 20.94     0.034 C 
BRANCH   2   3
ATOM      3  CG  LYS A 131      27.601  24.403  16.888  1.00 22.96     0.005 C 
BRANCH   3   4
ATOM      4  CD  LYS A 131      26.615  24.189  18.003  1.00 24.33     0.041 C 
BRANCH   4   5
ATOM      5  CE  LYS A 131      25.548  23.195  17.556  1.00 26.91     0.338 C 
ATOM      6  NZ  LYS A 131      24.415  23.904  16.915  1.00 27.40     0.618 N 
ENDBRANCH   4   5
ENDBRANCH   3   4
ENDBRANCH   2   3
ENDBRANCH   1   2
END_RES LYS A 131
BEGIN_RES LYS A 135
REMARK  4 active torsions:
REMARK  status: ('A' for Active; 'I' for Inactive)
REMARK    5  A    between atoms: CA   and  CB  
REMARK    6  A    between atoms: CB   and  CG  
REMARK    7  A    between atoms: CG   and  CD  
REMARK    8  A    between atoms: CD   and  CE  
ROOT
ATOM      7  CA  LYS A 135      33.193  34.663   9.290  1.00 25.02     0.186 C 
ENDROOT
BRANCH   7   8
ATOM      8  CB  LYS A 135      32.060  35.360  10.034  1.00 26.63     0.034 C 
BRANCH   8   9
ATOM      9  CG  LYS A 135      30.875  34.468  10.299  1.00 29.45     0.005 C 
BRANCH   9  10
ATOM     10  CD  LYS A 135      30.212  34.054   8.993  1.00 32.00     0.041 C 
BRANCH  10  11
ATOM     11  CE  LYS A 135      28.705  34.005   9.153  1.00 34.25     0.338 C 
ATOM     12  NZ  LYS A 135      28.278  34.661  10.421  1.00 35.99     0.618 N 
ENDBRANCH  10  11
ENDBRANCH   9  10
ENDBRANCH   8   9
ENDBRANCH   7   8
END_RES LYS A 135
