REMARK VINA RESULT:    -5.069      4.820      9.968
REMARK INTER + INTRA:         -22.218
REMARK INTER:                  -8.490
REMARK INTRA:                 -13.728
REMARK UNBOUND:                -9.445
REMARK SMILES CC(=O)N[C@@H]1[C@@H](O)C[C@](OC[C@H]2O[C@@H](O[C@H]3[C@H](O)[C@@H](O)[C@H](OCCN=[N+]=[N-])O[C@@H]3CO)[C@H](O)[C@@H](O)[C@H]2O)(C(=O)O)O[C@H]1C(O)[C@H](O)CNC(=O)OCc1cn(Cc2cccc(Br)c2)nn1
REMARK SMILES IDX 9 1 8 2 6 3 5 4 42 5 41 6 10 7 11 8 12 9 14 10 13 11 32 12
REMARK SMILES IDX 34 13 36 14 15 15 16 16 29 17 28 18 21 19 17 20 19 21 30 22
REMARK SMILES IDX 31 23 22 25 23 26 24 27 25 28 26 29 27 30 18 31 20 33 33 35
REMARK SMILES IDX 35 37 37 39 38 41 39 42 40 43 7 45 43 47 44 48 45 50 46 51
REMARK SMILES IDX 47 53 48 54 49 55 50 57 51 58 52 59 53 60 54 61 65 62 55 63
REMARK SMILES IDX 64 64 56 65 57 66 58 67 63 68 59 69 61 70 60 71 62 72 4 73
REMARK SMILES IDX 2 74 1 76 3 77
REMARK H PARENT 31 24 18 32 20 34 33 36 35 38 37 40 40 44 7 46 44 49 46 52
REMARK H PARENT 48 56 4 75
REMARK Flexibility Score: inf
ROOT
ATOM      1  C   UNL     1      27.905  30.121  17.886  1.00  0.00     0.272 C 
ATOM      2  C   UNL     1      26.978  31.118  18.470  1.00  0.00     0.113 C 
ATOM      3  C   UNL     1      27.465  31.782  19.718  1.00  0.00     0.145 C 
ATOM      4  C   UNL     1      28.327  30.876  20.569  1.00  0.00     0.142 C 
ATOM      5  C   UNL     1      29.074  29.862  19.823  1.00  0.00     0.178 C 
ATOM      6  O   UNL     1      29.134  30.003  18.472  1.00  0.00    -0.332 OA
ENDROOT
BRANCH   1   7
ATOM      7  O   UNL     1      28.069  30.406  16.494  1.00  0.00    -0.338 OA
BRANCH   7   8
ATOM      8  C   UNL     1      29.297  30.928  16.207  1.00  0.00     0.199 C 
BRANCH   8   9
ATOM      9  C   UNL     1      29.155  32.327  15.570  1.00  0.00     0.179 C 
ATOM     10  C   UNL     1      29.449  34.549  16.249  1.00  0.00     0.282 C 
ATOM     11  O   UNL     1      29.173  33.207  16.601  1.00  0.00    -0.341 OA
ATOM     12  C   UNL     1      29.345  34.779  14.794  1.00  0.00     0.202 C 
ATOM     13  C   UNL     1      30.206  33.833  13.977  1.00  0.00     0.179 C 
ATOM     14  C   UNL     1      30.389  32.518  14.715  1.00  0.00     0.177 C 
BRANCH  10  15
ATOM     15  O   UNL     1      30.655  34.808  16.855  1.00  0.00    -0.341 OA
BRANCH  15  16
ATOM     16  C   UNL     1      30.669  34.887  18.200  1.00  0.00     0.184 C 
ATOM     17  C   UNL     1      31.410  36.131  18.616  1.00  0.00     0.178 C 
ATOM     18  O   UNL     1      31.270  36.297  19.991  1.00  0.00    -0.341 OA
ATOM     19  C   UNL     1      31.888  35.289  20.735  1.00  0.00     0.281 C 
ATOM     20  C   UNL     1      31.434  33.755  18.880  1.00  0.00     0.180 C 
ATOM     21  C   UNL     1      31.205  33.990  20.381  1.00  0.00     0.202 C 
BRANCH  17  22
ATOM     22  C   UNL     1      30.799  37.317  17.948  1.00  0.00     0.191 C 
BRANCH  22  23
ATOM     23  O   UNL     1      31.389  37.554  16.720  1.00  0.00    -0.394 OA
ATOM     24  H   UNL     1      32.214  37.005  16.671  1.00  0.00     0.210 HD
ENDBRANCH  22  23
ENDBRANCH  17  22
BRANCH  19  25
ATOM     25  O   UNL     1      31.731  35.640  22.060  1.00  0.00    -0.350 OA
BRANCH  25  26
ATOM     26  C   UNL     1      32.835  35.468  22.848  1.00  0.00     0.169 C 
BRANCH  26  27
ATOM     27  C   UNL     1      32.591  34.653  24.097  1.00  0.00     0.119 C 
BRANCH  27  28
ATOM     28  N   UNL     1      32.997  33.296  23.807  1.00  0.00    -0.092 NA
ATOM     29  N   UNL     1      32.356  32.304  24.120  1.00  0.00     0.001 N 
ATOM     30  N   UNL     1      31.576  31.383  24.353  1.00  0.00    -0.003 NA
ENDBRANCH  27  28
ENDBRANCH  26  27
ENDBRANCH  25  26
ENDBRANCH  19  25
BRANCH  20  31
ATOM     31  O   UNL     1      30.965  32.508  18.582  1.00  0.00    -0.387 OA
ATOM     32  H   UNL     1      30.024  32.469  18.299  1.00  0.00     0.211 HD
ENDBRANCH  20  31
BRANCH  21  33
ATOM     33  O   UNL     1      31.697  32.893  21.038  1.00  0.00    -0.385 OA
ATOM     34  H   UNL     1      30.976  32.221  21.264  1.00  0.00     0.211 HD
ENDBRANCH  21  33
ENDBRANCH  15  16
ENDBRANCH  10  15
BRANCH  12  35
ATOM     35  O   UNL     1      27.992  34.560  14.429  1.00  0.00    -0.385 OA
ATOM     36  H   UNL     1      27.963  34.003  13.609  1.00  0.00     0.211 HD
ENDBRANCH  12  35
BRANCH  13  37
ATOM     37  O   UNL     1      31.413  34.408  13.593  1.00  0.00    -0.387 OA
ATOM     38  H   UNL     1      32.154  33.982  14.135  1.00  0.00     0.211 HD
ENDBRANCH  13  37
BRANCH  14  39
ATOM     39  O   UNL     1      31.494  32.490  15.533  1.00  0.00    -0.387 OA
ATOM     40  H   UNL     1      31.514  31.638  16.067  1.00  0.00     0.211 HD
ENDBRANCH  14  39
ENDBRANCH   8   9
ENDBRANCH   7   8
ENDBRANCH   1   7
BRANCH   1  41
ATOM     41  C   UNL     1      27.243  28.782  17.889  1.00  0.00     0.364 C 
ATOM     42  O   UNL     1      26.068  28.670  17.389  1.00  0.00    -0.246 OA
BRANCH  41  43
ATOM     43  O   UNL     1      27.773  27.625  18.389  1.00  0.00    -0.477 OA
ATOM     44  H   UNL     1      27.167  27.034  18.974  1.00  0.00     0.296 HD
ENDBRANCH  41  43
ENDBRANCH   1  41
BRANCH   3  45
ATOM     45  O   UNL     1      28.061  33.005  19.450  1.00  0.00    -0.391 OA
ATOM     46  H   UNL     1      29.032  32.953  19.307  1.00  0.00     0.211 HD
ENDBRANCH   3  45
BRANCH   5  47
ATOM     47  C   UNL     1      30.495  29.652  20.370  1.00  0.00     0.176 C 
BRANCH  47  48
ATOM     48  O   UNL     1      30.542  30.437  21.592  1.00  0.00    -0.388 OA
ATOM     49  H   UNL     1      31.201  29.986  22.178  1.00  0.00     0.211 HD
ENDBRANCH  47  48
BRANCH  47  50
ATOM     50  C   UNL     1      30.819  28.257  20.762  1.00  0.00     0.165 C 
BRANCH  50  51
ATOM     51  O   UNL     1      29.700  27.480  20.280  1.00  0.00    -0.388 OA
ATOM     52  H   UNL     1      28.880  28.055  20.367  1.00  0.00     0.211 HD
ENDBRANCH  50  51
BRANCH  50  53
ATOM     53  C   UNL     1      30.864  27.931  22.217  1.00  0.00     0.154 C 
BRANCH  53  54
ATOM     54  N   UNL     1      29.558  27.900  22.855  1.00  0.00    -0.319 N 
ATOM     55  C   UNL     1      29.178  26.749  23.588  1.00  0.00     0.407 C 
ATOM     56  H   UNL     1      28.899  28.696  22.788  1.00  0.00     0.167 HD
ATOM     57  O   UNL     1      29.965  25.766  23.679  1.00  0.00    -0.225 OA
BRANCH  55  58
ATOM     58  O   UNL     1      27.938  26.675  24.225  1.00  0.00    -0.443 OA
BRANCH  58  59
ATOM     59  C   UNL     1      26.928  25.839  23.643  1.00  0.00     0.294 C 
BRANCH  59  60
ATOM     60  C   UNL     1      26.234  26.616  22.590  1.00  0.00     0.120 A 
ATOM     61  C   UNL     1      24.902  26.937  22.501  1.00  0.00     0.138 A 
ATOM     62  N   UNL     1      26.837  27.145  21.517  1.00  0.00    -0.132 NA
ATOM     63  N   UNL     1      24.742  27.653  21.372  1.00  0.00    -0.248 N 
ATOM     64  N   UNL     1      25.928  27.765  20.792  1.00  0.00    -0.067 NA
BRANCH  63  65
ATOM     65  C   UNL     1      23.472  28.196  20.898  1.00  0.00     0.181 C 
BRANCH  65  66
ATOM     66  C   UNL     1      23.586  29.645  20.591  1.00  0.00    -0.025 A 
ATOM     67  C   UNL     1      23.312  30.119  19.325  1.00  0.00     0.006 A 
ATOM     68  C   UNL     1      23.966  30.576  21.527  1.00  0.00     0.021 A 
ATOM     69  C   UNL     1      23.402  31.448  18.976  1.00  0.00     0.002 A 
ATOM     70  C   UNL     1      24.066  31.912  21.212  1.00  0.00     0.018 A 
ATOM     71  C   UNL     1      23.791  32.376  19.952  1.00  0.00     0.016 A 
ATOM     72  Br  UNL     1      24.594  33.213  22.513  1.00  0.00    -0.051 Br
ENDBRANCH  65  66
ENDBRANCH  63  65
ENDBRANCH  59  60
ENDBRANCH  58  59
ENDBRANCH  55  58
ENDBRANCH  53  54
ENDBRANCH  50  53
ENDBRANCH  47  50
ENDBRANCH   5  47
BRANCH   4  73
ATOM     73  N   UNL     1      27.479  30.236  21.607  1.00  0.00    -0.348 N 
ATOM     74  C   UNL     1      27.502  30.704  22.944  1.00  0.00     0.217 C 
ATOM     75  H   UNL     1      26.850  29.427  21.369  1.00  0.00     0.163 HD
ATOM     76  C   UNL     1      26.653  30.071  24.013  1.00  0.00     0.114 C 
ATOM     77  O   UNL     1      28.255  31.672  23.231  1.00  0.00    -0.275 OA
ENDBRANCH   4  73
TORSDOF 31
BEGIN_RES LYS A 131
REMARK  4 active torsions:
REMARK  status: ('A' for Active; 'I' for Inactive)
REMARK    1  A    between atoms: CA   and  CB  
REMARK    2  A    between atoms: CB   and  CG  
REMARK    3  A    between atoms: CG   and  CD  
REMARK    4  A    between atoms: CD   and  CE  
ROOT
ATOM      1  CA  LYS A 131      29.867  25.555  16.977  1.00 20.52     0.186 C 
ENDROOT
BRANCH   1   2
ATOM      2  CB  LYS A 131      28.345  25.722  17.026  1.00 20.94     0.034 C 
BRANCH   2   3
ATOM      3  CG  LYS A 131      27.601  24.401  16.906  1.00 22.96     0.005 C 
BRANCH   3   4
ATOM      4  CD  LYS A 131      26.158  24.525  17.306  1.00 24.33     0.041 C 
BRANCH   4   5
ATOM      5  CE  LYS A 131      25.875  23.599  18.485  1.00 26.91     0.338 C 
ATOM      6  NZ  LYS A 131      25.487  24.384  19.680  1.00 27.40     0.618 N 
ENDBRANCH   4   5
ENDBRANCH   3   4
ENDBRANCH   2   3
ENDBRANCH   1   2
END_RES LYS A 131
BEGIN_RES LYS A 135
REMARK  4 active torsions:
REMARK  status: ('A' for Active; 'I' for Inactive)
REMARK    5  A    between atoms: CA   and  CB  
REMARK    6  A    between atoms: CB   and  CG  
REMARK    7  A    between atoms: CG   and  CD  
REMARK    8  A    between atoms: CD   and  CE  
ROOT
ATOM      7  CA  LYS A 135      33.193  34.663   9.290  1.00 25.02     0.186 C 
ENDROOT
BRANCH   7   8
ATOM      8  CB  LYS A 135      32.060  35.360  10.034  1.00 26.63     0.034 C 
BRANCH   8   9
ATOM      9  CG  LYS A 135      30.740  34.639   9.934  1.00 29.45     0.005 C 
BRANCH   9  10
ATOM     10  CD  LYS A 135      30.328  34.476   8.479  1.00 32.00     0.041 C 
BRANCH  10  11
ATOM     11  CE  LYS A 135      28.819  34.555   8.341  1.00 34.25     0.338 C 
ATOM     12  NZ  LYS A 135      28.140  33.811   9.437  1.00 35.99     0.618 N 
ENDBRANCH  10  11
ENDBRANCH   9  10
ENDBRANCH   8   9
ENDBRANCH   7   8
END_RES LYS A 135
