REMARK VINA RESULT:    -4.948      3.201      8.681
REMARK INTER + INTRA:         -22.596
REMARK INTER:                  -9.665
REMARK INTRA:                 -12.931
REMARK UNBOUND:               -10.416
REMARK SMILES CC(=O)N[C@@H]1[C@@H](O)C[C@](OC[C@H]2O[C@@H](O[C@H]3[C@H](O)[C@@H](O)[C@H](OCCN=[N+]=[N-])O[C@@H]3CO)[C@H](O)[C@@H](O)[C@H]2O)(C(=O)O)O[C@H]1C(O)[C@H](O)CNC(=O)OCc1cn(-c2ccc3c(c2)OCO3)nn1
REMARK SMILES IDX 9 1 8 2 6 3 5 4 42 5 41 6 10 7 11 8 12 9 14 10 13 11 32 12
REMARK SMILES IDX 34 13 36 14 15 15 16 16 29 17 28 18 21 19 17 20 19 21 30 22
REMARK SMILES IDX 31 23 22 25 23 26 24 27 25 28 26 29 27 30 18 31 20 33 33 35
REMARK SMILES IDX 35 37 37 39 38 41 39 42 40 43 7 45 43 47 44 48 45 50 46 51
REMARK SMILES IDX 47 53 48 54 49 55 50 57 51 58 52 59 53 60 54 61 66 62 55 63
REMARK SMILES IDX 65 64 56 65 57 66 61 67 58 68 60 69 59 70 62 71 64 72 63 73
REMARK SMILES IDX 4 74 2 75 1 77 3 78
REMARK H PARENT 31 24 18 32 20 34 33 36 35 38 37 40 40 44 7 46 44 49 46 52
REMARK H PARENT 48 56 4 76
REMARK Flexibility Score: inf
ROOT
ATOM      1  C   UNL     1      27.997  31.566  16.516  1.00  0.00     0.272 C 
ATOM      2  C   UNL     1      29.033  31.673  15.432  1.00  0.00     0.113 C 
ATOM      3  C   UNL     1      30.461  31.749  16.005  1.00  0.00     0.145 C 
ATOM      4  C   UNL     1      30.531  33.084  16.716  1.00  0.00     0.142 C 
ATOM      5  C   UNL     1      29.362  33.097  17.678  1.00  0.00     0.178 C 
ATOM      6  O   UNL     1      28.636  31.956  17.727  1.00  0.00    -0.332 OA
ENDROOT
BRANCH   1   7
ATOM      7  O   UNL     1      27.558  30.337  16.737  1.00  0.00    -0.338 OA
BRANCH   7   8
ATOM      8  C   UNL     1      26.463  29.706  16.447  1.00  0.00     0.199 C 
BRANCH   8   9
ATOM      9  C   UNL     1      25.660  28.970  17.486  1.00  0.00     0.179 C 
ATOM     10  C   UNL     1      26.037  27.655  19.371  1.00  0.00     0.282 C 
ATOM     11  O   UNL     1      26.508  28.147  18.182  1.00  0.00    -0.341 OA
ATOM     12  C   UNL     1      24.578  27.879  19.591  1.00  0.00     0.202 C 
ATOM     13  C   UNL     1      24.207  29.348  19.468  1.00  0.00     0.179 C 
ATOM     14  C   UNL     1      25.063  30.028  18.449  1.00  0.00     0.177 C 
BRANCH  10  15
ATOM     15  O   UNL     1      26.710  28.350  20.396  1.00  0.00    -0.341 OA
BRANCH  15  16
ATOM     16  C   UNL     1      27.594  27.565  21.090  1.00  0.00     0.184 C 
ATOM     17  C   UNL     1      27.740  28.093  22.493  1.00  0.00     0.178 C 
ATOM     18  O   UNL     1      28.679  29.089  22.620  1.00  0.00    -0.341 OA
ATOM     19  C   UNL     1      28.841  29.836  21.452  1.00  0.00     0.281 C 
ATOM     20  C   UNL     1      28.901  27.586  20.333  1.00  0.00     0.180 C 
ATOM     21  C   UNL     1      29.416  29.008  20.331  1.00  0.00     0.202 C 
BRANCH  17  22
ATOM     22  C   UNL     1      28.117  26.987  23.469  1.00  0.00     0.191 C 
BRANCH  22  23
ATOM     23  O   UNL     1      29.478  27.002  23.747  1.00  0.00    -0.394 OA
ATOM     24  H   UNL     1      29.799  27.910  24.039  1.00  0.00     0.210 HD
ENDBRANCH  22  23
ENDBRANCH  17  22
BRANCH  19  25
ATOM     25  O   UNL     1      29.759  30.830  21.766  1.00  0.00    -0.350 OA
BRANCH  25  26
ATOM     26  C   UNL     1      30.592  30.366  22.778  1.00  0.00     0.169 C 
BRANCH  26  27
ATOM     27  C   UNL     1      32.060  30.534  22.401  1.00  0.00     0.119 C 
BRANCH  27  28
ATOM     28  N   UNL     1      32.791  29.452  23.078  1.00  0.00    -0.092 NA
ATOM     29  N   UNL     1      32.570  28.271  22.735  1.00  0.00     0.001 N 
ATOM     30  N   UNL     1      32.176  27.179  22.288  1.00  0.00    -0.003 NA
ENDBRANCH  27  28
ENDBRANCH  26  27
ENDBRANCH  25  26
ENDBRANCH  19  25
BRANCH  20  31
ATOM     31  O   UNL     1      29.830  26.686  20.817  1.00  0.00    -0.387 OA
ATOM     32  H   UNL     1      30.737  27.083  20.967  1.00  0.00     0.211 HD
ENDBRANCH  20  31
BRANCH  21  33
ATOM     33  O   UNL     1      29.020  29.596  19.128  1.00  0.00    -0.385 OA
ATOM     34  H   UNL     1      28.798  30.556  19.223  1.00  0.00     0.211 HD
ENDBRANCH  21  33
ENDBRANCH  15  16
ENDBRANCH  10  15
BRANCH  12  35
ATOM     35  O   UNL     1      23.748  27.140  18.752  1.00  0.00    -0.385 OA
ATOM     36  H   UNL     1      23.209  26.512  19.327  1.00  0.00     0.211 HD
ENDBRANCH  12  35
BRANCH  13  37
ATOM     37  O   UNL     1      24.369  29.937  20.724  1.00  0.00    -0.387 OA
ATOM     38  H   UNL     1      23.824  30.733  20.861  1.00  0.00     0.211 HD
ENDBRANCH  13  37
BRANCH  14  39
ATOM     39  O   UNL     1      26.092  30.694  19.108  1.00  0.00    -0.387 OA
ATOM     40  H   UNL     1      26.590  31.310  18.546  1.00  0.00     0.211 HD
ENDBRANCH  14  39
ENDBRANCH   8   9
ENDBRANCH   7   8
ENDBRANCH   1   7
BRANCH   1  41
ATOM     41  C   UNL     1      26.901  32.567  16.309  1.00  0.00     0.364 C 
ATOM     42  O   UNL     1      26.662  32.883  15.091  1.00  0.00    -0.246 OA
BRANCH  41  43
ATOM     43  O   UNL     1      26.159  33.159  17.280  1.00  0.00    -0.477 OA
ATOM     44  H   UNL     1      26.492  33.346  18.212  1.00  0.00     0.296 HD
ENDBRANCH  41  43
ENDBRANCH   1  41
BRANCH   3  45
ATOM     45  O   UNL     1      30.549  30.687  16.915  1.00  0.00    -0.391 OA
ATOM     46  H   UNL     1      31.222  30.035  16.618  1.00  0.00     0.211 HD
ENDBRANCH   3  45
BRANCH   5  47
ATOM     47  C   UNL     1      30.012  33.227  19.072  1.00  0.00     0.176 C 
BRANCH  47  48
ATOM     48  O   UNL     1      31.332  33.570  19.018  1.00  0.00    -0.388 OA
ATOM     49  H   UNL     1      31.906  32.922  18.539  1.00  0.00     0.211 HD
ENDBRANCH  47  48
BRANCH  47  50
ATOM     50  C   UNL     1      29.251  34.224  19.938  1.00  0.00     0.165 C 
BRANCH  50  51
ATOM     51  O   UNL     1      28.117  34.675  19.353  1.00  0.00    -0.388 OA
ATOM     52  H   UNL     1      27.904  34.326  18.463  1.00  0.00     0.211 HD
ENDBRANCH  50  51
BRANCH  50  53
ATOM     53  C   UNL     1      30.211  35.333  20.239  1.00  0.00     0.154 C 
BRANCH  53  54
ATOM     54  N   UNL     1      30.129  36.401  19.292  1.00  0.00    -0.319 N 
ATOM     55  C   UNL     1      31.184  36.854  18.459  1.00  0.00     0.407 C 
ATOM     56  H   UNL     1      29.206  36.946  19.156  1.00  0.00     0.167 HD
ATOM     57  O   UNL     1      32.306  36.309  18.493  1.00  0.00    -0.225 OA
BRANCH  55  58
ATOM     58  O   UNL     1      31.005  37.922  17.575  1.00  0.00    -0.443 OA
BRANCH  58  59
ATOM     59  C   UNL     1      29.759  38.497  17.293  1.00  0.00     0.294 C 
BRANCH  59  60
ATOM     60  C   UNL     1      29.022  37.596  16.342  1.00  0.00     0.121 A 
ATOM     61  C   UNL     1      28.731  37.886  15.007  1.00  0.00     0.144 A 
ATOM     62  N   UNL     1      28.520  36.375  16.559  1.00  0.00    -0.131 NA
ATOM     63  N   UNL     1      28.067  36.836  14.475  1.00  0.00    -0.220 N 
ATOM     64  N   UNL     1      27.965  35.949  15.452  1.00  0.00    -0.062 NA
BRANCH  63  65
ATOM     65  C   UNL     1      27.583  36.688  13.163  1.00  0.00     0.070 A 
ATOM     66  C   UNL     1      28.265  37.221  12.105  1.00  0.00     0.032 A 
ATOM     67  C   UNL     1      26.417  36.002  12.925  1.00  0.00     0.079 A 
ATOM     68  C   UNL     1      27.772  37.061  10.802  1.00  0.00     0.053 A 
ATOM     69  C   UNL     1      25.917  35.837  11.651  1.00  0.00     0.167 A 
ATOM     70  C   UNL     1      26.604  36.372  10.592  1.00  0.00     0.165 A 
ATOM     71  O   UNL     1      24.789  35.198  11.186  1.00  0.00    -0.454 OA
ATOM     72  O   UNL     1      25.903  36.069   9.432  1.00  0.00    -0.454 OA
ATOM     73  C   UNL     1      24.640  35.602   9.819  1.00  0.00     0.468 C 
ENDBRANCH  63  65
ENDBRANCH  59  60
ENDBRANCH  58  59
ENDBRANCH  55  58
ENDBRANCH  53  54
ENDBRANCH  50  53
ENDBRANCH  47  50
ENDBRANCH   5  47
BRANCH   4  74
ATOM     74  N   UNL     1      30.509  34.138  15.747  1.00  0.00    -0.348 N 
ATOM     75  C   UNL     1      31.719  34.805  15.328  1.00  0.00     0.217 C 
ATOM     76  H   UNL     1      29.652  34.502  15.281  1.00  0.00     0.163 HD
ATOM     77  C   UNL     1      31.683  35.898  14.320  1.00  0.00     0.114 C 
ATOM     78  O   UNL     1      32.799  34.457  15.817  1.00  0.00    -0.275 OA
ENDBRANCH   4  74
TORSDOF 30
BEGIN_RES LYS A 131
REMARK  4 active torsions:
REMARK  status: ('A' for Active; 'I' for Inactive)
REMARK    1  A    between atoms: CA   and  CB  
REMARK    2  A    between atoms: CB   and  CG  
REMARK    3  A    between atoms: CG   and  CD  
REMARK    4  A    between atoms: CD   and  CE  
ROOT
ATOM      1  CA  LYS A 131      29.867  25.555  16.977  1.00 20.52     0.186 C 
ENDROOT
BRANCH   1   2
ATOM      2  CB  LYS A 131      28.345  25.722  17.026  1.00 20.94     0.034 C 
BRANCH   2   3
ATOM      3  CG  LYS A 131      27.602  24.399  16.919  1.00 22.96     0.005 C 
BRANCH   3   4
ATOM      4  CD  LYS A 131      26.530  24.266  17.965  1.00 24.33     0.041 C 
BRANCH   4   5
ATOM      5  CE  LYS A 131      25.229  23.818  17.307  1.00 26.91     0.338 C 
ATOM      6  NZ  LYS A 131      24.948  22.398  17.626  1.00 27.40     0.618 N 
ENDBRANCH   4   5
ENDBRANCH   3   4
ENDBRANCH   2   3
ENDBRANCH   1   2
END_RES LYS A 131
BEGIN_RES LYS A 135
REMARK  4 active torsions:
REMARK  status: ('A' for Active; 'I' for Inactive)
REMARK    5  A    between atoms: CA   and  CB  
REMARK    6  A    between atoms: CB   and  CG  
REMARK    7  A    between atoms: CG   and  CD  
REMARK    8  A    between atoms: CD   and  CE  
ROOT
ATOM      7  CA  LYS A 135      33.193  34.663   9.290  1.00 25.02     0.186 C 
ENDROOT
BRANCH   7   8
ATOM      8  CB  LYS A 135      32.060  35.360  10.034  1.00 26.63     0.034 C 
BRANCH   8   9
ATOM      9  CG  LYS A 135      30.814  35.536   9.205  1.00 29.45     0.005 C 
BRANCH   9  10
ATOM     10  CD  LYS A 135      29.983  34.262   9.207  1.00 32.00     0.041 C 
BRANCH  10  11
ATOM     11  CE  LYS A 135      28.776  34.412   8.302  1.00 34.25     0.338 C 
ATOM     12  NZ  LYS A 135      28.884  35.637   7.462  1.00 35.99     0.618 N 
ENDBRANCH  10  11
ENDBRANCH   9  10
ENDBRANCH   8   9
ENDBRANCH   7   8
END_RES LYS A 135
