REMARK VINA RESULT:    -4.214      2.308      5.517
REMARK INTER + INTRA:         -22.329
REMARK INTER:                 -12.359
REMARK INTRA:                  -9.969
REMARK UNBOUND:               -10.971
REMARK SMILES C=CCCCCn1cc(COC(=O)NC[C@@H](O)C(O)[C@@H]2O[C@@](OC[C@H]3O[C@@H](O[C@H]4[C@H](O)[C@@H](O)[C@H](OCCN=[N+]=[N-])O[C@@H]4CO)[C@H](O)[C@@H](O)[C@H]3O)(C(=O)O)C[C@H](O)[C@H]2NC(C)=O)nn1
REMARK SMILES IDX 18 1 20 2 22 3 54 4 21 5 55 6 57 7 23 8 24 9 25 10 27 11
REMARK SMILES IDX 26 12 45 13 47 14 49 15 28 16 29 17 42 18 41 19 34 20 30 21
REMARK SMILES IDX 32 22 43 23 44 24 35 26 36 27 37 28 38 29 39 30 40 31 31 32
REMARK SMILES IDX 33 34 46 36 48 38 50 40 51 42 52 43 53 44 56 46 58 48 59 49
REMARK SMILES IDX 60 51 61 52 19 53 16 55 17 56 15 58 14 59 12 60 13 62 11 63
REMARK SMILES IDX 10 64 9 65 8 66 62 67 7 68 63 69 6 70 5 71 4 72 3 73 2 74
REMARK SMILES IDX 1 75
REMARK H PARENT 44 25 31 33 33 35 46 37 48 39 50 41 53 45 56 47 58 50 19 54
REMARK H PARENT 17 57 14 61
REMARK Flexibility Score: inf
ROOT
ATOM      1  C   UNL     1      30.107  27.892  22.140  1.00  0.00     0.176 C 
ENDROOT
BRANCH   1   2
ATOM      2  C   UNL     1      28.782  28.299  21.488  1.00  0.00     0.178 C 
ATOM      3  C   UNL     1      27.912  29.033  19.490  1.00  0.00     0.272 C 
ATOM      4  C   UNL     1      27.005  29.946  20.205  1.00  0.00     0.113 C 
ATOM      5  O   UNL     1      29.090  28.897  20.319  1.00  0.00    -0.332 OA
ATOM      6  C   UNL     1      26.639  29.548  21.568  1.00  0.00     0.145 C 
ATOM      7  C   UNL     1      27.732  28.829  22.341  1.00  0.00     0.142 C 
BRANCH   3   8
ATOM      8  O   UNL     1      28.496  29.587  18.361  1.00  0.00    -0.338 OA
BRANCH   8   9
ATOM      9  C   UNL     1      27.811  30.196  17.414  1.00  0.00     0.199 C 
BRANCH   9  10
ATOM     10  C   UNL     1      28.305  31.427  16.756  1.00  0.00     0.179 C 
ATOM     11  C   UNL     1      29.434  33.409  17.290  1.00  0.00     0.282 C 
ATOM     12  O   UNL     1      28.591  32.422  17.721  1.00  0.00    -0.341 OA
ATOM     13  C   UNL     1      29.573  33.499  15.821  1.00  0.00     0.202 C 
ATOM     14  C   UNL     1      29.934  32.204  15.144  1.00  0.00     0.179 C 
ATOM     15  C   UNL     1      29.628  31.079  16.085  1.00  0.00     0.177 C 
BRANCH  11  16
ATOM     16  O   UNL     1      30.574  33.348  18.046  1.00  0.00    -0.341 OA
BRANCH  16  17
ATOM     17  C   UNL     1      30.579  34.036  19.222  1.00  0.00     0.184 C 
ATOM     18  C   UNL     1      31.983  34.052  19.778  1.00  0.00     0.178 C 
ATOM     19  O   UNL     1      31.975  33.894  21.173  1.00  0.00    -0.341 OA
ATOM     20  C   UNL     1      31.747  32.546  21.430  1.00  0.00     0.281 C 
ATOM     21  C   UNL     1      29.720  33.324  20.293  1.00  0.00     0.180 C 
ATOM     22  C   UNL     1      30.454  32.108  20.810  1.00  0.00     0.202 C 
BRANCH  18  23
ATOM     23  C   UNL     1      32.762  35.297  19.388  1.00  0.00     0.191 C 
BRANCH  23  24
ATOM     24  O   UNL     1      34.072  35.218  19.826  1.00  0.00    -0.394 OA
ATOM     25  H   UNL     1      34.375  34.282  19.760  1.00  0.00     0.210 HD
ENDBRANCH  23  24
ENDBRANCH  18  23
BRANCH  20  26
ATOM     26  O   UNL     1      31.698  32.407  22.818  1.00  0.00    -0.350 OA
BRANCH  26  27
ATOM     27  C   UNL     1      30.842  31.409  23.246  1.00  0.00     0.169 C 
BRANCH  27  28
ATOM     28  C   UNL     1      29.996  31.988  24.366  1.00  0.00     0.119 C 
BRANCH  28  29
ATOM     29  N   UNL     1      28.589  31.829  24.112  1.00  0.00    -0.092 NA
ATOM     30  N   UNL     1      27.746  32.161  24.937  1.00  0.00     0.001 N 
ATOM     31  N   UNL     1      27.008  32.697  25.764  1.00  0.00    -0.003 NA
ENDBRANCH  28  29
ENDBRANCH  27  28
ENDBRANCH  26  27
ENDBRANCH  20  26
BRANCH  21  32
ATOM     32  O   UNL     1      29.612  34.225  21.350  1.00  0.00    -0.387 OA
ATOM     33  H   UNL     1      28.707  34.312  21.713  1.00  0.00     0.211 HD
ENDBRANCH  21  32
BRANCH  22  34
ATOM     34  O   UNL     1      30.614  31.166  19.798  1.00  0.00    -0.385 OA
ATOM     35  H   UNL     1      29.786  31.186  19.245  1.00  0.00     0.211 HD
ENDBRANCH  22  34
ENDBRANCH  16  17
ENDBRANCH  11  16
BRANCH  13  36
ATOM     36  O   UNL     1      28.340  33.921  15.303  1.00  0.00    -0.385 OA
ATOM     37  H   UNL     1      27.838  34.468  15.934  1.00  0.00     0.211 HD
ENDBRANCH  13  36
BRANCH  14  38
ATOM     38  O   UNL     1      31.267  32.178  14.730  1.00  0.00    -0.387 OA
ATOM     39  H   UNL     1      31.758  32.798  15.306  1.00  0.00     0.211 HD
ENDBRANCH  14  38
BRANCH  15  40
ATOM     40  O   UNL     1      30.635  30.900  17.042  1.00  0.00    -0.387 OA
ATOM     41  H   UNL     1      31.534  30.984  16.675  1.00  0.00     0.211 HD
ENDBRANCH  15  40
ENDBRANCH   9  10
ENDBRANCH   8   9
ENDBRANCH   3   8
BRANCH   3  42
ATOM     42  C   UNL     1      27.384  27.680  19.379  1.00  0.00     0.364 C 
ATOM     43  O   UNL     1      26.175  27.476  19.133  1.00  0.00    -0.246 OA
BRANCH  42  44
ATOM     44  O   UNL     1      28.164  26.574  19.545  1.00  0.00    -0.477 OA
ATOM     45  H   UNL     1      29.005  26.587  20.093  1.00  0.00     0.296 HD
ENDBRANCH  42  44
ENDBRANCH   3  42
BRANCH   6  46
ATOM     46  O   UNL     1      26.228  30.700  22.282  1.00  0.00    -0.391 OA
ATOM     47  H   UNL     1      26.525  31.533  21.836  1.00  0.00     0.211 HD
ENDBRANCH   6  46
BRANCH   7  48
ATOM     48  N   UNL     1      27.118  27.734  23.116  1.00  0.00    -0.348 N 
ATOM     49  C   UNL     1      27.210  27.636  24.524  1.00  0.00     0.217 C 
ATOM     50  H   UNL     1      26.575  26.959  22.645  1.00  0.00     0.163 HD
ATOM     51  C   UNL     1      26.568  26.484  25.259  1.00  0.00     0.114 C 
ATOM     52  O   UNL     1      27.838  28.524  25.153  1.00  0.00    -0.275 OA
ENDBRANCH   7  48
ENDBRANCH   1   2
BRANCH   1  53
ATOM     53  O   UNL     1      29.970  26.411  22.277  1.00  0.00    -0.388 OA
ATOM     54  H   UNL     1      29.006  26.312  21.991  1.00  0.00     0.211 HD
ENDBRANCH   1  53
BRANCH   1  55
ATOM     55  C   UNL     1      31.287  27.978  21.281  1.00  0.00     0.165 C 
BRANCH  55  56
ATOM     56  O   UNL     1      31.351  27.027  20.237  1.00  0.00    -0.388 OA
ATOM     57  H   UNL     1      30.539  26.474  20.346  1.00  0.00     0.211 HD
ENDBRANCH  55  56
BRANCH  55  58
ATOM     58  C   UNL     1      32.621  28.134  21.881  1.00  0.00     0.154 C 
BRANCH  58  59
ATOM     59  N   UNL     1      33.275  29.361  21.636  1.00  0.00    -0.319 N 
ATOM     60  C   UNL     1      34.404  29.947  22.220  1.00  0.00     0.407 C 
ATOM     61  H   UNL     1      32.827  29.966  20.849  1.00  0.00     0.167 HD
ATOM     62  O   UNL     1      35.024  29.381  23.135  1.00  0.00    -0.225 OA
BRANCH  60  63
ATOM     63  O   UNL     1      34.881  31.195  21.794  1.00  0.00    -0.443 OA
BRANCH  63  64
ATOM     64  C   UNL     1      36.229  31.541  22.113  1.00  0.00     0.294 C 
BRANCH  64  65
ATOM     65  C   UNL     1      36.757  32.538  21.146  1.00  0.00     0.120 A 
ATOM     66  C   UNL     1      37.881  32.345  20.344  1.00  0.00     0.138 A 
ATOM     67  N   UNL     1      36.303  33.765  20.851  1.00  0.00    -0.132 NA
ATOM     68  N   UNL     1      38.046  33.453  19.614  1.00  0.00    -0.252 N 
ATOM     69  N   UNL     1      37.099  34.301  19.920  1.00  0.00    -0.067 NA
BRANCH  68  70
ATOM     70  C   UNL     1      39.134  33.629  18.642  1.00  0.00     0.146 C 
BRANCH  70  71
ATOM     71  C   UNL     1      38.589  33.400  17.257  1.00  0.00     0.024 C 
BRANCH  71  72
ATOM     72  C   UNL     1      39.003  34.565  16.385  1.00  0.00     0.006 C 
BRANCH  72  73
ATOM     73  C   UNL     1      37.917  34.862  15.376  1.00  0.00     0.027 C 
BRANCH  73  74
ATOM     74  C   UNL     1      37.812  33.787  14.364  1.00  0.00    -0.035 C 
ATOM     75  C   UNL     1      38.304  33.960  13.153  1.00  0.00     0.004 C 
ENDBRANCH  73  74
ENDBRANCH  72  73
ENDBRANCH  71  72
ENDBRANCH  70  71
ENDBRANCH  68  70
ENDBRANCH  64  65
ENDBRANCH  63  64
ENDBRANCH  60  63
ENDBRANCH  58  59
ENDBRANCH  55  58
ENDBRANCH   1  55
TORSDOF 34
BEGIN_RES LYS A 131
REMARK  4 active torsions:
REMARK  status: ('A' for Active; 'I' for Inactive)
REMARK    1  A    between atoms: CA   and  CB  
REMARK    2  A    between atoms: CB   and  CG  
REMARK    3  A    between atoms: CG   and  CD  
REMARK    4  A    between atoms: CD   and  CE  
ROOT
ATOM      1  CA  LYS A 131      29.867  25.555  16.977  1.00 20.52     0.186 C 
ENDROOT
BRANCH   1   2
ATOM      2  CB  LYS A 131      28.345  25.722  17.026  1.00 20.94     0.034 C 
BRANCH   2   3
ATOM      3  CG  LYS A 131      27.601  24.400  16.907  1.00 22.96     0.005 C 
BRANCH   3   4
ATOM      4  CD  LYS A 131      26.160  24.523  17.316  1.00 24.33     0.041 C 
BRANCH   4   5
ATOM      5  CE  LYS A 131      25.961  23.876  18.683  1.00 26.91     0.338 C 
ATOM      6  NZ  LYS A 131      24.991  22.759  18.592  1.00 27.40     0.618 N 
ENDBRANCH   4   5
ENDBRANCH   3   4
ENDBRANCH   2   3
ENDBRANCH   1   2
END_RES LYS A 131
BEGIN_RES LYS A 135
REMARK  4 active torsions:
REMARK  status: ('A' for Active; 'I' for Inactive)
REMARK    5  A    between atoms: CA   and  CB  
REMARK    6  A    between atoms: CB   and  CG  
REMARK    7  A    between atoms: CG   and  CD  
REMARK    8  A    between atoms: CD   and  CE  
ROOT
ATOM      7  CA  LYS A 135      33.193  34.663   9.290  1.00 25.02     0.186 C 
ENDROOT
BRANCH   7   8
ATOM      8  CB  LYS A 135      32.060  35.360  10.034  1.00 26.63     0.034 C 
BRANCH   8   9
ATOM      9  CG  LYS A 135      30.710  34.733   9.800  1.00 29.45     0.005 C 
BRANCH   9  10
ATOM     10  CD  LYS A 135      30.466  34.523   8.314  1.00 32.00     0.041 C 
BRANCH  10  11
ATOM     11  CE  LYS A 135      29.018  34.813   7.966  1.00 34.25     0.338 C 
ATOM     12  NZ  LYS A 135      28.911  35.516   6.658  1.00 35.99     0.618 N 
ENDBRANCH  10  11
ENDBRANCH   9  10
ENDBRANCH   8   9
ENDBRANCH   7   8
END_RES LYS A 135
