REMARK VINA RESULT:    -4.859      5.039     11.345
REMARK INTER + INTRA:         -25.656
REMARK INTER:                 -12.969
REMARK INTRA:                 -12.688
REMARK UNBOUND:               -12.132
REMARK SMILES CCOCCc1c(-c2ccccc2)nc(N)nc1-n1cc(COC(=O)NC[C@@H](O)C(O)[C@@H]2O[C@@](OC[C@H]3O[C@@H](O[C@H]4[C@H](O)[C@@H](O)[C@H](OCCN=[N+]=[N-])O[C@@H]4CO)[C@H](O)[C@@H](O)[C@H]3O)(C(=O)O)C[C@H](O)[C@H]2NC(C)=O)nn1
REMARK SMILES IDX 30 1 32 2 34 3 66 4 33 5 67 6 69 7 35 8 36 9 37 10 39 11
REMARK SMILES IDX 38 12 57 13 59 14 61 15 40 16 41 17 54 18 53 19 46 20 42 21
REMARK SMILES IDX 44 22 55 23 56 24 47 26 48 27 49 28 50 29 51 30 52 31 43 32
REMARK SMILES IDX 45 34 58 36 60 38 62 40 63 42 64 43 65 44 68 46 70 48 71 49
REMARK SMILES IDX 72 51 73 52 31 53 28 55 29 56 27 58 26 59 24 60 25 62 23 63
REMARK SMILES IDX 22 64 21 65 20 66 74 67 19 68 75 69 18 70 17 71 6 72 15 73
REMARK SMILES IDX 7 74 14 75 5 76 4 77 3 78 2 79 1 80 16 81 8 84 9 85 13 86
REMARK SMILES IDX 10 87 12 88 11 89
REMARK H PARENT 56 25 43 33 45 35 58 37 60 39 62 41 65 45 68 47 70 50 31 54
REMARK H PARENT 29 57 26 61 16 82 16 83
REMARK Flexibility Score: inf
ROOT
ATOM      1  C   UNL     1      18.715  34.723  11.247  1.00  0.00     0.176 C 
ENDROOT
BRANCH   1   2
ATOM      2  C   UNL     1      19.633  34.880  10.073  1.00  0.00     0.178 C 
ATOM      3  C   UNL     1      21.710  35.887   9.682  1.00  0.00     0.272 C 
ATOM      4  C   UNL     1      21.470  35.302   8.289  1.00  0.00     0.113 C 
ATOM      5  O   UNL     1      20.841  35.427  10.604  1.00  0.00    -0.332 OA
ATOM      6  C   UNL     1      20.085  35.571   7.785  1.00  0.00     0.145 C 
ATOM      7  C   UNL     1      19.195  35.807   8.993  1.00  0.00     0.142 C 
BRANCH   3   8
ATOM      8  O   UNL     1      21.746  37.257   9.542  1.00  0.00    -0.338 OA
BRANCH   8   9
ATOM      9  C   UNL     1      21.708  37.981  10.704  1.00  0.00     0.199 C 
BRANCH   9  10
ATOM     10  C   UNL     1      21.758  39.481  10.453  1.00  0.00     0.179 C 
ATOM     11  C   UNL     1      22.753  40.813   8.816  1.00  0.00     0.282 C 
ATOM     12  O   UNL     1      22.836  39.741   9.658  1.00  0.00    -0.341 OA
ATOM     13  C   UNL     1      21.537  40.558   7.915  1.00  0.00     0.202 C 
ATOM     14  C   UNL     1      20.340  40.816   8.829  1.00  0.00     0.179 C 
ATOM     15  C   UNL     1      20.465  40.113  10.135  1.00  0.00     0.177 C 
BRANCH  11  16
ATOM     16  O   UNL     1      23.919  40.945   8.098  1.00  0.00    -0.341 OA
BRANCH  16  17
ATOM     17  C   UNL     1      24.842  39.959   8.404  1.00  0.00     0.184 C 
ATOM     18  C   UNL     1      26.165  40.544   8.763  1.00  0.00     0.178 C 
ATOM     19  O   UNL     1      27.183  40.347   7.883  1.00  0.00    -0.341 OA
ATOM     20  C   UNL     1      27.347  39.117   7.330  1.00  0.00     0.281 C 
ATOM     21  C   UNL     1      24.911  38.916   7.329  1.00  0.00     0.180 C 
ATOM     22  C   UNL     1      26.208  38.160   7.449  1.00  0.00     0.202 C 
BRANCH  18  23
ATOM     23  C   UNL     1      26.564  40.203  10.199  1.00  0.00     0.191 C 
BRANCH  23  24
ATOM     24  O   UNL     1      25.526  39.590  10.879  1.00  0.00    -0.394 OA
ATOM     25  H   UNL     1      25.859  38.712  11.197  1.00  0.00     0.210 HD
ENDBRANCH  23  24
ENDBRANCH  18  23
BRANCH  20  26
ATOM     26  O   UNL     1      28.481  38.546   7.897  1.00  0.00    -0.350 OA
BRANCH  26  27
ATOM     27  C   UNL     1      29.599  38.600   7.101  1.00  0.00     0.169 C 
BRANCH  27  28
ATOM     28  C   UNL     1      30.613  39.632   7.530  1.00  0.00     0.119 C 
BRANCH  28  29
ATOM     29  N   UNL     1      31.519  39.025   8.503  1.00  0.00    -0.092 NA
ATOM     30  N   UNL     1      31.177  38.842   9.678  1.00  0.00     0.001 N 
ATOM     31  N   UNL     1      30.741  38.844  10.828  1.00  0.00    -0.003 NA
ENDBRANCH  28  29
ENDBRANCH  27  28
ENDBRANCH  26  27
ENDBRANCH  20  26
BRANCH  21  32
ATOM     32  O   UNL     1      23.864  37.994   7.412  1.00  0.00    -0.387 OA
ATOM     33  H   UNL     1      24.048  37.179   6.872  1.00  0.00     0.211 HD
ENDBRANCH  21  32
BRANCH  22  34
ATOM     34  O   UNL     1      26.271  37.263   6.384  1.00  0.00    -0.385 OA
ATOM     35  H   UNL     1      25.378  36.928   6.120  1.00  0.00     0.211 HD
ENDBRANCH  22  34
ENDBRANCH  16  17
ENDBRANCH  11  16
BRANCH  13  36
ATOM     36  O   UNL     1      21.490  41.402   6.833  1.00  0.00    -0.385 OA
ATOM     37  H   UNL     1      21.274  42.337   7.102  1.00  0.00     0.211 HD
ENDBRANCH  13  36
BRANCH  14  38
ATOM     38  O   UNL     1      19.130  40.662   8.194  1.00  0.00    -0.387 OA
ATOM     39  H   UNL     1      18.448  41.324   8.522  1.00  0.00     0.211 HD
ENDBRANCH  14  38
BRANCH  15  40
ATOM     40  O   UNL     1      19.455  39.127  10.181  1.00  0.00    -0.387 OA
ATOM     41  H   UNL     1      19.412  38.667   9.304  1.00  0.00     0.211 HD
ENDBRANCH  15  40
ENDBRANCH   9  10
ENDBRANCH   8   9
ENDBRANCH   3   8
BRANCH   3  42
ATOM     42  C   UNL     1      23.080  35.394  10.029  1.00  0.00     0.364 C 
ATOM     43  O   UNL     1      23.949  35.526   9.096  1.00  0.00    -0.246 OA
BRANCH  42  44
ATOM     44  O   UNL     1      23.449  34.840  11.222  1.00  0.00    -0.477 OA
ATOM     45  H   UNL     1      22.763  34.757  11.967  1.00  0.00     0.296 HD
ENDBRANCH  42  44
ENDBRANCH   3  42
BRANCH   6  46
ATOM     46  O   UNL     1      20.160  36.710   6.968  1.00  0.00    -0.391 OA
ATOM     47  H   UNL     1      19.993  36.496   6.029  1.00  0.00     0.211 HD
ENDBRANCH   6  46
BRANCH   7  48
ATOM     48  N   UNL     1      17.810  35.782   8.638  1.00  0.00    -0.348 N 
ATOM     49  C   UNL     1      17.074  36.929   8.241  1.00  0.00     0.217 C 
ATOM     50  H   UNL     1      17.335  34.853   8.664  1.00  0.00     0.163 HD
ATOM     51  C   UNL     1      15.646  36.786   7.895  1.00  0.00     0.114 C 
ATOM     52  O   UNL     1      17.637  38.043   8.187  1.00  0.00    -0.275 OA
ENDBRANCH   7  48
ENDBRANCH   1   2
BRANCH   1  53
ATOM     53  O   UNL     1      18.608  36.038  11.817  1.00  0.00    -0.388 OA
ATOM     54  H   UNL     1      19.039  35.977  12.695  1.00  0.00     0.211 HD
ENDBRANCH   1  53
BRANCH   1  55
ATOM     55  C   UNL     1      19.108  33.818  12.344  1.00  0.00     0.165 C 
BRANCH  55  56
ATOM     56  O   UNL     1      20.131  34.516  13.050  1.00  0.00    -0.388 OA
ATOM     57  H   UNL     1      20.959  34.003  12.967  1.00  0.00     0.211 HD
ENDBRANCH  55  56
BRANCH  55  58
ATOM     58  C   UNL     1      19.616  32.483  11.992  1.00  0.00     0.154 C 
BRANCH  58  59
ATOM     59  N   UNL     1      20.934  32.187  12.399  1.00  0.00    -0.319 N 
ATOM     60  C   UNL     1      21.524  30.910  12.432  1.00  0.00     0.407 C 
ATOM     61  H   UNL     1      21.610  32.971  12.730  1.00  0.00     0.167 HD
ATOM     62  O   UNL     1      20.907  29.876  12.093  1.00  0.00    -0.225 OA
BRANCH  60  63
ATOM     63  O   UNL     1      22.846  30.707  12.845  1.00  0.00    -0.443 OA
BRANCH  63  64
ATOM     64  C   UNL     1      23.231  30.802  14.200  1.00  0.00     0.294 C 
BRANCH  64  65
ATOM     65  C   UNL     1      24.083  31.990  14.444  1.00  0.00     0.121 A 
ATOM     66  C   UNL     1      24.896  32.625  13.542  1.00  0.00     0.146 A 
ATOM     67  N   UNL     1      24.246  32.667  15.603  1.00  0.00    -0.131 NA
ATOM     68  N   UNL     1      25.544  33.677  14.170  1.00  0.00    -0.202 N 
ATOM     69  N   UNL     1      25.110  33.644  15.394  1.00  0.00    -0.060 NA
BRANCH  68  70
ATOM     70  C   UNL     1      26.450  34.457  13.431  1.00  0.00     0.164 A 
ATOM     71  N   UNL     1      25.982  35.169  12.376  1.00  0.00    -0.193 NA
ATOM     72  C   UNL     1      27.805  34.616  13.756  1.00  0.00     0.026 A 
ATOM     73  C   UNL     1      26.737  35.998  11.653  1.00  0.00     0.222 A 
ATOM     74  C   UNL     1      28.594  35.461  13.035  1.00  0.00     0.081 A 
ATOM     75  N   UNL     1      28.022  36.138  11.983  1.00  0.00    -0.213 NA
BRANCH  72  76
ATOM     76  C   UNL     1      28.312  33.742  14.821  1.00  0.00     0.070 C 
BRANCH  76  77
ATOM     77  C   UNL     1      28.526  34.437  16.148  1.00  0.00     0.165 C 
BRANCH  77  78
ATOM     78  O   UNL     1      29.155  33.728  17.125  1.00  0.00    -0.381 OA
BRANCH  78  79
ATOM     79  C   UNL     1      30.384  34.147  17.536  1.00  0.00     0.156 C 
ATOM     80  C   UNL     1      31.484  33.689  16.564  1.00  0.00     0.035 C 
ENDBRANCH  78  79
ENDBRANCH  77  78
ENDBRANCH  76  77
ENDBRANCH  72  76
BRANCH  73  81
ATOM     81  N   UNL     1      26.196  36.726  10.546  1.00  0.00    -0.368 N 
ATOM     82  H   UNL     1      25.623  36.238   9.828  1.00  0.00     0.159 HD
ATOM     83  H   UNL     1      26.345  37.741  10.416  1.00  0.00     0.159 HD
ENDBRANCH  73  81
BRANCH  74  84
ATOM     84  C   UNL     1      29.991  35.700  13.320  1.00  0.00     0.001 A 
ATOM     85  C   UNL     1      30.316  36.799  14.112  1.00  0.00     0.010 A 
ATOM     86  C   UNL     1      30.997  34.869  12.861  1.00  0.00     0.010 A 
ATOM     87  C   UNL     1      31.633  37.079  14.452  1.00  0.00     0.001 A 
ATOM     88  C   UNL     1      32.294  35.165  13.209  1.00  0.00     0.001 A 
ATOM     89  C   UNL     1      32.624  36.245  13.989  1.00  0.00     0.000 A 
ENDBRANCH  74  84
ENDBRANCH  68  70
ENDBRANCH  64  65
ENDBRANCH  63  64
ENDBRANCH  60  63
ENDBRANCH  58  59
ENDBRANCH  55  58
ENDBRANCH   1  55
TORSDOF 36
BEGIN_RES LYS A 131
REMARK  4 active torsions:
REMARK  status: ('A' for Active; 'I' for Inactive)
REMARK    1  A    between atoms: CA   and  CB  
REMARK    2  A    between atoms: CB   and  CG  
REMARK    3  A    between atoms: CG   and  CD  
REMARK    4  A    between atoms: CD   and  CE  
ROOT
ATOM      1  CA  LYS A 131      29.867  25.555  16.977  1.00 20.52     0.186 C 
ENDROOT
BRANCH   1   2
ATOM      2  CB  LYS A 131      28.345  25.722  17.026  1.00 20.94     0.034 C 
BRANCH   2   3
ATOM      3  CG  LYS A 131      27.599  24.435  16.708  1.00 22.96     0.005 C 
BRANCH   3   4
ATOM      4  CD  LYS A 131      26.990  23.816  17.935  1.00 24.33     0.041 C 
BRANCH   4   5
ATOM      5  CE  LYS A 131      25.621  23.239  17.588  1.00 26.91     0.338 C 
ATOM      6  NZ  LYS A 131      24.776  24.266  16.933  1.00 27.40     0.618 N 
ENDBRANCH   4   5
ENDBRANCH   3   4
ENDBRANCH   2   3
ENDBRANCH   1   2
END_RES LYS A 131
BEGIN_RES LYS A 135
REMARK  4 active torsions:
REMARK  status: ('A' for Active; 'I' for Inactive)
REMARK    5  A    between atoms: CA   and  CB  
REMARK    6  A    between atoms: CB   and  CG  
REMARK    7  A    between atoms: CG   and  CD  
REMARK    8  A    between atoms: CD   and  CE  
ROOT
ATOM      7  CA  LYS A 135      33.193  34.663   9.290  1.00 25.02     0.186 C 
ENDROOT
BRANCH   7   8
ATOM      8  CB  LYS A 135      32.060  35.360  10.034  1.00 26.63     0.034 C 
BRANCH   8   9
ATOM      9  CG  LYS A 135      30.760  35.378   9.272  1.00 29.45     0.005 C 
BRANCH   9  10
ATOM     10  CD  LYS A 135      30.162  33.982   9.198  1.00 32.00     0.041 C 
BRANCH  10  11
ATOM     11  CE  LYS A 135      28.648  34.054   9.130  1.00 34.25     0.338 C 
ATOM     12  NZ  LYS A 135      28.202  34.910   7.997  1.00 35.99     0.618 N 
ENDBRANCH  10  11
ENDBRANCH   9  10
ENDBRANCH   8   9
ENDBRANCH   7   8
END_RES LYS A 135
