REMARK VINA RESULT:    -5.510      4.527      9.972
REMARK INTER + INTRA:         -21.459
REMARK INTER:                 -10.728
REMARK INTRA:                 -10.731
REMARK UNBOUND:                -7.575
REMARK SMILES CC(=O)N[C@@H]1[C@@H](O)C[C@](OC[C@H]2O[C@@H](O[C@H]3[C@H](O)[C@@H](O)[C@H](OCCN=[N+]=[N-])O[C@@H]3CO)[C@H](O)[C@@H](O)[C@H]2O)(C(=O)O)O[C@H]1C(O)[C@H](O)CNC(=O)OCc1cn(Cc2ccccc2Br)nn1
REMARK SMILES IDX 9 1 8 2 6 3 5 4 42 5 41 6 10 7 11 8 12 9 14 10 13 11 32 12
REMARK SMILES IDX 34 13 36 14 15 15 16 16 29 17 28 18 21 19 17 20 19 21 30 22
REMARK SMILES IDX 31 23 22 25 23 26 24 27 25 28 26 29 27 30 18 31 20 33 33 35
REMARK SMILES IDX 35 37 37 39 38 41 39 42 40 43 7 45 43 47 44 48 45 50 46 51
REMARK SMILES IDX 47 53 48 54 49 55 50 57 51 58 52 59 53 60 54 61 65 62 55 63
REMARK SMILES IDX 64 64 56 65 57 66 58 67 62 68 59 69 61 70 63 71 60 72 4 73
REMARK SMILES IDX 2 74 1 76 3 77
REMARK H PARENT 31 24 18 32 20 34 33 36 35 38 37 40 40 44 7 46 44 49 46 52
REMARK H PARENT 48 56 4 75
REMARK Flexibility Score: inf
ROOT
ATOM      1  C   UNL     1      23.328  38.940   8.472  1.00  0.00     0.272 C 
ATOM      2  C   UNL     1      22.773  39.884   9.464  1.00  0.00     0.113 C 
ATOM      3  C   UNL     1      21.875  39.199  10.430  1.00  0.00     0.145 C 
ATOM      4  C   UNL     1      22.627  38.087  11.106  1.00  0.00     0.142 C 
ATOM      5  C   UNL     1      23.611  37.403  10.238  1.00  0.00     0.178 C 
ATOM      6  O   UNL     1      24.244  38.119   9.284  1.00  0.00    -0.332 OA
ENDROOT
BRANCH   1   7
ATOM      7  O   UNL     1      24.133  39.477   7.537  1.00  0.00    -0.338 OA
BRANCH   7   8
ATOM      8  C   UNL     1      25.178  40.231   7.651  1.00  0.00     0.199 C 
BRANCH   8   9
ATOM      9  C   UNL     1      26.581  39.971   7.327  1.00  0.00     0.179 C 
ATOM     10  C   UNL     1      28.628  39.086   7.866  1.00  0.00     0.282 C 
ATOM     11  O   UNL     1      27.228  38.952   8.033  1.00  0.00    -0.341 OA
ATOM     12  C   UNL     1      28.940  38.542   6.500  1.00  0.00     0.202 C 
ATOM     13  C   UNL     1      28.062  39.141   5.457  1.00  0.00     0.179 C 
ATOM     14  C   UNL     1      27.045  40.144   5.926  1.00  0.00     0.177 C 
BRANCH  10  15
ATOM     15  O   UNL     1      29.209  38.382   8.878  1.00  0.00    -0.341 OA
BRANCH  15  16
ATOM     16  C   UNL     1      29.719  39.075   9.933  1.00  0.00     0.184 C 
ATOM     17  C   UNL     1      29.553  40.554   9.896  1.00  0.00     0.178 C 
ATOM     18  O   UNL     1      30.788  41.140  10.163  1.00  0.00    -0.341 OA
ATOM     19  C   UNL     1      31.628  40.780   9.079  1.00  0.00     0.281 C 
ATOM     20  C   UNL     1      31.162  38.710  10.246  1.00  0.00     0.180 C 
ATOM     21  C   UNL     1      32.114  39.367   9.267  1.00  0.00     0.202 C 
BRANCH  17  22
ATOM     22  C   UNL     1      28.598  41.057  10.976  1.00  0.00     0.191 C 
BRANCH  22  23
ATOM     23  O   UNL     1      29.120  40.807  12.245  1.00  0.00    -0.394 OA
ATOM     24  H   UNL     1      29.582  41.589  12.624  1.00  0.00     0.210 HD
ENDBRANCH  22  23
ENDBRANCH  17  22
BRANCH  19  25
ATOM     25  O   UNL     1      32.655  41.719   9.070  1.00  0.00    -0.350 OA
BRANCH  25  26
ATOM     26  C   UNL     1      32.724  42.400   7.854  1.00  0.00     0.169 C 
BRANCH  26  27
ATOM     27  C   UNL     1      34.144  42.271   7.331  1.00  0.00     0.119 C 
BRANCH  27  28
ATOM     28  N   UNL     1      34.075  41.865   5.950  1.00  0.00    -0.092 NA
ATOM     29  N   UNL     1      33.356  40.931   5.582  1.00  0.00     0.001 N 
ATOM     30  N   UNL     1      32.964  39.758   5.418  1.00  0.00    -0.003 NA
ENDBRANCH  27  28
ENDBRANCH  26  27
ENDBRANCH  25  26
ENDBRANCH  19  25
BRANCH  20  31
ATOM     31  O   UNL     1      31.528  39.171  11.512  1.00  0.00    -0.387 OA
ATOM     32  H   UNL     1      31.350  40.153  11.514  1.00  0.00     0.211 HD
ENDBRANCH  20  31
BRANCH  21  33
ATOM     33  O   UNL     1      32.263  38.663   8.100  1.00  0.00    -0.385 OA
ATOM     34  H   UNL     1      31.379  38.376   7.772  1.00  0.00     0.211 HD
ENDBRANCH  21  33
ENDBRANCH  15  16
ENDBRANCH  10  15
BRANCH  12  35
ATOM     35  O   UNL     1      30.260  38.841   6.123  1.00  0.00    -0.385 OA
ATOM     36  H   UNL     1      30.844  38.267   6.669  1.00  0.00     0.211 HD
ENDBRANCH  12  35
BRANCH  13  37
ATOM     37  O   UNL     1      27.379  38.112   4.793  1.00  0.00    -0.387 OA
ATOM     38  H   UNL     1      27.073  38.383   3.904  1.00  0.00     0.211 HD
ENDBRANCH  13  37
BRANCH  14  39
ATOM     39  O   UNL     1      26.011  40.123   5.003  1.00  0.00    -0.387 OA
ATOM     40  H   UNL     1      26.247  39.869   4.100  1.00  0.00     0.211 HD
ENDBRANCH  14  39
ENDBRANCH   8   9
ENDBRANCH   7   8
ENDBRANCH   1   7
BRANCH   1  41
ATOM     41  C   UNL     1      22.435  37.887   7.945  1.00  0.00     0.364 C 
ATOM     42  O   UNL     1      22.783  36.768   7.506  1.00  0.00    -0.246 OA
BRANCH  41  43
ATOM     43  O   UNL     1      21.072  38.132   7.910  1.00  0.00    -0.477 OA
ATOM     44  H   UNL     1      20.432  37.543   7.375  1.00  0.00     0.296 HD
ENDBRANCH  41  43
ENDBRANCH   1  41
BRANCH   3  45
ATOM     45  O   UNL     1      21.567  40.187  11.421  1.00  0.00    -0.391 OA
ATOM     46  H   UNL     1      20.609  40.382  11.427  1.00  0.00     0.211 HD
ENDBRANCH   3  45
BRANCH   5  47
ATOM     47  C   UNL     1      24.706  36.776  11.107  1.00  0.00     0.176 C 
BRANCH  47  48
ATOM     48  O   UNL     1      24.363  37.007  12.431  1.00  0.00    -0.388 OA
ATOM     49  H   UNL     1      24.433  36.219  12.997  1.00  0.00     0.211 HD
ENDBRANCH  47  48
BRANCH  47  50
ATOM     50  C   UNL     1      26.054  37.345  10.836  1.00  0.00     0.165 C 
BRANCH  50  51
ATOM     51  O   UNL     1      26.616  36.829   9.656  1.00  0.00    -0.388 OA
ATOM     52  H   UNL     1      26.703  35.843   9.721  1.00  0.00     0.211 HD
ENDBRANCH  50  51
BRANCH  50  53
ATOM     53  C   UNL     1      27.016  36.977  11.936  1.00  0.00     0.154 C 
BRANCH  53  54
ATOM     54  N   UNL     1      27.471  38.137  12.617  1.00  0.00    -0.319 N 
ATOM     55  C   UNL     1      26.985  38.566  13.869  1.00  0.00     0.407 C 
ATOM     56  H   UNL     1      28.228  38.716  12.146  1.00  0.00     0.167 HD
ATOM     57  O   UNL     1      26.092  37.927  14.479  1.00  0.00    -0.225 OA
BRANCH  55  58
ATOM     58  O   UNL     1      27.477  39.724  14.485  1.00  0.00    -0.443 OA
BRANCH  58  59
ATOM     59  C   UNL     1      28.369  39.664  15.565  1.00  0.00     0.294 C 
BRANCH  59  60
ATOM     60  C   UNL     1      29.614  38.912  15.286  1.00  0.00     0.120 A 
ATOM     61  C   UNL     1      30.286  38.131  16.241  1.00  0.00     0.138 A 
ATOM     62  N   UNL     1      30.332  38.804  14.166  1.00  0.00    -0.132 NA
ATOM     63  N   UNL     1      31.356  37.601  15.660  1.00  0.00    -0.248 N 
ATOM     64  N   UNL     1      31.368  38.024  14.392  1.00  0.00    -0.067 NA
BRANCH  63  65
ATOM     65  C   UNL     1      32.367  36.706  16.221  1.00  0.00     0.182 C 
BRANCH  65  66
ATOM     66  C   UNL     1      31.967  35.283  16.211  1.00  0.00    -0.012 A 
ATOM     67  C   UNL     1      31.292  34.800  17.343  1.00  0.00     0.007 A 
ATOM     68  C   UNL     1      32.235  34.412  15.190  1.00  0.00     0.023 A 
ATOM     69  C   UNL     1      30.931  33.488  17.387  1.00  0.00     0.000 A 
ATOM     70  C   UNL     1      31.862  33.079  15.251  1.00  0.00     0.016 A 
ATOM     71  Br  UNL     1      33.092  35.016  13.605  1.00  0.00    -0.050 Br
ATOM     72  C   UNL     1      31.205  32.623  16.363  1.00  0.00     0.001 A 
ENDBRANCH  65  66
ENDBRANCH  63  65
ENDBRANCH  59  60
ENDBRANCH  58  59
ENDBRANCH  55  58
ENDBRANCH  53  54
ENDBRANCH  50  53
ENDBRANCH  47  50
ENDBRANCH   5  47
BRANCH   4  73
ATOM     73  N   UNL     1      21.683  37.138  11.637  1.00  0.00    -0.348 N 
ATOM     74  C   UNL     1      21.230  37.154  12.990  1.00  0.00     0.217 C 
ATOM     75  H   UNL     1      21.278  36.378  11.051  1.00  0.00     0.163 HD
ATOM     76  C   UNL     1      20.247  36.135  13.475  1.00  0.00     0.114 C 
ATOM     77  O   UNL     1      21.671  38.031  13.744  1.00  0.00    -0.275 OA
ENDBRANCH   4  73
TORSDOF 31
BEGIN_RES LYS A 131
REMARK  4 active torsions:
REMARK  status: ('A' for Active; 'I' for Inactive)
REMARK    1  A    between atoms: CA   and  CB  
REMARK    2  A    between atoms: CB   and  CG  
REMARK    3  A    between atoms: CG   and  CD  
REMARK    4  A    between atoms: CD   and  CE  
ROOT
ATOM      1  CA  LYS A 131      29.867  25.555  16.977  1.00 20.52     0.186 C 
ENDROOT
BRANCH   1   2
ATOM      2  CB  LYS A 131      28.345  25.722  17.026  1.00 20.94     0.034 C 
BRANCH   2   3
ATOM      3  CG  LYS A 131      27.602  24.398  16.929  1.00 22.96     0.005 C 
BRANCH   3   4
ATOM      4  CD  LYS A 131      26.202  24.494  17.468  1.00 24.33     0.041 C 
BRANCH   4   5
ATOM      5  CE  LYS A 131      25.932  23.314  18.395  1.00 26.91     0.338 C 
ATOM      6  NZ  LYS A 131      25.355  23.783  19.678  1.00 27.40     0.618 N 
ENDBRANCH   4   5
ENDBRANCH   3   4
ENDBRANCH   2   3
ENDBRANCH   1   2
END_RES LYS A 131
BEGIN_RES LYS A 135
REMARK  4 active torsions:
REMARK  status: ('A' for Active; 'I' for Inactive)
REMARK    5  A    between atoms: CA   and  CB  
REMARK    6  A    between atoms: CB   and  CG  
REMARK    7  A    between atoms: CG   and  CD  
REMARK    8  A    between atoms: CD   and  CE  
ROOT
ATOM      7  CA  LYS A 135      33.193  34.663   9.290  1.00 25.02     0.186 C 
ENDROOT
BRANCH   7   8
ATOM      8  CB  LYS A 135      32.060  35.360  10.034  1.00 26.63     0.034 C 
BRANCH   8   9
ATOM      9  CG  LYS A 135      30.764  35.389   9.266  1.00 29.45     0.005 C 
BRANCH   9  10
ATOM     10  CD  LYS A 135      29.675  34.643  10.022  1.00 32.00     0.041 C 
BRANCH  10  11
ATOM     11  CE  LYS A 135      28.625  34.118   9.062  1.00 34.25     0.338 C 
ATOM     12  NZ  LYS A 135      28.660  34.858   7.771  1.00 35.99     0.618 N 
ENDBRANCH  10  11
ENDBRANCH   9  10
ENDBRANCH   8   9
ENDBRANCH   7   8
END_RES LYS A 135
