REMARK VINA RESULT:    -5.397      2.475      8.781
REMARK INTER + INTRA:         -25.422
REMARK INTER:                 -11.269
REMARK INTRA:                 -14.153
REMARK UNBOUND:               -11.349
REMARK SMILES CC(=O)N[C@@H]1[C@@H](O)C[C@](OC[C@H]2O[C@@H](O[C@H]3[C@H](O)[C@@H](O)[C@H](OCCN=[N+]=[N-])O[C@@H]3CO)[C@H](O)[C@@H](O)[C@H]2O)(C(=O)O)O[C@H]1C(O)[C@H](O)CNC(=O)OCc1cn(-c2ccc(-c3c4ccc(=O)cc-4oc4cc(O)ccc34)c(C(=O)[O-])c2)nn1
REMARK SMILES IDX 9 1 8 2 6 3 5 4 42 5 41 6 10 7 11 8 12 9 14 10 13 11 32 12
REMARK SMILES IDX 34 13 36 14 15 15 16 16 29 17 28 18 21 19 17 20 19 21 30 22
REMARK SMILES IDX 31 23 22 25 23 26 24 27 25 28 26 29 27 30 18 31 20 33 33 35
REMARK SMILES IDX 35 37 37 39 38 41 39 42 40 43 7 45 43 47 44 48 45 50 46 51
REMARK SMILES IDX 47 53 48 54 49 55 50 57 51 58 52 59 53 60 54 61 82 62 55 63
REMARK SMILES IDX 81 64 56 65 80 66 57 67 76 68 58 69 59 70 77 71 78 72 79 73
REMARK SMILES IDX 60 74 75 75 61 76 74 77 69 78 67 79 62 80 73 81 70 82 68 83
REMARK SMILES IDX 66 84 63 85 71 86 64 87 65 88 72 89 4 91 2 92 1 94 3 95
REMARK H PARENT 31 24 18 32 20 34 33 36 35 38 37 40 40 44 7 46 44 49 46 52
REMARK H PARENT 48 56 72 90 4 93
REMARK Flexibility Score: inf
ROOT
ATOM      1  C   UNL     1      20.819  34.621  13.138  1.00  0.00     0.272 C 
ATOM      2  C   UNL     1      20.332  35.221  14.434  1.00  0.00     0.113 C 
ATOM      3  C   UNL     1      21.447  35.584  15.375  1.00  0.00     0.145 C 
ATOM      4  C   UNL     1      22.696  34.881  14.908  1.00  0.00     0.142 C 
ATOM      5  C   UNL     1      22.293  33.472  14.561  1.00  0.00     0.178 C 
ATOM      6  O   UNL     1      21.606  33.467  13.372  1.00  0.00    -0.332 OA
ENDROOT
BRANCH   1   7
ATOM      7  O   UNL     1      21.492  35.466  12.301  1.00  0.00    -0.338 OA
BRANCH   7   8
ATOM      8  C   UNL     1      20.832  36.602  11.990  1.00  0.00     0.199 C 
BRANCH   8   9
ATOM      9  C   UNL     1      21.066  37.015  10.529  1.00  0.00     0.179 C 
ATOM     10  C   UNL     1      22.750  37.410   9.005  1.00  0.00     0.282 C 
ATOM     11  O   UNL     1      22.319  37.452  10.302  1.00  0.00    -0.341 OA
ATOM     12  C   UNL     1      21.692  37.525   7.979  1.00  0.00     0.202 C 
ATOM     13  C   UNL     1      20.546  36.568   8.204  1.00  0.00     0.179 C 
ATOM     14  C   UNL     1      20.647  35.947   9.588  1.00  0.00     0.177 C 
BRANCH  10  15
ATOM     15  O   UNL     1      23.609  36.317   8.903  1.00  0.00    -0.341 OA
BRANCH  15  16
ATOM     16  C   UNL     1      24.741  36.438   9.640  1.00  0.00     0.184 C 
ATOM     17  C   UNL     1      25.984  36.416   8.805  1.00  0.00     0.178 C 
ATOM     18  O   UNL     1      27.058  36.964   9.520  1.00  0.00    -0.341 OA
ATOM     19  C   UNL     1      27.073  36.511  10.833  1.00  0.00     0.281 C 
ATOM     20  C   UNL     1      24.932  35.284  10.641  1.00  0.00     0.180 C 
ATOM     21  C   UNL     1      26.402  35.194  10.994  1.00  0.00     0.202 C 
BRANCH  17  22
ATOM     22  C   UNL     1      25.788  37.219   7.556  1.00  0.00     0.191 C 
BRANCH  22  23
ATOM     23  O   UNL     1      26.044  38.562   7.841  1.00  0.00    -0.394 OA
ATOM     24  H   UNL     1      26.839  38.585   8.418  1.00  0.00     0.210 HD
ENDBRANCH  22  23
ENDBRANCH  17  22
BRANCH  19  25
ATOM     25  O   UNL     1      26.564  37.458  11.696  1.00  0.00    -0.350 OA
BRANCH  25  26
ATOM     26  C   UNL     1      26.887  38.767  11.362  1.00  0.00     0.169 C 
BRANCH  26  27
ATOM     27  C   UNL     1      25.930  39.655  12.135  1.00  0.00     0.119 C 
BRANCH  27  28
ATOM     28  N   UNL     1      24.559  39.266  11.939  1.00  0.00    -0.092 NA
ATOM     29  N   UNL     1      23.859  39.034  12.934  1.00  0.00     0.001 N 
ATOM     30  N   UNL     1      22.942  39.006  13.755  1.00  0.00    -0.003 NA
ENDBRANCH  27  28
ENDBRANCH  26  27
ENDBRANCH  25  26
ENDBRANCH  19  25
BRANCH  20  31
ATOM     31  O   UNL     1      24.246  35.650  11.795  1.00  0.00    -0.387 OA
ATOM     32  H   UNL     1      23.781  36.512  11.724  1.00  0.00     0.211 HD
ENDBRANCH  20  31
BRANCH  21  33
ATOM     33  O   UNL     1      27.062  34.166  10.319  1.00  0.00    -0.385 OA
ATOM     34  H   UNL     1      27.083  33.397  10.968  1.00  0.00     0.211 HD
ENDBRANCH  21  33
ENDBRANCH  15  16
ENDBRANCH  10  15
BRANCH  12  35
ATOM     35  O   UNL     1      21.192  38.852   7.929  1.00  0.00    -0.385 OA
ATOM     36  H   UNL     1      21.328  39.203   6.999  1.00  0.00     0.211 HD
ENDBRANCH  12  35
BRANCH  13  37
ATOM     37  O   UNL     1      20.439  35.623   7.197  1.00  0.00    -0.387 OA
ATOM     38  H   UNL     1      20.494  36.094   6.333  1.00  0.00     0.211 HD
ENDBRANCH  13  37
BRANCH  14  39
ATOM     39  O   UNL     1      21.519  34.870   9.504  1.00  0.00    -0.387 OA
ATOM     40  H   UNL     1      22.386  35.196   9.886  1.00  0.00     0.211 HD
ENDBRANCH  14  39
ENDBRANCH   8   9
ENDBRANCH   7   8
ENDBRANCH   1   7
BRANCH   1  41
ATOM     41  C   UNL     1      19.572  34.041  12.496  1.00  0.00     0.364 C 
ATOM     42  O   UNL     1      18.421  34.245  12.919  1.00  0.00    -0.246 OA
BRANCH  41  43
ATOM     43  O   UNL     1      19.687  33.231  11.369  1.00  0.00    -0.477 OA
ATOM     44  H   UNL     1      20.350  32.469  11.341  1.00  0.00     0.296 HD
ENDBRANCH  41  43
ENDBRANCH   1  41
BRANCH   3  45
ATOM     45  O   UNL     1      21.560  36.959  15.444  1.00  0.00    -0.391 OA
ATOM     46  H   UNL     1      22.100  37.174  16.244  1.00  0.00     0.211 HD
ENDBRANCH   3  45
BRANCH   5  47
ATOM     47  C   UNL     1      23.531  32.598  14.338  1.00  0.00     0.176 C 
BRANCH  47  48
ATOM     48  O   UNL     1      24.335  33.237  13.364  1.00  0.00    -0.388 OA
ATOM     49  H   UNL     1      24.619  32.634  12.658  1.00  0.00     0.211 HD
ENDBRANCH  47  48
BRANCH  47  50
ATOM     50  C   UNL     1      23.155  31.276  13.754  1.00  0.00     0.165 C 
BRANCH  50  51
ATOM     51  O   UNL     1      22.143  30.689  14.515  1.00  0.00    -0.388 OA
ATOM     52  H   UNL     1      21.284  30.792  14.030  1.00  0.00     0.211 HD
ENDBRANCH  50  51
BRANCH  50  53
ATOM     53  C   UNL     1      24.278  30.326  13.530  1.00  0.00     0.154 C 
BRANCH  53  54
ATOM     54  N   UNL     1      25.350  30.513  14.481  1.00  0.00    -0.319 N 
ATOM     55  C   UNL     1      25.380  29.942  15.775  1.00  0.00     0.407 C 
ATOM     56  H   UNL     1      26.200  31.110  14.244  1.00  0.00     0.167 HD
ATOM     57  O   UNL     1      24.438  29.222  16.159  1.00  0.00    -0.225 OA
BRANCH  55  58
ATOM     58  O   UNL     1      26.428  30.147  16.664  1.00  0.00    -0.443 OA
BRANCH  58  59
ATOM     59  C   UNL     1      27.714  29.547  16.479  1.00  0.00     0.294 C 
BRANCH  59  60
ATOM     60  C   UNL     1      28.652  30.667  16.213  1.00  0.00     0.121 A 
ATOM     61  C   UNL     1      28.335  31.918  15.761  1.00  0.00     0.144 A 
ATOM     62  N   UNL     1      30.006  30.662  16.371  1.00  0.00    -0.131 NA
ATOM     63  N   UNL     1      29.466  32.647  15.648  1.00  0.00    -0.220 N 
ATOM     64  N   UNL     1      30.463  31.852  16.027  1.00  0.00    -0.062 NA
BRANCH  63  65
ATOM     65  C   UNL     1      29.543  33.995  15.212  1.00  0.00     0.067 A 
ATOM     66  C   UNL     1      30.498  34.863  15.685  1.00  0.00     0.039 A 
ATOM     67  C   UNL     1      28.636  34.442  14.283  1.00  0.00     0.029 A 
ATOM     68  C   UNL     1      30.534  36.159  15.226  1.00  0.00     0.007 A 
ATOM     69  C   UNL     1      28.675  35.742  13.825  1.00  0.00     0.012 A 
ATOM     70  C   UNL     1      29.621  36.628  14.285  1.00  0.00    -0.008 A 
BRANCH  68  71
ATOM     71  C   UNL     1      31.539  37.110  15.709  1.00  0.00     0.072 C 
ATOM     72  O   UNL     1      32.647  37.252  15.139  1.00  0.00    -0.545 OA
ATOM     73  O   UNL     1      31.264  37.871  16.818  1.00  0.00    -0.545 OA
ENDBRANCH  68  71
BRANCH  70  74
ATOM     74  C   UNL     1      29.672  37.997  13.806  1.00  0.00     0.004 A 
ATOM     75  C   UNL     1      28.958  38.961  14.474  1.00  0.00     0.026 A 
ATOM     76  C   UNL     1      30.407  38.361  12.707  1.00  0.00     0.026 A 
ATOM     77  C   UNL     1      28.194  38.688  15.585  1.00  0.00     0.016 A 
ATOM     78  C   UNL     1      29.015  40.267  14.002  1.00  0.00     0.139 A 
ATOM     79  C   UNL     1      30.436  39.764  12.243  1.00  0.00     0.139 A 
ATOM     80  C   UNL     1      31.146  37.454  11.990  1.00  0.00     0.016 A 
ATOM     81  C   UNL     1      27.478  39.667  16.250  1.00  0.00     0.047 A 
ATOM     82  C   UNL     1      28.302  41.233  14.668  1.00  0.00     0.093 A 
ATOM     83  O   UNL     1      29.724  40.608  12.944  1.00  0.00    -0.456 OA
ATOM     84  C   UNL     1      31.173  40.123  11.143  1.00  0.00     0.099 A 
ATOM     85  C   UNL     1      31.884  37.830  10.882  1.00  0.00     0.053 A 
ATOM     86  C   UNL     1      27.529  40.964  15.788  1.00  0.00     0.119 A 
ATOM     87  C   UNL     1      31.886  39.153  10.478  1.00  0.00     0.182 A 
ATOM     88  O   UNL     1      32.579  39.433   9.463  1.00  0.00    -0.290 OA
BRANCH  86  89
ATOM     89  O   UNL     1      26.809  41.939  16.462  1.00  0.00    -0.508 OA
ATOM     90  H   UNL     1      26.000  41.623  16.991  1.00  0.00     0.293 HD
ENDBRANCH  86  89
ENDBRANCH  70  74
ENDBRANCH  63  65
ENDBRANCH  59  60
ENDBRANCH  58  59
ENDBRANCH  55  58
ENDBRANCH  53  54
ENDBRANCH  50  53
ENDBRANCH  47  50
ENDBRANCH   5  47
BRANCH   4  91
ATOM     91  N   UNL     1      23.756  34.918  15.892  1.00  0.00    -0.348 N 
ATOM     92  C   UNL     1      24.948  35.598  15.575  1.00  0.00     0.217 C 
ATOM     93  H   UNL     1      23.682  34.465  16.830  1.00  0.00     0.163 HD
ATOM     94  C   UNL     1      26.099  35.699  16.506  1.00  0.00     0.114 C 
ATOM     95  O   UNL     1      25.101  36.174  14.442  1.00  0.00    -0.275 OA
ENDBRANCH   4  91
TORSDOF 33
BEGIN_RES LYS A 131
REMARK  4 active torsions:
REMARK  status: ('A' for Active; 'I' for Inactive)
REMARK    1  A    between atoms: CA   and  CB  
REMARK    2  A    between atoms: CB   and  CG  
REMARK    3  A    between atoms: CG   and  CD  
REMARK    4  A    between atoms: CD   and  CE  
ROOT
ATOM      1  CA  LYS A 131      29.867  25.555  16.977  1.00 20.52     0.186 C 
ENDROOT
BRANCH   1   2
ATOM      2  CB  LYS A 131      28.345  25.722  17.026  1.00 20.94     0.034 C 
BRANCH   2   3
ATOM      3  CG  LYS A 131      27.601  24.402  16.897  1.00 22.96     0.005 C 
BRANCH   3   4
ATOM      4  CD  LYS A 131      26.212  24.476  17.468  1.00 24.33     0.041 C 
BRANCH   4   5
ATOM      5  CE  LYS A 131      26.179  25.503  18.594  1.00 26.91     0.338 C 
ATOM      6  NZ  LYS A 131      25.499  24.944  19.787  1.00 27.40     0.618 N 
ENDBRANCH   4   5
ENDBRANCH   3   4
ENDBRANCH   2   3
ENDBRANCH   1   2
END_RES LYS A 131
BEGIN_RES LYS A 135
REMARK  4 active torsions:
REMARK  status: ('A' for Active; 'I' for Inactive)
REMARK    5  A    between atoms: CA   and  CB  
REMARK    6  A    between atoms: CB   and  CG  
REMARK    7  A    between atoms: CG   and  CD  
REMARK    8  A    between atoms: CD   and  CE  
ROOT
ATOM      7  CA  LYS A 135      33.193  34.663   9.290  1.00 25.02     0.186 C 
ENDROOT
BRANCH   7   8
ATOM      8  CB  LYS A 135      32.060  35.360  10.034  1.00 26.63     0.034 C 
BRANCH   8   9
ATOM      9  CG  LYS A 135      30.702  34.773   9.750  1.00 29.45     0.005 C 
BRANCH   9  10
ATOM     10  CD  LYS A 135      30.571  34.408   8.279  1.00 32.00     0.041 C 
BRANCH  10  11
ATOM     11  CE  LYS A 135      29.396  35.135   7.653  1.00 34.25     0.338 C 
ATOM     12  NZ  LYS A 135      29.578  36.611   7.726  1.00 35.99     0.618 N 
ENDBRANCH  10  11
ENDBRANCH   9  10
ENDBRANCH   8   9
ENDBRANCH   7   8
END_RES LYS A 135
