REMARK VINA RESULT:    -4.141      0.000      0.000
REMARK INTER + INTRA:         -23.618
REMARK INTER:                 -10.426
REMARK INTRA:                 -13.192
REMARK UNBOUND:               -13.184
REMARK SMILES CC(=O)N[C@@H]1[C@@H](O)C[C@](OC[C@H]2O[C@@H](O[C@H]3[C@H](O)[C@@H](O)[C@H](OCCN=[N+]=[N-])O[C@@H]3CO)[C@H](O)[C@@H](O)[C@H]2O)(C(=O)O)O[C@H]1C(O)[C@H](O)CNC(=O)OCc1cn(-c2cc(Cl)ccc2C(=O)N(C)C)nn1
REMARK SMILES IDX 9 1 8 2 6 3 5 4 42 5 41 6 10 7 11 8 12 9 14 10 13 11 32 12
REMARK SMILES IDX 34 13 36 14 15 15 16 16 29 17 28 18 21 19 17 20 19 21 30 22
REMARK SMILES IDX 31 23 22 25 23 26 24 27 25 28 26 29 27 30 18 31 20 33 33 35
REMARK SMILES IDX 35 37 37 39 38 41 39 42 40 43 7 45 43 47 44 48 45 50 46 51
REMARK SMILES IDX 47 53 48 54 49 55 50 57 51 58 52 59 53 60 54 61 69 62 55 63
REMARK SMILES IDX 68 64 56 65 57 66 62 67 58 68 61 69 59 70 60 71 63 72 64 73
REMARK SMILES IDX 65 74 66 75 67 76 4 77 2 78 1 80 3 81
REMARK H PARENT 31 24 18 32 20 34 33 36 35 38 37 40 40 44 7 46 44 49 46 52
REMARK H PARENT 48 56 4 79
REMARK Flexibility Score: inf
ROOT
ATOM      1  C   UNL     1      30.093  34.053  15.612  1.00  0.00     0.272 C 
ATOM      2  C   UNL     1      30.578  35.414  15.939  1.00  0.00     0.113 C 
ATOM      3  C   UNL     1      29.510  36.434  15.638  1.00  0.00     0.145 C 
ATOM      4  C   UNL     1      29.200  36.314  14.165  1.00  0.00     0.142 C 
ATOM      5  C   UNL     1      28.817  34.941  13.802  1.00  0.00     0.178 C 
ATOM      6  O   UNL     1      29.240  33.900  14.564  1.00  0.00    -0.332 OA
ENDROOT
BRANCH   1   7
ATOM      7  O   UNL     1      29.499  33.444  16.705  1.00  0.00    -0.338 OA
BRANCH   7   8
ATOM      8  C   UNL     1      30.002  33.681  17.935  1.00  0.00     0.199 C 
BRANCH   8   9
ATOM      9  C   UNL     1      29.553  32.570  18.897  1.00  0.00     0.179 C 
ATOM     10  C   UNL     1      27.908  30.953  18.927  1.00  0.00     0.282 C 
ATOM     11  O   UNL     1      28.221  32.345  18.704  1.00  0.00    -0.341 OA
ATOM     12  C   UNL     1      28.636  30.542  20.187  1.00  0.00     0.202 C 
ATOM     13  C   UNL     1      30.133  30.484  19.964  1.00  0.00     0.179 C 
ATOM     14  C   UNL     1      30.489  31.438  18.838  1.00  0.00     0.177 C 
BRANCH  10  15
ATOM     15  O   UNL     1      28.261  30.321  17.813  1.00  0.00    -0.341 OA
BRANCH  15  16
ATOM     16  C   UNL     1      27.441  29.392  17.197  1.00  0.00     0.184 C 
ATOM     17  C   UNL     1      26.333  30.167  16.561  1.00  0.00     0.178 C 
ATOM     18  O   UNL     1      25.435  29.292  15.924  1.00  0.00    -0.341 OA
ATOM     19  C   UNL     1      24.715  28.760  17.049  1.00  0.00     0.281 C 
ATOM     20  C   UNL     1      26.892  28.419  18.208  1.00  0.00     0.180 C 
ATOM     21  C   UNL     1      25.605  27.803  17.750  1.00  0.00     0.202 C 
BRANCH  17  22
ATOM     22  C   UNL     1      26.865  31.169  15.558  1.00  0.00     0.191 C 
BRANCH  22  23
ATOM     23  O   UNL     1      26.914  32.408  16.159  1.00  0.00    -0.394 OA
ATOM     24  H   UNL     1      26.073  32.901  15.988  1.00  0.00     0.210 HD
ENDBRANCH  22  23
ENDBRANCH  17  22
BRANCH  19  25
ATOM     25  O   UNL     1      23.572  28.229  16.593  1.00  0.00    -0.350 OA
BRANCH  25  26
ATOM     26  C   UNL     1      22.498  29.098  16.506  1.00  0.00     0.169 C 
BRANCH  26  27
ATOM     27  C   UNL     1      21.609  28.848  15.305  1.00  0.00     0.119 C 
BRANCH  27  28
ATOM     28  N   UNL     1      22.288  28.033  14.321  1.00  0.00    -0.092 NA
ATOM     29  N   UNL     1      22.954  28.553  13.433  1.00  0.00     0.001 N 
ATOM     30  N   UNL     1      23.651  29.250  12.667  1.00  0.00    -0.003 NA
ENDBRANCH  27  28
ENDBRANCH  26  27
ENDBRANCH  25  26
ENDBRANCH  19  25
BRANCH  20  31
ATOM     31  O   UNL     1      27.784  27.367  18.446  1.00  0.00    -0.387 OA
ATOM     32  H   UNL     1      28.085  26.961  17.581  1.00  0.00     0.211 HD
ENDBRANCH  20  31
BRANCH  21  33
ATOM     33  O   UNL     1      24.947  27.268  18.855  1.00  0.00    -0.385 OA
ATOM     34  H   UNL     1      25.254  27.634  19.712  1.00  0.00     0.211 HD
ENDBRANCH  21  33
ENDBRANCH  15  16
ENDBRANCH  10  15
BRANCH  12  35
ATOM     35  O   UNL     1      28.406  31.565  21.129  1.00  0.00    -0.385 OA
ATOM     36  H   UNL     1      28.357  31.193  22.066  1.00  0.00     0.211 HD
ENDBRANCH  12  35
BRANCH  13  37
ATOM     37  O   UNL     1      30.617  29.241  19.656  1.00  0.00    -0.387 OA
ATOM     38  H   UNL     1      29.960  28.515  19.785  1.00  0.00     0.211 HD
ENDBRANCH  13  37
BRANCH  14  39
ATOM     39  O   UNL     1      30.708  30.838  17.631  1.00  0.00    -0.387 OA
ATOM     40  H   UNL     1      29.993  30.960  16.967  1.00  0.00     0.211 HD
ENDBRANCH  14  39
ENDBRANCH   8   9
ENDBRANCH   7   8
ENDBRANCH   1   7
BRANCH   1  41
ATOM     41  C   UNL     1      31.324  33.168  15.336  1.00  0.00     0.364 C 
ATOM     42  O   UNL     1      32.432  33.751  15.372  1.00  0.00    -0.246 OA
BRANCH  41  43
ATOM     43  O   UNL     1      31.249  31.838  15.066  1.00  0.00    -0.477 OA
ATOM     44  H   UNL     1      30.584  31.402  14.468  1.00  0.00     0.296 HD
ENDBRANCH  41  43
ENDBRANCH   1  41
BRANCH   3  45
ATOM     45  O   UNL     1      28.444  36.255  16.471  1.00  0.00    -0.391 OA
ATOM     46  H   UNL     1      28.172  35.353  16.672  1.00  0.00     0.211 HD
ENDBRANCH   3  45
BRANCH   5  47
ATOM     47  C   UNL     1      27.328  34.717  13.570  1.00  0.00     0.176 C 
BRANCH  47  48
ATOM     48  O   UNL     1      26.553  34.809  14.692  1.00  0.00    -0.388 OA
ATOM     49  H   UNL     1      26.111  33.963  14.967  1.00  0.00     0.211 HD
ENDBRANCH  47  48
BRANCH  47  50
ATOM     50  C   UNL     1      26.725  35.483  12.451  1.00  0.00     0.165 C 
BRANCH  50  51
ATOM     51  O   UNL     1      25.806  36.462  12.899  1.00  0.00    -0.388 OA
ATOM     52  H   UNL     1      26.179  37.370  12.803  1.00  0.00     0.211 HD
ENDBRANCH  50  51
BRANCH  50  53
ATOM     53  C   UNL     1      25.812  34.487  11.698  1.00  0.00     0.154 C 
BRANCH  53  54
ATOM     54  N   UNL     1      24.490  34.504  12.259  1.00  0.00    -0.319 N 
ATOM     55  C   UNL     1      23.962  33.384  12.930  1.00  0.00     0.407 C 
ATOM     56  H   UNL     1      23.866  35.362  12.187  1.00  0.00     0.167 HD
ATOM     57  O   UNL     1      24.640  32.342  13.079  1.00  0.00    -0.225 OA
BRANCH  55  58
ATOM     58  O   UNL     1      22.662  33.398  13.450  1.00  0.00    -0.443 OA
BRANCH  58  59
ATOM     59  C   UNL     1      22.216  32.423  14.352  1.00  0.00     0.294 C 
BRANCH  59  60
ATOM     60  C   UNL     1      22.348  32.896  15.764  1.00  0.00     0.121 A 
ATOM     61  C   UNL     1      23.438  32.584  16.602  1.00  0.00     0.144 A 
ATOM     62  N   UNL     1      21.548  33.654  16.496  1.00  0.00    -0.131 NA
ATOM     63  N   UNL     1      23.247  33.159  17.781  1.00  0.00    -0.219 N 
ATOM     64  N   UNL     1      22.078  33.807  17.682  1.00  0.00    -0.062 NA
BRANCH  63  65
ATOM     65  C   UNL     1      24.015  33.181  18.969  1.00  0.00     0.081 A 
ATOM     66  C   UNL     1      23.746  32.243  19.974  1.00  0.00     0.049 A 
ATOM     67  C   UNL     1      25.004  34.081  19.245  1.00  0.00     0.065 A 
ATOM     68  C   UNL     1      24.430  32.240  21.145  1.00  0.00     0.043 A 
ATOM     69  C   UNL     1      25.713  34.080  20.461  1.00  0.00     0.017 A 
ATOM     70  Cl  UNL     1      24.041  31.035  22.365  1.00  0.00    -0.084 Cl
ATOM     71  C   UNL     1      25.419  33.144  21.421  1.00  0.00     0.021 A 
BRANCH  67  72
ATOM     72  C   UNL     1      25.425  35.085  18.264  1.00  0.00     0.255 C 
ATOM     73  O   UNL     1      26.336  34.793  17.463  1.00  0.00    -0.269 OA
ATOM     74  N   UNL     1      24.813  36.342  18.232  1.00  0.00    -0.345 N 
ATOM     75  C   UNL     1      23.749  36.670  19.177  1.00  0.00     0.146 C 
ATOM     76  C   UNL     1      25.207  37.357  17.259  1.00  0.00     0.146 C 
ENDBRANCH  67  72
ENDBRANCH  63  65
ENDBRANCH  59  60
ENDBRANCH  58  59
ENDBRANCH  55  58
ENDBRANCH  53  54
ENDBRANCH  50  53
ENDBRANCH  47  50
ENDBRANCH   5  47
BRANCH   4  77
ATOM     77  N   UNL     1      30.390  36.789  13.454  1.00  0.00    -0.348 N 
ATOM     78  C   UNL     1      30.313  37.614  12.312  1.00  0.00     0.217 C 
ATOM     79  H   UNL     1      31.333  36.513  13.789  1.00  0.00     0.163 HD
ATOM     80  C   UNL     1      31.513  38.097  11.587  1.00  0.00     0.114 C 
ATOM     81  O   UNL     1      29.177  37.958  11.890  1.00  0.00    -0.275 OA
ENDBRANCH   4  77
TORSDOF 31
BEGIN_RES LYS A 131
REMARK  4 active torsions:
REMARK  status: ('A' for Active; 'I' for Inactive)
REMARK    1  A    between atoms: CA   and  CB  
REMARK    2  A    between atoms: CB   and  CG  
REMARK    3  A    between atoms: CG   and  CD  
REMARK    4  A    between atoms: CD   and  CE  
ROOT
ATOM      1  CA  LYS A 131      29.867  25.555  16.977  1.00 20.52     0.186 C 
ENDROOT
BRANCH   1   2
ATOM      2  CB  LYS A 131      28.345  25.722  17.026  1.00 20.94     0.034 C 
BRANCH   2   3
ATOM      3  CG  LYS A 131      27.599  24.472  16.585  1.00 22.96     0.005 C 
BRANCH   3   4
ATOM      4  CD  LYS A 131      27.219  23.599  17.749  1.00 24.33     0.041 C 
BRANCH   4   5
ATOM      5  CE  LYS A 131      25.718  23.330  17.715  1.00 26.91     0.338 C 
ATOM      6  NZ  LYS A 131      25.027  24.350  16.892  1.00 27.40     0.618 N 
ENDBRANCH   4   5
ENDBRANCH   3   4
ENDBRANCH   2   3
ENDBRANCH   1   2
END_RES LYS A 131
BEGIN_RES LYS A 135
REMARK  4 active torsions:
REMARK  status: ('A' for Active; 'I' for Inactive)
REMARK    5  A    between atoms: CA   and  CB  
REMARK    6  A    between atoms: CB   and  CG  
REMARK    7  A    between atoms: CG   and  CD  
REMARK    8  A    between atoms: CD   and  CE  
ROOT
ATOM      7  CA  LYS A 135      33.193  34.663   9.290  1.00 25.02     0.186 C 
ENDROOT
BRANCH   7   8
ATOM      8  CB  LYS A 135      32.060  35.360  10.034  1.00 26.63     0.034 C 
BRANCH   8   9
ATOM      9  CG  LYS A 135      30.787  35.462   9.234  1.00 29.45     0.005 C 
BRANCH   9  10
ATOM     10  CD  LYS A 135      30.165  34.088   9.038  1.00 32.00     0.041 C 
BRANCH  10  11
ATOM     11  CE  LYS A 135      28.651  34.181   9.056  1.00 34.25     0.338 C 
ATOM     12  NZ  LYS A 135      28.202  35.599   9.132  1.00 35.99     0.618 N 
ENDBRANCH  10  11
ENDBRANCH   9  10
ENDBRANCH   8   9
ENDBRANCH   7   8
END_RES LYS A 135
