REMARK VINA RESULT:    -2.874      3.145      7.206
REMARK INTER + INTRA:         -21.810
REMARK INTER:                  -8.343
REMARK INTRA:                 -13.468
REMARK UNBOUND:               -13.729
REMARK SMILES CCOC(CCn1cc(COC(=O)NC[C@@H](O)C(O)[C@@H]2O[C@@](OC[C@H]3O[C@@H](O[C@H]4[C@H](O)[C@@H](O)[C@H](OCCN=[N+]=[N-])O[C@@H]4CO)[C@H](O)[C@@H](O)[C@H]3O)(C(=O)O)C[C@H](O)[C@H]2NC(C)=O)nn1)OCC
REMARK SMILES IDX 18 1 20 2 22 3 54 4 21 5 55 6 57 7 23 8 24 9 25 10 27 11
REMARK SMILES IDX 26 12 45 13 47 14 49 15 28 16 29 17 42 18 41 19 34 20 30 21
REMARK SMILES IDX 32 22 43 23 44 24 35 26 36 27 37 28 38 29 39 30 40 31 31 32
REMARK SMILES IDX 33 34 46 36 48 38 50 40 51 42 52 43 53 44 56 46 58 48 59 49
REMARK SMILES IDX 60 51 61 52 19 53 16 55 17 56 15 58 14 59 12 60 13 62 11 63
REMARK SMILES IDX 10 64 9 65 8 66 62 67 7 68 63 69 6 70 5 71 4 72 3 73 2 74
REMARK SMILES IDX 1 75 64 76 65 77 66 78
REMARK H PARENT 44 25 31 33 33 35 46 37 48 39 50 41 53 45 56 47 58 50 19 54
REMARK H PARENT 17 57 14 61
REMARK Flexibility Score: inf
ROOT
ATOM      1  C   UNL     1      20.438  36.529  11.487  1.00  0.00     0.176 C 
ENDROOT
BRANCH   1   2
ATOM      2  C   UNL     1      20.718  36.510  10.014  1.00  0.00     0.178 C 
ATOM      3  C   UNL     1      22.119  37.314   8.359  1.00  0.00     0.272 C 
ATOM      4  C   UNL     1      21.276  36.380   7.566  1.00  0.00     0.113 C 
ATOM      5  O   UNL     1      21.766  37.369   9.726  1.00  0.00    -0.332 OA
ATOM      6  C   UNL     1      19.808  36.457   7.804  1.00  0.00     0.145 C 
ATOM      7  C   UNL     1      19.538  37.045   9.196  1.00  0.00     0.142 C 
BRANCH   3   8
ATOM      8  O   UNL     1      22.271  38.569   7.924  1.00  0.00    -0.338 OA
BRANCH   8   9
ATOM      9  C   UNL     1      22.285  39.619   8.764  1.00  0.00     0.199 C 
BRANCH   9  10
ATOM     10  C   UNL     1      23.621  40.326   8.736  1.00  0.00     0.179 C 
ATOM     11  C   UNL     1      25.702  40.448   9.572  1.00  0.00     0.282 C 
ATOM     12  O   UNL     1      24.673  39.549   9.184  1.00  0.00    -0.341 OA
ATOM     13  C   UNL     1      26.274  41.049   8.342  1.00  0.00     0.202 C 
ATOM     14  C   UNL     1      25.182  41.730   7.552  1.00  0.00     0.179 C 
ATOM     15  C   UNL     1      23.949  40.888   7.356  1.00  0.00     0.177 C 
BRANCH  11  16
ATOM     16  O   UNL     1      26.615  39.764  10.381  1.00  0.00    -0.341 OA
BRANCH  16  17
ATOM     17  C   UNL     1      26.119  39.692  11.645  1.00  0.00     0.184 C 
ATOM     18  C   UNL     1      26.854  40.363  12.740  1.00  0.00     0.178 C 
ATOM     19  O   UNL     1      25.982  40.492  13.830  1.00  0.00    -0.341 OA
ATOM     20  C   UNL     1      25.686  39.231  14.370  1.00  0.00     0.281 C 
ATOM     21  C   UNL     1      26.018  38.204  12.108  1.00  0.00     0.180 C 
ATOM     22  C   UNL     1      25.105  38.286  13.339  1.00  0.00     0.202 C 
BRANCH  18  23
ATOM     23  C   UNL     1      27.307  41.735  12.340  1.00  0.00     0.191 C 
BRANCH  23  24
ATOM     24  O   UNL     1      28.382  41.701  11.452  1.00  0.00    -0.394 OA
ATOM     25  H   UNL     1      29.165  42.174  11.784  1.00  0.00     0.210 HD
ENDBRANCH  23  24
ENDBRANCH  18  23
BRANCH  20  26
ATOM     26  O   UNL     1      24.729  39.435  15.348  1.00  0.00    -0.350 OA
BRANCH  26  27
ATOM     27  C   UNL     1      24.373  40.726  15.595  1.00  0.00     0.169 C 
BRANCH  27  28
ATOM     28  C   UNL     1      22.874  40.863  15.619  1.00  0.00     0.119 C 
BRANCH  28  29
ATOM     29  N   UNL     1      22.439  41.586  14.426  1.00  0.00    -0.092 NA
ATOM     30  N   UNL     1      22.366  40.889  13.394  1.00  0.00     0.001 N 
ATOM     31  N   UNL     1      22.592  40.512  12.241  1.00  0.00    -0.003 NA
ENDBRANCH  28  29
ENDBRANCH  27  28
ENDBRANCH  26  27
ENDBRANCH  20  26
BRANCH  21  32
ATOM     32  O   UNL     1      25.455  37.419  11.138  1.00  0.00    -0.387 OA
ATOM     33  H   UNL     1      25.350  36.476  11.415  1.00  0.00     0.211 HD
ENDBRANCH  21  32
BRANCH  22  34
ATOM     34  O   UNL     1      24.926  37.054  13.908  1.00  0.00    -0.385 OA
ATOM     35  H   UNL     1      24.404  37.196  14.757  1.00  0.00     0.211 HD
ENDBRANCH  22  34
ENDBRANCH  16  17
ENDBRANCH  11  16
BRANCH  13  36
ATOM     36  O   UNL     1      27.205  42.054   8.647  1.00  0.00    -0.385 OA
ATOM     37  H   UNL     1      27.944  42.075   7.998  1.00  0.00     0.211 HD
ENDBRANCH  13  36
BRANCH  14  38
ATOM     38  O   UNL     1      25.658  42.260   6.357  1.00  0.00    -0.387 OA
ATOM     39  H   UNL     1      25.874  41.541   5.705  1.00  0.00     0.211 HD
ENDBRANCH  14  38
BRANCH  15  40
ATOM     40  O   UNL     1      24.152  39.841   6.470  1.00  0.00    -0.387 OA
ATOM     41  H   UNL     1      24.570  40.159   5.638  1.00  0.00     0.211 HD
ENDBRANCH  15  40
ENDBRANCH   9  10
ENDBRANCH   8   9
ENDBRANCH   3   8
BRANCH   3  42
ATOM     42  C   UNL     1      23.491  36.713   8.393  1.00  0.00     0.364 C 
ATOM     43  O   UNL     1      23.786  35.798   9.184  1.00  0.00    -0.246 OA
BRANCH  42  44
ATOM     44  O   UNL     1      24.496  37.155   7.538  1.00  0.00    -0.477 OA
ATOM     45  H   UNL     1      25.161  37.836   7.890  1.00  0.00     0.296 HD
ENDBRANCH  42  44
ENDBRANCH   3  42
BRANCH   6  46
ATOM     46  O   UNL     1      19.098  37.130   6.841  1.00  0.00    -0.391 OA
ATOM     47  H   UNL     1      19.652  37.690   6.243  1.00  0.00     0.211 HD
ENDBRANCH   6  46
BRANCH   7  48
ATOM     48  N   UNL     1      18.266  36.658   9.713  1.00  0.00    -0.348 N 
ATOM     49  C   UNL     1      17.173  37.556   9.552  1.00  0.00     0.217 C 
ATOM     50  H   UNL     1      18.095  35.756  10.198  1.00  0.00     0.163 HD
ATOM     51  C   UNL     1      15.835  37.183  10.080  1.00  0.00     0.114 C 
ATOM     52  O   UNL     1      17.318  38.679   8.961  1.00  0.00    -0.275 OA
ENDBRANCH   7  48
ENDBRANCH   1   2
BRANCH   1  53
ATOM     53  O   UNL     1      20.192  35.196  11.864  1.00  0.00    -0.388 OA
ATOM     54  H   UNL     1      19.619  34.741  11.180  1.00  0.00     0.211 HD
ENDBRANCH   1  53
BRANCH   1  55
ATOM     55  C   UNL     1      21.709  36.955  12.196  1.00  0.00     0.165 C 
BRANCH  55  56
ATOM     56  O   UNL     1      22.773  36.197  11.802  1.00  0.00    -0.388 OA
ATOM     57  H   UNL     1      23.092  35.548  12.477  1.00  0.00     0.211 HD
ENDBRANCH  55  56
BRANCH  55  58
ATOM     58  C   UNL     1      21.527  36.882  13.686  1.00  0.00     0.154 C 
BRANCH  58  59
ATOM     59  N   UNL     1      22.384  35.961  14.373  1.00  0.00    -0.319 N 
ATOM     60  C   UNL     1      22.050  34.641  14.712  1.00  0.00     0.407 C 
ATOM     61  H   UNL     1      23.346  36.340  14.635  1.00  0.00     0.167 HD
ATOM     62  O   UNL     1      20.954  34.125  14.436  1.00  0.00    -0.225 OA
BRANCH  60  63
ATOM     63  O   UNL     1      22.974  33.823  15.401  1.00  0.00    -0.443 OA
BRANCH  63  64
ATOM     64  C   UNL     1      23.711  32.838  14.663  1.00  0.00     0.294 C 
BRANCH  64  65
ATOM     65  C   UNL     1      24.651  33.539  13.751  1.00  0.00     0.120 A 
ATOM     66  C   UNL     1      25.970  33.848  13.986  1.00  0.00     0.138 A 
ATOM     67  N   UNL     1      24.363  34.002  12.533  1.00  0.00    -0.132 NA
ATOM     68  N   UNL     1      26.423  34.490  12.889  1.00  0.00    -0.252 N 
ATOM     69  N   UNL     1      25.425  34.565  12.028  1.00  0.00    -0.067 NA
BRANCH  68  70
ATOM     70  C   UNL     1      27.762  34.979  12.738  1.00  0.00     0.151 C 
BRANCH  70  71
ATOM     71  C   UNL     1      28.727  34.504  13.786  1.00  0.00     0.086 C 
BRANCH  71  72
ATOM     72  C   UNL     1      30.153  34.674  13.265  1.00  0.00     0.251 C 
BRANCH  72  73
ATOM     73  O   UNL     1      30.951  33.834  14.019  1.00  0.00    -0.353 OA
BRANCH  73  74
ATOM     74  C   UNL     1      30.216  33.070  14.915  1.00  0.00     0.160 C 
ATOM     75  C   UNL     1      31.115  32.195  15.767  1.00  0.00     0.035 C 
ENDBRANCH  73  74
ENDBRANCH  72  73
BRANCH  72  76
ATOM     76  O   UNL     1      30.534  35.982  13.221  1.00  0.00    -0.353 OA
BRANCH  76  77
ATOM     77  C   UNL     1      31.840  36.267  13.517  1.00  0.00     0.160 C 
ATOM     78  C   UNL     1      31.892  37.118  14.765  1.00  0.00     0.035 C 
ENDBRANCH  76  77
ENDBRANCH  72  76
ENDBRANCH  71  72
ENDBRANCH  70  71
ENDBRANCH  68  70
ENDBRANCH  64  65
ENDBRANCH  63  64
ENDBRANCH  60  63
ENDBRANCH  58  59
ENDBRANCH  55  58
ENDBRANCH   1  55
TORSDOF 36
BEGIN_RES LYS A 131
REMARK  4 active torsions:
REMARK  status: ('A' for Active; 'I' for Inactive)
REMARK    1  A    between atoms: CA   and  CB  
REMARK    2  A    between atoms: CB   and  CG  
REMARK    3  A    between atoms: CG   and  CD  
REMARK    4  A    between atoms: CD   and  CE  
ROOT
ATOM      1  CA  LYS A 131      29.867  25.555  16.977  1.00 20.52     0.186 C 
ENDROOT
BRANCH   1   2
ATOM      2  CB  LYS A 131      28.345  25.722  17.026  1.00 20.94     0.034 C 
BRANCH   2   3
ATOM      3  CG  LYS A 131      27.601  24.402  16.890  1.00 22.96     0.005 C 
BRANCH   3   4
ATOM      4  CD  LYS A 131      26.622  24.186  18.010  1.00 24.33     0.041 C 
BRANCH   4   5
ATOM      5  CE  LYS A 131      25.599  23.133  17.596  1.00 26.91     0.338 C 
ATOM      6  NZ  LYS A 131      24.441  23.770  16.926  1.00 27.40     0.618 N 
ENDBRANCH   4   5
ENDBRANCH   3   4
ENDBRANCH   2   3
ENDBRANCH   1   2
END_RES LYS A 131
BEGIN_RES LYS A 135
REMARK  4 active torsions:
REMARK  status: ('A' for Active; 'I' for Inactive)
REMARK    5  A    between atoms: CA   and  CB  
REMARK    6  A    between atoms: CB   and  CG  
REMARK    7  A    between atoms: CG   and  CD  
REMARK    8  A    between atoms: CD   and  CE  
ROOT
ATOM      7  CA  LYS A 135      33.193  34.663   9.290  1.00 25.02     0.186 C 
ENDROOT
BRANCH   7   8
ATOM      8  CB  LYS A 135      32.060  35.360  10.034  1.00 26.63     0.034 C 
BRANCH   8   9
ATOM      9  CG  LYS A 135      30.705  34.753   9.774  1.00 29.45     0.005 C 
BRANCH   9  10
ATOM     10  CD  LYS A 135      30.495  34.528   8.285  1.00 32.00     0.041 C 
BRANCH  10  11
ATOM     11  CE  LYS A 135      29.083  34.908   7.883  1.00 34.25     0.338 C 
ATOM     12  NZ  LYS A 135      28.231  35.150   9.081  1.00 35.99     0.618 N 
ENDBRANCH  10  11
ENDBRANCH   9  10
ENDBRANCH   8   9
ENDBRANCH   7   8
END_RES LYS A 135
