REMARK VINA RESULT:    -5.091      4.138      9.413
REMARK INTER + INTRA:         -21.958
REMARK INTER:                 -13.173
REMARK INTRA:                  -8.786
REMARK UNBOUND:                -9.428
REMARK SMILES CC(=O)N[C@@H]1[C@@H](O)C[C@](OC[C@H]2O[C@@H](O[C@H]3[C@H](O)[C@@H](O)[C@H](OCCN=[N+]=[N-])O[C@@H]3CO)[C@H](O)[C@@H](O)[C@H]2O)(C(=O)O)O[C@H]1C(O)[C@H](O)CNC(=O)OCc1cn(-c2ccc(C)cc2)nn1
REMARK SMILES IDX 9 1 8 2 6 3 5 4 42 5 41 6 10 7 11 8 12 9 14 10 13 11 32 12
REMARK SMILES IDX 34 13 36 14 15 15 16 16 29 17 28 18 21 19 17 20 19 21 30 22
REMARK SMILES IDX 31 23 22 25 23 26 24 27 25 28 26 29 27 30 18 31 20 33 33 35
REMARK SMILES IDX 35 37 37 39 38 41 39 42 40 43 7 45 43 47 44 48 45 50 46 51
REMARK SMILES IDX 47 53 48 54 49 55 50 57 51 58 52 59 53 60 54 61 64 62 55 63
REMARK SMILES IDX 63 64 56 65 57 66 62 67 58 68 61 69 59 70 60 71 4 72 2 73
REMARK SMILES IDX 1 75 3 76
REMARK H PARENT 31 24 18 32 20 34 33 36 35 38 37 40 40 44 7 46 44 49 46 52
REMARK H PARENT 48 56 4 74
REMARK Flexibility Score: inf
ROOT
ATOM      1  C   UNL     1      30.521  33.990  16.219  1.00  0.00     0.272 C 
ATOM      2  C   UNL     1      30.878  33.799  17.689  1.00  0.00     0.113 C 
ATOM      3  C   UNL     1      32.129  34.504  18.052  1.00  0.00     0.145 C 
ATOM      4  C   UNL     1      32.394  35.765  17.309  1.00  0.00     0.142 C 
ATOM      5  C   UNL     1      31.276  36.250  16.393  1.00  0.00     0.178 C 
ATOM      6  O   UNL     1      30.650  35.219  15.778  1.00  0.00    -0.332 OA
ENDROOT
BRANCH   1   7
ATOM      7  O   UNL     1      29.132  33.659  16.166  1.00  0.00    -0.338 OA
BRANCH   7   8
ATOM      8  C   UNL     1      28.774  33.088  17.389  1.00  0.00     0.199 C 
BRANCH   8   9
ATOM      9  C   UNL     1      27.781  31.999  17.240  1.00  0.00     0.179 C 
ATOM     10  C   UNL     1      26.167  31.118  15.870  1.00  0.00     0.282 C 
ATOM     11  O   UNL     1      27.257  31.979  15.945  1.00  0.00    -0.341 OA
ATOM     12  C   UNL     1      26.614  29.711  15.991  1.00  0.00     0.202 C 
ATOM     13  C   UNL     1      28.024  29.646  16.508  1.00  0.00     0.179 C 
ATOM     14  C   UNL     1      28.304  30.640  17.617  1.00  0.00     0.177 C 
BRANCH  10  15
ATOM     15  O   UNL     1      25.524  31.298  14.648  1.00  0.00    -0.341 OA
BRANCH  15  16
ATOM     16  C   UNL     1      24.273  30.680  14.633  1.00  0.00     0.184 C 
ATOM     17  C   UNL     1      23.782  30.304  13.263  1.00  0.00     0.178 C 
ATOM     18  O   UNL     1      22.611  31.006  12.957  1.00  0.00    -0.341 OA
ATOM     19  C   UNL     1      22.898  32.357  12.885  1.00  0.00     0.281 C 
ATOM     20  C   UNL     1      23.308  31.695  15.208  1.00  0.00     0.180 C 
ATOM     21  C   UNL     1      23.337  32.885  14.237  1.00  0.00     0.202 C 
BRANCH  17  22
ATOM     22  C   UNL     1      23.355  28.827  13.241  1.00  0.00     0.191 C 
BRANCH  22  23
ATOM     23  O   UNL     1      21.992  28.709  13.499  1.00  0.00    -0.394 OA
ATOM     24  H   UNL     1      21.813  29.230  14.338  1.00  0.00     0.210 HD
ENDBRANCH  22  23
ENDBRANCH  17  22
BRANCH  19  25
ATOM     25  O   UNL     1      21.834  33.105  12.407  1.00  0.00    -0.350 OA
BRANCH  25  26
ATOM     26  C   UNL     1      21.875  34.426  12.779  1.00  0.00     0.169 C 
BRANCH  26  27
ATOM     27  C   UNL     1      21.757  35.413  11.652  1.00  0.00     0.119 C 
BRANCH  27  28
ATOM     28  N   UNL     1      22.447  34.964  10.467  1.00  0.00    -0.092 NA
ATOM     29  N   UNL     1      22.799  35.769   9.622  1.00  0.00     0.001 N 
ATOM     30  N   UNL     1      23.241  36.577   8.804  1.00  0.00    -0.003 NA
ENDBRANCH  27  28
ENDBRANCH  26  27
ENDBRANCH  25  26
ENDBRANCH  19  25
BRANCH  20  31
ATOM     31  O   UNL     1      22.014  31.208  15.320  1.00  0.00    -0.387 OA
ATOM     32  H   UNL     1      21.416  31.879  14.909  1.00  0.00     0.211 HD
ENDBRANCH  20  31
BRANCH  21  33
ATOM     33  O   UNL     1      24.702  33.219  14.121  1.00  0.00    -0.385 OA
ATOM     34  H   UNL     1      24.843  34.064  13.638  1.00  0.00     0.211 HD
ENDBRANCH  21  33
ENDBRANCH  15  16
ENDBRANCH  10  15
BRANCH  12  35
ATOM     35  O   UNL     1      25.754  28.949  16.803  1.00  0.00    -0.385 OA
ATOM     36  H   UNL     1      25.857  28.004  16.456  1.00  0.00     0.211 HD
ENDBRANCH  12  35
BRANCH  13  37
ATOM     37  O   UNL     1      28.900  29.719  15.453  1.00  0.00    -0.387 OA
ATOM     38  H   UNL     1      28.944  28.878  14.895  1.00  0.00     0.211 HD
ENDBRANCH  13  37
BRANCH  14  39
ATOM     39  O   UNL     1      29.670  30.739  17.796  1.00  0.00    -0.387 OA
ATOM     40  H   UNL     1      30.193  30.014  17.395  1.00  0.00     0.211 HD
ENDBRANCH  14  39
ENDBRANCH   8   9
ENDBRANCH   7   8
ENDBRANCH   1   7
BRANCH   1  41
ATOM     41  C   UNL     1      31.308  32.972  15.496  1.00  0.00     0.364 C 
ATOM     42  O   UNL     1      31.074  31.743  15.557  1.00  0.00    -0.246 OA
BRANCH  41  43
ATOM     43  O   UNL     1      32.374  33.422  14.695  1.00  0.00    -0.477 OA
ATOM     44  H   UNL     1      32.623  32.879  13.867  1.00  0.00     0.296 HD
ENDBRANCH  41  43
ENDBRANCH   1  41
BRANCH   3  45
ATOM     45  O   UNL     1      32.222  34.667  19.453  1.00  0.00    -0.391 OA
ATOM     46  H   UNL     1      31.740  33.866  19.837  1.00  0.00     0.211 HD
ENDBRANCH   3  45
BRANCH   5  47
ATOM     47  C   UNL     1      30.343  37.138  17.191  1.00  0.00     0.176 C 
BRANCH  47  48
ATOM     48  O   UNL     1      30.960  38.246  17.754  1.00  0.00    -0.388 OA
ATOM     49  H   UNL     1      30.296  38.982  17.696  1.00  0.00     0.211 HD
ENDBRANCH  47  48
BRANCH  47  50
ATOM     50  C   UNL     1      29.002  37.416  16.703  1.00  0.00     0.165 C 
BRANCH  50  51
ATOM     51  O   UNL     1      28.659  38.778  16.567  1.00  0.00    -0.388 OA
ATOM     52  H   UNL     1      28.177  38.923  15.710  1.00  0.00     0.211 HD
ENDBRANCH  50  51
BRANCH  50  53
ATOM     53  C   UNL     1      27.806  36.714  17.243  1.00  0.00     0.154 C 
BRANCH  53  54
ATOM     54  N   UNL     1      26.997  36.055  16.251  1.00  0.00    -0.319 N 
ATOM     55  C   UNL     1      25.970  36.755  15.552  1.00  0.00     0.407 C 
ATOM     56  H   UNL     1      27.154  35.045  16.030  1.00  0.00     0.167 HD
ATOM     57  O   UNL     1      25.787  37.971  15.802  1.00  0.00    -0.225 OA
BRANCH  55  58
ATOM     58  O   UNL     1      25.197  36.091  14.625  1.00  0.00    -0.443 OA
BRANCH  58  59
ATOM     59  C   UNL     1      24.735  36.666  13.451  1.00  0.00     0.294 C 
BRANCH  59  60
ATOM     60  C   UNL     1      25.375  36.079  12.273  1.00  0.00     0.121 A 
ATOM     61  C   UNL     1      25.923  36.785  11.185  1.00  0.00     0.144 A 
ATOM     62  N   UNL     1      25.572  34.802  11.976  1.00  0.00    -0.131 NA
ATOM     63  N   UNL     1      26.408  35.900  10.314  1.00  0.00    -0.220 N 
ATOM     64  N   UNL     1      26.184  34.703  10.813  1.00  0.00    -0.062 NA
BRANCH  63  65
ATOM     65  C   UNL     1      27.041  36.258   9.073  1.00  0.00     0.066 A 
ATOM     66  C   UNL     1      27.030  35.375   8.015  1.00  0.00     0.029 A 
ATOM     67  C   UNL     1      27.657  37.478   8.890  1.00  0.00     0.029 A 
ATOM     68  C   UNL     1      27.628  35.719   6.799  1.00  0.00     0.005 A 
ATOM     69  C   UNL     1      28.256  37.823   7.673  1.00  0.00     0.005 A 
ATOM     70  C   UNL     1      28.242  36.938   6.620  1.00  0.00    -0.051 A 
ATOM     71  C   UNL     1      28.874  37.311   5.314  1.00  0.00     0.044 C 
ENDBRANCH  63  65
ENDBRANCH  59  60
ENDBRANCH  58  59
ENDBRANCH  55  58
ENDBRANCH  53  54
ENDBRANCH  50  53
ENDBRANCH  47  50
ENDBRANCH   5  47
BRANCH   4  72
ATOM     72  N   UNL     1      33.688  35.771  16.654  1.00  0.00    -0.348 N 
ATOM     73  C   UNL     1      34.916  36.046  17.327  1.00  0.00     0.217 C 
ATOM     74  H   UNL     1      33.770  35.575  15.636  1.00  0.00     0.163 HD
ATOM     75  C   UNL     1      36.224  36.049  16.600  1.00  0.00     0.114 C 
ATOM     76  O   UNL     1      34.814  36.281  18.557  1.00  0.00    -0.275 OA
ENDBRANCH   4  72
TORSDOF 30
BEGIN_RES LYS A 131
REMARK  4 active torsions:
REMARK  status: ('A' for Active; 'I' for Inactive)
REMARK    1  A    between atoms: CA   and  CB  
REMARK    2  A    between atoms: CB   and  CG  
REMARK    3  A    between atoms: CG   and  CD  
REMARK    4  A    between atoms: CD   and  CE  
ROOT
ATOM      1  CA  LYS A 131      29.867  25.555  16.977  1.00 20.52     0.186 C 
ENDROOT
BRANCH   1   2
ATOM      2  CB  LYS A 131      28.345  25.722  17.026  1.00 20.94     0.034 C 
BRANCH   2   3
ATOM      3  CG  LYS A 131      27.602  24.399  16.921  1.00 22.96     0.005 C 
BRANCH   3   4
ATOM      4  CD  LYS A 131      26.148  24.537  17.278  1.00 24.33     0.041 C 
BRANCH   4   5
ATOM      5  CE  LYS A 131      26.015  24.853  18.764  1.00 26.91     0.338 C 
ATOM      6  NZ  LYS A 131      25.031  25.940  18.977  1.00 27.40     0.618 N 
ENDBRANCH   4   5
ENDBRANCH   3   4
ENDBRANCH   2   3
ENDBRANCH   1   2
END_RES LYS A 131
BEGIN_RES LYS A 135
REMARK  4 active torsions:
REMARK  status: ('A' for Active; 'I' for Inactive)
REMARK    5  A    between atoms: CA   and  CB  
REMARK    6  A    between atoms: CB   and  CG  
REMARK    7  A    between atoms: CG   and  CD  
REMARK    8  A    between atoms: CD   and  CE  
ROOT
ATOM      7  CA  LYS A 135      33.193  34.663   9.290  1.00 25.02     0.186 C 
ENDROOT
BRANCH   7   8
ATOM      8  CB  LYS A 135      32.060  35.360  10.034  1.00 26.63     0.034 C 
BRANCH   8   9
ATOM      9  CG  LYS A 135      30.707  35.151   9.404  1.00 29.45     0.005 C 
BRANCH   9  10
ATOM     10  CD  LYS A 135      29.763  34.462  10.377  1.00 32.00     0.041 C 
BRANCH  10  11
ATOM     11  CE  LYS A 135      30.073  34.876  11.803  1.00 34.25     0.338 C 
ATOM     12  NZ  LYS A 135      29.348  36.125  12.169  1.00 35.99     0.618 N 
ENDBRANCH  10  11
ENDBRANCH   9  10
ENDBRANCH   8   9
ENDBRANCH   7   8
END_RES LYS A 135
