REMARK VINA RESULT:    -3.033      2.587      7.346
REMARK INTER + INTRA:         -21.236
REMARK INTER:                  -9.777
REMARK INTRA:                 -11.459
REMARK UNBOUND:               -13.239
REMARK SMILES CCOC(=O)Cn1cc(COC(=O)NC[C@@H](O)C(O)[C@@H]2O[C@@](OC[C@H]3O[C@@H](O[C@H]4[C@H](O)[C@@H](O)[C@H](OCCN=[N+]=[N-])O[C@@H]4CO)[C@H](O)[C@@H](O)[C@H]3O)(C(=O)O)C[C@H](O)[C@H]2NC(C)=O)nn1
REMARK SMILES IDX 18 1 20 2 22 3 54 4 21 5 55 6 57 7 23 8 24 9 25 10 27 11
REMARK SMILES IDX 26 12 45 13 47 14 49 15 28 16 29 17 42 18 41 19 34 20 30 21
REMARK SMILES IDX 32 22 43 23 44 24 35 26 36 27 37 28 38 29 39 30 40 31 31 32
REMARK SMILES IDX 33 34 46 36 48 38 50 40 51 42 52 43 53 44 56 46 58 48 59 49
REMARK SMILES IDX 60 51 61 52 19 53 16 55 17 56 15 58 14 59 12 60 13 62 11 63
REMARK SMILES IDX 10 64 9 65 8 66 62 67 7 68 63 69 6 70 4 71 5 72 3 73 2 74
REMARK SMILES IDX 1 75
REMARK H PARENT 44 25 31 33 33 35 46 37 48 39 50 41 53 45 56 47 58 50 19 54
REMARK H PARENT 17 57 14 61
REMARK Flexibility Score: inf
ROOT
ATOM      1  C   UNL     1      29.772  35.665  17.601  1.00  0.00     0.176 C 
ENDROOT
BRANCH   1   2
ATOM      2  C   UNL     1      30.671  34.905  16.665  1.00  0.00     0.178 C 
ATOM      3  C   UNL     1      31.128  34.642  14.387  1.00  0.00     0.272 C 
ATOM      4  C   UNL     1      31.885  33.458  14.881  1.00  0.00     0.113 C 
ATOM      5  O   UNL     1      30.756  35.508  15.438  1.00  0.00    -0.332 OA
ATOM      6  C   UNL     1      31.153  32.646  15.901  1.00  0.00     0.145 C 
ATOM      7  C   UNL     1      30.069  33.519  16.512  1.00  0.00     0.142 C 
BRANCH   3   8
ATOM      8  O   UNL     1      30.011  34.362  13.631  1.00  0.00    -0.338 OA
BRANCH   8   9
ATOM      9  C   UNL     1      29.157  35.370  13.343  1.00  0.00     0.199 C 
BRANCH   9  10
ATOM     10  C   UNL     1      28.057  34.819  12.416  1.00  0.00     0.179 C 
ATOM     11  C   UNL     1      25.836  34.150  12.374  1.00  0.00     0.282 C 
ATOM     12  O   UNL     1      26.964  34.418  13.117  1.00  0.00    -0.341 OA
ATOM     13  C   UNL     1      25.457  35.248  11.426  1.00  0.00     0.202 C 
ATOM     14  C   UNL     1      26.606  35.412  10.464  1.00  0.00     0.179 C 
ATOM     15  C   UNL     1      27.811  35.756  11.271  1.00  0.00     0.177 C 
BRANCH  11  16
ATOM     16  O   UNL     1      24.732  33.850  13.154  1.00  0.00    -0.341 OA
BRANCH  16  17
ATOM     17  C   UNL     1      24.796  32.659  13.831  1.00  0.00     0.184 C 
ATOM     18  C   UNL     1      23.682  31.700  13.469  1.00  0.00     0.178 C 
ATOM     19  O   UNL     1      22.784  31.542  14.515  1.00  0.00    -0.341 OA
ATOM     20  C   UNL     1      23.378  30.910  15.632  1.00  0.00     0.281 C 
ATOM     21  C   UNL     1      24.731  32.926  15.334  1.00  0.00     0.180 C 
ATOM     22  C   UNL     1      24.671  31.563  16.007  1.00  0.00     0.202 C 
BRANCH  18  23
ATOM     23  C   UNL     1      24.258  30.404  12.963  1.00  0.00     0.191 C 
BRANCH  23  24
ATOM     24  O   UNL     1      23.249  29.579  12.432  1.00  0.00    -0.394 OA
ATOM     25  H   UNL     1      22.741  29.136  13.141  1.00  0.00     0.210 HD
ENDBRANCH  23  24
ENDBRANCH  18  23
BRANCH  20  26
ATOM     26  O   UNL     1      23.509  29.564  15.414  1.00  0.00    -0.350 OA
BRANCH  26  27
ATOM     27  C   UNL     1      23.054  28.679  16.332  1.00  0.00     0.169 C 
BRANCH  27  28
ATOM     28  C   UNL     1      24.021  27.855  17.097  1.00  0.00     0.119 C 
BRANCH  28  29
ATOM     29  N   UNL     1      25.024  28.537  17.841  1.00  0.00    -0.092 NA
ATOM     30  N   UNL     1      26.223  28.507  17.491  1.00  0.00     0.001 N 
ATOM     31  N   UNL     1      27.298  28.516  16.866  1.00  0.00    -0.003 NA
ENDBRANCH  28  29
ENDBRANCH  27  28
ENDBRANCH  26  27
ENDBRANCH  20  26
BRANCH  21  32
ATOM     32  O   UNL     1      25.890  33.599  15.732  1.00  0.00    -0.387 OA
ATOM     33  H   UNL     1      26.645  33.212  15.189  1.00  0.00     0.211 HD
ENDBRANCH  21  32
BRANCH  22  34
ATOM     34  O   UNL     1      24.824  31.722  17.387  1.00  0.00    -0.385 OA
ATOM     35  H   UNL     1      25.768  31.781  17.674  1.00  0.00     0.211 HD
ENDBRANCH  22  34
ENDBRANCH  16  17
ENDBRANCH  11  16
BRANCH  13  36
ATOM     36  O   UNL     1      24.307  34.871  10.745  1.00  0.00    -0.385 OA
ATOM     37  H   UNL     1      24.418  34.708   9.796  1.00  0.00     0.211 HD
ENDBRANCH  13  36
BRANCH  14  38
ATOM     38  O   UNL     1      26.297  36.494   9.609  1.00  0.00    -0.387 OA
ATOM     39  H   UNL     1      25.357  36.774   9.738  1.00  0.00     0.211 HD
ENDBRANCH  14  38
BRANCH  15  40
ATOM     40  O   UNL     1      27.650  37.087  11.722  1.00  0.00    -0.387 OA
ATOM     41  H   UNL     1      26.700  37.132  12.019  1.00  0.00     0.211 HD
ENDBRANCH  15  40
ENDBRANCH   9  10
ENDBRANCH   8   9
ENDBRANCH   3   8
BRANCH   3  42
ATOM     42  C   UNL     1      32.064  35.463  13.580  1.00  0.00     0.364 C 
ATOM     43  O   UNL     1      32.349  36.622  13.956  1.00  0.00    -0.246 OA
BRANCH  42  44
ATOM     44  O   UNL     1      32.615  34.971  12.431  1.00  0.00    -0.477 OA
ATOM     45  H   UNL     1      32.244  35.193  11.510  1.00  0.00     0.296 HD
ENDBRANCH  42  44
ENDBRANCH   3  42
BRANCH   6  46
ATOM     46  O   UNL     1      30.660  31.446  15.447  1.00  0.00    -0.391 OA
ATOM     47  H   UNL     1      31.426  30.824  15.294  1.00  0.00     0.211 HD
ENDBRANCH   6  46
BRANCH   7  48
ATOM     48  N   UNL     1      29.640  32.984  17.797  1.00  0.00    -0.348 N 
ATOM     49  C   UNL     1      28.528  32.117  17.918  1.00  0.00     0.217 C 
ATOM     50  H   UNL     1      30.170  33.244  18.646  1.00  0.00     0.163 HD
ATOM     51  C   UNL     1      28.078  31.562  19.229  1.00  0.00     0.114 C 
ATOM     52  O   UNL     1      27.901  31.808  16.869  1.00  0.00    -0.275 OA
ENDBRANCH   7  48
ENDBRANCH   1   2
BRANCH   1  53
ATOM     53  O   UNL     1      30.470  36.084  18.716  1.00  0.00    -0.388 OA
ATOM     54  H   UNL     1      31.421  36.325  18.521  1.00  0.00     0.211 HD
ENDBRANCH   1  53
BRANCH   1  55
ATOM     55  C   UNL     1      29.122  36.874  16.950  1.00  0.00     0.165 C 
BRANCH  55  56
ATOM     56  O   UNL     1      29.263  38.024  17.689  1.00  0.00    -0.388 OA
ATOM     57  H   UNL     1      30.199  38.269  17.877  1.00  0.00     0.211 HD
ENDBRANCH  55  56
BRANCH  55  58
ATOM     58  C   UNL     1      27.686  36.557  16.693  1.00  0.00     0.154 C 
BRANCH  58  59
ATOM     59  N   UNL     1      26.913  37.645  16.209  1.00  0.00    -0.319 N 
ATOM     60  C   UNL     1      25.714  37.533  15.455  1.00  0.00     0.407 C 
ATOM     61  H   UNL     1      27.225  38.659  16.409  1.00  0.00     0.167 HD
ATOM     62  O   UNL     1      25.227  36.431  15.151  1.00  0.00    -0.225 OA
BRANCH  60  63
ATOM     63  O   UNL     1      25.055  38.703  15.040  1.00  0.00    -0.443 OA
BRANCH  63  64
ATOM     64  C   UNL     1      25.737  39.704  14.359  1.00  0.00     0.294 C 
BRANCH  64  65
ATOM     65  C   UNL     1      25.684  39.578  12.890  1.00  0.00     0.120 A 
ATOM     66  C   UNL     1      26.331  40.386  11.974  1.00  0.00     0.139 A 
ATOM     67  N   UNL     1      25.006  38.684  12.160  1.00  0.00    -0.132 NA
ATOM     68  N   UNL     1      26.031  39.969  10.721  1.00  0.00    -0.241 N 
ATOM     69  N   UNL     1      25.230  38.937  10.873  1.00  0.00    -0.066 NA
BRANCH  68  70
ATOM     70  C   UNL     1      26.530  40.590   9.500  1.00  0.00     0.268 C 
BRANCH  70  71
ATOM     71  C   UNL     1      27.469  39.607   8.851  1.00  0.00     0.327 C 
ATOM     72  O   UNL     1      27.471  39.404   7.622  1.00  0.00    -0.250 OA
BRANCH  71  73
ATOM     73  O   UNL     1      28.377  38.883   9.604  1.00  0.00    -0.465 OA
BRANCH  73  74
ATOM     74  C   UNL     1      29.741  39.175   9.707  1.00  0.00     0.229 C 
ATOM     75  C   UNL     1      30.186  39.414  11.129  1.00  0.00     0.049 C 
ENDBRANCH  73  74
ENDBRANCH  71  73
ENDBRANCH  70  71
ENDBRANCH  68  70
ENDBRANCH  64  65
ENDBRANCH  63  64
ENDBRANCH  60  63
ENDBRANCH  58  59
ENDBRANCH  55  58
ENDBRANCH   1  55
TORSDOF 33
BEGIN_RES LYS A 131
REMARK  4 active torsions:
REMARK  status: ('A' for Active; 'I' for Inactive)
REMARK    1  A    between atoms: CA   and  CB  
REMARK    2  A    between atoms: CB   and  CG  
REMARK    3  A    between atoms: CG   and  CD  
REMARK    4  A    between atoms: CD   and  CE  
ROOT
ATOM      1  CA  LYS A 131      29.867  25.555  16.977  1.00 20.52     0.186 C 
ENDROOT
BRANCH   1   2
ATOM      2  CB  LYS A 131      28.345  25.722  17.026  1.00 20.94     0.034 C 
BRANCH   2   3
ATOM      3  CG  LYS A 131      27.602  24.400  16.915  1.00 22.96     0.005 C 
BRANCH   3   4
ATOM      4  CD  LYS A 131      26.146  24.537  17.264  1.00 24.33     0.041 C 
BRANCH   4   5
ATOM      5  CE  LYS A 131      26.005  24.840  18.752  1.00 26.91     0.338 C 
ATOM      6  NZ  LYS A 131      25.540  23.639  19.485  1.00 27.40     0.618 N 
ENDBRANCH   4   5
ENDBRANCH   3   4
ENDBRANCH   2   3
ENDBRANCH   1   2
END_RES LYS A 131
BEGIN_RES LYS A 135
REMARK  4 active torsions:
REMARK  status: ('A' for Active; 'I' for Inactive)
REMARK    5  A    between atoms: CA   and  CB  
REMARK    6  A    between atoms: CB   and  CG  
REMARK    7  A    between atoms: CG   and  CD  
REMARK    8  A    between atoms: CD   and  CE  
ROOT
ATOM      7  CA  LYS A 135      33.193  34.663   9.290  1.00 25.02     0.186 C 
ENDROOT
BRANCH   7   8
ATOM      8  CB  LYS A 135      32.060  35.360  10.034  1.00 26.63     0.034 C 
BRANCH   8   9
ATOM      9  CG  LYS A 135      30.887  35.709   9.155  1.00 29.45     0.005 C 
BRANCH   9  10
ATOM     10  CD  LYS A 135      30.234  34.451   8.605  1.00 32.00     0.041 C 
BRANCH  10  11
ATOM     11  CE  LYS A 135      29.057  34.805   7.717  1.00 34.25     0.338 C 
ATOM     12  NZ  LYS A 135      28.960  36.278   7.517  1.00 35.99     0.618 N 
ENDBRANCH  10  11
ENDBRANCH   9  10
ENDBRANCH   8   9
ENDBRANCH   7   8
END_RES LYS A 135
