REMARK VINA RESULT:    -4.214      4.210      7.159
REMARK INTER + INTRA:         -21.557
REMARK INTER:                 -11.748
REMARK INTRA:                  -9.809
REMARK UNBOUND:               -10.939
REMARK SMILES CC(=O)N[C@@H]1[C@@H](O)C[C@](OC[C@H]2O[C@@H](O[C@H]3[C@H](O)[C@@H](O)[C@H](OCCN=[N+]=[N-])O[C@@H]3CO)[C@H](O)[C@@H](O)[C@H]2O)(C(=O)O)O[C@H]1C(O)[C@H](O)CNC(=O)OCc1cn(Cc2ccsc2)nn1
REMARK SMILES IDX 9 1 8 2 6 3 5 4 42 5 41 6 10 7 11 8 12 9 14 10 13 11 32 12
REMARK SMILES IDX 34 13 36 14 15 15 16 16 29 17 28 18 21 19 17 20 19 21 30 22
REMARK SMILES IDX 31 23 22 25 23 26 24 27 25 28 26 29 27 30 18 31 20 33 33 35
REMARK SMILES IDX 35 37 37 39 38 41 39 42 40 43 7 45 43 47 44 48 45 50 46 51
REMARK SMILES IDX 47 53 48 54 49 55 50 57 51 58 52 59 53 60 54 61 63 62 55 63
REMARK SMILES IDX 62 64 56 65 57 66 58 67 61 68 59 69 60 70 4 71 2 72 1 74
REMARK SMILES IDX 3 75
REMARK H PARENT 31 24 18 32 20 34 33 36 35 38 37 40 40 44 7 46 44 49 46 52
REMARK H PARENT 48 56 4 73
REMARK Flexibility Score: inf
ROOT
ATOM      1  C   UNL     1      30.973  37.718  13.109  1.00  0.00     0.272 C 
ATOM      2  C   UNL     1      32.009  36.668  12.841  1.00  0.00     0.113 C 
ATOM      3  C   UNL     1      32.122  35.604  13.900  1.00  0.00     0.145 C 
ATOM      4  C   UNL     1      30.811  35.130  14.393  1.00  0.00     0.142 C 
ATOM      5  C   UNL     1      29.691  36.148  14.297  1.00  0.00     0.178 C 
ATOM      6  O   UNL     1      29.731  36.979  13.236  1.00  0.00    -0.332 OA
ENDROOT
BRANCH   1   7
ATOM      7  O   UNL     1      30.745  38.434  11.987  1.00  0.00    -0.338 OA
BRANCH   7   8
ATOM      8  C   UNL     1      31.518  38.459  10.917  1.00  0.00     0.199 C 
BRANCH   8   9
ATOM      9  C   UNL     1      31.087  38.867   9.570  1.00  0.00     0.179 C 
ATOM     10  C   UNL     1      29.520  38.215   8.056  1.00  0.00     0.282 C 
ATOM     11  O   UNL     1      29.724  38.404   9.442  1.00  0.00    -0.341 OA
ATOM     12  C   UNL     1      29.943  39.390   7.243  1.00  0.00     0.202 C 
ATOM     13  C   UNL     1      30.361  40.603   7.994  1.00  0.00     0.179 C 
ATOM     14  C   UNL     1      30.916  40.363   9.369  1.00  0.00     0.177 C 
BRANCH  10  15
ATOM     15  O   UNL     1      28.208  37.858   7.870  1.00  0.00    -0.341 OA
BRANCH  15  16
ATOM     16  C   UNL     1      27.294  38.689   8.541  1.00  0.00     0.184 C 
ATOM     17  C   UNL     1      26.705  38.023   9.733  1.00  0.00     0.178 C 
ATOM     18  O   UNL     1      25.497  37.415   9.581  1.00  0.00    -0.341 OA
ATOM     19  C   UNL     1      24.995  37.413   8.268  1.00  0.00     0.281 C 
ATOM     20  C   UNL     1      26.318  39.321   7.600  1.00  0.00     0.180 C 
ATOM     21  C   UNL     1      24.880  38.862   7.878  1.00  0.00     0.202 C 
BRANCH  17  22
ATOM     22  C   UNL     1      26.626  38.947  10.938  1.00  0.00     0.191 C 
BRANCH  22  23
ATOM     23  O   UNL     1      27.902  38.985  11.498  1.00  0.00    -0.394 OA
ATOM     24  H   UNL     1      28.244  38.065  11.702  1.00  0.00     0.210 HD
ENDBRANCH  22  23
ENDBRANCH  17  22
BRANCH  19  25
ATOM     25  O   UNL     1      23.820  36.712   8.283  1.00  0.00    -0.350 OA
BRANCH  25  26
ATOM     26  C   UNL     1      23.737  35.767   9.287  1.00  0.00     0.169 C 
BRANCH  26  27
ATOM     27  C   UNL     1      22.380  35.562   9.877  1.00  0.00     0.119 C 
BRANCH  27  28
ATOM     28  N   UNL     1      22.045  36.620  10.791  1.00  0.00    -0.092 NA
ATOM     29  N   UNL     1      22.874  36.924  11.664  1.00  0.00     0.001 N 
ATOM     30  N   UNL     1      23.521  37.494  12.542  1.00  0.00    -0.003 NA
ENDBRANCH  27  28
ENDBRANCH  26  27
ENDBRANCH  25  26
ENDBRANCH  19  25
BRANCH  20  31
ATOM     31  O   UNL     1      26.392  40.697   7.542  1.00  0.00    -0.387 OA
ATOM     32  H   UNL     1      26.454  41.014   6.617  1.00  0.00     0.211 HD
ENDBRANCH  20  31
BRANCH  21  33
ATOM     33  O   UNL     1      24.048  39.059   6.807  1.00  0.00    -0.385 OA
ATOM     34  H   UNL     1      23.679  38.207   6.445  1.00  0.00     0.211 HD
ENDBRANCH  21  33
ENDBRANCH  15  16
ENDBRANCH  10  15
BRANCH  12  35
ATOM     35  O   UNL     1      30.905  39.024   6.266  1.00  0.00    -0.385 OA
ATOM     36  H   UNL     1      31.525  38.347   6.645  1.00  0.00     0.211 HD
ENDBRANCH  12  35
BRANCH  13  37
ATOM     37  O   UNL     1      29.242  41.447   8.148  1.00  0.00    -0.387 OA
ATOM     38  H   UNL     1      28.503  41.077   7.613  1.00  0.00     0.211 HD
ENDBRANCH  13  37
BRANCH  14  39
ATOM     39  O   UNL     1      29.977  40.752  10.356  1.00  0.00    -0.387 OA
ATOM     40  H   UNL     1      29.798  41.723  10.158  1.00  0.00     0.211 HD
ENDBRANCH  14  39
ENDBRANCH   8   9
ENDBRANCH   7   8
ENDBRANCH   1   7
BRANCH   1  41
ATOM     41  C   UNL     1      31.105  38.408  14.392  1.00  0.00     0.364 C 
ATOM     42  O   UNL     1      30.228  39.160  14.856  1.00  0.00    -0.246 OA
BRANCH  41  43
ATOM     43  O   UNL     1      32.249  38.269  15.199  1.00  0.00    -0.477 OA
ATOM     44  H   UNL     1      32.390  37.443  15.764  1.00  0.00     0.296 HD
ENDBRANCH  41  43
ENDBRANCH   1  41
BRANCH   3  45
ATOM     45  O   UNL     1      32.760  34.519  13.238  1.00  0.00    -0.391 OA
ATOM     46  H   UNL     1      33.702  34.764  13.018  1.00  0.00     0.211 HD
ENDBRANCH   3  45
BRANCH   5  47
ATOM     47  C   UNL     1      28.360  35.370  14.149  1.00  0.00     0.176 C 
BRANCH  47  48
ATOM     48  O   UNL     1      28.631  34.111  13.616  1.00  0.00    -0.388 OA
ATOM     49  H   UNL     1      28.194  34.016  12.740  1.00  0.00     0.211 HD
ENDBRANCH  47  48
BRANCH  47  50
ATOM     50  C   UNL     1      27.504  36.111  13.186  1.00  0.00     0.165 C 
BRANCH  50  51
ATOM     51  O   UNL     1      27.030  37.271  13.798  1.00  0.00    -0.388 OA
ATOM     52  H   UNL     1      26.682  37.909  13.129  1.00  0.00     0.211 HD
ENDBRANCH  50  51
BRANCH  50  53
ATOM     53  C   UNL     1      26.314  35.339  12.680  1.00  0.00     0.154 C 
BRANCH  53  54
ATOM     54  N   UNL     1      25.752  34.457  13.658  1.00  0.00    -0.319 N 
ATOM     55  C   UNL     1      24.597  33.684  13.486  1.00  0.00     0.407 C 
ATOM     56  H   UNL     1      26.255  34.383  14.593  1.00  0.00     0.167 HD
ATOM     57  O   UNL     1      23.979  33.745  12.402  1.00  0.00    -0.225 OA
BRANCH  55  58
ATOM     58  O   UNL     1      24.163  32.874  14.514  1.00  0.00    -0.443 OA
BRANCH  58  59
ATOM     59  C   UNL     1      24.659  32.927  15.821  1.00  0.00     0.294 C 
BRANCH  59  60
ATOM     60  C   UNL     1      25.804  32.003  15.944  1.00  0.00     0.120 A 
ATOM     61  C   UNL     1      25.767  30.704  16.346  1.00  0.00     0.138 A 
ATOM     62  N   UNL     1      27.079  32.314  15.669  1.00  0.00    -0.132 NA
ATOM     63  N   UNL     1      27.030  30.245  16.309  1.00  0.00    -0.248 N 
ATOM     64  N   UNL     1      27.814  31.222  15.900  1.00  0.00    -0.067 NA
BRANCH  63  65
ATOM     65  C   UNL     1      27.437  28.909  16.659  1.00  0.00     0.182 C 
BRANCH  65  66
ATOM     66  C   UNL     1      27.290  28.738  18.176  1.00  0.00    -0.016 A 
ATOM     67  C   UNL     1      26.456  27.888  18.740  1.00  0.00     0.017 A 
ATOM     68  C   UNL     1      28.092  29.539  18.988  1.00  0.00     0.070 A 
ATOM     69  C   UNL     1      26.364  27.775  20.115  1.00  0.00     0.065 A 
ATOM     70  S   UNL     1      27.600  29.020  20.643  1.00  0.00    -0.152 S 
ENDBRANCH  65  66
ENDBRANCH  63  65
ENDBRANCH  59  60
ENDBRANCH  58  59
ENDBRANCH  55  58
ENDBRANCH  53  54
ENDBRANCH  50  53
ENDBRANCH  47  50
ENDBRANCH   5  47
BRANCH   4  71
ATOM     71  N   UNL     1      30.819  34.624  15.733  1.00  0.00    -0.348 N 
ATOM     72  C   UNL     1      30.902  33.239  16.030  1.00  0.00     0.217 C 
ATOM     73  H   UNL     1      30.764  35.283  16.540  1.00  0.00     0.163 HD
ATOM     74  C   UNL     1      30.912  32.700  17.425  1.00  0.00     0.114 C 
ATOM     75  O   UNL     1      30.967  32.469  15.028  1.00  0.00    -0.275 OA
ENDBRANCH   4  71
TORSDOF 31
BEGIN_RES LYS A 131
REMARK  4 active torsions:
REMARK  status: ('A' for Active; 'I' for Inactive)
REMARK    1  A    between atoms: CA   and  CB  
REMARK    2  A    between atoms: CB   and  CG  
REMARK    3  A    between atoms: CG   and  CD  
REMARK    4  A    between atoms: CD   and  CE  
ROOT
ATOM      1  CA  LYS A 131      29.867  25.555  16.977  1.00 20.52     0.186 C 
ENDROOT
BRANCH   1   2
ATOM      2  CB  LYS A 131      28.345  25.722  17.026  1.00 20.94     0.034 C 
BRANCH   2   3
ATOM      3  CG  LYS A 131      27.602  24.398  16.937  1.00 22.96     0.005 C 
BRANCH   3   4
ATOM      4  CD  LYS A 131      26.501  24.296  17.956  1.00 24.33     0.041 C 
BRANCH   4   5
ATOM      5  CE  LYS A 131      25.412  23.364  17.437  1.00 26.91     0.338 C 
ATOM      6  NZ  LYS A 131      24.253  24.144  16.943  1.00 27.40     0.618 N 
ENDBRANCH   4   5
ENDBRANCH   3   4
ENDBRANCH   2   3
ENDBRANCH   1   2
END_RES LYS A 131
BEGIN_RES LYS A 135
REMARK  4 active torsions:
REMARK  status: ('A' for Active; 'I' for Inactive)
REMARK    5  A    between atoms: CA   and  CB  
REMARK    6  A    between atoms: CB   and  CG  
REMARK    7  A    between atoms: CG   and  CD  
REMARK    8  A    between atoms: CD   and  CE  
ROOT
ATOM      7  CA  LYS A 135      33.193  34.663   9.290  1.00 25.02     0.186 C 
ENDROOT
BRANCH   7   8
ATOM      8  CB  LYS A 135      32.060  35.360  10.034  1.00 26.63     0.034 C 
BRANCH   8   9
ATOM      9  CG  LYS A 135      30.707  35.150   9.404  1.00 29.45     0.005 C 
BRANCH   9  10
ATOM     10  CD  LYS A 135      29.677  34.777  10.459  1.00 32.00     0.041 C 
BRANCH  10  11
ATOM     11  CE  LYS A 135      28.376  34.350   9.805  1.00 34.25     0.338 C 
ATOM     12  NZ  LYS A 135      28.448  34.492   8.325  1.00 35.99     0.618 N 
ENDBRANCH  10  11
ENDBRANCH   9  10
ENDBRANCH   8   9
ENDBRANCH   7   8
END_RES LYS A 135
