REMARK VINA RESULT:    -4.929      7.952     14.000
REMARK INTER + INTRA:         -22.150
REMARK INTER:                 -11.068
REMARK INTRA:                 -11.081
REMARK UNBOUND:                -9.729
REMARK SMILES CC(=O)N[C@@H]1[C@@H](O)C[C@](OC[C@H]2O[C@@H](O[C@H]3[C@H](O)[C@@H](O)[C@H](OCCN=[N+]=[N-])O[C@@H]3CO)[C@H](O)[C@@H](O)[C@H]2O)(C(=O)O)O[C@H]1C(O)[C@H](O)CNC(=O)OCc1cn(-c2ncccc2C#N)nn1
REMARK SMILES IDX 9 1 8 2 6 3 5 4 42 5 41 6 10 7 11 8 12 9 14 10 13 11 32 12
REMARK SMILES IDX 34 13 36 14 15 15 16 16 29 17 28 18 21 19 17 20 19 21 30 22
REMARK SMILES IDX 31 23 22 25 23 26 24 27 25 28 26 29 27 30 18 31 20 33 33 35
REMARK SMILES IDX 35 37 37 39 38 41 39 42 40 43 7 45 43 47 44 48 45 50 46 51
REMARK SMILES IDX 47 53 48 54 49 55 50 57 51 58 52 59 53 60 54 61 65 62 55 63
REMARK SMILES IDX 64 64 56 65 57 66 61 67 58 68 60 69 59 70 62 71 63 72 4 73
REMARK SMILES IDX 2 74 1 76 3 77
REMARK H PARENT 31 24 18 32 20 34 33 36 35 38 37 40 40 44 7 46 44 49 46 52
REMARK H PARENT 48 56 4 75
REMARK Flexibility Score: inf
ROOT
ATOM      1  C   UNL     1      24.518  39.800   8.588  1.00  0.00     0.272 C 
ATOM      2  C   UNL     1      24.932  39.331   9.917  1.00  0.00     0.113 C 
ATOM      3  C   UNL     1      24.357  38.021  10.291  1.00  0.00     0.145 C 
ATOM      4  C   UNL     1      24.047  37.082   9.172  1.00  0.00     0.142 C 
ATOM      5  C   UNL     1      24.436  37.535   7.794  1.00  0.00     0.178 C 
ATOM      6  O   UNL     1      24.458  38.836   7.609  1.00  0.00    -0.332 OA
ENDROOT
BRANCH   1   7
ATOM      7  O   UNL     1      25.133  40.827   7.993  1.00  0.00    -0.338 OA
BRANCH   7   8
ATOM      8  C   UNL     1      25.636  41.958   8.381  1.00  0.00     0.199 C 
BRANCH   8   9
ATOM      9  C   UNL     1      26.872  42.226   7.516  1.00  0.00     0.179 C 
ATOM     10  C   UNL     1      28.724  41.293   6.600  1.00  0.00     0.282 C 
ATOM     11  O   UNL     1      27.822  41.264   7.725  1.00  0.00    -0.341 OA
ATOM     12  C   UNL     1      28.049  40.720   5.407  1.00  0.00     0.202 C 
ATOM     13  C   UNL     1      26.700  41.403   5.160  1.00  0.00     0.179 C 
ATOM     14  C   UNL     1      26.578  42.545   6.097  1.00  0.00     0.177 C 
BRANCH  10  15
ATOM     15  O   UNL     1      29.877  40.656   6.902  1.00  0.00    -0.341 OA
BRANCH  15  16
ATOM     16  C   UNL     1      30.892  41.449   7.359  1.00  0.00     0.184 C 
ATOM     17  C   UNL     1      31.812  41.861   6.172  1.00  0.00     0.178 C 
ATOM     18  O   UNL     1      33.033  41.207   6.328  1.00  0.00    -0.341 OA
ATOM     19  C   UNL     1      32.841  39.823   6.455  1.00  0.00     0.281 C 
ATOM     20  C   UNL     1      31.761  40.817   8.415  1.00  0.00     0.180 C 
ATOM     21  C   UNL     1      32.388  39.533   7.859  1.00  0.00     0.202 C 
BRANCH  17  22
ATOM     22  C   UNL     1      31.952  43.349   6.173  1.00  0.00     0.191 C 
BRANCH  22  23
ATOM     23  O   UNL     1      33.108  43.768   6.856  1.00  0.00    -0.394 OA
ATOM     24  H   UNL     1      32.892  44.221   7.705  1.00  0.00     0.210 HD
ENDBRANCH  22  23
ENDBRANCH  17  22
BRANCH  19  25
ATOM     25  O   UNL     1      34.041  39.228   6.143  1.00  0.00    -0.350 OA
BRANCH  25  26
ATOM     26  C   UNL     1      35.101  40.154   6.176  1.00  0.00     0.169 C 
BRANCH  26  27
ATOM     27  C   UNL     1      36.153  39.716   7.174  1.00  0.00     0.119 C 
BRANCH  27  28
ATOM     28  N   UNL     1      36.819  40.943   7.632  1.00  0.00    -0.092 NA
ATOM     29  N   UNL     1      36.102  41.721   8.313  1.00  0.00     0.001 N 
ATOM     30  N   UNL     1      35.393  42.677   8.665  1.00  0.00    -0.003 NA
ENDBRANCH  27  28
ENDBRANCH  26  27
ENDBRANCH  25  26
ENDBRANCH  19  25
BRANCH  20  31
ATOM     31  O   UNL     1      32.750  41.655   8.873  1.00  0.00    -0.387 OA
ATOM     32  H   UNL     1      32.844  42.518   8.439  1.00  0.00     0.211 HD
ENDBRANCH  20  31
BRANCH  21  33
ATOM     33  O   UNL     1      31.462  38.497   7.910  1.00  0.00    -0.385 OA
ATOM     34  H   UNL     1      30.937  38.620   8.748  1.00  0.00     0.211 HD
ENDBRANCH  21  33
ENDBRANCH  15  16
ENDBRANCH  10  15
BRANCH  12  35
ATOM     35  O   UNL     1      28.835  40.861   4.278  1.00  0.00    -0.385 OA
ATOM     36  H   UNL     1      29.606  40.209   4.366  1.00  0.00     0.211 HD
ENDBRANCH  12  35
BRANCH  13  37
ATOM     37  O   UNL     1      25.665  40.457   5.352  1.00  0.00    -0.387 OA
ATOM     38  H   UNL     1      25.534  39.923   4.520  1.00  0.00     0.211 HD
ENDBRANCH  13  37
BRANCH  14  39
ATOM     39  O   UNL     1      25.356  43.218   6.005  1.00  0.00    -0.387 OA
ATOM     40  H   UNL     1      24.614  42.635   6.365  1.00  0.00     0.211 HD
ENDBRANCH  14  39
ENDBRANCH   8   9
ENDBRANCH   7   8
ENDBRANCH   1   7
BRANCH   1  41
ATOM     41  C   UNL     1      23.071  40.262   8.761  1.00  0.00     0.364 C 
ATOM     42  O   UNL     1      22.186  40.099   7.939  1.00  0.00    -0.246 OA
BRANCH  41  43
ATOM     43  O   UNL     1      22.711  40.927   9.950  1.00  0.00    -0.477 OA
ATOM     44  H   UNL     1      21.759  40.975  10.278  1.00  0.00     0.296 HD
ENDBRANCH  41  43
ENDBRANCH   1  41
BRANCH   3  45
ATOM     45  O   UNL     1      25.141  37.399  11.280  1.00  0.00    -0.391 OA
ATOM     46  H   UNL     1      25.040  37.998  12.092  1.00  0.00     0.211 HD
ENDBRANCH   3  45
BRANCH   5  47
ATOM     47  C   UNL     1      25.736  36.827   7.318  1.00  0.00     0.176 C 
BRANCH  47  48
ATOM     48  O   UNL     1      26.272  36.187   8.475  1.00  0.00    -0.388 OA
ATOM     49  H   UNL     1      26.552  36.843   9.136  1.00  0.00     0.211 HD
ENDBRANCH  47  48
BRANCH  47  50
ATOM     50  C   UNL     1      26.776  37.676   6.796  1.00  0.00     0.165 C 
BRANCH  50  51
ATOM     51  O   UNL     1      27.136  37.498   5.437  1.00  0.00    -0.388 OA
ATOM     52  H   UNL     1      27.703  36.667   5.361  1.00  0.00     0.211 HD
ENDBRANCH  50  51
BRANCH  50  53
ATOM     53  C   UNL     1      28.085  37.589   7.513  1.00  0.00     0.154 C 
BRANCH  53  54
ATOM     54  N   UNL     1      28.390  38.487   8.555  1.00  0.00    -0.319 N 
ATOM     55  C   UNL     1      28.346  38.301   9.936  1.00  0.00     0.407 C 
ATOM     56  H   UNL     1      28.704  39.490   8.259  1.00  0.00     0.167 HD
ATOM     57  O   UNL     1      27.998  37.173  10.366  1.00  0.00    -0.225 OA
BRANCH  55  58
ATOM     58  O   UNL     1      28.695  39.362  10.795  1.00  0.00    -0.443 OA
BRANCH  58  59
ATOM     59  C   UNL     1      30.047  39.662  10.977  1.00  0.00     0.294 C 
BRANCH  59  60
ATOM     60  C   UNL     1      30.794  38.564  11.559  1.00  0.00     0.121 A 
ATOM     61  C   UNL     1      30.600  38.024  12.774  1.00  0.00     0.146 A 
ATOM     62  N   UNL     1      31.896  37.908  10.989  1.00  0.00    -0.131 NA
ATOM     63  N   UNL     1      31.503  37.080  13.002  1.00  0.00    -0.201 N 
ATOM     64  N   UNL     1      32.224  37.065  11.922  1.00  0.00    -0.060 NA
BRANCH  63  65
ATOM     65  C   UNL     1      31.670  36.202  14.096  1.00  0.00     0.173 A 
ATOM     66  N   UNL     1      32.746  36.449  14.888  1.00  0.00    -0.236 NA
ATOM     67  C   UNL     1      30.871  35.065  14.268  1.00  0.00     0.097 A 
ATOM     68  C   UNL     1      33.052  35.486  15.921  1.00  0.00     0.113 A 
ATOM     69  C   UNL     1      31.229  34.188  15.268  1.00  0.00     0.025 A 
ATOM     70  C   UNL     1      32.288  34.428  16.040  1.00  0.00     0.022 A 
BRANCH  67  71
ATOM     71  C   UNL     1      29.668  34.795  13.546  1.00  0.00     0.103 C 
ATOM     72  N   UNL     1      28.656  34.578  12.919  1.00  0.00    -0.192 NA
ENDBRANCH  67  71
ENDBRANCH  63  65
ENDBRANCH  59  60
ENDBRANCH  58  59
ENDBRANCH  55  58
ENDBRANCH  53  54
ENDBRANCH  50  53
ENDBRANCH  47  50
ENDBRANCH   5  47
BRANCH   4  73
ATOM     73  N   UNL     1      22.672  36.676   9.367  1.00  0.00    -0.348 N 
ATOM     74  C   UNL     1      22.176  35.709  10.246  1.00  0.00     0.217 C 
ATOM     75  H   UNL     1      21.917  37.158   8.757  1.00  0.00     0.163 HD
ATOM     76  C   UNL     1      20.685  35.452  10.349  1.00  0.00     0.114 C 
ATOM     77  O   UNL     1      22.875  34.998  11.001  1.00  0.00    -0.275 OA
ENDBRANCH   4  73
TORSDOF 31
BEGIN_RES LYS A 131
REMARK  4 active torsions:
REMARK  status: ('A' for Active; 'I' for Inactive)
REMARK    1  A    between atoms: CA   and  CB  
REMARK    2  A    between atoms: CB   and  CG  
REMARK    3  A    between atoms: CG   and  CD  
REMARK    4  A    between atoms: CD   and  CE  
ROOT
ATOM      1  CA  LYS A 131      29.867  25.555  16.977  1.00 20.52     0.186 C 
ENDROOT
BRANCH   1   2
ATOM      2  CB  LYS A 131      28.345  25.722  17.026  1.00 20.94     0.034 C 
BRANCH   2   3
ATOM      3  CG  LYS A 131      27.599  24.476  16.573  1.00 22.96     0.005 C 
BRANCH   3   4
ATOM      4  CD  LYS A 131      27.122  23.648  17.734  1.00 24.33     0.041 C 
BRANCH   4   5
ATOM      5  CE  LYS A 131      25.725  24.103  18.144  1.00 26.91     0.338 C 
ATOM      6  NZ  LYS A 131      24.698  23.452  17.297  1.00 27.40     0.618 N 
ENDBRANCH   4   5
ENDBRANCH   3   4
ENDBRANCH   2   3
ENDBRANCH   1   2
END_RES LYS A 131
BEGIN_RES LYS A 135
REMARK  4 active torsions:
REMARK  status: ('A' for Active; 'I' for Inactive)
REMARK    5  A    between atoms: CA   and  CB  
REMARK    6  A    between atoms: CB   and  CG  
REMARK    7  A    between atoms: CG   and  CD  
REMARK    8  A    between atoms: CD   and  CE  
ROOT
ATOM      7  CA  LYS A 135      33.193  34.663   9.290  1.00 25.02     0.186 C 
ENDROOT
BRANCH   7   8
ATOM      8  CB  LYS A 135      32.060  35.360  10.034  1.00 26.63     0.034 C 
BRANCH   8   9
ATOM      9  CG  LYS A 135      30.725  34.681   9.872  1.00 29.45     0.005 C 
BRANCH   9  10
ATOM     10  CD  LYS A 135      30.088  35.059   8.543  1.00 32.00     0.041 C 
BRANCH  10  11
ATOM     11  CE  LYS A 135      28.833  34.242   8.302  1.00 34.25     0.338 C 
ATOM     12  NZ  LYS A 135      28.217  33.814   9.589  1.00 35.99     0.618 N 
ENDBRANCH  10  11
ENDBRANCH   9  10
ENDBRANCH   8   9
ENDBRANCH   7   8
END_RES LYS A 135
