REMARK VINA RESULT:    -4.306      2.813      5.992
REMARK INTER + INTRA:         -22.474
REMARK INTER:                  -9.407
REMARK INTRA:                 -13.068
REMARK UNBOUND:               -11.119
REMARK SMILES CC(=O)N[C@@H]1[C@@H](O)C[C@](OC[C@H]2O[C@@H](O[C@H]3[C@H](O)[C@@H](O)[C@H](OCCN=[N+]=[N-])O[C@@H]3CO)[C@H](O)[C@@H](O)[C@H]2O)(C(=O)O)O[C@H]1C(O)[C@H](O)CNC(=O)OCc1cn(CC(O)CO)nn1
REMARK SMILES IDX 43 1 42 2 9 3 8 4 41 5 6 6 5 7 10 8 11 9 12 10 14 11 13 12
REMARK SMILES IDX 32 13 34 14 36 15 15 16 16 17 29 18 28 19 21 20 17 21 19 22
REMARK SMILES IDX 30 23 31 24 22 26 23 27 24 28 25 29 26 30 27 31 18 32 20 34
REMARK SMILES IDX 33 36 35 38 37 40 38 42 39 43 40 44 7 46 4 48 2 49 1 51 3 52
REMARK SMILES IDX 44 53 45 55 46 56 47 58 48 59 49 60 50 62 51 63 52 64 53 65
REMARK SMILES IDX 54 66 62 67 55 68 61 69 56 70 57 71 58 72 59 74 60 75
REMARK H PARENT 31 25 18 33 20 35 33 37 35 39 37 41 40 45 7 47 4 50 44 54
REMARK H PARENT 46 57 48 61 58 73 60 76
REMARK Flexibility Score: inf
ROOT
ATOM      1  C   UNL     1      31.031  38.180   8.896  1.00  0.00     0.176 C 
ENDROOT
BRANCH   1   2
ATOM      2  C   UNL     1      29.840  38.945   8.287  1.00  0.00     0.178 C 
ATOM      3  C   UNL     1      27.527  38.769   7.844  1.00  0.00     0.272 C 
ATOM      4  C   UNL     1      27.749  39.188   6.418  1.00  0.00     0.113 C 
ATOM      5  O   UNL     1      28.719  38.232   8.352  1.00  0.00    -0.332 OA
ATOM      6  C   UNL     1      29.144  39.177   5.917  1.00  0.00     0.145 C 
ATOM      7  C   UNL     1      30.213  39.389   6.923  1.00  0.00     0.142 C 
BRANCH   3   8
ATOM      8  O   UNL     1      26.602  37.834   7.922  1.00  0.00    -0.338 OA
BRANCH   8   9
ATOM      9  C   UNL     1      25.436  37.494   7.568  1.00  0.00     0.199 C 
BRANCH   9  10
ATOM     10  C   UNL     1      24.385  36.947   8.477  1.00  0.00     0.179 C 
ATOM     11  C   UNL     1      24.056  35.297  10.028  1.00  0.00     0.282 C 
ATOM     12  O   UNL     1      25.027  36.136   9.490  1.00  0.00    -0.341 OA
ATOM     13  C   UNL     1      22.657  35.801   9.935  1.00  0.00     0.202 C 
ATOM     14  C   UNL     1      22.503  37.291   9.963  1.00  0.00     0.179 C 
ATOM     15  C   UNL     1      23.705  37.998   9.356  1.00  0.00     0.177 C 
BRANCH  11  16
ATOM     16  O   UNL     1      24.308  34.885  11.320  1.00  0.00    -0.341 OA
BRANCH  16  17
ATOM     17  C   UNL     1      25.326  35.593  11.954  1.00  0.00     0.184 C 
ATOM     18  C   UNL     1      26.574  34.763  11.974  1.00  0.00     0.178 C 
ATOM     19  O   UNL     1      26.988  34.422  13.252  1.00  0.00    -0.341 OA
ATOM     20  C   UNL     1      25.897  34.030  14.046  1.00  0.00     0.281 C 
ATOM     21  C   UNL     1      24.864  36.095  13.257  1.00  0.00     0.180 C 
ATOM     22  C   UNL     1      25.233  35.317  14.472  1.00  0.00     0.202 C 
BRANCH  18  23
ATOM     23  C   UNL     1      27.733  35.459  11.288  1.00  0.00     0.191 C 
BRANCH  23  24
ATOM     24  O   UNL     1      27.355  36.681  10.750  1.00  0.00    -0.394 OA
ATOM     25  H   UNL     1      27.101  37.272  11.528  1.00  0.00     0.210 HD
ENDBRANCH  23  24
ENDBRANCH  18  23
BRANCH  20  26
ATOM     26  O   UNL     1      26.433  33.358  15.133  1.00  0.00    -0.350 OA
BRANCH  26  27
ATOM     27  C   UNL     1      27.556  33.959  15.679  1.00  0.00     0.169 C 
BRANCH  27  28
ATOM     28  C   UNL     1      28.659  32.973  15.992  1.00  0.00     0.119 C 
BRANCH  28  29
ATOM     29  N   UNL     1      29.611  32.851  14.921  1.00  0.00    -0.092 NA
ATOM     30  N   UNL     1      30.797  33.153  14.985  1.00  0.00     0.001 N 
ATOM     31  N   UNL     1      31.937  33.584  15.158  1.00  0.00    -0.003 NA
ENDBRANCH  28  29
ENDBRANCH  27  28
ENDBRANCH  26  27
ENDBRANCH  20  26
BRANCH  21  32
ATOM     32  O   UNL     1      25.257  37.440  13.473  1.00  0.00    -0.387 OA
ATOM     33  H   UNL     1      25.430  37.791  12.541  1.00  0.00     0.211 HD
ENDBRANCH  21  32
BRANCH  22  34
ATOM     34  O   UNL     1      24.167  35.091  15.340  1.00  0.00    -0.385 OA
ATOM     35  H   UNL     1      24.026  34.151  15.540  1.00  0.00     0.211 HD
ENDBRANCH  22  34
ENDBRANCH  16  17
ENDBRANCH  11  16
BRANCH  13  36
ATOM     36  O   UNL     1      21.945  35.197   8.872  1.00  0.00    -0.385 OA
ATOM     37  H   UNL     1      21.030  35.525   8.791  1.00  0.00     0.211 HD
ENDBRANCH  13  36
BRANCH  14  38
ATOM     38  O   UNL     1      22.216  37.797  11.228  1.00  0.00    -0.387 OA
ATOM     39  H   UNL     1      22.573  38.715  11.298  1.00  0.00     0.211 HD
ENDBRANCH  14  38
BRANCH  15  40
ATOM     40  O   UNL     1      24.603  38.247  10.428  1.00  0.00    -0.387 OA
ATOM     41  H   UNL     1      24.336  37.735  11.229  1.00  0.00     0.211 HD
ENDBRANCH  15  40
ENDBRANCH   9  10
ENDBRANCH   8   9
ENDBRANCH   3   8
BRANCH   3  42
ATOM     42  C   UNL     1      27.175  39.947   8.703  1.00  0.00     0.364 C 
ATOM     43  O   UNL     1      26.835  39.688   9.899  1.00  0.00    -0.246 OA
BRANCH  42  44
ATOM     44  O   UNL     1      27.201  41.245   8.265  1.00  0.00    -0.477 OA
ATOM     45  H   UNL     1      26.539  41.948   8.610  1.00  0.00     0.296 HD
ENDBRANCH  42  44
ENDBRANCH   3  42
BRANCH   6  46
ATOM     46  O   UNL     1      29.355  37.917   5.308  1.00  0.00    -0.391 OA
ATOM     47  H   UNL     1      29.030  37.211   5.900  1.00  0.00     0.211 HD
ENDBRANCH   6  46
BRANCH   7  48
ATOM     48  N   UNL     1      30.659  40.778   6.863  1.00  0.00    -0.348 N 
ATOM     49  C   UNL     1      31.879  41.151   6.246  1.00  0.00     0.217 C 
ATOM     50  H   UNL     1      30.095  41.548   7.276  1.00  0.00     0.163 HD
ATOM     51  C   UNL     1      32.337  42.563   6.184  1.00  0.00     0.114 C 
ATOM     52  O   UNL     1      32.578  40.237   5.741  1.00  0.00    -0.275 OA
ENDBRANCH   7  48
ENDBRANCH   1   2
BRANCH   1  53
ATOM     53  O   UNL     1      32.175  38.478   8.182  1.00  0.00    -0.388 OA
ATOM     54  H   UNL     1      32.782  37.697   8.154  1.00  0.00     0.211 HD
ENDBRANCH   1  53
BRANCH   1  55
ATOM     55  C   UNL     1      31.215  38.581  10.351  1.00  0.00     0.165 C 
BRANCH  55  56
ATOM     56  O   UNL     1      30.044  38.119  11.000  1.00  0.00    -0.388 OA
ATOM     57  H   UNL     1      29.552  38.888  11.377  1.00  0.00     0.211 HD
ENDBRANCH  55  56
BRANCH  55  58
ATOM     58  C   UNL     1      31.321  40.052  10.564  1.00  0.00     0.154 C 
BRANCH  58  59
ATOM     59  N   UNL     1      30.618  40.486  11.753  1.00  0.00    -0.319 N 
ATOM     60  C   UNL     1      29.592  41.455  11.673  1.00  0.00     0.407 C 
ATOM     61  H   UNL     1      30.843  40.097  12.711  1.00  0.00     0.167 HD
ATOM     62  O   UNL     1      29.259  41.983  10.588  1.00  0.00    -0.225 OA
BRANCH  60  63
ATOM     63  O   UNL     1      28.903  41.859  12.799  1.00  0.00    -0.443 OA
BRANCH  63  64
ATOM     64  C   UNL     1      27.975  41.138  13.531  1.00  0.00     0.294 C 
BRANCH  64  65
ATOM     65  C   UNL     1      28.292  39.706  13.736  1.00  0.00     0.120 A 
ATOM     66  C   UNL     1      29.087  39.216  14.733  1.00  0.00     0.138 A 
ATOM     67  N   UNL     1      27.857  38.663  12.968  1.00  0.00    -0.132 NA
ATOM     68  N   UNL     1      29.122  37.883  14.554  1.00  0.00    -0.249 N 
ATOM     69  N   UNL     1      28.392  37.577  13.509  1.00  0.00    -0.067 NA
BRANCH  68  70
ATOM     70  C   UNL     1      29.846  36.922  15.357  1.00  0.00     0.180 C 
BRANCH  70  71
ATOM     71  C   UNL     1      31.339  37.239  15.194  1.00  0.00     0.161 C 
BRANCH  71  72
ATOM     72  O   UNL     1      32.031  36.354  15.984  1.00  0.00    -0.389 OA
ATOM     73  H   UNL     1      32.961  36.221  15.676  1.00  0.00     0.211 HD
ENDBRANCH  71  72
BRANCH  71  74
ATOM     74  C   UNL     1      31.726  37.117  13.740  1.00  0.00     0.189 C 
BRANCH  74  75
ATOM     75  O   UNL     1      31.171  35.981  13.195  1.00  0.00    -0.394 OA
ATOM     76  H   UNL     1      30.734  35.450  13.910  1.00  0.00     0.210 HD
ENDBRANCH  74  75
ENDBRANCH  71  74
ENDBRANCH  70  71
ENDBRANCH  68  70
ENDBRANCH  64  65
ENDBRANCH  63  64
ENDBRANCH  60  63
ENDBRANCH  58  59
ENDBRANCH  55  58
ENDBRANCH   1  55
TORSDOF 34
BEGIN_RES LYS A 131
REMARK  4 active torsions:
REMARK  status: ('A' for Active; 'I' for Inactive)
REMARK    1  A    between atoms: CA   and  CB  
REMARK    2  A    between atoms: CB   and  CG  
REMARK    3  A    between atoms: CG   and  CD  
REMARK    4  A    between atoms: CD   and  CE  
ROOT
ATOM      1  CA  LYS A 131      29.867  25.555  16.977  1.00 20.52     0.186 C 
ENDROOT
BRANCH   1   2
ATOM      2  CB  LYS A 131      28.345  25.722  17.026  1.00 20.94     0.034 C 
BRANCH   2   3
ATOM      3  CG  LYS A 131      27.599  24.479  16.566  1.00 22.96     0.005 C 
BRANCH   3   4
ATOM      4  CD  LYS A 131      27.011  23.713  17.718  1.00 24.33     0.041 C 
BRANCH   4   5
ATOM      5  CE  LYS A 131      25.500  23.603  17.539  1.00 26.91     0.338 C 
ATOM      6  NZ  LYS A 131      24.869  23.069  18.768  1.00 27.40     0.618 N 
ENDBRANCH   4   5
ENDBRANCH   3   4
ENDBRANCH   2   3
ENDBRANCH   1   2
END_RES LYS A 131
BEGIN_RES LYS A 135
REMARK  4 active torsions:
REMARK  status: ('A' for Active; 'I' for Inactive)
REMARK    5  A    between atoms: CA   and  CB  
REMARK    6  A    between atoms: CB   and  CG  
REMARK    7  A    between atoms: CG   and  CD  
REMARK    8  A    between atoms: CD   and  CE  
ROOT
ATOM      7  CA  LYS A 135      33.193  34.663   9.290  1.00 25.02     0.186 C 
ENDROOT
BRANCH   7   8
ATOM      8  CB  LYS A 135      32.060  35.360  10.034  1.00 26.63     0.034 C 
BRANCH   8   9
ATOM      9  CG  LYS A 135      30.730  34.667   9.892  1.00 29.45     0.005 C 
BRANCH   9  10
ATOM     10  CD  LYS A 135      30.362  34.507   8.425  1.00 32.00     0.041 C 
BRANCH  10  11
ATOM     11  CE  LYS A 135      28.855  34.514   8.250  1.00 34.25     0.338 C 
ATOM     12  NZ  LYS A 135      28.461  35.263   7.025  1.00 35.99     0.618 N 
ENDBRANCH  10  11
ENDBRANCH   9  10
ENDBRANCH   8   9
ENDBRANCH   7   8
END_RES LYS A 135
