REMARK VINA RESULT:    -4.543      1.951      2.583
REMARK INTER + INTRA:         -21.723
REMARK INTER:                 -11.068
REMARK INTRA:                 -10.656
REMARK UNBOUND:               -10.541
REMARK SMILES CC(=O)N[C@@H]1[C@@H](O)C[C@](OC[C@H]2O[C@@H](O[C@H]3[C@H](O)[C@@H](O)[C@H](OCCN=[N+]=[N-])O[C@@H]3CO)[C@H](O)[C@@H](O)[C@H]2O)(C(=O)O)O[C@H]1C(O)[C@H](O)CNC(=O)OCc1cn(-c2ccccc2)nn1
REMARK SMILES IDX 9 1 8 2 6 3 5 4 42 5 41 6 10 7 11 8 12 9 14 10 13 11 32 12
REMARK SMILES IDX 34 13 36 14 15 15 16 16 29 17 28 18 21 19 17 20 19 21 30 22
REMARK SMILES IDX 31 23 22 25 23 26 24 27 25 28 26 29 27 30 18 31 20 33 33 35
REMARK SMILES IDX 35 37 37 39 38 41 39 42 40 43 7 45 43 47 44 48 45 50 46 51
REMARK SMILES IDX 47 53 48 54 49 55 50 57 51 58 52 59 53 60 54 61 63 62 55 63
REMARK SMILES IDX 62 64 56 65 57 66 61 67 58 68 60 69 59 70 4 71 2 72 1 74
REMARK SMILES IDX 3 75
REMARK H PARENT 31 24 18 32 20 34 33 36 35 38 37 40 40 44 7 46 44 49 46 52
REMARK H PARENT 48 56 4 73
REMARK Flexibility Score: inf
ROOT
ATOM      1  C   UNL     1      30.294  32.331  18.489  1.00  0.00     0.272 C 
ATOM      2  C   UNL     1      30.501  31.046  19.202  1.00  0.00     0.113 C 
ATOM      3  C   UNL     1      29.260  30.338  19.601  1.00  0.00     0.145 C 
ATOM      4  C   UNL     1      28.228  30.406  18.491  1.00  0.00     0.142 C 
ATOM      5  C   UNL     1      27.991  31.877  18.230  1.00  0.00     0.178 C 
ATOM      6  O   UNL     1      29.142  32.338  17.646  1.00  0.00    -0.332 OA
ENDROOT
BRANCH   1   7
ATOM      7  O   UNL     1      31.281  32.680  17.614  1.00  0.00    -0.338 OA
BRANCH   7   8
ATOM      8  C   UNL     1      31.201  32.557  16.303  1.00  0.00     0.199 C 
BRANCH   8   9
ATOM      9  C   UNL     1      31.805  33.518  15.355  1.00  0.00     0.179 C 
ATOM     10  C   UNL     1      31.155  34.867  13.565  1.00  0.00     0.282 C 
ATOM     11  O   UNL     1      30.773  33.798  14.404  1.00  0.00    -0.341 OA
ATOM     12  C   UNL     1      32.571  35.306  13.738  1.00  0.00     0.202 C 
ATOM     13  C   UNL     1      32.845  35.732  15.163  1.00  0.00     0.179 C 
ATOM     14  C   UNL     1      32.050  34.848  16.079  1.00  0.00     0.177 C 
BRANCH  10  15
ATOM     15  O   UNL     1      30.336  35.904  13.823  1.00  0.00    -0.341 OA
BRANCH  15  16
ATOM     16  C   UNL     1      29.494  36.402  12.898  1.00  0.00     0.184 C 
ATOM     17  C   UNL     1      29.120  37.855  13.081  1.00  0.00     0.178 C 
ATOM     18  O   UNL     1      27.882  38.012  12.426  1.00  0.00    -0.341 OA
ATOM     19  C   UNL     1      26.917  37.576  13.360  1.00  0.00     0.281 C 
ATOM     20  C   UNL     1      28.204  35.592  12.765  1.00  0.00     0.180 C 
ATOM     21  C   UNL     1      27.156  36.124  13.720  1.00  0.00     0.202 C 
BRANCH  17  22
ATOM     22  C   UNL     1      30.095  38.793  12.402  1.00  0.00     0.191 C 
BRANCH  22  23
ATOM     23  O   UNL     1      31.305  38.750  13.100  1.00  0.00    -0.394 OA
ATOM     24  H   UNL     1      31.158  38.835  14.094  1.00  0.00     0.210 HD
ENDBRANCH  22  23
ENDBRANCH  17  22
BRANCH  19  25
ATOM     25  O   UNL     1      25.647  37.710  12.890  1.00  0.00    -0.350 OA
BRANCH  25  26
ATOM     26  C   UNL     1      24.777  38.482  13.609  1.00  0.00     0.169 C 
BRANCH  26  27
ATOM     27  C   UNL     1      23.730  37.730  14.367  1.00  0.00     0.119 C 
BRANCH  27  28
ATOM     28  N   UNL     1      23.970  37.740  15.763  1.00  0.00    -0.092 NA
ATOM     29  N   UNL     1      24.597  36.827  16.332  1.00  0.00     0.001 N 
ATOM     30  N   UNL     1      24.926  35.709  16.761  1.00  0.00    -0.003 NA
ENDBRANCH  27  28
ENDBRANCH  26  27
ENDBRANCH  25  26
ENDBRANCH  19  25
BRANCH  20  31
ATOM     31  O   UNL     1      27.660  35.644  11.489  1.00  0.00    -0.387 OA
ATOM     32  H   UNL     1      28.043  36.385  10.960  1.00  0.00     0.211 HD
ENDBRANCH  20  31
BRANCH  21  33
ATOM     33  O   UNL     1      27.529  35.998  15.042  1.00  0.00    -0.385 OA
ATOM     34  H   UNL     1      26.799  35.704  15.632  1.00  0.00     0.211 HD
ENDBRANCH  21  33
ENDBRANCH  15  16
ENDBRANCH  10  15
BRANCH  12  35
ATOM     35  O   UNL     1      33.520  34.431  13.224  1.00  0.00    -0.385 OA
ATOM     36  H   UNL     1      33.365  34.367  12.247  1.00  0.00     0.211 HD
ENDBRANCH  12  35
BRANCH  13  37
ATOM     37  O   UNL     1      32.420  37.037  15.326  1.00  0.00    -0.387 OA
ATOM     38  H   UNL     1      33.133  37.714  15.220  1.00  0.00     0.211 HD
ENDBRANCH  13  37
BRANCH  14  39
ATOM     39  O   UNL     1      30.765  35.390  16.315  1.00  0.00    -0.387 OA
ATOM     40  H   UNL     1      30.695  35.761  17.219  1.00  0.00     0.211 HD
ENDBRANCH  14  39
ENDBRANCH   8   9
ENDBRANCH   7   8
ENDBRANCH   1   7
BRANCH   1  41
ATOM     41  C   UNL     1      29.965  33.398  19.461  1.00  0.00     0.364 C 
ATOM     42  O   UNL     1      30.056  33.223  20.676  1.00  0.00    -0.246 OA
BRANCH  41  43
ATOM     43  O   UNL     1      29.529  34.660  19.006  1.00  0.00    -0.477 OA
ATOM     44  H   UNL     1      28.920  34.691  18.191  1.00  0.00     0.296 HD
ENDBRANCH  41  43
ENDBRANCH   1  41
BRANCH   3  45
ATOM     45  O   UNL     1      29.562  29.020  19.937  1.00  0.00    -0.391 OA
ATOM     46  H   UNL     1      29.763  29.006  20.889  1.00  0.00     0.211 HD
ENDBRANCH   3  45
BRANCH   5  47
ATOM     47  C   UNL     1      26.876  32.082  17.210  1.00  0.00     0.176 C 
BRANCH  47  48
ATOM     48  O   UNL     1      26.444  33.376  17.316  1.00  0.00    -0.388 OA
ATOM     49  H   UNL     1      27.130  34.015  17.608  1.00  0.00     0.211 HD
ENDBRANCH  47  48
BRANCH  47  50
ATOM     50  C   UNL     1      27.193  31.696  15.826  1.00  0.00     0.165 C 
BRANCH  50  51
ATOM     51  O   UNL     1      27.351  32.918  15.099  1.00  0.00    -0.388 OA
ATOM     52  H   UNL     1      28.250  32.893  14.724  1.00  0.00     0.211 HD
ENDBRANCH  50  51
BRANCH  50  53
ATOM     53  C   UNL     1      25.999  31.024  15.127  1.00  0.00     0.154 C 
BRANCH  53  54
ATOM     54  N   UNL     1      25.015  31.986  14.699  1.00  0.00    -0.319 N 
ATOM     55  C   UNL     1      23.639  31.618  14.497  1.00  0.00     0.407 C 
ATOM     56  H   UNL     1      25.236  32.987  14.516  1.00  0.00     0.167 HD
ATOM     57  O   UNL     1      23.253  30.445  14.701  1.00  0.00    -0.225 OA
BRANCH  55  58
ATOM     58  O   UNL     1      22.709  32.551  14.076  1.00  0.00    -0.443 OA
BRANCH  58  59
ATOM     59  C   UNL     1      22.947  33.947  14.210  1.00  0.00     0.294 C 
BRANCH  59  60
ATOM     60  C   UNL     1      23.542  34.379  12.911  1.00  0.00     0.121 A 
ATOM     61  C   UNL     1      22.819  35.026  11.919  1.00  0.00     0.144 A 
ATOM     62  N   UNL     1      24.783  34.262  12.433  1.00  0.00    -0.131 NA
ATOM     63  N   UNL     1      23.641  35.284  10.869  1.00  0.00    -0.220 N 
ATOM     64  N   UNL     1      24.817  34.809  11.214  1.00  0.00    -0.062 NA
BRANCH  63  65
ATOM     65  C   UNL     1      23.293  35.926   9.653  1.00  0.00     0.066 A 
ATOM     66  C   UNL     1      22.091  35.691   9.027  1.00  0.00     0.028 A 
ATOM     67  C   UNL     1      24.166  36.820   9.072  1.00  0.00     0.028 A 
ATOM     68  C   UNL     1      21.742  36.318   7.849  1.00  0.00     0.002 A 
ATOM     69  C   UNL     1      23.812  37.447   7.888  1.00  0.00     0.002 A 
ATOM     70  C   UNL     1      22.617  37.224   7.248  1.00  0.00     0.000 A 
ENDBRANCH  63  65
ENDBRANCH  59  60
ENDBRANCH  58  59
ENDBRANCH  55  58
ENDBRANCH  53  54
ENDBRANCH  50  53
ENDBRANCH  47  50
ENDBRANCH   5  47
BRANCH   4  71
ATOM     71  N   UNL     1      27.080  29.623  18.780  1.00  0.00    -0.348 N 
ATOM     72  C   UNL     1      26.731  28.560  17.907  1.00  0.00     0.217 C 
ATOM     73  H   UNL     1      26.490  29.786  19.616  1.00  0.00     0.163 HD
ATOM     74  C   UNL     1      25.528  27.718  18.187  1.00  0.00     0.114 C 
ATOM     75  O   UNL     1      27.407  28.280  16.870  1.00  0.00    -0.275 OA
ENDBRANCH   4  71
TORSDOF 30
BEGIN_RES LYS A 131
REMARK  4 active torsions:
REMARK  status: ('A' for Active; 'I' for Inactive)
REMARK    1  A    between atoms: CA   and  CB  
REMARK    2  A    between atoms: CB   and  CG  
REMARK    3  A    between atoms: CG   and  CD  
REMARK    4  A    between atoms: CD   and  CE  
ROOT
ATOM      1  CA  LYS A 131      29.867  25.555  16.977  1.00 20.52     0.186 C 
ENDROOT
BRANCH   1   2
ATOM      2  CB  LYS A 131      28.345  25.722  17.026  1.00 20.94     0.034 C 
BRANCH   2   3
ATOM      3  CG  LYS A 131      27.601  24.406  16.858  1.00 22.96     0.005 C 
BRANCH   3   4
ATOM      4  CD  LYS A 131      26.582  24.189  17.942  1.00 24.33     0.041 C 
BRANCH   4   5
ATOM      5  CE  LYS A 131      25.204  24.003  17.315  1.00 26.91     0.338 C 
ATOM      6  NZ  LYS A 131      24.142  24.192  18.332  1.00 27.40     0.618 N 
ENDBRANCH   4   5
ENDBRANCH   3   4
ENDBRANCH   2   3
ENDBRANCH   1   2
END_RES LYS A 131
BEGIN_RES LYS A 135
REMARK  4 active torsions:
REMARK  status: ('A' for Active; 'I' for Inactive)
REMARK    5  A    between atoms: CA   and  CB  
REMARK    6  A    between atoms: CB   and  CG  
REMARK    7  A    between atoms: CG   and  CD  
REMARK    8  A    between atoms: CD   and  CE  
ROOT
ATOM      7  CA  LYS A 135      33.193  34.663   9.290  1.00 25.02     0.186 C 
ENDROOT
BRANCH   7   8
ATOM      8  CB  LYS A 135      32.060  35.360  10.034  1.00 26.63     0.034 C 
BRANCH   8   9
ATOM      9  CG  LYS A 135      30.724  34.683   9.868  1.00 29.45     0.005 C 
BRANCH   9  10
ATOM     10  CD  LYS A 135      30.349  34.587   8.398  1.00 32.00     0.041 C 
BRANCH  10  11
ATOM     11  CE  LYS A 135      28.843  34.625   8.228  1.00 34.25     0.338 C 
ATOM     12  NZ  LYS A 135      28.454  35.478   7.071  1.00 35.99     0.618 N 
ENDBRANCH  10  11
ENDBRANCH   9  10
ENDBRANCH   8   9
ENDBRANCH   7   8
END_RES LYS A 135
