REMARK VINA RESULT:    -3.162      5.342     10.696
REMARK INTER + INTRA:         -21.576
REMARK INTER:                 -10.089
REMARK INTRA:                 -11.487
REMARK UNBOUND:               -13.239
REMARK SMILES CCOC(=O)Cn1cc(COC(=O)NC[C@@H](O)C(O)[C@@H]2O[C@@](OC[C@H]3O[C@@H](O[C@H]4[C@H](O)[C@@H](O)[C@H](OCCN=[N+]=[N-])O[C@@H]4CO)[C@H](O)[C@@H](O)[C@H]3O)(C(=O)O)C[C@H](O)[C@H]2NC(C)=O)nn1
REMARK SMILES IDX 18 1 20 2 22 3 54 4 21 5 55 6 57 7 23 8 24 9 25 10 27 11
REMARK SMILES IDX 26 12 45 13 47 14 49 15 28 16 29 17 42 18 41 19 34 20 30 21
REMARK SMILES IDX 32 22 43 23 44 24 35 26 36 27 37 28 38 29 39 30 40 31 31 32
REMARK SMILES IDX 33 34 46 36 48 38 50 40 51 42 52 43 53 44 56 46 58 48 59 49
REMARK SMILES IDX 60 51 61 52 19 53 16 55 17 56 15 58 14 59 12 60 13 62 11 63
REMARK SMILES IDX 10 64 9 65 8 66 62 67 7 68 63 69 6 70 4 71 5 72 3 73 2 74
REMARK SMILES IDX 1 75
REMARK H PARENT 44 25 31 33 33 35 46 37 48 39 50 41 53 45 56 47 58 50 19 54
REMARK H PARENT 17 57 14 61
REMARK Flexibility Score: inf
ROOT
ATOM      1  C   UNL     1      27.730  37.453   6.291  1.00  0.00     0.176 C 
ENDROOT
BRANCH   1   2
ATOM      2  C   UNL     1      26.609  36.750   7.004  1.00  0.00     0.178 C 
ATOM      3  C   UNL     1      24.881  37.151   8.529  1.00  0.00     0.272 C 
ATOM      4  C   UNL     1      24.847  35.662   8.576  1.00  0.00     0.113 C 
ATOM      5  O   UNL     1      25.657  37.629   7.451  1.00  0.00    -0.332 OA
ATOM      6  C   UNL     1      26.195  35.023   8.668  1.00  0.00     0.145 C 
ATOM      7  C   UNL     1      27.230  36.027   8.186  1.00  0.00     0.142 C 
BRANCH   3   8
ATOM      8  O   UNL     1      25.301  37.774   9.684  1.00  0.00    -0.338 OA
BRANCH   8   9
ATOM      9  C   UNL     1      25.504  39.111   9.659  1.00  0.00     0.199 C 
BRANCH   9  10
ATOM     10  C   UNL     1      25.851  39.571  11.088  1.00  0.00     0.179 C 
ATOM     11  C   UNL     1      27.488  40.629  12.345  1.00  0.00     0.282 C 
ATOM     12  O   UNL     1      27.147  39.966  11.188  1.00  0.00    -0.341 OA
ATOM     13  C   UNL     1      26.581  41.774  12.679  1.00  0.00     0.202 C 
ATOM     14  C   UNL     1      25.202  41.199  12.876  1.00  0.00     0.179 C 
ATOM     15  C   UNL     1      24.817  40.530  11.599  1.00  0.00     0.177 C 
BRANCH  11  16
ATOM     16  O   UNL     1      28.792  41.095  12.339  1.00  0.00    -0.341 OA
BRANCH  16  17
ATOM     17  C   UNL     1      29.475  40.918  11.164  1.00  0.00     0.184 C 
ATOM     18  C   UNL     1      30.647  39.968  11.287  1.00  0.00     0.178 C 
ATOM     19  O   UNL     1      31.860  40.634  11.177  1.00  0.00    -0.341 OA
ATOM     20  C   UNL     1      32.047  41.183   9.887  1.00  0.00     0.281 C 
ATOM     21  C   UNL     1      29.999  42.267  10.673  1.00  0.00     0.180 C 
ATOM     22  C   UNL     1      30.854  41.972   9.449  1.00  0.00     0.202 C 
BRANCH  18  23
ATOM     23  C   UNL     1      30.492  38.826  10.316  1.00  0.00     0.191 C 
BRANCH  23  24
ATOM     24  O   UNL     1      29.209  38.256  10.413  1.00  0.00    -0.394 OA
ATOM     25  H   UNL     1      28.697  38.389   9.590  1.00  0.00     0.210 HD
ENDBRANCH  23  24
ENDBRANCH  18  23
BRANCH  20  26
ATOM     26  O   UNL     1      32.394  40.206   8.991  1.00  0.00    -0.350 OA
BRANCH  26  27
ATOM     27  C   UNL     1      33.490  40.356   8.212  1.00  0.00     0.169 C 
BRANCH  27  28
ATOM     28  C   UNL     1      33.331  40.733   6.787  1.00  0.00     0.119 C 
BRANCH  28  29
ATOM     29  N   UNL     1      33.145  39.683   5.845  1.00  0.00    -0.092 NA
ATOM     30  N   UNL     1      33.200  39.898   4.616  1.00  0.00     0.001 N 
ATOM     31  N   UNL     1      33.491  40.285   3.470  1.00  0.00    -0.003 NA
ENDBRANCH  28  29
ENDBRANCH  27  28
ENDBRANCH  26  27
ENDBRANCH  20  26
BRANCH  21  32
ATOM     32  O   UNL     1      28.919  43.076  10.312  1.00  0.00    -0.387 OA
ATOM     33  H   UNL     1      29.062  43.330   9.348  1.00  0.00     0.211 HD
ENDBRANCH  21  32
BRANCH  22  34
ATOM     34  O   UNL     1      31.192  43.174   8.823  1.00  0.00    -0.385 OA
ATOM     35  H   UNL     1      31.990  43.105   8.242  1.00  0.00     0.211 HD
ENDBRANCH  22  34
ENDBRANCH  16  17
ENDBRANCH  11  16
BRANCH  13  36
ATOM     36  O   UNL     1      27.028  42.369  13.853  1.00  0.00    -0.385 OA
ATOM     37  H   UNL     1      26.376  42.424  14.568  1.00  0.00     0.211 HD
ENDBRANCH  13  36
BRANCH  14  38
ATOM     38  O   UNL     1      24.319  42.275  13.119  1.00  0.00    -0.387 OA
ATOM     39  H   UNL     1      24.546  42.718  13.974  1.00  0.00     0.211 HD
ENDBRANCH  14  38
BRANCH  15  40
ATOM     40  O   UNL     1      24.549  41.548  10.655  1.00  0.00    -0.387 OA
ATOM     41  H   UNL     1      25.028  41.252   9.833  1.00  0.00     0.211 HD
ENDBRANCH  15  40
ENDBRANCH   9  10
ENDBRANCH   8   9
ENDBRANCH   3   8
BRANCH   3  42
ATOM     42  C   UNL     1      23.512  37.617   8.199  1.00  0.00     0.364 C 
ATOM     43  O   UNL     1      22.569  37.365   8.983  1.00  0.00    -0.246 OA
BRANCH  42  44
ATOM     44  O   UNL     1      23.267  38.316   7.051  1.00  0.00    -0.477 OA
ATOM     45  H   UNL     1      23.774  38.139   6.187  1.00  0.00     0.296 HD
ENDBRANCH  42  44
ENDBRANCH   3  42
BRANCH   6  46
ATOM     46  O   UNL     1      26.511  34.501   9.899  1.00  0.00    -0.391 OA
ATOM     47  H   UNL     1      26.259  35.165  10.601  1.00  0.00     0.211 HD
ENDBRANCH   6  46
BRANCH   7  48
ATOM     48  N   UNL     1      28.464  35.353   7.805  1.00  0.00    -0.348 N 
ATOM     49  C   UNL     1      29.501  35.099   8.734  1.00  0.00     0.217 C 
ATOM     50  H   UNL     1      28.580  35.047   6.824  1.00  0.00     0.163 HD
ATOM     51  C   UNL     1      30.770  34.409   8.356  1.00  0.00     0.114 C 
ATOM     52  O   UNL     1      29.334  35.475   9.926  1.00  0.00    -0.275 OA
ENDBRANCH   7  48
ENDBRANCH   1   2
BRANCH   1  53
ATOM     53  O   UNL     1      27.331  37.853   5.031  1.00  0.00    -0.388 OA
ATOM     54  H   UNL     1      27.419  38.838   4.882  1.00  0.00     0.211 HD
ENDBRANCH   1  53
BRANCH   1  55
ATOM     55  C   UNL     1      28.248  38.664   7.046  1.00  0.00     0.165 C 
BRANCH  55  56
ATOM     56  O   UNL     1      27.457  39.777   6.886  1.00  0.00    -0.388 OA
ATOM     57  H   UNL     1      27.837  40.458   6.285  1.00  0.00     0.211 HD
ENDBRANCH  55  56
BRANCH  55  58
ATOM     58  C   UNL     1      29.654  38.922   6.618  1.00  0.00     0.154 C 
BRANCH  58  59
ATOM     59  N   UNL     1      29.785  39.638   5.399  1.00  0.00    -0.319 N 
ATOM     60  C   UNL     1      29.923  41.047   5.281  1.00  0.00     0.407 C 
ATOM     61  H   UNL     1      29.784  39.107   4.459  1.00  0.00     0.167 HD
ATOM     62  O   UNL     1      29.947  41.792   6.275  1.00  0.00    -0.225 OA
BRANCH  60  63
ATOM     63  O   UNL     1      30.040  41.619   4.002  1.00  0.00    -0.443 OA
BRANCH  63  64
ATOM     64  C   UNL     1      28.948  42.214   3.384  1.00  0.00     0.294 C 
BRANCH  64  65
ATOM     65  C   UNL     1      27.643  41.804   3.937  1.00  0.00     0.120 A 
ATOM     66  C   UNL     1      26.736  42.618   4.588  1.00  0.00     0.139 A 
ATOM     67  N   UNL     1      27.088  40.586   3.932  1.00  0.00    -0.132 NA
ATOM     68  N   UNL     1      25.662  41.882   4.961  1.00  0.00    -0.241 N 
ATOM     69  N   UNL     1      25.910  40.658   4.546  1.00  0.00    -0.066 NA
BRANCH  68  70
ATOM     70  C   UNL     1      24.506  42.406   5.678  1.00  0.00     0.268 C 
BRANCH  70  71
ATOM     71  C   UNL     1      24.601  41.913   7.098  1.00  0.00     0.327 C 
ATOM     72  O   UNL     1      23.693  41.245   7.630  1.00  0.00    -0.250 OA
BRANCH  71  73
ATOM     73  O   UNL     1      25.713  42.184   7.876  1.00  0.00    -0.465 OA
BRANCH  73  74
ATOM     74  C   UNL     1      26.256  43.457   8.074  1.00  0.00     0.229 C 
ATOM     75  C   UNL     1      25.360  44.360   8.886  1.00  0.00     0.049 C 
ENDBRANCH  73  74
ENDBRANCH  71  73
ENDBRANCH  70  71
ENDBRANCH  68  70
ENDBRANCH  64  65
ENDBRANCH  63  64
ENDBRANCH  60  63
ENDBRANCH  58  59
ENDBRANCH  55  58
ENDBRANCH   1  55
TORSDOF 33
BEGIN_RES LYS A 131
REMARK  4 active torsions:
REMARK  status: ('A' for Active; 'I' for Inactive)
REMARK    1  A    between atoms: CA   and  CB  
REMARK    2  A    between atoms: CB   and  CG  
REMARK    3  A    between atoms: CG   and  CD  
REMARK    4  A    between atoms: CD   and  CE  
ROOT
ATOM      1  CA  LYS A 131      29.867  25.555  16.977  1.00 20.52     0.186 C 
ENDROOT
BRANCH   1   2
ATOM      2  CB  LYS A 131      28.345  25.722  17.026  1.00 20.94     0.034 C 
BRANCH   2   3
ATOM      3  CG  LYS A 131      27.601  24.403  16.888  1.00 22.96     0.005 C 
BRANCH   3   4
ATOM      4  CD  LYS A 131      26.518  24.252  17.920  1.00 24.33     0.041 C 
BRANCH   4   5
ATOM      5  CE  LYS A 131      25.164  24.148  17.226  1.00 26.91     0.338 C 
ATOM      6  NZ  LYS A 131      24.162  24.994  17.915  1.00 27.40     0.618 N 
ENDBRANCH   4   5
ENDBRANCH   3   4
ENDBRANCH   2   3
ENDBRANCH   1   2
END_RES LYS A 131
BEGIN_RES LYS A 135
REMARK  4 active torsions:
REMARK  status: ('A' for Active; 'I' for Inactive)
REMARK    5  A    between atoms: CA   and  CB  
REMARK    6  A    between atoms: CB   and  CG  
REMARK    7  A    between atoms: CG   and  CD  
REMARK    8  A    between atoms: CD   and  CE  
ROOT
ATOM      7  CA  LYS A 135      33.193  34.663   9.290  1.00 25.02     0.186 C 
ENDROOT
BRANCH   7   8
ATOM      8  CB  LYS A 135      32.060  35.360  10.034  1.00 26.63     0.034 C 
BRANCH   8   9
ATOM      9  CG  LYS A 135      32.492  35.997  11.329  1.00 29.45     0.005 C 
BRANCH   9  10
ATOM     10  CD  LYS A 135      31.762  35.369  12.506  1.00 32.00     0.041 C 
BRANCH  10  11
ATOM     11  CE  LYS A 135      30.801  36.364  13.129  1.00 34.25     0.338 C 
ATOM     12  NZ  LYS A 135      31.534  37.485  13.779  1.00 35.99     0.618 N 
ENDBRANCH  10  11
ENDBRANCH   9  10
ENDBRANCH   8   9
ENDBRANCH   7   8
END_RES LYS A 135
