REMARK VINA RESULT:    -5.032      2.154      3.066
REMARK INTER + INTRA:         -22.091
REMARK INTER:                 -11.984
REMARK INTRA:                 -10.107
REMARK UNBOUND:                -9.116
REMARK SMILES CC(=O)N[C@@H]1[C@@H](O)C[C@](OC[C@H]2O[C@@H](O[C@H]3[C@H](O)[C@@H](O)[C@H](OCCN=[N+]=[N-])O[C@@H]3CO)[C@H](O)[C@@H](O)[C@H]2O)(C(=O)O)O[C@H]1C(O)[C@H](O)CNC(=O)OCc1cn(CCC2OCCO2)nn1
REMARK SMILES IDX 9 1 8 2 6 3 5 4 42 5 41 6 10 7 11 8 12 9 14 10 13 11 32 12
REMARK SMILES IDX 34 13 36 14 15 15 16 16 29 17 28 18 21 19 17 20 19 21 30 22
REMARK SMILES IDX 31 23 22 25 23 26 24 27 25 28 26 29 27 30 18 31 20 33 33 35
REMARK SMILES IDX 35 37 37 39 38 41 39 42 40 43 7 45 43 47 44 48 45 50 46 51
REMARK SMILES IDX 47 53 48 54 49 55 50 57 51 58 52 59 53 60 54 61 64 62 55 63
REMARK SMILES IDX 63 64 56 65 57 66 58 67 59 68 62 69 60 70 61 71 4 72 2 73
REMARK SMILES IDX 1 75 3 76
REMARK H PARENT 31 24 18 32 20 34 33 36 35 38 37 40 40 44 7 46 44 49 46 52
REMARK H PARENT 48 56 4 74
REMARK Flexibility Score: inf
ROOT
ATOM      1  C   UNL     1      29.466  32.505  18.114  1.00  0.00     0.272 C 
ATOM      2  C   UNL     1      30.358  31.250  18.435  1.00  0.00     0.113 C 
ATOM      3  C   UNL     1      29.748  30.417  19.480  1.00  0.00     0.145 C 
ATOM      4  C   UNL     1      28.373  29.961  19.034  1.00  0.00     0.142 C 
ATOM      5  C   UNL     1      27.791  30.853  17.990  1.00  0.00     0.178 C 
ATOM      6  O   UNL     1      28.142  32.156  18.013  1.00  0.00    -0.332 OA
ENDROOT
BRANCH   1   7
ATOM      7  O   UNL     1      29.941  32.899  16.932  1.00  0.00    -0.338 OA
BRANCH   7   8
ATOM      8  C   UNL     1      31.040  32.536  16.312  1.00  0.00     0.199 C 
BRANCH   8   9
ATOM      9  C   UNL     1      31.823  33.484  15.461  1.00  0.00     0.179 C 
ATOM     10  C   UNL     1      31.511  35.208  13.909  1.00  0.00     0.282 C 
ATOM     11  O   UNL     1      31.009  34.081  14.527  1.00  0.00    -0.341 OA
ATOM     12  C   UNL     1      32.961  35.461  14.102  1.00  0.00     0.202 C 
ATOM     13  C   UNL     1      33.420  35.321  15.528  1.00  0.00     0.179 C 
ATOM     14  C   UNL     1      32.352  34.654  16.328  1.00  0.00     0.177 C 
BRANCH  10  15
ATOM     15  O   UNL     1      30.668  36.280  14.199  1.00  0.00    -0.341 OA
BRANCH  15  16
ATOM     16  C   UNL     1      29.464  36.244  13.510  1.00  0.00     0.184 C 
ATOM     17  C   UNL     1      29.132  37.509  12.779  1.00  0.00     0.178 C 
ATOM     18  O   UNL     1      27.947  37.296  12.072  1.00  0.00    -0.341 OA
ATOM     19  C   UNL     1      26.839  37.132  12.891  1.00  0.00     0.281 C 
ATOM     20  C   UNL     1      28.305  36.062  14.531  1.00  0.00     0.180 C 
ATOM     21  C   UNL     1      27.069  35.839  13.669  1.00  0.00     0.202 C 
BRANCH  17  22
ATOM     22  C   UNL     1      30.193  37.775  11.725  1.00  0.00     0.191 C 
BRANCH  22  23
ATOM     23  O   UNL     1      31.232  38.455  12.407  1.00  0.00    -0.394 OA
ATOM     24  H   UNL     1      31.007  38.646  13.342  1.00  0.00     0.210 HD
ENDBRANCH  22  23
ENDBRANCH  17  22
BRANCH  19  25
ATOM     25  O   UNL     1      25.721  37.045  12.111  1.00  0.00    -0.350 OA
BRANCH  25  26
ATOM     26  C   UNL     1      25.816  36.245  11.008  1.00  0.00     0.169 C 
BRANCH  26  27
ATOM     27  C   UNL     1      24.590  35.405  10.724  1.00  0.00     0.119 C 
BRANCH  27  28
ATOM     28  N   UNL     1      24.026  34.907  11.965  1.00  0.00    -0.092 NA
ATOM     29  N   UNL     1      24.368  33.843  12.474  1.00  0.00     0.001 N 
ATOM     30  N   UNL     1      24.763  32.884  13.131  1.00  0.00    -0.003 NA
ENDBRANCH  27  28
ENDBRANCH  26  27
ENDBRANCH  25  26
ENDBRANCH  19  25
BRANCH  20  31
ATOM     31  O   UNL     1      28.564  34.946  15.289  1.00  0.00    -0.387 OA
ATOM     32  H   UNL     1      28.260  34.141  14.786  1.00  0.00     0.211 HD
ENDBRANCH  20  31
BRANCH  21  33
ATOM     33  O   UNL     1      26.022  35.549  14.516  1.00  0.00    -0.385 OA
ATOM     34  H   UNL     1      25.230  35.323  13.966  1.00  0.00     0.211 HD
ENDBRANCH  21  33
ENDBRANCH  15  16
ENDBRANCH  10  15
BRANCH  12  35
ATOM     35  O   UNL     1      33.701  34.605  13.249  1.00  0.00    -0.385 OA
ATOM     36  H   UNL     1      33.592  34.995  12.341  1.00  0.00     0.211 HD
ENDBRANCH  12  35
BRANCH  13  37
ATOM     37  O   UNL     1      33.821  36.542  16.069  1.00  0.00    -0.387 OA
ATOM     38  H   UNL     1      33.924  37.184  15.319  1.00  0.00     0.211 HD
ENDBRANCH  13  37
BRANCH  14  39
ATOM     39  O   UNL     1      31.294  35.474  16.658  1.00  0.00    -0.387 OA
ATOM     40  H   UNL     1      31.509  36.440  16.636  1.00  0.00     0.211 HD
ENDBRANCH  14  39
ENDBRANCH   8   9
ENDBRANCH   7   8
ENDBRANCH   1   7
BRANCH   1  41
ATOM     41  C   UNL     1      29.623  33.332  19.310  1.00  0.00     0.364 C 
ATOM     42  O   UNL     1      28.567  33.679  19.982  1.00  0.00    -0.246 OA
BRANCH  41  43
ATOM     43  O   UNL     1      30.783  33.821  19.867  1.00  0.00    -0.477 OA
ATOM     44  H   UNL     1      30.964  33.688  20.851  1.00  0.00     0.296 HD
ENDBRANCH  41  43
ENDBRANCH   1  41
BRANCH   3  45
ATOM     45  O   UNL     1      30.600  29.285  19.637  1.00  0.00    -0.391 OA
ATOM     46  H   UNL     1      31.127  29.454  20.477  1.00  0.00     0.211 HD
ENDBRANCH   3  45
BRANCH   5  47
ATOM     47  C   UNL     1      27.874  30.197  16.645  1.00  0.00     0.176 C 
BRANCH  47  48
ATOM     48  O   UNL     1      27.275  28.929  16.615  1.00  0.00    -0.388 OA
ATOM     49  H   UNL     1      26.869  28.706  17.504  1.00  0.00     0.211 HD
ENDBRANCH  47  48
BRANCH  47  50
ATOM     50  C   UNL     1      27.031  31.003  15.616  1.00  0.00     0.165 C 
BRANCH  50  51
ATOM     51  O   UNL     1      27.621  32.232  15.441  1.00  0.00    -0.388 OA
ATOM     52  H   UNL     1      27.396  32.668  14.598  1.00  0.00     0.211 HD
ENDBRANCH  50  51
BRANCH  50  53
ATOM     53  C   UNL     1      25.623  30.974  16.053  1.00  0.00     0.154 C 
BRANCH  53  54
ATOM     54  N   UNL     1      24.760  30.407  15.065  1.00  0.00    -0.319 N 
ATOM     55  C   UNL     1      24.037  29.226  15.227  1.00  0.00     0.407 C 
ATOM     56  H   UNL     1      24.674  30.931  14.159  1.00  0.00     0.167 HD
ATOM     57  O   UNL     1      24.110  28.561  16.272  1.00  0.00    -0.225 OA
BRANCH  55  58
ATOM     58  O   UNL     1      23.188  28.704  14.240  1.00  0.00    -0.443 OA
BRANCH  58  59
ATOM     59  C   UNL     1      23.173  29.244  12.930  1.00  0.00     0.294 C 
BRANCH  59  60
ATOM     60  C   UNL     1      21.877  29.872  12.584  1.00  0.00     0.120 A 
ATOM     61  C   UNL     1      21.599  31.239  12.680  1.00  0.00     0.138 A 
ATOM     62  N   UNL     1      20.739  29.323  12.131  1.00  0.00    -0.132 NA
ATOM     63  N   UNL     1      20.316  31.460  12.283  1.00  0.00    -0.252 N 
ATOM     64  N   UNL     1      19.824  30.287  11.959  1.00  0.00    -0.067 NA
BRANCH  63  65
ATOM     65  C   UNL     1      19.719  32.788  12.259  1.00  0.00     0.151 C 
BRANCH  65  66
ATOM     66  C   UNL     1      18.586  32.843  11.244  1.00  0.00     0.086 C 
BRANCH  66  67
ATOM     67  C   UNL     1      18.684  34.066  10.378  1.00  0.00     0.251 C 
ATOM     68  O   UNL     1      19.970  34.599  10.476  1.00  0.00    -0.350 OA
ATOM     69  O   UNL     1      18.491  33.808   9.035  1.00  0.00    -0.350 OA
ATOM     70  C   UNL     1      20.095  35.424   9.365  1.00  0.00     0.192 C 
ATOM     71  C   UNL     1      18.927  35.032   8.476  1.00  0.00     0.192 C 
ENDBRANCH  66  67
ENDBRANCH  65  66
ENDBRANCH  63  65
ENDBRANCH  59  60
ENDBRANCH  58  59
ENDBRANCH  55  58
ENDBRANCH  53  54
ENDBRANCH  50  53
ENDBRANCH  47  50
ENDBRANCH   5  47
BRANCH   4  72
ATOM     72  N   UNL     1      27.493  29.777  20.185  1.00  0.00    -0.348 N 
ATOM     73  C   UNL     1      27.390  28.576  20.894  1.00  0.00     0.217 C 
ATOM     74  H   UNL     1      26.915  30.619  20.473  1.00  0.00     0.163 HD
ATOM     75  C   UNL     1      26.462  28.466  22.066  1.00  0.00     0.114 C 
ATOM     76  O   UNL     1      28.100  27.607  20.510  1.00  0.00    -0.275 OA
ENDBRANCH   4  72
TORSDOF 32
BEGIN_RES LYS A 131
REMARK  4 active torsions:
REMARK  status: ('A' for Active; 'I' for Inactive)
REMARK    1  A    between atoms: CA   and  CB  
REMARK    2  A    between atoms: CB   and  CG  
REMARK    3  A    between atoms: CG   and  CD  
REMARK    4  A    between atoms: CD   and  CE  
ROOT
ATOM      1  CA  LYS A 131      29.867  25.555  16.977  1.00 20.52     0.186 C 
ENDROOT
BRANCH   1   2
ATOM      2  CB  LYS A 131      28.345  25.722  17.026  1.00 20.94     0.034 C 
BRANCH   2   3
ATOM      3  CG  LYS A 131      27.602  24.399  16.925  1.00 22.96     0.005 C 
BRANCH   3   4
ATOM      4  CD  LYS A 131      26.182  24.508  17.409  1.00 24.33     0.041 C 
BRANCH   4   5
ATOM      5  CE  LYS A 131      26.016  25.794  18.212  1.00 26.91     0.338 C 
ATOM      6  NZ  LYS A 131      25.527  25.493  19.579  1.00 27.40     0.618 N 
ENDBRANCH   4   5
ENDBRANCH   3   4
ENDBRANCH   2   3
ENDBRANCH   1   2
END_RES LYS A 131
BEGIN_RES LYS A 135
REMARK  4 active torsions:
REMARK  status: ('A' for Active; 'I' for Inactive)
REMARK    5  A    between atoms: CA   and  CB  
REMARK    6  A    between atoms: CB   and  CG  
REMARK    7  A    between atoms: CG   and  CD  
REMARK    8  A    between atoms: CD   and  CE  
ROOT
ATOM      7  CA  LYS A 135      33.193  34.663   9.290  1.00 25.02     0.186 C 
ENDROOT
BRANCH   7   8
ATOM      8  CB  LYS A 135      32.060  35.360  10.034  1.00 26.63     0.034 C 
BRANCH   8   9
ATOM      9  CG  LYS A 135      30.776  35.431   9.248  1.00 29.45     0.005 C 
BRANCH   9  10
ATOM     10  CD  LYS A 135      30.180  34.043   9.069  1.00 32.00     0.041 C 
BRANCH  10  11
ATOM     11  CE  LYS A 135      28.667  34.098   9.163  1.00 34.25     0.338 C 
ATOM     12  NZ  LYS A 135      28.085  34.853   8.019  1.00 35.99     0.618 N 
ENDBRANCH  10  11
ENDBRANCH   9  10
ENDBRANCH   8   9
ENDBRANCH   7   8
END_RES LYS A 135
