REMARK VINA RESULT:    -5.165      5.074      9.721
REMARK INTER + INTRA:         -23.200
REMARK INTER:                 -11.876
REMARK INTRA:                 -11.323
REMARK UNBOUND:                -9.883
REMARK SMILES CC(=O)N[C@@H]1[C@@H](O)C[C@](OC[C@H]2O[C@@H](O[C@H]3[C@H](O)[C@@H](O)[C@H](OCCN=[N+]=[N-])O[C@@H]3CO)[C@H](O)[C@@H](O)[C@H]2O)(C(=O)O)O[C@H]1C(O)[C@H](O)CNC(=O)OCc1cn(C(c2ccccc2)c2ccccc2)nn1
REMARK SMILES IDX 9 1 8 2 6 3 5 4 42 5 41 6 10 7 11 8 12 9 14 10 13 11 32 12
REMARK SMILES IDX 34 13 36 14 15 15 16 16 29 17 28 18 21 19 17 20 19 21 30 22
REMARK SMILES IDX 31 23 22 25 23 26 24 27 25 28 26 29 27 30 18 31 20 33 33 35
REMARK SMILES IDX 35 37 37 39 38 41 39 42 40 43 7 45 43 47 44 48 45 50 46 51
REMARK SMILES IDX 47 53 48 54 49 55 50 57 51 58 52 59 53 60 54 61 70 62 55 63
REMARK SMILES IDX 69 64 56 65 57 66 58 67 62 68 59 69 61 70 60 71 63 72 64 73
REMARK SMILES IDX 68 74 65 75 67 76 66 77 4 78 2 79 1 81 3 82
REMARK H PARENT 31 24 18 32 20 34 33 36 35 38 37 40 40 44 7 46 44 49 46 52
REMARK H PARENT 48 56 4 80
REMARK Flexibility Score: inf
ROOT
ATOM      1  C   UNL     1      27.548  38.698   6.920  1.00  0.00     0.272 C 
ATOM      2  C   UNL     1      28.481  38.088   7.987  1.00  0.00     0.113 C 
ATOM      3  C   UNL     1      29.875  38.120   7.512  1.00  0.00     0.145 C 
ATOM      4  C   UNL     1      30.282  39.541   7.210  1.00  0.00     0.142 C 
ATOM      5  C   UNL     1      29.131  40.443   6.955  1.00  0.00     0.178 C 
ATOM      6  O   UNL     1      28.014  39.863   6.445  1.00  0.00    -0.332 OA
ENDROOT
BRANCH   1   7
ATOM      7  O   UNL     1      26.299  38.908   7.528  1.00  0.00    -0.338 OA
BRANCH   7   8
ATOM      8  C   UNL     1      26.340  38.643   8.871  1.00  0.00     0.199 C 
BRANCH   8   9
ATOM      9  C   UNL     1      25.367  39.512   9.666  1.00  0.00     0.179 C 
ATOM     10  C   UNL     1      23.673  38.292  10.820  1.00  0.00     0.282 C 
ATOM     11  O   UNL     1      24.187  38.962   9.770  1.00  0.00    -0.341 OA
ATOM     12  C   UNL     1      24.574  38.094  11.942  1.00  0.00     0.202 C 
ATOM     13  C   UNL     1      25.574  39.178  12.150  1.00  0.00     0.179 C 
ATOM     14  C   UNL     1      25.978  39.973  10.970  1.00  0.00     0.177 C 
BRANCH  10  15
ATOM     15  O   UNL     1      23.173  37.091  10.227  1.00  0.00    -0.341 OA
BRANCH  15  16
ATOM     16  C   UNL     1      21.940  37.272   9.677  1.00  0.00     0.184 C 
ATOM     17  C   UNL     1      20.916  36.384  10.290  1.00  0.00     0.178 C 
ATOM     18  O   UNL     1      19.634  36.749   9.857  1.00  0.00    -0.341 OA
ATOM     19  C   UNL     1      19.469  36.398   8.545  1.00  0.00     0.281 C 
ATOM     20  C   UNL     1      21.941  36.955   8.187  1.00  0.00     0.180 C 
ATOM     21  C   UNL     1      20.726  36.211   7.796  1.00  0.00     0.202 C 
BRANCH  17  22
ATOM     22  C   UNL     1      20.970  36.295  11.802  1.00  0.00     0.191 C 
BRANCH  22  23
ATOM     23  O   UNL     1      22.056  35.508  12.173  1.00  0.00    -0.394 OA
ATOM     24  H   UNL     1      22.871  36.018  12.363  1.00  0.00     0.210 HD
ENDBRANCH  22  23
ENDBRANCH  17  22
BRANCH  19  25
ATOM     25  O   UNL     1      18.575  37.258   7.885  1.00  0.00    -0.350 OA
BRANCH  25  26
ATOM     26  C   UNL     1      18.219  38.371   8.588  1.00  0.00     0.169 C 
BRANCH  26  27
ATOM     27  C   UNL     1      18.927  39.578   8.017  1.00  0.00     0.119 C 
BRANCH  27  28
ATOM     28  N   UNL     1      19.965  40.072   8.918  1.00  0.00    -0.092 NA
ATOM     29  N   UNL     1      20.902  40.756   8.524  1.00  0.00     0.001 N 
ATOM     30  N   UNL     1      21.952  41.135   7.992  1.00  0.00    -0.003 NA
ENDBRANCH  27  28
ENDBRANCH  26  27
ENDBRANCH  25  26
ENDBRANCH  19  25
BRANCH  20  31
ATOM     31  O   UNL     1      22.128  38.164   7.514  1.00  0.00    -0.387 OA
ATOM     32  H   UNL     1      22.137  38.036   6.527  1.00  0.00     0.211 HD
ENDBRANCH  20  31
BRANCH  21  33
ATOM     33  O   UNL     1      21.061  34.826   7.766  1.00  0.00    -0.385 OA
ATOM     34  H   UNL     1      20.985  34.562   6.806  1.00  0.00     0.211 HD
ENDBRANCH  21  33
ENDBRANCH  15  16
ENDBRANCH  10  15
BRANCH  12  35
ATOM     35  O   UNL     1      23.904  37.961  13.186  1.00  0.00    -0.385 OA
ATOM     36  H   UNL     1      22.945  38.076  12.980  1.00  0.00     0.211 HD
ENDBRANCH  12  35
BRANCH  13  37
ATOM     37  O   UNL     1      26.747  38.677  12.772  1.00  0.00    -0.387 OA
ATOM     38  H   UNL     1      27.517  39.256  12.530  1.00  0.00     0.211 HD
ENDBRANCH  13  37
BRANCH  14  39
ATOM     39  O   UNL     1      27.368  39.866  10.794  1.00  0.00    -0.387 OA
ATOM     40  H   UNL     1      27.628  38.980  10.446  1.00  0.00     0.211 HD
ENDBRANCH  14  39
ENDBRANCH   8   9
ENDBRANCH   7   8
ENDBRANCH   1   7
BRANCH   1  41
ATOM     41  C   UNL     1      27.413  37.669   5.890  1.00  0.00     0.364 C 
ATOM     42  O   UNL     1      27.130  36.492   6.188  1.00  0.00    -0.246 OA
BRANCH  41  43
ATOM     43  O   UNL     1      27.593  37.942   4.531  1.00  0.00    -0.477 OA
ATOM     44  H   UNL     1      28.300  38.592   4.221  1.00  0.00     0.296 HD
ENDBRANCH  41  43
ENDBRANCH   1  41
BRANCH   3  45
ATOM     45  O   UNL     1      30.681  37.610   8.552  1.00  0.00    -0.391 OA
ATOM     46  H   UNL     1      30.127  37.158   9.237  1.00  0.00     0.211 HD
ENDBRANCH   3  45
BRANCH   5  47
ATOM     47  C   UNL     1      28.756  41.389   8.059  1.00  0.00     0.176 C 
BRANCH  47  48
ATOM     48  O   UNL     1      27.467  41.867   7.743  1.00  0.00    -0.388 OA
ATOM     49  H   UNL     1      26.845  41.816   8.489  1.00  0.00     0.211 HD
ENDBRANCH  47  48
BRANCH  47  50
ATOM     50  C   UNL     1      29.645  42.564   8.250  1.00  0.00     0.165 C 
BRANCH  50  51
ATOM     51  O   UNL     1      30.359  42.734   7.069  1.00  0.00    -0.388 OA
ATOM     52  H   UNL     1      31.323  42.525   7.165  1.00  0.00     0.211 HD
ENDBRANCH  50  51
BRANCH  50  53
ATOM     53  C   UNL     1      30.590  42.495   9.399  1.00  0.00     0.154 C 
BRANCH  53  54
ATOM     54  N   UNL     1      30.213  41.642  10.480  1.00  0.00    -0.319 N 
ATOM     55  C   UNL     1      30.051  41.982  11.827  1.00  0.00     0.407 C 
ATOM     56  H   UNL     1      30.031  40.614  10.241  1.00  0.00     0.167 HD
ATOM     57  O   UNL     1      30.253  43.141  12.207  1.00  0.00    -0.225 OA
BRANCH  55  58
ATOM     58  O   UNL     1      29.661  41.034  12.770  1.00  0.00    -0.443 OA
BRANCH  58  59
ATOM     59  C   UNL     1      30.577  40.000  13.163  1.00  0.00     0.294 C 
BRANCH  59  60
ATOM     60  C   UNL     1      30.064  38.702  12.656  1.00  0.00     0.120 A 
ATOM     61  C   UNL     1      29.949  37.584  13.431  1.00  0.00     0.139 A 
ATOM     62  N   UNL     1      29.651  38.449  11.418  1.00  0.00    -0.132 NA
ATOM     63  N   UNL     1      29.450  36.634  12.621  1.00  0.00    -0.240 N 
ATOM     64  N   UNL     1      29.274  37.171  11.408  1.00  0.00    -0.066 NA
BRANCH  63  65
ATOM     65  C   UNL     1      29.114  35.257  12.916  1.00  0.00     0.169 C 
BRANCH  65  66
ATOM     66  C   UNL     1      27.752  35.230  13.464  1.00  0.00    -0.019 A 
ATOM     67  C   UNL     1      27.499  35.691  14.741  1.00  0.00     0.006 A 
ATOM     68  C   UNL     1      26.672  34.739  12.763  1.00  0.00     0.006 A 
ATOM     69  C   UNL     1      26.222  35.660  15.284  1.00  0.00     0.000 A 
ATOM     70  C   UNL     1      25.387  34.703  13.297  1.00  0.00     0.000 A 
ATOM     71  C   UNL     1      25.153  35.169  14.576  1.00  0.00     0.000 A 
ENDBRANCH  65  66
BRANCH  65  72
ATOM     72  C   UNL     1      30.145  34.646  13.778  1.00  0.00    -0.019 A 
ATOM     73  C   UNL     1      29.844  33.415  14.349  1.00  0.00     0.006 A 
ATOM     74  C   UNL     1      31.352  35.210  14.074  1.00  0.00     0.006 A 
ATOM     75  C   UNL     1      30.737  32.794  15.182  1.00  0.00     0.000 A 
ATOM     76  C   UNL     1      32.259  34.590  14.914  1.00  0.00     0.000 A 
ATOM     77  C   UNL     1      31.954  33.376  15.473  1.00  0.00     0.000 A 
ENDBRANCH  65  72
ENDBRANCH  63  65
ENDBRANCH  59  60
ENDBRANCH  58  59
ENDBRANCH  55  58
ENDBRANCH  53  54
ENDBRANCH  50  53
ENDBRANCH  47  50
ENDBRANCH   5  47
BRANCH   4  78
ATOM     78  N   UNL     1      31.120  39.441   5.999  1.00  0.00    -0.348 N 
ATOM     79  C   UNL     1      32.336  40.164   5.856  1.00  0.00     0.217 C 
ATOM     80  H   UNL     1      30.843  38.826   5.193  1.00  0.00     0.163 HD
ATOM     81  C   UNL     1      33.169  40.039   4.612  1.00  0.00     0.114 C 
ATOM     82  O   UNL     1      32.750  40.921   6.759  1.00  0.00    -0.275 OA
ENDBRANCH   4  78
TORSDOF 32
BEGIN_RES LYS A 131
REMARK  4 active torsions:
REMARK  status: ('A' for Active; 'I' for Inactive)
REMARK    1  A    between atoms: CA   and  CB  
REMARK    2  A    between atoms: CB   and  CG  
REMARK    3  A    between atoms: CG   and  CD  
REMARK    4  A    between atoms: CD   and  CE  
ROOT
ATOM      1  CA  LYS A 131      29.867  25.555  16.977  1.00 20.52     0.186 C 
ENDROOT
BRANCH   1   2
ATOM      2  CB  LYS A 131      28.345  25.722  17.026  1.00 20.94     0.034 C 
BRANCH   2   3
ATOM      3  CG  LYS A 131      27.601  24.401  16.903  1.00 22.96     0.005 C 
BRANCH   3   4
ATOM      4  CD  LYS A 131      26.222  24.470  17.498  1.00 24.33     0.041 C 
BRANCH   4   5
ATOM      5  CE  LYS A 131      26.271  25.247  18.809  1.00 26.91     0.338 C 
ATOM      6  NZ  LYS A 131      25.054  24.986  19.613  1.00 27.40     0.618 N 
ENDBRANCH   4   5
ENDBRANCH   3   4
ENDBRANCH   2   3
ENDBRANCH   1   2
END_RES LYS A 131
BEGIN_RES LYS A 135
REMARK  4 active torsions:
REMARK  status: ('A' for Active; 'I' for Inactive)
REMARK    5  A    between atoms: CA   and  CB  
REMARK    6  A    between atoms: CB   and  CG  
REMARK    7  A    between atoms: CG   and  CD  
REMARK    8  A    between atoms: CD   and  CE  
ROOT
ATOM      7  CA  LYS A 135      33.193  34.663   9.290  1.00 25.02     0.186 C 
ENDROOT
BRANCH   7   8
ATOM      8  CB  LYS A 135      32.060  35.360  10.034  1.00 26.63     0.034 C 
BRANCH   8   9
ATOM      9  CG  LYS A 135      30.783  34.560  10.073  1.00 29.45     0.005 C 
BRANCH   9  10
ATOM     10  CD  LYS A 135      30.342  34.185   8.667  1.00 32.00     0.041 C 
BRANCH  10  11
ATOM     11  CE  LYS A 135      28.863  34.464   8.481  1.00 34.25     0.338 C 
ATOM     12  NZ  LYS A 135      28.049  33.743   9.498  1.00 35.99     0.618 N 
ENDBRANCH  10  11
ENDBRANCH   9  10
ENDBRANCH   8   9
ENDBRANCH   7   8
END_RES LYS A 135
