REMARK VINA RESULT:    -5.199      3.737      7.768
REMARK INTER + INTRA:         -22.610
REMARK INTER:                 -11.744
REMARK INTRA:                 -10.866
REMARK UNBOUND:                -9.203
REMARK SMILES CC(=O)N[C@@H]1[C@@H](O)C[C@](OC[C@H]2O[C@@H](O[C@H]3[C@H](O)[C@@H](O)[C@H](OCCN=[N+]=[N-])O[C@@H]3CO)[C@H](O)[C@@H](O)[C@H]2O)(C(=O)O)O[C@H]1C(O)[C@H](O)CNC(=O)OCc1cn(Cc2ccc(C#N)cc2)nn1
REMARK SMILES IDX 9 1 8 2 6 3 5 4 42 5 41 6 10 7 11 8 12 9 14 10 13 11 32 12
REMARK SMILES IDX 34 13 36 14 15 15 16 16 29 17 28 18 21 19 17 20 19 21 30 22
REMARK SMILES IDX 31 23 22 25 23 26 24 27 25 28 26 29 27 30 18 31 20 33 33 35
REMARK SMILES IDX 35 37 37 39 38 41 39 42 40 43 7 45 43 47 44 48 45 50 46 51
REMARK SMILES IDX 47 53 48 54 49 55 50 57 51 58 52 59 53 60 54 61 66 62 55 63
REMARK SMILES IDX 65 64 56 65 57 66 58 67 64 68 59 69 63 70 60 71 61 72 62 73
REMARK SMILES IDX 4 74 2 75 1 77 3 78
REMARK H PARENT 31 24 18 32 20 34 33 36 35 38 37 40 40 44 7 46 44 49 46 52
REMARK H PARENT 48 56 4 76
REMARK Flexibility Score: inf
ROOT
ATOM      1  C   UNL     1      29.470  32.894  16.239  1.00  0.00     0.272 C 
ATOM      2  C   UNL     1      28.205  32.911  15.455  1.00  0.00     0.113 C 
ATOM      3  C   UNL     1      27.156  33.837  15.959  1.00  0.00     0.145 C 
ATOM      4  C   UNL     1      27.317  33.945  17.485  1.00  0.00     0.142 C 
ATOM      5  C   UNL     1      27.938  32.656  17.931  1.00  0.00     0.178 C 
ATOM      6  O   UNL     1      29.264  32.634  17.603  1.00  0.00    -0.332 OA
ENDROOT
BRANCH   1   7
ATOM      7  O   UNL     1      30.295  33.987  16.083  1.00  0.00    -0.338 OA
BRANCH   7   8
ATOM      8  C   UNL     1      31.293  34.090  16.992  1.00  0.00     0.199 C 
BRANCH   8   9
ATOM      9  C   UNL     1      31.740  35.548  17.200  1.00  0.00     0.179 C 
ATOM     10  C   UNL     1      31.707  37.568  16.085  1.00  0.00     0.282 C 
ATOM     11  O   UNL     1      31.531  36.189  15.978  1.00  0.00    -0.341 OA
ATOM     12  C   UNL     1      30.745  38.213  17.028  1.00  0.00     0.202 C 
ATOM     13  C   UNL     1      29.879  37.151  17.664  1.00  0.00     0.179 C 
ATOM     14  C   UNL     1      30.844  36.134  18.258  1.00  0.00     0.177 C 
BRANCH  10  15
ATOM     15  O   UNL     1      31.495  38.101  14.816  1.00  0.00    -0.341 OA
BRANCH  15  16
ATOM     16  C   UNL     1      31.120  37.145  13.873  1.00  0.00     0.184 C 
ATOM     17  C   UNL     1      32.149  37.067  12.803  1.00  0.00     0.178 C 
ATOM     18  O   UNL     1      31.904  37.787  11.670  1.00  0.00    -0.341 OA
ATOM     19  C   UNL     1      30.853  38.669  11.716  1.00  0.00     0.281 C 
ATOM     20  C   UNL     1      29.713  37.322  13.401  1.00  0.00     0.180 C 
ATOM     21  C   UNL     1      29.586  37.900  12.016  1.00  0.00     0.202 C 
BRANCH  17  22
ATOM     22  C   UNL     1      32.449  35.601  12.501  1.00  0.00     0.191 C 
BRANCH  22  23
ATOM     23  O   UNL     1      31.810  34.830  13.473  1.00  0.00    -0.394 OA
ATOM     24  H   UNL     1      32.288  33.957  13.613  1.00  0.00     0.210 HD
ENDBRANCH  22  23
ENDBRANCH  17  22
BRANCH  19  25
ATOM     25  O   UNL     1      30.730  39.203  10.417  1.00  0.00    -0.350 OA
BRANCH  25  26
ATOM     26  C   UNL     1      31.217  38.314   9.470  1.00  0.00     0.169 C 
BRANCH  26  27
ATOM     27  C   UNL     1      30.341  38.307   8.233  1.00  0.00     0.119 C 
BRANCH  27  28
ATOM     28  N   UNL     1      29.074  38.978   8.455  1.00  0.00    -0.092 NA
ATOM     29  N   UNL     1      28.042  38.501   8.012  1.00  0.00     0.001 N 
ATOM     30  N   UNL     1      26.907  38.000   8.022  1.00  0.00    -0.003 NA
ENDBRANCH  27  28
ENDBRANCH  26  27
ENDBRANCH  25  26
ENDBRANCH  19  25
BRANCH  20  31
ATOM     31  O   UNL     1      28.944  36.158  13.526  1.00  0.00    -0.387 OA
ATOM     32  H   UNL     1      28.917  35.868  14.485  1.00  0.00     0.211 HD
ENDBRANCH  20  31
BRANCH  21  33
ATOM     33  O   UNL     1      28.465  38.725  11.897  1.00  0.00    -0.385 OA
ATOM     34  H   UNL     1      28.795  39.660  11.943  1.00  0.00     0.211 HD
ENDBRANCH  21  33
ENDBRANCH  15  16
ENDBRANCH  10  15
BRANCH  12  35
ATOM     35  O   UNL     1      31.329  38.957  18.028  1.00  0.00    -0.385 OA
ATOM     36  H   UNL     1      32.322  38.938  17.925  1.00  0.00     0.211 HD
ENDBRANCH  12  35
BRANCH  13  37
ATOM     37  O   UNL     1      29.072  36.602  16.681  1.00  0.00    -0.387 OA
ATOM     38  H   UNL     1      28.185  37.014  16.598  1.00  0.00     0.211 HD
ENDBRANCH  13  37
BRANCH  14  39
ATOM     39  O   UNL     1      30.225  35.182  19.032  1.00  0.00    -0.387 OA
ATOM     40  H   UNL     1      29.458  34.806  18.550  1.00  0.00     0.211 HD
ENDBRANCH  14  39
ENDBRANCH   8   9
ENDBRANCH   7   8
ENDBRANCH   1   7
BRANCH   1  41
ATOM     41  C   UNL     1      30.232  31.684  15.780  1.00  0.00     0.364 C 
ATOM     42  O   UNL     1      29.839  30.552  16.078  1.00  0.00    -0.246 OA
BRANCH  41  43
ATOM     43  O   UNL     1      31.367  31.867  15.026  1.00  0.00    -0.477 OA
ATOM     44  H   UNL     1      32.277  32.079  15.416  1.00  0.00     0.296 HD
ENDBRANCH  41  43
ENDBRANCH   1  41
BRANCH   3  45
ATOM     45  O   UNL     1      27.069  35.054  15.347  1.00  0.00    -0.391 OA
ATOM     46  H   UNL     1      26.278  35.111  14.772  1.00  0.00     0.211 HD
ENDBRANCH   3  45
BRANCH   5  47
ATOM     47  C   UNL     1      27.727  32.372  19.424  1.00  0.00     0.176 C 
BRANCH  47  48
ATOM     48  O   UNL     1      26.513  31.647  19.478  1.00  0.00    -0.388 OA
ATOM     49  H   UNL     1      26.351  31.396  20.421  1.00  0.00     0.211 HD
ENDBRANCH  47  48
BRANCH  47  50
ATOM     50  C   UNL     1      28.801  31.550  19.982  1.00  0.00     0.165 C 
BRANCH  50  51
ATOM     51  O   UNL     1      29.993  32.314  20.159  1.00  0.00    -0.388 OA
ATOM     52  H   UNL     1      30.670  31.629  20.457  1.00  0.00     0.211 HD
ENDBRANCH  50  51
BRANCH  50  53
ATOM     53  C   UNL     1      29.130  30.286  19.290  1.00  0.00     0.154 C 
BRANCH  53  54
ATOM     54  N   UNL     1      28.229  29.628  18.450  1.00  0.00    -0.319 N 
ATOM     55  C   UNL     1      27.561  28.401  18.618  1.00  0.00     0.407 C 
ATOM     56  H   UNL     1      27.990  30.118  17.519  1.00  0.00     0.167 HD
ATOM     57  O   UNL     1      27.676  27.694  19.629  1.00  0.00    -0.225 OA
BRANCH  55  58
ATOM     58  O   UNL     1      26.703  27.904  17.624  1.00  0.00    -0.443 OA
BRANCH  58  59
ATOM     59  C   UNL     1      25.312  28.171  17.689  1.00  0.00     0.294 C 
BRANCH  59  60
ATOM     60  C   UNL     1      25.053  29.473  16.981  1.00  0.00     0.120 A 
ATOM     61  C   UNL     1      25.088  29.628  15.610  1.00  0.00     0.138 A 
ATOM     62  N   UNL     1      24.762  30.684  17.490  1.00  0.00    -0.132 NA
ATOM     63  N   UNL     1      24.818  30.930  15.331  1.00  0.00    -0.248 N 
ATOM     64  N   UNL     1      24.634  31.506  16.473  1.00  0.00    -0.067 NA
BRANCH  63  65
ATOM     65  C   UNL     1      24.793  31.447  13.971  1.00  0.00     0.181 C 
BRANCH  65  66
ATOM     66  C   UNL     1      23.502  30.928  13.387  1.00  0.00    -0.026 A 
ATOM     67  C   UNL     1      22.405  31.752  13.403  1.00  0.00     0.007 A 
ATOM     68  C   UNL     1      23.447  29.640  12.850  1.00  0.00     0.007 A 
ATOM     69  C   UNL     1      21.185  31.363  12.897  1.00  0.00     0.020 A 
ATOM     70  C   UNL     1      22.232  29.253  12.345  1.00  0.00     0.020 A 
ATOM     71  C   UNL     1      21.149  30.070  12.365  1.00  0.00     0.052 A 
BRANCH  71  72
ATOM     72  C   UNL     1      19.863  29.627  11.839  1.00  0.00     0.099 C 
ATOM     73  N   UNL     1      18.835  29.259  11.436  1.00  0.00    -0.192 NA
ENDBRANCH  71  72
ENDBRANCH  65  66
ENDBRANCH  63  65
ENDBRANCH  59  60
ENDBRANCH  58  59
ENDBRANCH  55  58
ENDBRANCH  53  54
ENDBRANCH  50  53
ENDBRANCH  47  50
ENDBRANCH   5  47
BRANCH   4  74
ATOM     74  N   UNL     1      26.047  34.248  18.096  1.00  0.00    -0.348 N 
ATOM     75  C   UNL     1      25.721  35.605  18.351  1.00  0.00     0.217 C 
ATOM     76  H   UNL     1      25.365  33.518  18.353  1.00  0.00     0.163 HD
ATOM     77  C   UNL     1      24.442  35.993  18.972  1.00  0.00     0.114 C 
ATOM     78  O   UNL     1      26.533  36.543  18.048  1.00  0.00    -0.275 OA
ENDBRANCH   4  74
TORSDOF 32
BEGIN_RES LYS A 131
REMARK  4 active torsions:
REMARK  status: ('A' for Active; 'I' for Inactive)
REMARK    1  A    between atoms: CA   and  CB  
REMARK    2  A    between atoms: CB   and  CG  
REMARK    3  A    between atoms: CG   and  CD  
REMARK    4  A    between atoms: CD   and  CE  
ROOT
ATOM      1  CA  LYS A 131      29.867  25.555  16.977  1.00 20.52     0.186 C 
ENDROOT
BRANCH   1   2
ATOM      2  CB  LYS A 131      28.345  25.722  17.026  1.00 20.94     0.034 C 
BRANCH   2   3
ATOM      3  CG  LYS A 131      27.602  24.398  16.940  1.00 22.96     0.005 C 
BRANCH   3   4
ATOM      4  CD  LYS A 131      26.459  24.325  17.914  1.00 24.33     0.041 C 
BRANCH   4   5
ATOM      5  CE  LYS A 131      25.138  24.386  17.155  1.00 26.91     0.338 C 
ATOM      6  NZ  LYS A 131      24.062  23.728  17.932  1.00 27.40     0.618 N 
ENDBRANCH   4   5
ENDBRANCH   3   4
ENDBRANCH   2   3
ENDBRANCH   1   2
END_RES LYS A 131
BEGIN_RES LYS A 135
REMARK  4 active torsions:
REMARK  status: ('A' for Active; 'I' for Inactive)
REMARK    5  A    between atoms: CA   and  CB  
REMARK    6  A    between atoms: CB   and  CG  
REMARK    7  A    between atoms: CG   and  CD  
REMARK    8  A    between atoms: CD   and  CE  
ROOT
ATOM      7  CA  LYS A 135      33.193  34.663   9.290  1.00 25.02     0.186 C 
ENDROOT
BRANCH   7   8
ATOM      8  CB  LYS A 135      32.060  35.360  10.034  1.00 26.63     0.034 C 
BRANCH   8   9
ATOM      9  CG  LYS A 135      30.710  34.734   9.799  1.00 29.45     0.005 C 
BRANCH   9  10
ATOM     10  CD  LYS A 135      30.469  34.520   8.313  1.00 32.00     0.041 C 
BRANCH  10  11
ATOM     11  CE  LYS A 135      29.031  34.844   7.954  1.00 34.25     0.338 C 
ATOM     12  NZ  LYS A 135      28.937  35.422   6.585  1.00 35.99     0.618 N 
ENDBRANCH  10  11
ENDBRANCH   9  10
ENDBRANCH   8   9
ENDBRANCH   7   8
END_RES LYS A 135
