REMARK VINA RESULT:    -4.345      5.780     13.084
REMARK INTER + INTRA:         -21.359
REMARK INTER:                 -12.633
REMARK INTRA:                  -8.726
REMARK UNBOUND:               -10.664
REMARK SMILES CC(=O)N[C@@H]1[C@@H](O)C[C@](OC[C@H]2O[C@@H](O[C@H]3[C@H](O)[C@@H](O)[C@H](OCCN=[N+]=[N-])O[C@@H]3CO)[C@H](O)[C@@H](O)[C@H]2O)(C(=O)O)O[C@H]1C(O)[C@H](O)CNC(=O)OCc1cn(-c2ccc(Br)cc2)nn1
REMARK SMILES IDX 9 1 8 2 6 3 5 4 42 5 41 6 10 7 11 8 12 9 14 10 13 11 32 12
REMARK SMILES IDX 34 13 36 14 15 15 16 16 29 17 28 18 21 19 17 20 19 21 30 22
REMARK SMILES IDX 31 23 22 25 23 26 24 27 25 28 26 29 27 30 18 31 20 33 33 35
REMARK SMILES IDX 35 37 37 39 38 41 39 42 40 43 7 45 43 47 44 48 45 50 46 51
REMARK SMILES IDX 47 53 48 54 49 55 50 57 51 58 52 59 53 60 54 61 64 62 55 63
REMARK SMILES IDX 63 64 56 65 57 66 62 67 58 68 61 69 59 70 60 71 4 72 2 73
REMARK SMILES IDX 1 75 3 76
REMARK H PARENT 31 24 18 32 20 34 33 36 35 38 37 40 40 44 7 46 44 49 46 52
REMARK H PARENT 48 56 4 74
REMARK Flexibility Score: inf
ROOT
ATOM      1  C   UNL     1      28.944  39.040   6.522  1.00  0.00     0.272 C 
ATOM      2  C   UNL     1      28.343  40.152   7.424  1.00  0.00     0.113 C 
ATOM      3  C   UNL     1      27.621  39.492   8.540  1.00  0.00     0.145 C 
ATOM      4  C   UNL     1      28.647  38.602   9.271  1.00  0.00     0.142 C 
ATOM      5  C   UNL     1      28.971  37.506   8.284  1.00  0.00     0.178 C 
ATOM      6  O   UNL     1      29.642  38.120   7.250  1.00  0.00    -0.332 OA
ENDROOT
BRANCH   1   7
ATOM      7  O   UNL     1      29.847  39.756   5.729  1.00  0.00    -0.338 OA
BRANCH   7   8
ATOM      8  C   UNL     1      30.275  40.943   6.240  1.00  0.00     0.199 C 
BRANCH   8   9
ATOM      9  C   UNL     1      31.742  41.112   5.796  1.00  0.00     0.179 C 
ATOM     10  C   UNL     1      33.764  41.709   6.776  1.00  0.00     0.282 C 
ATOM     11  O   UNL     1      32.420  41.952   6.631  1.00  0.00    -0.341 OA
ATOM     12  C   UNL     1      34.381  40.981   5.651  1.00  0.00     0.202 C 
ATOM     13  C   UNL     1      33.670  39.747   5.194  1.00  0.00     0.179 C 
ATOM     14  C   UNL     1      32.306  39.701   5.802  1.00  0.00     0.177 C 
BRANCH  10  15
ATOM     15  O   UNL     1      33.932  41.157   8.045  1.00  0.00    -0.341 OA
BRANCH  15  16
ATOM     16  C   UNL     1      33.645  42.064   9.049  1.00  0.00     0.184 C 
ATOM     17  C   UNL     1      34.855  42.404   9.859  1.00  0.00     0.178 C 
ATOM     18  O   UNL     1      34.565  43.415  10.730  1.00  0.00    -0.341 OA
ATOM     19  C   UNL     1      33.261  43.683  11.015  1.00  0.00     0.281 C 
ATOM     20  C   UNL     1      32.655  41.455  10.055  1.00  0.00     0.180 C 
ATOM     21  C   UNL     1      32.352  42.479  11.127  1.00  0.00     0.202 C 
BRANCH  17  22
ATOM     22  C   UNL     1      35.962  42.881   8.938  1.00  0.00     0.191 C 
BRANCH  22  23
ATOM     23  O   UNL     1      36.787  41.839   8.586  1.00  0.00    -0.394 OA
ATOM     24  H   UNL     1      36.385  40.979   8.801  1.00  0.00     0.210 HD
ENDBRANCH  22  23
ENDBRANCH  17  22
BRANCH  19  25
ATOM     25  O   UNL     1      32.715  44.673  10.206  1.00  0.00    -0.350 OA
BRANCH  25  26
ATOM     26  C   UNL     1      31.336  44.750  10.256  1.00  0.00     0.169 C 
BRANCH  26  27
ATOM     27  C   UNL     1      30.668  44.788   8.923  1.00  0.00     0.119 C 
BRANCH  27  28
ATOM     28  N   UNL     1      29.901  43.571   8.722  1.00  0.00    -0.092 NA
ATOM     29  N   UNL     1      29.030  43.310   9.556  1.00  0.00     0.001 N 
ATOM     30  N   UNL     1      28.050  43.031  10.278  1.00  0.00    -0.003 NA
ENDBRANCH  27  28
ENDBRANCH  26  27
ENDBRANCH  25  26
ENDBRANCH  19  25
BRANCH  20  31
ATOM     31  O   UNL     1      31.531  40.985   9.399  1.00  0.00    -0.387 OA
ATOM     32  H   UNL     1      30.791  41.649   9.423  1.00  0.00     0.211 HD
ENDBRANCH  20  31
BRANCH  21  33
ATOM     33  O   UNL     1      32.381  41.972  12.406  1.00  0.00    -0.385 OA
ATOM     34  H   UNL     1      33.111  41.311  12.463  1.00  0.00     0.211 HD
ENDBRANCH  21  33
ENDBRANCH  15  16
ENDBRANCH  10  15
BRANCH  12  35
ATOM     35  O   UNL     1      34.509  41.912   4.584  1.00  0.00    -0.385 OA
ATOM     36  H   UNL     1      34.172  42.805   4.885  1.00  0.00     0.211 HD
ENDBRANCH  12  35
BRANCH  13  37
ATOM     37  O   UNL     1      34.380  38.589   5.591  1.00  0.00    -0.387 OA
ATOM     38  H   UNL     1      33.856  37.828   5.236  1.00  0.00     0.211 HD
ENDBRANCH  13  37
BRANCH  14  39
ATOM     39  O   UNL     1      32.312  39.153   7.083  1.00  0.00    -0.387 OA
ATOM     40  H   UNL     1      31.907  39.777   7.735  1.00  0.00     0.211 HD
ENDBRANCH  14  39
ENDBRANCH   8   9
ENDBRANCH   7   8
ENDBRANCH   1   7
BRANCH   1  41
ATOM     41  C   UNL     1      27.852  38.553   5.682  1.00  0.00     0.364 C 
ATOM     42  O   UNL     1      27.755  37.367   5.286  1.00  0.00    -0.246 OA
BRANCH  41  43
ATOM     43  O   UNL     1      26.846  39.409   5.278  1.00  0.00    -0.477 OA
ATOM     44  H   UNL     1      26.741  39.756   4.325  1.00  0.00     0.296 HD
ENDBRANCH  41  43
ENDBRANCH   1  41
BRANCH   3  45
ATOM     45  O   UNL     1      27.188  40.404   9.492  1.00  0.00    -0.391 OA
ATOM     46  H   UNL     1      26.281  40.700   9.271  1.00  0.00     0.211 HD
ENDBRANCH   3  45
BRANCH   5  47
ATOM     47  C   UNL     1      29.851  36.423   8.808  1.00  0.00     0.176 C 
BRANCH  47  48
ATOM     48  O   UNL     1      31.168  36.787   8.407  1.00  0.00    -0.388 OA
ATOM     49  H   UNL     1      31.103  37.284   7.552  1.00  0.00     0.211 HD
ENDBRANCH  47  48
BRANCH  47  50
ATOM     50  C   UNL     1      29.645  35.066   8.151  1.00  0.00     0.165 C 
BRANCH  50  51
ATOM     51  O   UNL     1      29.572  35.384   6.766  1.00  0.00    -0.388 OA
ATOM     52  H   UNL     1      30.088  36.235   6.600  1.00  0.00     0.211 HD
ENDBRANCH  50  51
BRANCH  50  53
ATOM     53  C   UNL     1      28.333  34.464   8.515  1.00  0.00     0.154 C 
BRANCH  53  54
ATOM     54  N   UNL     1      28.233  34.202   9.915  1.00  0.00    -0.319 N 
ATOM     55  C   UNL     1      27.274  34.796  10.795  1.00  0.00     0.407 C 
ATOM     56  H   UNL     1      28.907  33.516  10.385  1.00  0.00     0.167 HD
ATOM     57  O   UNL     1      26.453  35.616  10.323  1.00  0.00    -0.225 OA
BRANCH  55  58
ATOM     58  O   UNL     1      27.226  34.491  12.135  1.00  0.00    -0.443 OA
BRANCH  58  59
ATOM     59  C   UNL     1      26.112  34.864  12.905  1.00  0.00     0.294 C 
BRANCH  59  60
ATOM     60  C   UNL     1      25.409  33.641  13.351  1.00  0.00     0.121 A 
ATOM     61  C   UNL     1      24.324  33.065  12.679  1.00  0.00     0.144 A 
ATOM     62  N   UNL     1      25.611  32.853  14.418  1.00  0.00    -0.131 NA
ATOM     63  N   UNL     1      23.928  31.975  13.358  1.00  0.00    -0.220 N 
ATOM     64  N   UNL     1      24.725  31.874  14.403  1.00  0.00    -0.062 NA
BRANCH  63  65
ATOM     65  C   UNL     1      22.842  31.150  12.955  1.00  0.00     0.066 A 
ATOM     66  C   UNL     1      21.576  31.584  12.728  1.00  0.00     0.029 A 
ATOM     67  C   UNL     1      23.132  29.801  12.780  1.00  0.00     0.029 A 
ATOM     68  C   UNL     1      20.614  30.680  12.329  1.00  0.00     0.018 A 
ATOM     69  C   UNL     1      22.161  28.910  12.382  1.00  0.00     0.018 A 
ATOM     70  C   UNL     1      20.872  29.343  12.149  1.00  0.00     0.018 A 
ATOM     71  Br  UNL     1      19.513  28.125  11.593  1.00  0.00    -0.051 Br
ENDBRANCH  63  65
ENDBRANCH  59  60
ENDBRANCH  58  59
ENDBRANCH  55  58
ENDBRANCH  53  54
ENDBRANCH  50  53
ENDBRANCH  47  50
ENDBRANCH   5  47
BRANCH   4  72
ATOM     72  N   UNL     1      28.014  38.168  10.479  1.00  0.00    -0.348 N 
ATOM     73  C   UNL     1      28.662  38.234  11.742  1.00  0.00     0.217 C 
ATOM     74  H   UNL     1      27.051  37.789  10.441  1.00  0.00     0.163 HD
ATOM     75  C   UNL     1      28.034  37.789  13.009  1.00  0.00     0.114 C 
ATOM     76  O   UNL     1      29.847  38.695  11.816  1.00  0.00    -0.275 OA
ENDBRANCH   4  72
TORSDOF 30
BEGIN_RES LYS A 131
REMARK  4 active torsions:
REMARK  status: ('A' for Active; 'I' for Inactive)
REMARK    1  A    between atoms: CA   and  CB  
REMARK    2  A    between atoms: CB   and  CG  
REMARK    3  A    between atoms: CG   and  CD  
REMARK    4  A    between atoms: CD   and  CE  
ROOT
ATOM      1  CA  LYS A 131      29.867  25.555  16.977  1.00 20.52     0.186 C 
ENDROOT
BRANCH   1   2
ATOM      2  CB  LYS A 131      28.345  25.722  17.026  1.00 20.94     0.034 C 
BRANCH   2   3
ATOM      3  CG  LYS A 131      27.601  24.401  16.906  1.00 22.96     0.005 C 
BRANCH   3   4
ATOM      4  CD  LYS A 131      26.192  24.495  17.421  1.00 24.33     0.041 C 
BRANCH   4   5
ATOM      5  CE  LYS A 131      26.154  25.422  18.632  1.00 26.91     0.338 C 
ATOM      6  NZ  LYS A 131      25.481  24.758  19.773  1.00 27.40     0.618 N 
ENDBRANCH   4   5
ENDBRANCH   3   4
ENDBRANCH   2   3
ENDBRANCH   1   2
END_RES LYS A 131
BEGIN_RES LYS A 135
REMARK  4 active torsions:
REMARK  status: ('A' for Active; 'I' for Inactive)
REMARK    5  A    between atoms: CA   and  CB  
REMARK    6  A    between atoms: CB   and  CG  
REMARK    7  A    between atoms: CG   and  CD  
REMARK    8  A    between atoms: CD   and  CE  
ROOT
ATOM      7  CA  LYS A 135      33.193  34.663   9.290  1.00 25.02     0.186 C 
ENDROOT
BRANCH   7   8
ATOM      8  CB  LYS A 135      32.060  35.360  10.034  1.00 26.63     0.034 C 
BRANCH   8   9
ATOM      9  CG  LYS A 135      32.202  35.308  11.533  1.00 29.45     0.005 C 
BRANCH   9  10
ATOM     10  CD  LYS A 135      30.842  35.162  12.197  1.00 32.00     0.041 C 
BRANCH  10  11
ATOM     11  CE  LYS A 135      30.999  34.800  13.661  1.00 34.25     0.338 C 
ATOM     12  NZ  LYS A 135      30.021  33.752  14.063  1.00 35.99     0.618 N 
ENDBRANCH  10  11
ENDBRANCH   9  10
ENDBRANCH   8   9
ENDBRANCH   7   8
END_RES LYS A 135
