REMARK VINA RESULT:    -4.631      6.404     11.056
REMARK INTER + INTRA:         -23.003
REMARK INTER:                 -12.086
REMARK INTRA:                 -10.917
REMARK UNBOUND:               -11.064
REMARK SMILES CC(=O)N[C@@H]1[C@@H](O)C[C@](OC[C@H]2O[C@@H](O[C@H]3[C@H](O)[C@@H](O)[C@H](OCCN=[N+]=[N-])O[C@@H]3CO)[C@H](O)[C@@H](O)[C@H]2O)(C(=O)O)O[C@H]1C(O)[C@H](O)CNC(=O)OCc1cn(CC(=O)Nc2ncccn2)nn1
REMARK SMILES IDX 9 1 8 2 6 3 5 4 42 5 41 6 10 7 11 8 12 9 14 10 13 11 32 12
REMARK SMILES IDX 34 13 36 14 15 15 16 16 29 17 28 18 21 19 17 20 19 21 30 22
REMARK SMILES IDX 31 23 22 25 23 26 24 27 25 28 26 29 27 30 18 31 20 33 33 35
REMARK SMILES IDX 35 37 37 39 38 41 39 42 40 43 7 45 43 47 44 48 45 50 46 51
REMARK SMILES IDX 47 53 48 54 49 55 50 57 51 58 52 59 53 60 54 61 67 62 55 63
REMARK SMILES IDX 66 64 56 65 57 66 58 67 59 68 60 70 61 71 65 72 62 73 64 74
REMARK SMILES IDX 63 75 4 76 2 77 1 79 3 80
REMARK H PARENT 31 24 18 32 20 34 33 36 35 38 37 40 40 44 7 46 44 49 46 52
REMARK H PARENT 48 56 59 69 4 78
REMARK Flexibility Score: inf
ROOT
ATOM      1  C   UNL     1      26.966  30.578  19.090  1.00  0.00     0.272 C 
ATOM      2  C   UNL     1      26.224  31.061  20.325  1.00  0.00     0.113 C 
ATOM      3  C   UNL     1      26.144  29.995  21.342  1.00  0.00     0.145 C 
ATOM      4  C   UNL     1      27.433  29.229  21.595  1.00  0.00     0.142 C 
ATOM      5  C   UNL     1      28.331  29.195  20.442  1.00  0.00     0.178 C 
ATOM      6  O   UNL     1      28.269  30.350  19.675  1.00  0.00    -0.332 OA
ENDROOT
BRANCH   1   7
ATOM      7  O   UNL     1      27.114  31.596  18.252  1.00  0.00    -0.338 OA
BRANCH   7   8
ATOM      8  C   UNL     1      26.974  31.873  17.019  1.00  0.00     0.199 C 
BRANCH   8   9
ATOM      9  C   UNL     1      28.028  32.007  15.971  1.00  0.00     0.179 C 
ATOM     10  C   UNL     1      29.800  33.444  15.473  1.00  0.00     0.282 C 
ATOM     11  O   UNL     1      28.722  33.256  16.280  1.00  0.00    -0.341 OA
ATOM     12  C   UNL     1      30.992  32.572  15.986  1.00  0.00     0.202 C 
ATOM     13  C   UNL     1      30.287  31.544  16.850  1.00  0.00     0.179 C 
ATOM     14  C   UNL     1      29.134  31.018  15.965  1.00  0.00     0.177 C 
BRANCH  10  15
ATOM     15  O   UNL     1      30.215  34.780  15.551  1.00  0.00    -0.341 OA
BRANCH  15  16
ATOM     16  C   UNL     1      31.315  35.048  14.745  1.00  0.00     0.184 C 
ATOM     17  C   UNL     1      31.933  36.366  15.230  1.00  0.00     0.178 C 
ATOM     18  O   UNL     1      32.099  37.256  14.180  1.00  0.00    -0.341 OA
ATOM     19  C   UNL     1      30.863  37.618  13.623  1.00  0.00     0.281 C 
ATOM     20  C   UNL     1      30.909  35.114  13.321  1.00  0.00     0.180 C 
ATOM     21  C   UNL     1      30.389  36.432  12.833  1.00  0.00     0.202 C 
BRANCH  17  22
ATOM     22  C   UNL     1      33.313  36.100  15.807  1.00  0.00     0.191 C 
BRANCH  22  23
ATOM     23  O   UNL     1      34.012  35.178  15.027  1.00  0.00    -0.394 OA
ATOM     24  H   UNL     1      34.631  35.622  14.385  1.00  0.00     0.210 HD
ENDBRANCH  22  23
ENDBRANCH  17  22
BRANCH  19  25
ATOM     25  O   UNL     1      31.124  38.690  12.792  1.00  0.00    -0.350 OA
BRANCH  25  26
ATOM     26  C   UNL     1      31.497  38.328  11.515  1.00  0.00     0.169 C 
BRANCH  26  27
ATOM     27  C   UNL     1      31.104  39.327  10.448  1.00  0.00     0.119 C 
BRANCH  27  28
ATOM     28  N   UNL     1      29.678  39.611  10.475  1.00  0.00    -0.092 NA
ATOM     29  N   UNL     1      28.832  38.716  10.382  1.00  0.00     0.001 N 
ATOM     30  N   UNL     1      28.153  37.723  10.143  1.00  0.00    -0.003 NA
ENDBRANCH  27  28
ENDBRANCH  26  27
ENDBRANCH  25  26
ENDBRANCH  19  25
BRANCH  20  31
ATOM     31  O   UNL     1      32.041  34.828  12.509  1.00  0.00    -0.387 OA
ATOM     32  H   UNL     1      31.750  34.286  11.720  1.00  0.00     0.211 HD
ENDBRANCH  20  31
BRANCH  21  33
ATOM     33  O   UNL     1      28.999  36.394  12.838  1.00  0.00    -0.385 OA
ATOM     34  H   UNL     1      28.642  37.286  12.616  1.00  0.00     0.211 HD
ENDBRANCH  21  33
ENDBRANCH  15  16
ENDBRANCH  10  15
BRANCH  12  35
ATOM     35  O   UNL     1      31.502  31.863  14.892  1.00  0.00    -0.385 OA
ATOM     36  H   UNL     1      31.526  32.507  14.133  1.00  0.00     0.211 HD
ENDBRANCH  12  35
BRANCH  13  37
ATOM     37  O   UNL     1      29.858  32.034  18.053  1.00  0.00    -0.387 OA
ATOM     38  H   UNL     1      29.459  31.361  18.638  1.00  0.00     0.211 HD
ENDBRANCH  13  37
BRANCH  14  39
ATOM     39  O   UNL     1      28.910  29.729  16.294  1.00  0.00    -0.387 OA
ATOM     40  H   UNL     1      29.744  29.201  16.347  1.00  0.00     0.211 HD
ENDBRANCH  14  39
ENDBRANCH   8   9
ENDBRANCH   7   8
ENDBRANCH   1   7
BRANCH   1  41
ATOM     41  C   UNL     1      26.500  29.335  18.514  1.00  0.00     0.364 C 
ATOM     42  O   UNL     1      25.250  29.151  18.320  1.00  0.00    -0.246 OA
BRANCH  41  43
ATOM     43  O   UNL     1      27.296  28.278  18.141  1.00  0.00    -0.477 OA
ATOM     44  H   UNL     1      28.227  28.116  18.442  1.00  0.00     0.296 HD
ENDBRANCH  41  43
ENDBRANCH   1  41
BRANCH   3  45
ATOM     45  O   UNL     1      25.721  30.609  22.548  1.00  0.00    -0.391 OA
ATOM     46  H   UNL     1      24.916  31.177  22.353  1.00  0.00     0.211 HD
ENDBRANCH   3  45
BRANCH   5  47
ATOM     47  C   UNL     1      29.837  29.072  20.794  1.00  0.00     0.176 C 
BRANCH  47  48
ATOM     48  O   UNL     1      30.235  29.748  21.883  1.00  0.00    -0.388 OA
ATOM     49  H   UNL     1      29.739  29.539  22.723  1.00  0.00     0.211 HD
ENDBRANCH  47  48
BRANCH  47  50
ATOM     50  C   UNL     1      30.482  27.833  20.407  1.00  0.00     0.165 C 
BRANCH  50  51
ATOM     51  O   UNL     1      29.334  26.887  20.230  1.00  0.00    -0.388 OA
ATOM     52  H   UNL     1      28.855  26.846  21.073  1.00  0.00     0.211 HD
ENDBRANCH  50  51
BRANCH  50  53
ATOM     53  C   UNL     1      31.484  27.104  21.156  1.00  0.00     0.154 C 
BRANCH  53  54
ATOM     54  N   UNL     1      32.617  27.593  21.793  1.00  0.00    -0.319 N 
ATOM     55  C   UNL     1      32.898  28.069  23.090  1.00  0.00     0.407 C 
ATOM     56  H   UNL     1      33.514  27.617  21.125  1.00  0.00     0.167 HD
ATOM     57  O   UNL     1      32.012  28.126  23.962  1.00  0.00    -0.225 OA
BRANCH  55  58
ATOM     58  O   UNL     1      34.157  28.483  23.444  1.00  0.00    -0.443 OA
BRANCH  58  59
ATOM     59  C   UNL     1      34.958  29.421  22.882  1.00  0.00     0.294 C 
BRANCH  59  60
ATOM     60  C   UNL     1      34.233  30.570  22.292  1.00  0.00     0.120 A 
ATOM     61  C   UNL     1      34.749  31.854  22.073  1.00  0.00     0.138 A 
ATOM     62  N   UNL     1      32.933  30.679  21.900  1.00  0.00    -0.132 NA
ATOM     63  N   UNL     1      33.800  32.660  21.584  1.00  0.00    -0.243 N 
ATOM     64  N   UNL     1      32.716  31.909  21.494  1.00  0.00    -0.067 NA
BRANCH  63  65
ATOM     65  C   UNL     1      33.875  34.059  21.210  1.00  0.00     0.246 C 
BRANCH  65  66
ATOM     66  C   UNL     1      32.575  34.417  20.521  1.00  0.00     0.248 C 
ATOM     67  O   UNL     1      32.500  34.541  19.275  1.00  0.00    -0.272 OA
ATOM     68  N   UNL     1      31.401  34.620  21.288  1.00  0.00    -0.293 N 
ATOM     69  H   UNL     1      31.522  34.503  22.325  1.00  0.00     0.173 HD
BRANCH  68  70
ATOM     70  C   UNL     1      30.123  34.943  20.786  1.00  0.00     0.229 A 
ATOM     71  N   UNL     1      29.224  34.042  20.351  1.00  0.00    -0.221 NA
ATOM     72  N   UNL     1      29.777  36.245  20.730  1.00  0.00    -0.221 NA
ATOM     73  C   UNL     1      28.000  34.398  19.862  1.00  0.00     0.117 A 
ATOM     74  C   UNL     1      28.594  36.649  20.264  1.00  0.00     0.117 A 
ATOM     75  C   UNL     1      27.676  35.737  19.818  1.00  0.00     0.040 A 
ENDBRANCH  68  70
ENDBRANCH  65  66
ENDBRANCH  63  65
ENDBRANCH  59  60
ENDBRANCH  58  59
ENDBRANCH  55  58
ENDBRANCH  53  54
ENDBRANCH  50  53
ENDBRANCH  47  50
ENDBRANCH   5  47
BRANCH   4  76
ATOM     76  N   UNL     1      27.037  27.977  22.167  1.00  0.00    -0.348 N 
ATOM     77  C   UNL     1      27.703  27.438  23.330  1.00  0.00     0.217 C 
ATOM     78  H   UNL     1      26.249  27.402  21.766  1.00  0.00     0.163 HD
ATOM     79  C   UNL     1      27.239  26.143  23.872  1.00  0.00     0.114 C 
ATOM     80  O   UNL     1      28.648  28.061  23.855  1.00  0.00    -0.275 OA
ENDBRANCH   4  76
TORSDOF 32
BEGIN_RES LYS A 131
REMARK  4 active torsions:
REMARK  status: ('A' for Active; 'I' for Inactive)
REMARK    1  A    between atoms: CA   and  CB  
REMARK    2  A    between atoms: CB   and  CG  
REMARK    3  A    between atoms: CG   and  CD  
REMARK    4  A    between atoms: CD   and  CE  
ROOT
ATOM      1  CA  LYS A 131      29.867  25.555  16.977  1.00 20.52     0.186 C 
ENDROOT
BRANCH   1   2
ATOM      2  CB  LYS A 131      28.345  25.722  17.026  1.00 20.94     0.034 C 
BRANCH   2   3
ATOM      3  CG  LYS A 131      27.600  24.413  16.817  1.00 22.96     0.005 C 
BRANCH   3   4
ATOM      4  CD  LYS A 131      26.811  24.010  18.032  1.00 24.33     0.041 C 
BRANCH   4   5
ATOM      5  CE  LYS A 131      25.496  23.372  17.597  1.00 26.91     0.338 C 
ATOM      6  NZ  LYS A 131      24.657  24.356  16.873  1.00 27.40     0.618 N 
ENDBRANCH   4   5
ENDBRANCH   3   4
ENDBRANCH   2   3
ENDBRANCH   1   2
END_RES LYS A 131
BEGIN_RES LYS A 135
REMARK  4 active torsions:
REMARK  status: ('A' for Active; 'I' for Inactive)
REMARK    5  A    between atoms: CA   and  CB  
REMARK    6  A    between atoms: CB   and  CG  
REMARK    7  A    between atoms: CG   and  CD  
REMARK    8  A    between atoms: CD   and  CE  
ROOT
ATOM      7  CA  LYS A 135      33.193  34.663   9.290  1.00 25.02     0.186 C 
ENDROOT
BRANCH   7   8
ATOM      8  CB  LYS A 135      32.060  35.360  10.034  1.00 26.63     0.034 C 
BRANCH   8   9
ATOM      9  CG  LYS A 135      30.796  35.488   9.224  1.00 29.45     0.005 C 
BRANCH   9  10
ATOM     10  CD  LYS A 135      30.126  34.133   9.056  1.00 32.00     0.041 C 
BRANCH  10  11
ATOM     11  CE  LYS A 135      28.665  34.303   8.689  1.00 34.25     0.338 C 
ATOM     12  NZ  LYS A 135      27.778  33.747   9.749  1.00 35.99     0.618 N 
ENDBRANCH  10  11
ENDBRANCH   9  10
ENDBRANCH   8   9
ENDBRANCH   7   8
END_RES LYS A 135
