REMARK VINA RESULT:    -4.111      4.981     11.377
REMARK INTER + INTRA:         -22.051
REMARK INTER:                 -10.783
REMARK INTRA:                 -11.269
REMARK UNBOUND:               -10.971
REMARK SMILES C=CCCCCn1cc(COC(=O)NC[C@@H](O)C(O)[C@@H]2O[C@@](OC[C@H]3O[C@@H](O[C@H]4[C@H](O)[C@@H](O)[C@H](OCCN=[N+]=[N-])O[C@@H]4CO)[C@H](O)[C@@H](O)[C@H]3O)(C(=O)O)C[C@H](O)[C@H]2NC(C)=O)nn1
REMARK SMILES IDX 18 1 20 2 22 3 54 4 21 5 55 6 57 7 23 8 24 9 25 10 27 11
REMARK SMILES IDX 26 12 45 13 47 14 49 15 28 16 29 17 42 18 41 19 34 20 30 21
REMARK SMILES IDX 32 22 43 23 44 24 35 26 36 27 37 28 38 29 39 30 40 31 31 32
REMARK SMILES IDX 33 34 46 36 48 38 50 40 51 42 52 43 53 44 56 46 58 48 59 49
REMARK SMILES IDX 60 51 61 52 19 53 16 55 17 56 15 58 14 59 12 60 13 62 11 63
REMARK SMILES IDX 10 64 9 65 8 66 62 67 7 68 63 69 6 70 5 71 4 72 3 73 2 74
REMARK SMILES IDX 1 75
REMARK H PARENT 44 25 31 33 33 35 46 37 48 39 50 41 53 45 56 47 58 50 19 54
REMARK H PARENT 17 57 14 61
REMARK Flexibility Score: inf
ROOT
ATOM      1  C   UNL     1      25.160  36.208  14.183  1.00  0.00     0.176 C 
ENDROOT
BRANCH   1   2
ATOM      2  C   UNL     1      25.600  36.289  12.718  1.00  0.00     0.178 C 
ATOM      3  C   UNL     1      27.479  36.549  11.418  1.00  0.00     0.272 C 
ATOM      4  C   UNL     1      26.732  37.406  10.484  1.00  0.00     0.113 C 
ATOM      5  O   UNL     1      26.873  36.736  12.719  1.00  0.00    -0.332 OA
ATOM      6  C   UNL     1      25.285  37.175  10.422  1.00  0.00     0.145 C 
ATOM      7  C   UNL     1      24.642  36.772  11.739  1.00  0.00     0.142 C 
BRANCH   3   8
ATOM      8  O   UNL     1      28.759  37.003  11.700  1.00  0.00    -0.338 OA
BRANCH   8   9
ATOM      9  C   UNL     1      29.069  37.668  12.795  1.00  0.00     0.199 C 
BRANCH   9  10
ATOM     10  C   UNL     1      30.239  37.307  13.627  1.00  0.00     0.179 C 
ATOM     11  C   UNL     1      30.730  36.256  15.662  1.00  0.00     0.282 C 
ATOM     12  O   UNL     1      29.831  36.998  14.947  1.00  0.00    -0.341 OA
ATOM     13  C   UNL     1      32.101  36.252  15.108  1.00  0.00     0.202 C 
ATOM     14  C   UNL     1      32.189  35.875  13.654  1.00  0.00     0.179 C 
ATOM     15  C   UNL     1      30.830  36.029  13.044  1.00  0.00     0.177 C 
BRANCH  11  16
ATOM     16  O   UNL     1      30.145  35.053  15.953  1.00  0.00    -0.341 OA
BRANCH  16  17
ATOM     17  C   UNL     1      30.855  34.187  16.729  1.00  0.00     0.184 C 
ATOM     18  C   UNL     1      30.128  32.864  16.784  1.00  0.00     0.178 C 
ATOM     19  O   UNL     1      30.197  32.303  18.069  1.00  0.00    -0.341 OA
ATOM     20  C   UNL     1      29.283  32.989  18.863  1.00  0.00     0.281 C 
ATOM     21  C   UNL     1      30.929  34.676  18.194  1.00  0.00     0.180 C 
ATOM     22  C   UNL     1      29.598  34.455  18.875  1.00  0.00     0.202 C 
BRANCH  18  23
ATOM     23  C   UNL     1      30.621  31.872  15.744  1.00  0.00     0.191 C 
BRANCH  23  24
ATOM     24  O   UNL     1      31.145  32.529  14.644  1.00  0.00    -0.394 OA
ATOM     25  H   UNL     1      31.200  33.493  14.844  1.00  0.00     0.210 HD
ENDBRANCH  23  24
ENDBRANCH  18  23
BRANCH  20  26
ATOM     26  O   UNL     1      29.389  32.453  20.148  1.00  0.00    -0.350 OA
BRANCH  26  27
ATOM     27  C   UNL     1      28.263  32.649  20.925  1.00  0.00     0.169 C 
BRANCH  27  28
ATOM     28  C   UNL     1      27.853  31.295  21.476  1.00  0.00     0.119 C 
BRANCH  28  29
ATOM     29  N   UNL     1      27.096  30.533  20.519  1.00  0.00    -0.092 NA
ATOM     30  N   UNL     1      27.580  29.568  19.940  1.00  0.00     0.001 N 
ATOM     31  N   UNL     1      28.118  28.525  19.569  1.00  0.00    -0.003 NA
ENDBRANCH  28  29
ENDBRANCH  27  28
ENDBRANCH  26  27
ENDBRANCH  20  26
BRANCH  21  32
ATOM     32  O   UNL     1      31.860  33.851  18.822  1.00  0.00    -0.387 OA
ATOM     33  H   UNL     1      32.579  33.538  18.237  1.00  0.00     0.211 HD
ENDBRANCH  21  32
BRANCH  22  34
ATOM     34  O   UNL     1      28.611  35.240  18.286  1.00  0.00    -0.385 OA
ATOM     35  H   UNL     1      27.748  35.003  18.723  1.00  0.00     0.211 HD
ENDBRANCH  22  34
ENDBRANCH  16  17
ENDBRANCH  11  16
BRANCH  13  36
ATOM     36  O   UNL     1      32.618  37.548  15.245  1.00  0.00    -0.385 OA
ATOM     37  H   UNL     1      32.676  38.019  14.394  1.00  0.00     0.211 HD
ENDBRANCH  13  36
BRANCH  14  38
ATOM     38  O   UNL     1      32.688  34.584  13.472  1.00  0.00    -0.387 OA
ATOM     39  H   UNL     1      32.236  34.209  12.689  1.00  0.00     0.211 HD
ENDBRANCH  14  38
BRANCH  15  40
ATOM     40  O   UNL     1      30.000  34.934  13.314  1.00  0.00    -0.387 OA
ATOM     41  H   UNL     1      30.024  34.252  12.618  1.00  0.00     0.211 HD
ENDBRANCH  15  40
ENDBRANCH   9  10
ENDBRANCH   8   9
ENDBRANCH   3   8
BRANCH   3  42
ATOM     42  C   UNL     1      27.316  35.129  11.139  1.00  0.00     0.364 C 
ATOM     43  O   UNL     1      27.574  34.265  12.006  1.00  0.00    -0.246 OA
BRANCH  42  44
ATOM     44  O   UNL     1      26.889  34.665   9.930  1.00  0.00    -0.477 OA
ATOM     45  H   UNL     1      26.013  34.945   9.526  1.00  0.00     0.296 HD
ENDBRANCH  42  44
ENDBRANCH   3  42
BRANCH   6  46
ATOM     46  O   UNL     1      24.660  38.346   9.924  1.00  0.00    -0.391 OA
ATOM     47  H   UNL     1      23.742  38.163   9.602  1.00  0.00     0.211 HD
ENDBRANCH   6  46
BRANCH   7  48
ATOM     48  N   UNL     1      23.633  35.730  11.471  1.00  0.00    -0.348 N 
ATOM     49  C   UNL     1      22.280  36.019  11.177  1.00  0.00     0.217 C 
ATOM     50  H   UNL     1      23.880  34.703  11.490  1.00  0.00     0.163 HD
ATOM     51  C   UNL     1      21.292  34.906  10.922  1.00  0.00     0.114 C 
ATOM     52  O   UNL     1      21.913  37.221  11.134  1.00  0.00    -0.275 OA
ENDBRANCH   7  48
ENDBRANCH   1   2
BRANCH   1  53
ATOM     53  O   UNL     1      24.572  34.839  14.278  1.00  0.00    -0.388 OA
ATOM     54  H   UNL     1      23.593  35.085  14.311  1.00  0.00     0.211 HD
ENDBRANCH   1  53
BRANCH   1  55
ATOM     55  C   UNL     1      26.239  36.111  15.164  1.00  0.00     0.165 C 
BRANCH  55  56
ATOM     56  O   UNL     1      27.302  35.247  14.817  1.00  0.00    -0.388 OA
ATOM     57  H   UNL     1      27.040  34.363  15.174  1.00  0.00     0.211 HD
ENDBRANCH  55  56
BRANCH  55  58
ATOM     58  C   UNL     1      25.920  35.943  16.590  1.00  0.00     0.154 C 
BRANCH  58  59
ATOM     59  N   UNL     1      26.131  34.654  17.128  1.00  0.00    -0.319 N 
ATOM     60  C   UNL     1      25.263  33.574  17.327  1.00  0.00     0.407 C 
ATOM     61  H   UNL     1      27.154  34.456  17.448  1.00  0.00     0.167 HD
ATOM     62  O   UNL     1      24.063  33.647  17.018  1.00  0.00    -0.225 OA
BRANCH  60  63
ATOM     63  O   UNL     1      25.714  32.368  17.882  1.00  0.00    -0.443 OA
BRANCH  63  64
ATOM     64  C   UNL     1      26.452  31.479  17.042  1.00  0.00     0.294 C 
BRANCH  64  65
ATOM     65  C   UNL     1      25.536  30.703  16.168  1.00  0.00     0.120 A 
ATOM     66  C   UNL     1      25.360  30.931  14.804  1.00  0.00     0.138 A 
ATOM     67  N   UNL     1      24.727  29.678  16.475  1.00  0.00    -0.132 NA
ATOM     68  N   UNL     1      24.463  30.043  14.362  1.00  0.00    -0.252 N 
ATOM     69  N   UNL     1      24.085  29.295  15.366  1.00  0.00    -0.067 NA
BRANCH  68  70
ATOM     70  C   UNL     1      24.015  29.970  12.965  1.00  0.00     0.146 C 
BRANCH  70  71
ATOM     71  C   UNL     1      22.969  28.895  12.846  1.00  0.00     0.024 C 
BRANCH  71  72
ATOM     72  C   UNL     1      21.742  29.494  12.193  1.00  0.00     0.006 C 
BRANCH  72  73
ATOM     73  C   UNL     1      21.574  30.929  12.636  1.00  0.00     0.027 C 
BRANCH  73  74
ATOM     74  C   UNL     1      20.213  31.430  12.339  1.00  0.00    -0.035 C 
ATOM     75  C   UNL     1      19.253  30.592  12.002  1.00  0.00     0.004 C 
ENDBRANCH  73  74
ENDBRANCH  72  73
ENDBRANCH  71  72
ENDBRANCH  70  71
ENDBRANCH  68  70
ENDBRANCH  64  65
ENDBRANCH  63  64
ENDBRANCH  60  63
ENDBRANCH  58  59
ENDBRANCH  55  58
ENDBRANCH   1  55
TORSDOF 34
BEGIN_RES LYS A 131
REMARK  4 active torsions:
REMARK  status: ('A' for Active; 'I' for Inactive)
REMARK    1  A    between atoms: CA   and  CB  
REMARK    2  A    between atoms: CB   and  CG  
REMARK    3  A    between atoms: CG   and  CD  
REMARK    4  A    between atoms: CD   and  CE  
ROOT
ATOM      1  CA  LYS A 131      29.867  25.555  16.977  1.00 20.52     0.186 C 
ENDROOT
BRANCH   1   2
ATOM      2  CB  LYS A 131      28.345  25.722  17.026  1.00 20.94     0.034 C 
BRANCH   2   3
ATOM      3  CG  LYS A 131      27.602  24.399  16.920  1.00 22.96     0.005 C 
BRANCH   3   4
ATOM      4  CD  LYS A 131      26.429  24.331  17.858  1.00 24.33     0.041 C 
BRANCH   4   5
ATOM      5  CE  LYS A 131      26.072  25.738  18.329  1.00 26.91     0.338 C 
ATOM      6  NZ  LYS A 131      25.870  25.758  19.797  1.00 27.40     0.618 N 
ENDBRANCH   4   5
ENDBRANCH   3   4
ENDBRANCH   2   3
ENDBRANCH   1   2
END_RES LYS A 131
BEGIN_RES LYS A 135
REMARK  4 active torsions:
REMARK  status: ('A' for Active; 'I' for Inactive)
REMARK    5  A    between atoms: CA   and  CB  
REMARK    6  A    between atoms: CB   and  CG  
REMARK    7  A    between atoms: CG   and  CD  
REMARK    8  A    between atoms: CD   and  CE  
ROOT
ATOM      7  CA  LYS A 135      33.193  34.663   9.290  1.00 25.02     0.186 C 
ENDROOT
BRANCH   7   8
ATOM      8  CB  LYS A 135      32.060  35.360  10.034  1.00 26.63     0.034 C 
BRANCH   8   9
ATOM      9  CG  LYS A 135      30.694  34.826   9.688  1.00 29.45     0.005 C 
BRANCH   9  10
ATOM     10  CD  LYS A 135      30.601  34.510   8.203  1.00 32.00     0.041 C 
BRANCH  10  11
ATOM     11  CE  LYS A 135      29.357  35.137   7.602  1.00 34.25     0.338 C 
ATOM     12  NZ  LYS A 135      29.231  36.567   7.999  1.00 35.99     0.618 N 
ENDBRANCH  10  11
ENDBRANCH   9  10
ENDBRANCH   8   9
ENDBRANCH   7   8
END_RES LYS A 135
