REMARK VINA RESULT:    -4.162      2.632      7.165
REMARK INTER + INTRA:         -21.982
REMARK INTER:                 -10.488
REMARK INTRA:                 -11.494
REMARK UNBOUND:               -11.494
REMARK SMILES CC(=O)N[C@@H]1[C@@H](O)C[C@](OC[C@H]2O[C@@H](O[C@H]3[C@H](O)[C@@H](O)[C@H](OCCN=[N+]=[N-])O[C@@H]3CO)[C@H](O)[C@@H](O)[C@H]2O)(C(=O)O)O[C@H]1C(O)[C@H](O)CNC(=O)OCc1cn(-c2ccccc2C(C)=O)nn1
REMARK SMILES IDX 9 1 8 2 6 3 5 4 42 5 41 6 10 7 11 8 12 9 14 10 13 11 32 12
REMARK SMILES IDX 34 13 36 14 15 15 16 16 29 17 28 18 21 19 17 20 19 21 30 22
REMARK SMILES IDX 31 23 22 25 23 26 24 27 25 28 26 29 27 30 18 31 20 33 33 35
REMARK SMILES IDX 35 37 37 39 38 41 39 42 40 43 7 45 43 47 44 48 45 50 46 51
REMARK SMILES IDX 47 53 48 54 49 55 50 57 51 58 52 59 53 60 54 61 66 62 55 63
REMARK SMILES IDX 65 64 56 65 61 66 57 67 60 68 58 69 59 70 62 71 64 72 63 73
REMARK SMILES IDX 4 74 2 75 1 77 3 78
REMARK H PARENT 31 24 18 32 20 34 33 36 35 38 37 40 40 44 7 46 44 49 46 52
REMARK H PARENT 48 56 4 76
REMARK Flexibility Score: inf
ROOT
ATOM      1  C   UNL     1      22.460  35.222  11.832  1.00  0.00     0.272 C 
ATOM      2  C   UNL     1      22.533  33.741  12.068  1.00  0.00     0.113 C 
ATOM      3  C   UNL     1      23.785  33.454  12.855  1.00  0.00     0.145 C 
ATOM      4  C   UNL     1      23.537  34.090  14.212  1.00  0.00     0.142 C 
ATOM      5  C   UNL     1      23.481  35.571  13.952  1.00  0.00     0.178 C 
ATOM      6  O   UNL     1      23.307  35.971  12.679  1.00  0.00    -0.332 OA
ENDROOT
BRANCH   1   7
ATOM      7  O   UNL     1      21.285  35.797  11.879  1.00  0.00    -0.338 OA
BRANCH   7   8
ATOM      8  C   UNL     1      20.203  35.732  11.168  1.00  0.00     0.199 C 
BRANCH   8   9
ATOM      9  C   UNL     1      19.672  36.793  10.280  1.00  0.00     0.179 C 
ATOM     10  C   UNL     1      20.304  38.824   9.369  1.00  0.00     0.282 C 
ATOM     11  O   UNL     1      20.749  37.704  10.049  1.00  0.00    -0.341 OA
ATOM     12  C   UNL     1      18.966  38.725   8.740  1.00  0.00     0.202 C 
ATOM     13  C   UNL     1      18.584  37.380   8.203  1.00  0.00     0.179 C 
ATOM     14  C   UNL     1      19.381  36.275   8.851  1.00  0.00     0.177 C 
BRANCH  10  15
ATOM     15  O   UNL     1      21.247  39.180   8.405  1.00  0.00    -0.341 OA
BRANCH  15  16
ATOM     16  C   UNL     1      22.547  38.910   8.827  1.00  0.00     0.184 C 
ATOM     17  C   UNL     1      23.159  40.206   9.300  1.00  0.00     0.178 C 
ATOM     18  O   UNL     1      24.263  40.605   8.592  1.00  0.00    -0.341 OA
ATOM     19  C   UNL     1      25.266  39.676   8.461  1.00  0.00     0.281 C 
ATOM     20  C   UNL     1      23.312  38.492   7.563  1.00  0.00     0.180 C 
ATOM     21  C   UNL     1      24.751  38.342   7.944  1.00  0.00     0.202 C 
BRANCH  17  22
ATOM     22  C   UNL     1      23.434  40.082  10.788  1.00  0.00     0.191 C 
BRANCH  22  23
ATOM     23  O   UNL     1      23.111  38.783  11.177  1.00  0.00    -0.394 OA
ATOM     24  H   UNL     1      22.603  38.276  10.518  1.00  0.00     0.210 HD
ENDBRANCH  22  23
ENDBRANCH  17  22
BRANCH  19  25
ATOM     25  O   UNL     1      26.056  39.515   9.583  1.00  0.00    -0.350 OA
BRANCH  25  26
ATOM     26  C   UNL     1      27.010  40.522   9.615  1.00  0.00     0.169 C 
BRANCH  26  27
ATOM     27  C   UNL     1      28.130  40.181   8.644  1.00  0.00     0.119 C 
BRANCH  27  28
ATOM     28  N   UNL     1      28.678  38.855   8.955  1.00  0.00    -0.092 NA
ATOM     29  N   UNL     1      29.612  38.830   9.755  1.00  0.00     0.001 N 
ATOM     30  N   UNL     1      30.607  38.658  10.437  1.00  0.00    -0.003 NA
ENDBRANCH  27  28
ENDBRANCH  26  27
ENDBRANCH  25  26
ENDBRANCH  19  25
BRANCH  20  31
ATOM     31  O   UNL     1      22.754  37.345   7.049  1.00  0.00    -0.387 OA
ATOM     32  H   UNL     1      23.456  36.689   6.746  1.00  0.00     0.211 HD
ENDBRANCH  20  31
BRANCH  21  33
ATOM     33  O   UNL     1      25.528  37.851   6.893  1.00  0.00    -0.385 OA
ATOM     34  H   UNL     1      25.478  38.496   6.123  1.00  0.00     0.211 HD
ENDBRANCH  21  33
ENDBRANCH  15  16
ENDBRANCH  10  15
BRANCH  12  35
ATOM     35  O   UNL     1      17.963  39.273   9.554  1.00  0.00    -0.385 OA
ATOM     36  H   UNL     1      17.892  40.253   9.430  1.00  0.00     0.211 HD
ENDBRANCH  12  35
BRANCH  13  37
ATOM     37  O   UNL     1      18.802  37.288   6.818  1.00  0.00    -0.387 OA
ATOM     38  H   UNL     1      17.902  37.244   6.400  1.00  0.00     0.211 HD
ENDBRANCH  13  37
BRANCH  14  39
ATOM     39  O   UNL     1      20.592  36.059   8.184  1.00  0.00    -0.387 OA
ATOM     40  H   UNL     1      21.351  36.534   8.609  1.00  0.00     0.211 HD
ENDBRANCH  14  39
ENDBRANCH   8   9
ENDBRANCH   7   8
ENDBRANCH   1   7
BRANCH   1  41
ATOM     41  C   UNL     1      23.144  35.422  10.523  1.00  0.00     0.364 C 
ATOM     42  O   UNL     1      24.199  36.141  10.451  1.00  0.00    -0.246 OA
BRANCH  41  43
ATOM     43  O   UNL     1      22.746  34.898   9.320  1.00  0.00    -0.477 OA
ATOM     44  H   UNL     1      22.242  35.435   8.627  1.00  0.00     0.296 HD
ENDBRANCH  41  43
ENDBRANCH   1  41
BRANCH   3  45
ATOM     45  O   UNL     1      23.888  32.069  12.951  1.00  0.00    -0.391 OA
ATOM     46  H   UNL     1      23.047  31.623  12.665  1.00  0.00     0.211 HD
ENDBRANCH   3  45
BRANCH   5  47
ATOM     47  C   UNL     1      22.483  36.236  14.955  1.00  0.00     0.176 C 
BRANCH  47  48
ATOM     48  O   UNL     1      21.218  35.638  14.589  1.00  0.00    -0.388 OA
ATOM     49  H   UNL     1      20.598  36.429  14.635  1.00  0.00     0.211 HD
ENDBRANCH  47  48
BRANCH  47  50
ATOM     50  C   UNL     1      22.350  37.679  14.704  1.00  0.00     0.165 C 
BRANCH  50  51
ATOM     51  O   UNL     1      21.467  37.949  13.629  1.00  0.00    -0.388 OA
ATOM     52  H   UNL     1      21.080  38.848  13.705  1.00  0.00     0.211 HD
ENDBRANCH  50  51
BRANCH  50  53
ATOM     53  C   UNL     1      23.448  38.625  14.886  1.00  0.00     0.154 C 
BRANCH  53  54
ATOM     54  N   UNL     1      24.423  38.691  13.861  1.00  0.00    -0.319 N 
ATOM     55  C   UNL     1      25.821  38.850  13.987  1.00  0.00     0.407 C 
ATOM     56  H   UNL     1      24.095  38.610  12.843  1.00  0.00     0.167 HD
ATOM     57  O   UNL     1      26.307  38.972  15.135  1.00  0.00    -0.225 OA
BRANCH  55  58
ATOM     58  O   UNL     1      26.700  38.881  12.914  1.00  0.00    -0.443 OA
BRANCH  58  59
ATOM     59  C   UNL     1      28.087  38.801  13.120  1.00  0.00     0.294 C 
BRANCH  59  60
ATOM     60  C   UNL     1      28.461  37.346  13.078  1.00  0.00     0.121 A 
ATOM     61  C   UNL     1      29.152  36.637  14.032  1.00  0.00     0.144 A 
ATOM     62  N   UNL     1      28.204  36.454  12.111  1.00  0.00    -0.131 NA
ATOM     63  N   UNL     1      29.285  35.342  13.597  1.00  0.00    -0.220 N 
ATOM     64  N   UNL     1      28.693  35.276  12.424  1.00  0.00    -0.062 NA
BRANCH  63  65
ATOM     65  C   UNL     1      29.983  34.332  14.314  1.00  0.00     0.077 A 
ATOM     66  C   UNL     1      31.305  34.313  14.579  1.00  0.00     0.043 A 
ATOM     67  C   UNL     1      29.181  33.273  14.781  1.00  0.00     0.029 A 
ATOM     68  C   UNL     1      31.815  33.222  15.314  1.00  0.00     0.014 A 
ATOM     69  C   UNL     1      29.706  32.220  15.497  1.00  0.00     0.002 A 
ATOM     70  C   UNL     1      31.051  32.188  15.774  1.00  0.00     0.001 A 
BRANCH  66  71
ATOM     71  C   UNL     1      32.204  35.353  14.136  1.00  0.00     0.161 C 
ATOM     72  O   UNL     1      32.551  36.196  15.048  1.00  0.00    -0.294 OA
ATOM     73  C   UNL     1      32.770  35.576  12.804  1.00  0.00     0.093 C 
ENDBRANCH  66  71
ENDBRANCH  63  65
ENDBRANCH  59  60
ENDBRANCH  58  59
ENDBRANCH  55  58
ENDBRANCH  53  54
ENDBRANCH  50  53
ENDBRANCH  47  50
ENDBRANCH   5  47
BRANCH   4  74
ATOM     74  N   UNL     1      24.529  33.721  15.177  1.00  0.00    -0.348 N 
ATOM     75  C   UNL     1      24.383  32.639  16.080  1.00  0.00     0.217 C 
ATOM     76  H   UNL     1      25.409  34.301  15.197  1.00  0.00     0.163 HD
ATOM     77  C   UNL     1      25.492  32.339  17.052  1.00  0.00     0.114 C 
ATOM     78  O   UNL     1      23.328  31.974  16.026  1.00  0.00    -0.275 OA
ENDBRANCH   4  74
TORSDOF 31
BEGIN_RES LYS A 131
REMARK  4 active torsions:
REMARK  status: ('A' for Active; 'I' for Inactive)
REMARK    1  A    between atoms: CA   and  CB  
REMARK    2  A    between atoms: CB   and  CG  
REMARK    3  A    between atoms: CG   and  CD  
REMARK    4  A    between atoms: CD   and  CE  
ROOT
ATOM      1  CA  LYS A 131      29.867  25.555  16.977  1.00 20.52     0.186 C 
ENDROOT
BRANCH   1   2
ATOM      2  CB  LYS A 131      28.345  25.722  17.026  1.00 20.94     0.034 C 
BRANCH   2   3
ATOM      3  CG  LYS A 131      27.601  24.406  16.862  1.00 22.96     0.005 C 
BRANCH   3   4
ATOM      4  CD  LYS A 131      26.660  24.141  18.005  1.00 24.33     0.041 C 
BRANCH   4   5
ATOM      5  CE  LYS A 131      25.266  23.850  17.460  1.00 26.91     0.338 C 
ATOM      6  NZ  LYS A 131      24.529  25.113  17.217  1.00 27.40     0.618 N 
ENDBRANCH   4   5
ENDBRANCH   3   4
ENDBRANCH   2   3
ENDBRANCH   1   2
END_RES LYS A 131
BEGIN_RES LYS A 135
REMARK  4 active torsions:
REMARK  status: ('A' for Active; 'I' for Inactive)
REMARK    5  A    between atoms: CA   and  CB  
REMARK    6  A    between atoms: CB   and  CG  
REMARK    7  A    between atoms: CG   and  CD  
REMARK    8  A    between atoms: CD   and  CE  
ROOT
ATOM      7  CA  LYS A 135      33.193  34.663   9.290  1.00 25.02     0.186 C 
ENDROOT
BRANCH   7   8
ATOM      8  CB  LYS A 135      32.060  35.360  10.034  1.00 26.63     0.034 C 
BRANCH   8   9
ATOM      9  CG  LYS A 135      30.708  34.743   9.787  1.00 29.45     0.005 C 
BRANCH   9  10
ATOM     10  CD  LYS A 135      30.416  34.668   8.296  1.00 32.00     0.041 C 
BRANCH  10  11
ATOM     11  CE  LYS A 135      29.308  35.633   7.921  1.00 34.25     0.338 C 
ATOM     12  NZ  LYS A 135      28.936  35.491   6.486  1.00 35.99     0.618 N 
ENDBRANCH  10  11
ENDBRANCH   9  10
ENDBRANCH   8   9
ENDBRANCH   7   8
END_RES LYS A 135
