REMARK VINA RESULT:    -5.217      2.601      8.142
REMARK INTER + INTRA:         -25.805
REMARK INTER:                 -14.522
REMARK INTRA:                 -11.283
REMARK UNBOUND:                -9.760
REMARK SMILES CC(=O)N[C@@H]1[C@@H](O)C[C@](OC[C@H]2O[C@@H](O[C@H]3[C@H](O)[C@@H](O)[C@H](OCCN=[N+]=[N-])O[C@@H]3CO)[C@H](O)[C@@H](O)[C@H]2O)(C(=O)O)O[C@H]1C(O)[C@H](O)CNC(=O)OCc1cn(CCCCCCCCCCC(=O)O)nn1
REMARK SMILES IDX 51 1 49 2 48 3 50 5 47 6 45 7 43 8 42 9 9 10 8 11 41 12 6 13
REMARK SMILES IDX 5 14 10 15 11 16 12 17 14 18 13 19 32 20 34 21 36 22 15 23
REMARK SMILES IDX 16 24 29 25 28 26 21 27 17 28 19 29 30 30 31 31 22 33 23 34
REMARK SMILES IDX 24 35 25 36 26 37 27 38 18 39 20 41 33 43 35 45 37 47 38 49
REMARK SMILES IDX 39 50 40 51 7 53 4 55 2 56 1 58 3 59 44 60 46 62 52 64 53 65
REMARK SMILES IDX 54 66 70 67 55 68 69 69 56 70 57 71 58 72 59 73 60 74 61 75
REMARK SMILES IDX 62 76 63 77 64 78 65 79 66 80 67 81 68 82
REMARK H PARENT 48 4 31 32 18 40 20 42 33 44 35 46 37 48 40 52 7 54 4 57 44 61
REMARK H PARENT 46 63 68 83
REMARK Flexibility Score: inf
ROOT
ATOM      1  O   UNL     1      27.806  34.154  10.003  1.00  0.00    -0.443 OA
ENDROOT
BRANCH   1   2
ATOM      2  C   UNL     1      27.488  34.568   8.690  1.00  0.00     0.407 C 
ATOM      3  N   UNL     1      28.484  35.103   7.836  1.00  0.00    -0.319 N 
ATOM      4  H   UNL     1      29.467  35.192   8.207  1.00  0.00     0.167 HD
ATOM      5  O   UNL     1      26.321  34.471   8.249  1.00  0.00    -0.225 OA
BRANCH   3   6
ATOM      6  C   UNL     1      28.208  35.527   6.497  1.00  0.00     0.154 C 
BRANCH   6   7
ATOM      7  C   UNL     1      27.727  36.969   6.380  1.00  0.00     0.165 C 
BRANCH   7   8
ATOM      8  C   UNL     1      28.431  37.725   7.452  1.00  0.00     0.176 C 
BRANCH   8   9
ATOM      9  C   UNL     1      27.619  38.782   8.164  1.00  0.00     0.178 C 
ATOM     10  C   UNL     1      25.809  38.949   9.614  1.00  0.00     0.272 C 
ATOM     11  C   UNL     1      25.436  40.208   8.861  1.00  0.00     0.113 C 
ATOM     12  O   UNL     1      26.555  38.162   8.758  1.00  0.00    -0.332 OA
ATOM     13  C   UNL     1      25.795  40.172   7.410  1.00  0.00     0.145 C 
ATOM     14  C   UNL     1      27.287  39.948   7.287  1.00  0.00     0.142 C 
BRANCH  10  15
ATOM     15  O   UNL     1      24.657  38.261  10.030  1.00  0.00    -0.338 OA
BRANCH  15  16
ATOM     16  C   UNL     1      23.627  38.210   9.154  1.00  0.00     0.199 C 
BRANCH  16  17
ATOM     17  C   UNL     1      23.624  36.780   8.572  1.00  0.00     0.179 C 
ATOM     18  C   UNL     1      22.664  35.348  10.192  1.00  0.00     0.282 C 
ATOM     19  O   UNL     1      23.728  35.824   9.503  1.00  0.00    -0.341 OA
ATOM     20  C   UNL     1      21.352  35.698   9.601  1.00  0.00     0.202 C 
ATOM     21  C   UNL     1      21.462  35.636   8.082  1.00  0.00     0.179 C 
ATOM     22  C   UNL     1      22.490  36.630   7.582  1.00  0.00     0.177 C 
BRANCH  18  23
ATOM     23  O   UNL     1      22.822  35.786  11.531  1.00  0.00    -0.341 OA
BRANCH  23  24
ATOM     24  C   UNL     1      23.376  34.733  12.247  1.00  0.00     0.184 C 
ATOM     25  C   UNL     1      22.653  34.365  13.501  1.00  0.00     0.178 C 
ATOM     26  O   UNL     1      23.363  33.447  14.217  1.00  0.00    -0.341 OA
ATOM     27  C   UNL     1      24.455  32.855  13.701  1.00  0.00     0.281 C 
ATOM     28  C   UNL     1      24.808  35.097  12.672  1.00  0.00     0.180 C 
ATOM     29  C   UNL     1      25.462  33.798  13.085  1.00  0.00     0.202 C 
BRANCH  25  30
ATOM     30  C   UNL     1      21.244  33.854  13.263  1.00  0.00     0.191 C 
BRANCH  30  31
ATOM     31  O   UNL     1      21.129  33.040  12.166  1.00  0.00    -0.394 OA
ATOM     32  H   UNL     1      20.169  32.827  12.033  1.00  0.00     0.210 HD
ENDBRANCH  30  31
ENDBRANCH  25  30
BRANCH  27  33
ATOM     33  O   UNL     1      24.088  31.927  12.736  1.00  0.00    -0.350 OA
BRANCH  33  34
ATOM     34  C   UNL     1      24.357  30.619  13.135  1.00  0.00     0.169 C 
BRANCH  34  35
ATOM     35  C   UNL     1      24.697  30.531  14.596  1.00  0.00     0.119 C 
BRANCH  35  36
ATOM     36  N   UNL     1      24.099  29.310  15.141  1.00  0.00    -0.092 NA
ATOM     37  N   UNL     1      22.918  29.306  15.551  1.00  0.00     0.001 N 
ATOM     38  N   UNL     1      21.751  29.593  15.896  1.00  0.00    -0.003 NA
ENDBRANCH  35  36
ENDBRANCH  34  35
ENDBRANCH  33  34
ENDBRANCH  27  33
BRANCH  28  39
ATOM     39  O   UNL     1      25.531  35.681  11.653  1.00  0.00    -0.387 OA
ATOM     40  H   UNL     1      24.978  36.211  11.027  1.00  0.00     0.211 HD
ENDBRANCH  28  39
BRANCH  29  41
ATOM     41  O   UNL     1      26.406  34.100  14.061  1.00  0.00    -0.385 OA
ATOM     42  H   UNL     1      27.084  34.714  13.640  1.00  0.00     0.211 HD
ENDBRANCH  29  41
ENDBRANCH  23  24
ENDBRANCH  18  23
BRANCH  20  43
ATOM     43  O   UNL     1      20.349  34.773   9.923  1.00  0.00    -0.385 OA
ATOM     44  H   UNL     1      20.788  33.873   9.870  1.00  0.00     0.211 HD
ENDBRANCH  20  43
BRANCH  21  45
ATOM     45  O   UNL     1      20.230  35.901   7.488  1.00  0.00    -0.387 OA
ATOM     46  H   UNL     1      20.188  36.883   7.361  1.00  0.00     0.211 HD
ENDBRANCH  21  45
BRANCH  22  47
ATOM     47  O   UNL     1      21.856  37.834   7.394  1.00  0.00    -0.387 OA
ATOM     48  H   UNL     1      22.309  38.316   6.656  1.00  0.00     0.211 HD
ENDBRANCH  22  47
ENDBRANCH  16  17
ENDBRANCH  15  16
ENDBRANCH  10  15
BRANCH  10  49
ATOM     49  C   UNL     1      26.539  39.242  10.851  1.00  0.00     0.364 C 
ATOM     50  O   UNL     1      26.960  40.375  11.134  1.00  0.00    -0.246 OA
BRANCH  49  51
ATOM     51  O   UNL     1      26.791  38.238  11.771  1.00  0.00    -0.477 OA
ATOM     52  H   UNL     1      26.892  37.258  11.498  1.00  0.00     0.296 HD
ENDBRANCH  49  51
ENDBRANCH  10  49
BRANCH  13  53
ATOM     53  O   UNL     1      25.062  39.300   6.635  1.00  0.00    -0.391 OA
ATOM     54  H   UNL     1      25.430  39.172   5.714  1.00  0.00     0.211 HD
ENDBRANCH  13  53
BRANCH  14  55
ATOM     55  N   UNL     1      27.933  41.171   7.632  1.00  0.00    -0.348 N 
ATOM     56  C   UNL     1      29.123  41.654   7.017  1.00  0.00     0.217 C 
ATOM     57  H   UNL     1      27.538  41.786   8.384  1.00  0.00     0.163 HD
ATOM     58  C   UNL     1      29.732  42.931   7.430  1.00  0.00     0.114 C 
ATOM     59  O   UNL     1      29.631  40.960   6.118  1.00  0.00    -0.275 OA
ENDBRANCH  14  55
ENDBRANCH   8   9
BRANCH   8  60
ATOM     60  O   UNL     1      29.636  38.163   6.972  1.00  0.00    -0.388 OA
ATOM     61  H   UNL     1      29.680  39.106   6.749  1.00  0.00     0.211 HD
ENDBRANCH   8  60
ENDBRANCH   7   8
BRANCH   7  62
ATOM     62  O   UNL     1      26.342  36.945   6.497  1.00  0.00    -0.388 OA
ATOM     63  H   UNL     1      26.016  36.098   6.887  1.00  0.00     0.211 HD
ENDBRANCH   7  62
ENDBRANCH   6   7
ENDBRANCH   3   6
ENDBRANCH   1   2
BRANCH   1  64
ATOM     64  C   UNL     1      29.154  34.384  10.434  1.00  0.00     0.294 C 
BRANCH  64  65
ATOM     65  C   UNL     1      29.084  34.927  11.807  1.00  0.00     0.120 A 
ATOM     66  C   UNL     1      29.807  34.451  12.886  1.00  0.00     0.138 A 
ATOM     67  N   UNL     1      28.345  35.950  12.255  1.00  0.00    -0.132 NA
ATOM     68  N   UNL     1      29.466  35.216  13.939  1.00  0.00    -0.252 N 
ATOM     69  N   UNL     1      28.566  36.130  13.527  1.00  0.00    -0.067 NA
BRANCH  68  70
ATOM     70  C   UNL     1      29.931  35.143  15.290  1.00  0.00     0.146 C 
BRANCH  70  71
ATOM     71  C   UNL     1      31.403  35.259  15.479  1.00  0.00     0.024 C 
BRANCH  71  72
ATOM     72  C   UNL     1      32.049  34.188  16.285  1.00  0.00     0.002 C 
BRANCH  72  73
ATOM     73  C   UNL     1      31.125  33.259  16.992  1.00  0.00     0.000 C 
BRANCH  73  74
ATOM     74  C   UNL     1      31.073  33.403  18.474  1.00  0.00     0.000 C 
BRANCH  74  75
ATOM     75  C   UNL     1      29.751  32.914  18.998  1.00  0.00     0.000 C 
BRANCH  75  76
ATOM     76  C   UNL     1      28.658  33.957  18.920  1.00  0.00     0.000 C 
BRANCH  76  77
ATOM     77  C   UNL     1      27.633  33.667  17.874  1.00  0.00     0.001 C 
BRANCH  77  78
ATOM     78  C   UNL     1      27.261  32.222  17.742  1.00  0.00     0.012 C 
BRANCH  78  79
ATOM     79  C   UNL     1      27.644  31.757  16.348  1.00  0.00     0.122 C 
BRANCH  79  80
ATOM     80  C   UNL     1      28.329  30.457  16.448  1.00  0.00     0.303 C 
ATOM     81  O   UNL     1      28.708  29.856  15.422  1.00  0.00    -0.252 OA
BRANCH  80  82
ATOM     82  O   UNL     1      28.574  29.862  17.677  1.00  0.00    -0.481 OA
ATOM     83  H   UNL     1      29.130  30.304  18.386  1.00  0.00     0.296 HD
ENDBRANCH  80  82
ENDBRANCH  79  80
ENDBRANCH  78  79
ENDBRANCH  77  78
ENDBRANCH  76  77
ENDBRANCH  75  76
ENDBRANCH  74  75
ENDBRANCH  73  74
ENDBRANCH  72  73
ENDBRANCH  71  72
ENDBRANCH  70  71
ENDBRANCH  68  70
ENDBRANCH  64  65
ENDBRANCH   1  64
TORSDOF 41
BEGIN_RES LYS A 131
REMARK  4 active torsions:
REMARK  status: ('A' for Active; 'I' for Inactive)
REMARK    1  A    between atoms: CA   and  CB  
REMARK    2  A    between atoms: CB   and  CG  
REMARK    3  A    between atoms: CG   and  CD  
REMARK    4  A    between atoms: CD   and  CE  
ROOT
ATOM      1  CA  LYS A 131      29.867  25.555  16.977  1.00 20.52     0.186 C 
ENDROOT
BRANCH   1   2
ATOM      2  CB  LYS A 131      28.345  25.722  17.026  1.00 20.94     0.034 C 
BRANCH   2   3
ATOM      3  CG  LYS A 131      27.601  24.403  16.885  1.00 22.96     0.005 C 
BRANCH   3   4
ATOM      4  CD  LYS A 131      26.581  24.209  17.973  1.00 24.33     0.041 C 
BRANCH   4   5
ATOM      5  CE  LYS A 131      25.617  23.096  17.574  1.00 26.91     0.338 C 
ATOM      6  NZ  LYS A 131      24.398  23.665  16.952  1.00 27.40     0.618 N 
ENDBRANCH   4   5
ENDBRANCH   3   4
ENDBRANCH   2   3
ENDBRANCH   1   2
END_RES LYS A 131
BEGIN_RES LYS A 135
REMARK  4 active torsions:
REMARK  status: ('A' for Active; 'I' for Inactive)
REMARK    5  A    between atoms: CA   and  CB  
REMARK    6  A    between atoms: CB   and  CG  
REMARK    7  A    between atoms: CG   and  CD  
REMARK    8  A    between atoms: CD   and  CE  
ROOT
ATOM      7  CA  LYS A 135      33.193  34.663   9.290  1.00 25.02     0.186 C 
ENDROOT
BRANCH   7   8
ATOM      8  CB  LYS A 135      32.060  35.360  10.034  1.00 26.63     0.034 C 
BRANCH   8   9
ATOM      9  CG  LYS A 135      32.500  36.032  11.309  1.00 29.45     0.005 C 
BRANCH   9  10
ATOM     10  CD  LYS A 135      31.890  37.420  11.423  1.00 32.00     0.041 C 
BRANCH  10  11
ATOM     11  CE  LYS A 135      31.202  37.807  10.127  1.00 34.25     0.338 C 
ATOM     12  NZ  LYS A 135      31.876  38.972   9.490  1.00 35.99     0.618 N 
ENDBRANCH  10  11
ENDBRANCH   9  10
ENDBRANCH   8   9
ENDBRANCH   7   8
END_RES LYS A 135
