REMARK VINA RESULT:    -5.383      5.146     10.293
REMARK INTER + INTRA:         -23.523
REMARK INTER:                 -11.888
REMARK INTRA:                 -11.635
REMARK UNBOUND:                -9.487
REMARK SMILES CC(=O)N[C@@H]1[C@@H](O)C[C@](OC[C@H]2O[C@@H](O[C@H]3[C@H](O)[C@@H](O)[C@H](OCCN=[N+]=[N-])O[C@@H]3CO)[C@H](O)[C@@H](O)[C@H]2O)(C(=O)O)O[C@H]1C(O)[C@H](O)CNC(=O)OCc1cn(Cc2ccc(C(=O)O)cc2)nn1
REMARK SMILES IDX 43 1 42 2 9 3 8 4 41 5 6 6 5 7 10 8 11 9 12 10 14 11 13 12
REMARK SMILES IDX 32 13 34 14 36 15 15 16 16 17 29 18 28 19 21 20 17 21 19 22
REMARK SMILES IDX 30 23 31 24 22 26 23 27 24 28 25 29 26 30 27 31 18 32 20 34
REMARK SMILES IDX 33 36 35 38 37 40 38 42 39 43 40 44 7 46 4 48 2 49 1 51 3 52
REMARK SMILES IDX 44 53 45 55 46 56 47 58 48 59 49 60 50 62 51 63 52 64 53 65
REMARK SMILES IDX 54 66 67 67 55 68 66 69 56 70 57 71 58 72 65 73 59 74 64 75
REMARK SMILES IDX 60 76 61 77 62 78 63 79
REMARK H PARENT 31 25 18 33 20 35 33 37 35 39 37 41 40 45 7 47 4 50 44 54
REMARK H PARENT 46 57 48 61 63 80
REMARK Flexibility Score: inf
ROOT
ATOM      1  C   UNL     1      30.167  30.239  20.148  1.00  0.00     0.176 C 
ENDROOT
BRANCH   1   2
ATOM      2  C   UNL     1      28.952  29.902  19.256  1.00  0.00     0.178 C 
ATOM      3  C   UNL     1      27.940  31.103  17.486  1.00  0.00     0.272 C 
ATOM      4  C   UNL     1      26.672  31.070  18.241  1.00  0.00     0.113 C 
ATOM      5  O   UNL     1      29.048  30.720  18.198  1.00  0.00    -0.332 OA
ATOM      6  C   UNL     1      26.866  31.126  19.742  1.00  0.00     0.145 C 
ATOM      7  C   UNL     1      27.750  29.970  20.106  1.00  0.00     0.142 C 
BRANCH   3   8
ATOM      8  O   UNL     1      28.220  32.362  17.024  1.00  0.00    -0.338 OA
BRANCH   8   9
ATOM      9  C   UNL     1      28.128  32.636  15.706  1.00  0.00     0.199 C 
BRANCH   9  10
ATOM     10  C   UNL     1      29.216  33.658  15.298  1.00  0.00     0.179 C 
ATOM     11  C   UNL     1      30.706  35.181  16.241  1.00  0.00     0.282 C 
ATOM     12  O   UNL     1      29.593  34.359  16.406  1.00  0.00    -0.341 OA
ATOM     13  C   UNL     1      31.154  35.327  14.831  1.00  0.00     0.202 C 
ATOM     14  C   UNL     1      31.417  33.945  14.271  1.00  0.00     0.179 C 
ATOM     15  C   UNL     1      30.365  32.944  14.635  1.00  0.00     0.177 C 
BRANCH  11  16
ATOM     16  O   UNL     1      31.731  34.678  17.042  1.00  0.00    -0.341 OA
BRANCH  16  17
ATOM     17  C   UNL     1      31.598  35.060  18.345  1.00  0.00     0.184 C 
ATOM     18  C   UNL     1      32.832  35.675  18.896  1.00  0.00     0.178 C 
ATOM     19  O   UNL     1      32.579  36.294  20.129  1.00  0.00    -0.341 OA
ATOM     20  C   UNL     1      31.750  35.500  20.926  1.00  0.00     0.281 C 
ATOM     21  C   UNL     1      31.267  33.783  19.141  1.00  0.00     0.180 C 
ATOM     22  C   UNL     1      31.753  34.048  20.551  1.00  0.00     0.202 C 
BRANCH  18  23
ATOM     23  C   UNL     1      33.371  36.720  17.961  1.00  0.00     0.191 C 
BRANCH  23  24
ATOM     24  O   UNL     1      34.153  36.019  17.014  1.00  0.00    -0.394 OA
ATOM     25  H   UNL     1      35.096  36.250  17.115  1.00  0.00     0.210 HD
ENDBRANCH  23  24
ENDBRANCH  18  23
BRANCH  20  26
ATOM     26  O   UNL     1      30.485  36.037  20.932  1.00  0.00    -0.350 OA
BRANCH  26  27
ATOM     27  C   UNL     1      29.794  35.897  22.114  1.00  0.00     0.169 C 
BRANCH  27  28
ATOM     28  C   UNL     1      28.505  35.151  22.023  1.00  0.00     0.119 C 
BRANCH  28  29
ATOM     29  N   UNL     1      28.072  35.233  20.619  1.00  0.00    -0.092 NA
ATOM     30  N   UNL     1      27.098  35.888  20.266  1.00  0.00     0.001 N 
ATOM     31  N   UNL     1      26.034  36.492  20.182  1.00  0.00    -0.003 NA
ENDBRANCH  28  29
ENDBRANCH  27  28
ENDBRANCH  26  27
ENDBRANCH  20  26
BRANCH  21  32
ATOM     32  O   UNL     1      29.913  33.533  19.104  1.00  0.00    -0.387 OA
ATOM     33  H   UNL     1      29.376  34.385  19.194  1.00  0.00     0.211 HD
ENDBRANCH  21  32
BRANCH  22  34
ATOM     34  O   UNL     1      32.986  33.466  20.733  1.00  0.00    -0.385 OA
ATOM     35  H   UNL     1      33.703  33.951  20.288  1.00  0.00     0.211 HD
ENDBRANCH  22  34
ENDBRANCH  16  17
ENDBRANCH  11  16
BRANCH  13  36
ATOM     36  O   UNL     1      30.201  35.991  14.045  1.00  0.00    -0.385 OA
ATOM     37  H   UNL     1      29.391  35.412  14.050  1.00  0.00     0.211 HD
ENDBRANCH  13  36
BRANCH  14  38
ATOM     38  O   UNL     1      32.667  33.466  14.666  1.00  0.00    -0.387 OA
ATOM     39  H   UNL     1      33.341  33.789  14.005  1.00  0.00     0.211 HD
ENDBRANCH  14  38
BRANCH  15  40
ATOM     40  O   UNL     1      30.869  31.916  15.444  1.00  0.00    -0.387 OA
ATOM     41  H   UNL     1      31.830  32.114  15.598  1.00  0.00     0.211 HD
ENDBRANCH  15  40
ENDBRANCH   9  10
ENDBRANCH   8   9
ENDBRANCH   3   8
BRANCH   3  42
ATOM     42  C   UNL     1      27.835  30.123  16.343  1.00  0.00     0.364 C 
ATOM     43  O   UNL     1      26.724  29.637  16.014  1.00  0.00    -0.246 OA
BRANCH  42  44
ATOM     44  O   UNL     1      28.948  29.727  15.619  1.00  0.00    -0.477 OA
ATOM     45  H   UNL     1      29.872  29.941  16.027  1.00  0.00     0.296 HD
ENDBRANCH  42  44
ENDBRANCH   3  42
BRANCH   6  46
ATOM     46  O   UNL     1      27.393  32.362  20.049  1.00  0.00    -0.391 OA
ATOM     47  H   UNL     1      26.752  32.872  20.610  1.00  0.00     0.211 HD
ENDBRANCH   6  46
BRANCH   7  48
ATOM     48  N   UNL     1      26.980  28.742  19.958  1.00  0.00    -0.348 N 
ATOM     49  C   UNL     1      26.990  27.727  20.977  1.00  0.00     0.217 C 
ATOM     50  H   UNL     1      26.387  28.517  19.130  1.00  0.00     0.163 HD
ATOM     51  C   UNL     1      26.185  26.479  20.787  1.00  0.00     0.114 C 
ATOM     52  O   UNL     1      27.673  27.914  21.996  1.00  0.00    -0.275 OA
ENDBRANCH   7  48
ENDBRANCH   1   2
BRANCH   1  53
ATOM     53  O   UNL     1      29.896  31.127  21.138  1.00  0.00    -0.388 OA
ATOM     54  H   UNL     1      28.948  31.276  21.351  1.00  0.00     0.211 HD
ENDBRANCH   1  53
BRANCH   1  55
ATOM     55  C   UNL     1      30.856  28.985  20.630  1.00  0.00     0.165 C 
BRANCH  55  56
ATOM     56  O   UNL     1      30.202  27.896  20.148  1.00  0.00    -0.388 OA
ATOM     57  H   UNL     1      29.237  27.866  20.300  1.00  0.00     0.211 HD
ENDBRANCH  55  56
BRANCH  55  58
ATOM     58  C   UNL     1      31.116  29.071  22.084  1.00  0.00     0.154 C 
BRANCH  58  59
ATOM     59  N   UNL     1      32.467  29.461  22.377  1.00  0.00    -0.319 N 
ATOM     60  C   UNL     1      32.841  30.736  22.857  1.00  0.00     0.407 C 
ATOM     61  H   UNL     1      33.253  28.768  22.233  1.00  0.00     0.167 HD
ATOM     62  O   UNL     1      32.010  31.632  23.066  1.00  0.00    -0.225 OA
BRANCH  60  63
ATOM     63  O   UNL     1      34.179  31.082  23.135  1.00  0.00    -0.443 OA
BRANCH  63  64
ATOM     64  C   UNL     1      35.229  30.468  22.410  1.00  0.00     0.294 C 
BRANCH  64  65
ATOM     65  C   UNL     1      36.318  31.404  22.082  1.00  0.00     0.120 A 
ATOM     66  C   UNL     1      36.262  32.648  21.517  1.00  0.00     0.138 A 
ATOM     67  N   UNL     1      37.622  31.139  22.289  1.00  0.00    -0.132 NA
ATOM     68  N   UNL     1      37.529  33.102  21.396  1.00  0.00    -0.248 N 
ATOM     69  N   UNL     1      38.334  32.169  21.871  1.00  0.00    -0.067 NA
BRANCH  68  70
ATOM     70  C   UNL     1      37.897  34.378  20.839  1.00  0.00     0.181 C 
BRANCH  70  71
ATOM     71  C   UNL     1      38.011  34.293  19.369  1.00  0.00    -0.026 A 
ATOM     72  C   UNL     1      38.673  33.232  18.791  1.00  0.00     0.006 A 
ATOM     73  C   UNL     1      37.469  35.291  18.563  1.00  0.00     0.006 A 
ATOM     74  C   UNL     1      38.760  33.223  17.410  1.00  0.00     0.016 A 
ATOM     75  C   UNL     1      37.560  35.277  17.190  1.00  0.00     0.016 A 
ATOM     76  C   UNL     1      38.221  34.216  16.616  1.00  0.00     0.059 A 
BRANCH  76  77
ATOM     77  C   UNL     1      38.352  34.150  15.169  1.00  0.00     0.335 C 
ATOM     78  O   UNL     1      37.342  34.119  14.451  1.00  0.00    -0.246 OA
BRANCH  77  79
ATOM     79  O   UNL     1      39.604  34.120  14.597  1.00  0.00    -0.478 OA
ATOM     80  H   UNL     1      40.368  33.573  14.989  1.00  0.00     0.297 HD
ENDBRANCH  77  79
ENDBRANCH  76  77
ENDBRANCH  70  71
ENDBRANCH  68  70
ENDBRANCH  64  65
ENDBRANCH  63  64
ENDBRANCH  60  63
ENDBRANCH  58  59
ENDBRANCH  55  58
ENDBRANCH   1  55
TORSDOF 33
BEGIN_RES LYS A 131
REMARK  4 active torsions:
REMARK  status: ('A' for Active; 'I' for Inactive)
REMARK    1  A    between atoms: CA   and  CB  
REMARK    2  A    between atoms: CB   and  CG  
REMARK    3  A    between atoms: CG   and  CD  
REMARK    4  A    between atoms: CD   and  CE  
ROOT
ATOM      1  CA  LYS A 131      29.867  25.555  16.977  1.00 20.52     0.186 C 
ENDROOT
BRANCH   1   2
ATOM      2  CB  LYS A 131      28.345  25.722  17.026  1.00 20.94     0.034 C 
BRANCH   2   3
ATOM      3  CG  LYS A 131      27.599  24.423  16.763  1.00 22.96     0.005 C 
BRANCH   3   4
ATOM      4  CD  LYS A 131      26.889  23.919  17.988  1.00 24.33     0.041 C 
BRANCH   4   5
ATOM      5  CE  LYS A 131      25.669  23.104  17.571  1.00 26.91     0.338 C 
ATOM      6  NZ  LYS A 131      24.421  23.819  17.928  1.00 27.40     0.618 N 
ENDBRANCH   4   5
ENDBRANCH   3   4
ENDBRANCH   2   3
ENDBRANCH   1   2
END_RES LYS A 131
BEGIN_RES LYS A 135
REMARK  4 active torsions:
REMARK  status: ('A' for Active; 'I' for Inactive)
REMARK    5  A    between atoms: CA   and  CB  
REMARK    6  A    between atoms: CB   and  CG  
REMARK    7  A    between atoms: CG   and  CD  
REMARK    8  A    between atoms: CD   and  CE  
ROOT
ATOM      7  CA  LYS A 135      33.193  34.663   9.290  1.00 25.02     0.186 C 
ENDROOT
BRANCH   7   8
ATOM      8  CB  LYS A 135      32.060  35.360  10.034  1.00 26.63     0.034 C 
BRANCH   8   9
ATOM      9  CG  LYS A 135      30.748  34.623   9.960  1.00 29.45     0.005 C 
BRANCH   9  10
ATOM     10  CD  LYS A 135      30.300  34.468   8.515  1.00 32.00     0.041 C 
BRANCH  10  11
ATOM     11  CE  LYS A 135      29.579  35.716   8.043  1.00 34.25     0.338 C 
ATOM     12  NZ  LYS A 135      28.889  35.478   6.745  1.00 35.99     0.618 N 
ENDBRANCH  10  11
ENDBRANCH   9  10
ENDBRANCH   8   9
ENDBRANCH   7   8
END_RES LYS A 135
