REMARK VINA RESULT:    -4.227      3.388      8.256
REMARK INTER + INTRA:         -24.466
REMARK INTER:                 -12.541
REMARK INTRA:                 -11.924
REMARK UNBOUND:               -13.073
REMARK SMILES CC(=O)N[C@@H]1[C@@H](O)C[C@](OC[C@H]2O[C@@H](O[C@H]3[C@H](O)[C@@H](O)[C@H](OCCN=[N+]=[N-])O[C@@H]3CO)[C@H](O)[C@@H](O)[C@H]2O)(C(=O)O)O[C@H]1C(O)[C@H](O)CNC(=O)OCc1cn(C[C@@H](C)CN2CCN(c3ccc(Cl)cc3)CC2)nn1
REMARK SMILES IDX 43 1 42 2 9 3 8 4 41 5 6 6 5 7 10 8 11 9 12 10 14 11 13 12
REMARK SMILES IDX 32 13 34 14 36 15 15 16 16 17 29 18 28 19 21 20 17 21 19 22
REMARK SMILES IDX 30 23 31 24 22 26 23 27 24 28 25 29 26 30 27 31 18 32 20 34
REMARK SMILES IDX 33 36 35 38 37 40 38 42 39 43 40 44 7 46 4 48 2 49 1 51 3 52
REMARK SMILES IDX 44 53 45 55 46 56 47 58 48 59 49 60 50 62 51 63 52 64 53 65
REMARK SMILES IDX 54 66 74 67 55 68 73 69 56 70 57 71 58 72 59 73 60 74 61 75
REMARK SMILES IDX 72 76 62 77 71 78 63 79 64 80 65 81 70 82 66 83 69 84 67 85
REMARK SMILES IDX 68 86
REMARK H PARENT 31 25 18 33 20 35 33 37 35 39 37 41 40 45 7 47 4 50 44 54
REMARK H PARENT 46 57 48 61
REMARK Flexibility Score: inf
ROOT
ATOM      1  C   UNL     1      29.995  33.865  13.703  1.00  0.00     0.176 C 
ENDROOT
BRANCH   1   2
ATOM      2  C   UNL     1      29.240  35.171  13.908  1.00  0.00     0.178 C 
ATOM      3  C   UNL     1      27.112  36.187  13.763  1.00  0.00     0.272 C 
ATOM      4  C   UNL     1      27.848  37.429  13.654  1.00  0.00     0.113 C 
ATOM      5  O   UNL     1      27.967  35.085  13.450  1.00  0.00    -0.332 OA
ATOM      6  C   UNL     1      29.077  37.323  12.771  1.00  0.00     0.145 C 
ATOM      7  C   UNL     1      30.038  36.352  13.472  1.00  0.00     0.142 C 
BRANCH   3   8
ATOM      8  O   UNL     1      26.019  35.954  13.042  1.00  0.00    -0.338 OA
BRANCH   8   9
ATOM      9  C   UNL     1      25.390  36.740  12.208  1.00  0.00     0.199 C 
BRANCH   9  10
ATOM     10  C   UNL     1      24.465  36.235  11.138  1.00  0.00     0.179 C 
ATOM     11  C   UNL     1      23.420  37.244   9.312  1.00  0.00     0.282 C 
ATOM     12  O   UNL     1      23.588  37.170  10.668  1.00  0.00    -0.341 OA
ATOM     13  C   UNL     1      24.727  37.678   8.674  1.00  0.00     0.202 C 
ATOM     14  C   UNL     1      25.778  36.677   9.031  1.00  0.00     0.179 C 
ATOM     15  C   UNL     1      25.319  35.646  10.006  1.00  0.00     0.177 C 
BRANCH  11  16
ATOM     16  O   UNL     1      22.481  38.281   9.091  1.00  0.00    -0.341 OA
BRANCH  16  17
ATOM     17  C   UNL     1      21.259  37.736   8.790  1.00  0.00     0.184 C 
ATOM     18  C   UNL     1      20.348  37.641   9.997  1.00  0.00     0.178 C 
ATOM     19  O   UNL     1      20.101  36.374  10.428  1.00  0.00    -0.341 OA
ATOM     20  C   UNL     1      19.591  35.492   9.492  1.00  0.00     0.281 C 
ATOM     21  C   UNL     1      21.394  36.380   8.106  1.00  0.00     0.180 C 
ATOM     22  C   UNL     1      20.011  35.771   8.075  1.00  0.00     0.202 C 
BRANCH  18  23
ATOM     23  C   UNL     1      19.090  38.479   9.830  1.00  0.00     0.191 C 
BRANCH  23  24
ATOM     24  O   UNL     1      19.058  39.135   8.624  1.00  0.00    -0.394 OA
ATOM     25  H   UNL     1      19.806  39.808   8.639  1.00  0.00     0.210 HD
ENDBRANCH  23  24
ENDBRANCH  18  23
BRANCH  20  26
ATOM     26  O   UNL     1      18.207  35.388   9.559  1.00  0.00    -0.350 OA
BRANCH  26  27
ATOM     27  C   UNL     1      17.718  34.613  10.571  1.00  0.00     0.169 C 
BRANCH  27  28
ATOM     28  C   UNL     1      18.264  33.215  10.524  1.00  0.00     0.119 C 
BRANCH  28  29
ATOM     29  N   UNL     1      17.390  32.388   9.707  1.00  0.00    -0.092 NA
ATOM     30  N   UNL     1      17.338  32.581   8.479  1.00  0.00     0.001 N 
ATOM     31  N   UNL     1      17.380  32.874   7.291  1.00  0.00    -0.003 NA
ENDBRANCH  28  29
ENDBRANCH  27  28
ENDBRANCH  26  27
ENDBRANCH  20  26
BRANCH  21  32
ATOM     32  O   UNL     1      21.815  36.533   6.787  1.00  0.00    -0.387 OA
ATOM     33  H   UNL     1      20.975  36.624   6.248  1.00  0.00     0.211 HD
ENDBRANCH  21  32
BRANCH  22  34
ATOM     34  O   UNL     1      20.096  34.529   7.398  1.00  0.00    -0.385 OA
ATOM     35  H   UNL     1      19.566  34.499   6.586  1.00  0.00     0.211 HD
ENDBRANCH  22  34
ENDBRANCH  16  17
ENDBRANCH  11  16
BRANCH  13  36
ATOM     36  O   UNL     1      24.521  37.800   7.311  1.00  0.00    -0.385 OA
ATOM     37  H   UNL     1      24.262  38.753   7.144  1.00  0.00     0.211 HD
ENDBRANCH  13  36
BRANCH  14  38
ATOM     38  O   UNL     1      26.974  37.268   9.458  1.00  0.00    -0.387 OA
ATOM     39  H   UNL     1      26.801  38.077   9.991  1.00  0.00     0.211 HD
ENDBRANCH  14  38
BRANCH  15  40
ATOM     40  O   UNL     1      26.382  34.976  10.558  1.00  0.00    -0.387 OA
ATOM     41  H   UNL     1      27.204  35.519  10.576  1.00  0.00     0.211 HD
ENDBRANCH  15  40
ENDBRANCH   9  10
ENDBRANCH   8   9
ENDBRANCH   3   8
BRANCH   3  42
ATOM     42  C   UNL     1      26.814  35.886  15.219  1.00  0.00     0.364 C 
ATOM     43  O   UNL     1      27.059  36.759  16.122  1.00  0.00    -0.246 OA
BRANCH  42  44
ATOM     44  O   UNL     1      26.286  34.704  15.671  1.00  0.00    -0.477 OA
ATOM     45  H   UNL     1      25.405  34.347  15.321  1.00  0.00     0.296 HD
ENDBRANCH  42  44
ENDBRANCH   3  42
BRANCH   6  46
ATOM     46  O   UNL     1      28.659  36.790  11.552  1.00  0.00    -0.391 OA
ATOM     47  H   UNL     1      27.907  36.161  11.669  1.00  0.00     0.211 HD
ENDBRANCH   6  46
BRANCH   7  48
ATOM     48  N   UNL     1      30.630  37.069  14.583  1.00  0.00    -0.348 N 
ATOM     49  C   UNL     1      31.976  36.819  14.955  1.00  0.00     0.217 C 
ATOM     50  H   UNL     1      30.096  37.785  15.148  1.00  0.00     0.163 HD
ATOM     51  C   UNL     1      32.553  37.584  16.116  1.00  0.00     0.114 C 
ATOM     52  O   UNL     1      32.715  35.985  14.359  1.00  0.00    -0.275 OA
ENDBRANCH   7  48
ENDBRANCH   1   2
BRANCH   1  53
ATOM     53  O   UNL     1      31.124  34.157  12.939  1.00  0.00    -0.388 OA
ATOM     54  H   UNL     1      31.945  33.829  13.373  1.00  0.00     0.211 HD
ENDBRANCH   1  53
BRANCH   1  55
ATOM     55  C   UNL     1      30.490  33.240  14.977  1.00  0.00     0.165 C 
BRANCH  55  56
ATOM     56  O   UNL     1      31.843  33.031  15.043  1.00  0.00    -0.388 OA
ATOM     57  H   UNL     1      32.246  32.862  14.174  1.00  0.00     0.211 HD
ENDBRANCH  55  56
BRANCH  55  58
ATOM     58  C   UNL     1      29.736  32.029  15.408  1.00  0.00     0.154 C 
BRANCH  58  59
ATOM     59  N   UNL     1      28.432  32.454  15.922  1.00  0.00    -0.319 N 
ATOM     60  C   UNL     1      28.124  32.384  17.301  1.00  0.00     0.407 C 
ATOM     61  H   UNL     1      27.722  32.815  15.254  1.00  0.00     0.167 HD
ATOM     62  O   UNL     1      29.003  31.940  18.080  1.00  0.00    -0.225 OA
BRANCH  60  63
ATOM     63  O   UNL     1      26.884  32.800  17.767  1.00  0.00    -0.443 OA
BRANCH  63  64
ATOM     64  C   UNL     1      26.025  31.817  18.344  1.00  0.00     0.294 C 
BRANCH  64  65
ATOM     65  C   UNL     1      25.424  30.927  17.326  1.00  0.00     0.120 A 
ATOM     66  C   UNL     1      24.309  31.176  16.557  1.00  0.00     0.138 A 
ATOM     67  N   UNL     1      25.847  29.696  16.952  1.00  0.00    -0.132 NA
ATOM     68  N   UNL     1      24.116  30.115  15.779  1.00  0.00    -0.252 N 
ATOM     69  N   UNL     1      25.049  29.222  16.021  1.00  0.00    -0.067 NA
BRANCH  68  70
ATOM     70  C   UNL     1      23.020  29.983  14.819  1.00  0.00     0.150 C 
BRANCH  70  71
ATOM     71  C   UNL     1      23.523  30.215  13.391  1.00  0.00     0.022 C 
ATOM     72  C   UNL     1      23.406  28.878  12.691  1.00  0.00     0.011 C 
BRANCH  71  73
ATOM     73  C   UNL     1      22.672  31.257  12.736  1.00  0.00     0.089 C 
BRANCH  73  74
ATOM     74  N   UNL     1      22.406  32.445  13.436  1.00  0.00    -0.299 NA
ATOM     75  C   UNL     1      21.103  32.947  13.551  1.00  0.00     0.106 C 
ATOM     76  C   UNL     1      23.469  33.398  13.440  1.00  0.00     0.106 C 
ATOM     77  C   UNL     1      20.998  34.412  13.128  1.00  0.00     0.132 C 
ATOM     78  C   UNL     1      23.136  34.520  14.407  1.00  0.00     0.132 C 
ATOM     79  N   UNL     1      21.981  35.195  13.876  1.00  0.00    -0.369 N 
BRANCH  79  80
ATOM     80  C   UNL     1      21.775  36.569  14.047  1.00  0.00     0.037 A 
ATOM     81  C   UNL     1      20.568  37.183  13.723  1.00  0.00     0.027 A 
ATOM     82  C   UNL     1      22.750  37.416  14.558  1.00  0.00     0.027 A 
ATOM     83  C   UNL     1      20.338  38.528  13.888  1.00  0.00     0.022 A 
ATOM     84  C   UNL     1      22.522  38.767  14.725  1.00  0.00     0.022 A 
ATOM     85  C   UNL     1      21.316  39.344  14.394  1.00  0.00     0.041 A 
ATOM     86  Cl  UNL     1      21.027  41.039  14.603  1.00  0.00    -0.084 Cl
ENDBRANCH  79  80
ENDBRANCH  73  74
ENDBRANCH  71  73
ENDBRANCH  70  71
ENDBRANCH  68  70
ENDBRANCH  64  65
ENDBRANCH  63  64
ENDBRANCH  60  63
ENDBRANCH  58  59
ENDBRANCH  55  58
ENDBRANCH   1  55
TORSDOF 34
BEGIN_RES LYS A 131
REMARK  4 active torsions:
REMARK  status: ('A' for Active; 'I' for Inactive)
REMARK    1  A    between atoms: CA   and  CB  
REMARK    2  A    between atoms: CB   and  CG  
REMARK    3  A    between atoms: CG   and  CD  
REMARK    4  A    between atoms: CD   and  CE  
ROOT
ATOM      1  CA  LYS A 131      29.867  25.555  16.977  1.00 20.52     0.186 C 
ENDROOT
BRANCH   1   2
ATOM      2  CB  LYS A 131      28.345  25.722  17.026  1.00 20.94     0.034 C 
BRANCH   2   3
ATOM      3  CG  LYS A 131      27.602  24.400  16.910  1.00 22.96     0.005 C 
BRANCH   3   4
ATOM      4  CD  LYS A 131      26.185  24.502  17.403  1.00 24.33     0.041 C 
BRANCH   4   5
ATOM      5  CE  LYS A 131      25.996  25.825  18.139  1.00 26.91     0.338 C 
ATOM      6  NZ  LYS A 131      25.521  25.586  19.522  1.00 27.40     0.618 N 
ENDBRANCH   4   5
ENDBRANCH   3   4
ENDBRANCH   2   3
ENDBRANCH   1   2
END_RES LYS A 131
BEGIN_RES LYS A 135
REMARK  4 active torsions:
REMARK  status: ('A' for Active; 'I' for Inactive)
REMARK    5  A    between atoms: CA   and  CB  
REMARK    6  A    between atoms: CB   and  CG  
REMARK    7  A    between atoms: CG   and  CD  
REMARK    8  A    between atoms: CD   and  CE  
ROOT
ATOM      7  CA  LYS A 135      33.193  34.663   9.290  1.00 25.02     0.186 C 
ENDROOT
BRANCH   7   8
ATOM      8  CB  LYS A 135      32.060  35.360  10.034  1.00 26.63     0.034 C 
BRANCH   8   9
ATOM      9  CG  LYS A 135      30.697  34.802   9.715  1.00 29.45     0.005 C 
BRANCH   9  10
ATOM     10  CD  LYS A 135      30.581  34.481   8.233  1.00 32.00     0.041 C 
BRANCH  10  11
ATOM     11  CE  LYS A 135      29.587  35.411   7.563  1.00 34.25     0.338 C 
ATOM     12  NZ  LYS A 135      28.221  34.819   7.555  1.00 35.99     0.618 N 
ENDBRANCH  10  11
ENDBRANCH   9  10
ENDBRANCH   8   9
ENDBRANCH   7   8
END_RES LYS A 135
