REMARK VINA RESULT:    -5.144      4.121     10.637
REMARK INTER + INTRA:         -24.029
REMARK INTER:                 -13.345
REMARK INTRA:                 -10.684
REMARK UNBOUND:               -10.617
REMARK SMILES CC(=O)N[C@@H]1[C@@H](O)C[C@](OC[C@H]2O[C@@H](O[C@H]3[C@H](O)[C@@H](O)[C@H](OCCN=[N+]=[N-])O[C@@H]3CO)[C@H](O)[C@@H](O)[C@H]2O)(C(=O)O)O[C@H]1C(O)[C@H](O)CNC(=O)OCc1cn(-c2ccc(S(=O)(=O)c3ccc(N)cc3)cc2)nn1
REMARK SMILES IDX 43 1 42 2 9 3 8 4 41 5 6 6 5 7 10 8 11 9 12 10 14 11 13 12
REMARK SMILES IDX 32 13 34 14 36 15 15 16 16 17 29 18 28 19 21 20 17 21 19 22
REMARK SMILES IDX 30 23 31 24 22 26 23 27 24 28 25 29 26 30 27 31 18 32 20 34
REMARK SMILES IDX 33 36 35 38 37 40 38 42 39 43 40 44 7 46 4 48 2 49 1 51 3 52
REMARK SMILES IDX 44 53 45 55 46 56 47 58 48 59 49 60 50 62 51 63 52 64 53 65
REMARK SMILES IDX 54 66 73 67 55 68 72 69 56 70 57 71 71 72 58 73 70 74 59 75
REMARK SMILES IDX 60 76 61 77 62 78 63 79 64 80 69 81 65 82 68 83 66 84 67 85
REMARK H PARENT 31 25 18 33 20 35 33 37 35 39 37 41 40 45 7 47 4 50 44 54
REMARK H PARENT 46 57 48 61 67 86 67 87
REMARK Flexibility Score: inf
ROOT
ATOM      1  C   UNL     1      29.006  34.147  15.067  1.00  0.00     0.176 C 
ENDROOT
BRANCH   1   2
ATOM      2  C   UNL     1      29.950  35.314  14.776  1.00  0.00     0.178 C 
ATOM      3  C   UNL     1      30.499  36.926  13.211  1.00  0.00     0.272 C 
ATOM      4  C   UNL     1      31.953  36.641  13.402  1.00  0.00     0.113 C 
ATOM      5  O   UNL     1      29.724  35.794  13.522  1.00  0.00    -0.332 OA
ATOM      6  C   UNL     1      32.120  35.157  13.690  1.00  0.00     0.145 C 
ATOM      7  C   UNL     1      31.400  34.836  14.955  1.00  0.00     0.142 C 
BRANCH   3   8
ATOM      8  O   UNL     1      30.127  37.242  11.901  1.00  0.00    -0.338 OA
BRANCH   8   9
ATOM      9  C   UNL     1      31.008  37.995  11.186  1.00  0.00     0.199 C 
BRANCH   9  10
ATOM     10  C   UNL     1      30.282  38.671  10.045  1.00  0.00     0.179 C 
ATOM     11  C   UNL     1      28.376  38.626   8.787  1.00  0.00     0.282 C 
ATOM     12  O   UNL     1      29.004  38.107   9.950  1.00  0.00    -0.341 OA
ATOM     13  C   UNL     1      28.038  40.051   9.122  1.00  0.00     0.202 C 
ATOM     14  C   UNL     1      29.322  40.836   9.266  1.00  0.00     0.179 C 
ATOM     15  C   UNL     1      30.223  40.142  10.273  1.00  0.00     0.177 C 
BRANCH  11  16
ATOM     16  O   UNL     1      27.309  37.818   8.495  1.00  0.00    -0.341 OA
BRANCH  16  17
ATOM     17  C   UNL     1      26.604  37.470   9.671  1.00  0.00     0.184 C 
ATOM     18  C   UNL     1      26.420  35.986   9.673  1.00  0.00     0.178 C 
ATOM     19  O   UNL     1      25.132  35.552   9.840  1.00  0.00    -0.341 OA
ATOM     20  C   UNL     1      24.172  36.100   9.040  1.00  0.00     0.281 C 
ATOM     21  C   UNL     1      25.274  38.203   9.547  1.00  0.00     0.180 C 
ATOM     22  C   UNL     1      24.509  37.459   8.471  1.00  0.00     0.202 C 
BRANCH  18  23
ATOM     23  C   UNL     1      27.194  35.473  10.903  1.00  0.00     0.191 C 
BRANCH  23  24
ATOM     24  O   UNL     1      27.406  36.450  11.844  1.00  0.00    -0.394 OA
ATOM     25  H   UNL     1      26.607  36.697  12.372  1.00  0.00     0.210 HD
ENDBRANCH  23  24
ENDBRANCH  18  23
BRANCH  20  26
ATOM     26  O   UNL     1      23.026  36.264   9.810  1.00  0.00    -0.350 OA
BRANCH  26  27
ATOM     27  C   UNL     1      22.757  35.249  10.686  1.00  0.00     0.169 C 
BRANCH  27  28
ATOM     28  C   UNL     1      22.148  35.769  11.945  1.00  0.00     0.119 C 
BRANCH  28  29
ATOM     29  N   UNL     1      23.022  35.443  13.085  1.00  0.00    -0.092 NA
ATOM     30  N   UNL     1      24.143  35.938  13.186  1.00  0.00     0.001 N 
ATOM     31  N   UNL     1      25.041  36.725  13.534  1.00  0.00    -0.003 NA
ENDBRANCH  28  29
ENDBRANCH  27  28
ENDBRANCH  26  27
ENDBRANCH  20  26
BRANCH  21  32
ATOM     32  O   UNL     1      24.576  38.129  10.728  1.00  0.00    -0.387 OA
ATOM     33  H   UNL     1      24.010  38.938  10.853  1.00  0.00     0.211 HD
ENDBRANCH  21  32
BRANCH  22  34
ATOM     34  O   UNL     1      25.190  37.402   7.277  1.00  0.00    -0.385 OA
ATOM     35  H   UNL     1      24.760  36.800   6.614  1.00  0.00     0.211 HD
ENDBRANCH  22  34
ENDBRANCH  16  17
ENDBRANCH  11  16
BRANCH  13  36
ATOM     36  O   UNL     1      27.183  40.631   8.188  1.00  0.00    -0.385 OA
ATOM     37  H   UNL     1      26.439  41.063   8.718  1.00  0.00     0.211 HD
ENDBRANCH  13  36
BRANCH  14  38
ATOM     38  O   UNL     1      29.015  42.082   9.832  1.00  0.00    -0.387 OA
ATOM     39  H   UNL     1      29.366  42.137  10.740  1.00  0.00     0.211 HD
ENDBRANCH  14  38
BRANCH  15  40
ATOM     40  O   UNL     1      29.845  40.454  11.572  1.00  0.00    -0.387 OA
ATOM     41  H   UNL     1      30.456  40.028  12.216  1.00  0.00     0.211 HD
ENDBRANCH  15  40
ENDBRANCH   9  10
ENDBRANCH   8   9
ENDBRANCH   3   8
BRANCH   3  42
ATOM     42  C   UNL     1      29.996  38.039  14.061  1.00  0.00     0.364 C 
ATOM     43  O   UNL     1      30.622  38.569  15.009  1.00  0.00    -0.246 OA
BRANCH  42  44
ATOM     44  O   UNL     1      28.734  38.552  13.812  1.00  0.00    -0.477 OA
ATOM     45  H   UNL     1      28.599  39.405  13.247  1.00  0.00     0.296 HD
ENDBRANCH  42  44
ENDBRANCH   3  42
BRANCH   6  46
ATOM     46  O   UNL     1      31.465  34.490  12.649  1.00  0.00    -0.391 OA
ATOM     47  H   UNL     1      31.795  33.556  12.544  1.00  0.00     0.211 HD
ENDBRANCH   6  46
BRANCH   7  48
ATOM     48  N   UNL     1      31.957  35.401  16.143  1.00  0.00    -0.348 N 
ATOM     49  C   UNL     1      32.009  34.737  17.401  1.00  0.00     0.217 C 
ATOM     50  H   UNL     1      32.364  36.367  16.103  1.00  0.00     0.163 HD
ATOM     51  C   UNL     1      32.616  35.430  18.565  1.00  0.00     0.114 C 
ATOM     52  O   UNL     1      31.541  33.593  17.474  1.00  0.00    -0.275 OA
ENDBRANCH   7  48
ENDBRANCH   1   2
BRANCH   1  53
ATOM     53  O   UNL     1      29.669  32.935  14.972  1.00  0.00    -0.388 OA
ATOM     54  H   UNL     1      30.564  33.063  14.536  1.00  0.00     0.211 HD
ENDBRANCH   1  53
BRANCH   1  55
ATOM     55  C   UNL     1      28.241  34.330  16.320  1.00  0.00     0.165 C 
BRANCH  55  56
ATOM     56  O   UNL     1      28.679  33.446  17.310  1.00  0.00    -0.388 OA
ATOM     57  H   UNL     1      29.642  33.332  17.344  1.00  0.00     0.211 HD
ENDBRANCH  55  56
BRANCH  55  58
ATOM     58  C   UNL     1      26.772  34.024  16.118  1.00  0.00     0.154 C 
BRANCH  58  59
ATOM     59  N   UNL     1      26.532  32.808  15.392  1.00  0.00    -0.319 N 
ATOM     60  C   UNL     1      26.214  31.633  16.118  1.00  0.00     0.407 C 
ATOM     61  H   UNL     1      26.584  32.771  14.363  1.00  0.00     0.167 HD
ATOM     62  O   UNL     1      26.144  31.702  17.379  1.00  0.00    -0.225 OA
BRANCH  60  63
ATOM     63  O   UNL     1      25.975  30.404  15.548  1.00  0.00    -0.443 OA
BRANCH  63  64
ATOM     64  C   UNL     1      24.812  29.636  15.769  1.00  0.00     0.294 C 
BRANCH  64  65
ATOM     65  C   UNL     1      23.944  29.738  14.569  1.00  0.00     0.121 A 
ATOM     66  C   UNL     1      22.589  29.517  14.425  1.00  0.00     0.144 A 
ATOM     67  N   UNL     1      24.364  30.115  13.320  1.00  0.00    -0.131 NA
ATOM     68  N   UNL     1      22.234  29.761  13.126  1.00  0.00    -0.220 N 
ATOM     69  N   UNL     1      23.333  30.115  12.506  1.00  0.00    -0.062 NA
BRANCH  68  70
ATOM     70  C   UNL     1      20.951  29.674  12.544  1.00  0.00     0.066 A 
ATOM     71  C   UNL     1      20.440  28.440  12.132  1.00  0.00     0.030 A 
ATOM     72  C   UNL     1      20.141  30.763  12.346  1.00  0.00     0.030 A 
ATOM     73  C   UNL     1      19.200  28.302  11.561  1.00  0.00     0.023 A 
ATOM     74  C   UNL     1      18.878  30.630  11.766  1.00  0.00     0.023 A 
ATOM     75  C   UNL     1      18.396  29.403  11.368  1.00  0.00     0.072 A 
BRANCH  75  76
ATOM     76  S   UNL     1      16.810  29.240  10.644  1.00  0.00     0.206 S 
ATOM     77  O   UNL     1      15.874  30.231  11.317  1.00  0.00    -0.219 OA
ATOM     78  O   UNL     1      16.276  27.849  10.711  1.00  0.00    -0.219 OA
BRANCH  76  79
ATOM     79  C   UNL     1      16.902  29.755   8.960  1.00  0.00     0.072 A 
ATOM     80  C   UNL     1      16.901  28.830   7.952  1.00  0.00     0.023 A 
ATOM     81  C   UNL     1      16.979  31.090   8.637  1.00  0.00     0.023 A 
ATOM     82  C   UNL     1      16.975  29.240   6.652  1.00  0.00     0.027 A 
ATOM     83  C   UNL     1      17.053  31.488   7.327  1.00  0.00     0.027 A 
ATOM     84  C   UNL     1      17.054  30.587   6.300  1.00  0.00     0.031 A 
BRANCH  84  85
ATOM     85  N   UNL     1      17.131  30.967   4.943  1.00  0.00    -0.399 N 
ATOM     86  H   UNL     1      16.758  31.870   4.618  1.00  0.00     0.156 HD
ATOM     87  H   UNL     1      17.571  30.329   4.258  1.00  0.00     0.156 HD
ENDBRANCH  84  85
ENDBRANCH  76  79
ENDBRANCH  75  76
ENDBRANCH  68  70
ENDBRANCH  64  65
ENDBRANCH  63  64
ENDBRANCH  60  63
ENDBRANCH  58  59
ENDBRANCH  55  58
ENDBRANCH   1  55
TORSDOF 33
BEGIN_RES LYS A 131
REMARK  4 active torsions:
REMARK  status: ('A' for Active; 'I' for Inactive)
REMARK    1  A    between atoms: CA   and  CB  
REMARK    2  A    between atoms: CB   and  CG  
REMARK    3  A    between atoms: CG   and  CD  
REMARK    4  A    between atoms: CD   and  CE  
ROOT
ATOM      1  CA  LYS A 131      29.867  25.555  16.977  1.00 20.52     0.186 C 
ENDROOT
BRANCH   1   2
ATOM      2  CB  LYS A 131      28.345  25.722  17.026  1.00 20.94     0.034 C 
BRANCH   2   3
ATOM      3  CG  LYS A 131      27.599  24.477  16.570  1.00 22.96     0.005 C 
BRANCH   3   4
ATOM      4  CD  LYS A 131      27.011  23.714  17.724  1.00 24.33     0.041 C 
BRANCH   4   5
ATOM      5  CE  LYS A 131      25.675  24.337  18.118  1.00 26.91     0.338 C 
ATOM      6  NZ  LYS A 131      24.755  24.367  16.957  1.00 27.40     0.618 N 
ENDBRANCH   4   5
ENDBRANCH   3   4
ENDBRANCH   2   3
ENDBRANCH   1   2
END_RES LYS A 131
BEGIN_RES LYS A 135
REMARK  4 active torsions:
REMARK  status: ('A' for Active; 'I' for Inactive)
REMARK    5  A    between atoms: CA   and  CB  
REMARK    6  A    between atoms: CB   and  CG  
REMARK    7  A    between atoms: CG   and  CD  
REMARK    8  A    between atoms: CD   and  CE  
ROOT
ATOM      7  CA  LYS A 135      33.193  34.663   9.290  1.00 25.02     0.186 C 
ENDROOT
BRANCH   7   8
ATOM      8  CB  LYS A 135      32.060  35.360  10.034  1.00 26.63     0.034 C 
BRANCH   8   9
ATOM      9  CG  LYS A 135      30.689  34.894   9.617  1.00 29.45     0.005 C 
BRANCH   9  10
ATOM     10  CD  LYS A 135      30.560  34.893   8.102  1.00 32.00     0.041 C 
BRANCH  10  11
ATOM     11  CE  LYS A 135      29.100  34.876   7.692  1.00 34.25     0.338 C 
ATOM     12  NZ  LYS A 135      28.891  35.621   6.419  1.00 35.99     0.618 N 
ENDBRANCH  10  11
ENDBRANCH   9  10
ENDBRANCH   8   9
ENDBRANCH   7   8
END_RES LYS A 135
