REMARK VINA RESULT:    -4.261      3.568      8.466
REMARK INTER + INTRA:         -22.983
REMARK INTER:                 -12.762
REMARK INTRA:                 -10.221
REMARK UNBOUND:               -12.122
REMARK SMILES CC(=O)N[C@@H]1[C@@H](O)C[C@](OC[C@H]2O[C@@H](O[C@H]3[C@H](O)[C@@H](O)[C@H](OCCN=[N+]=[N-])O[C@@H]3CO)[C@H](O)[C@@H](O)[C@H]2O)(C(=O)O)O[C@H]1C(O)[C@H](O)CNC(=O)OCc1cn(-c2ccc(O)c([N+](=O)[O-])c2)nn1
REMARK SMILES IDX 9 1 8 2 6 3 5 4 42 5 41 6 10 7 11 8 12 9 14 10 13 11 32 12
REMARK SMILES IDX 34 13 36 14 15 15 16 16 29 17 28 18 21 19 17 20 19 21 30 22
REMARK SMILES IDX 31 23 22 25 23 26 24 27 25 28 26 29 27 30 18 31 20 33 33 35
REMARK SMILES IDX 35 37 37 39 38 41 39 42 40 43 7 45 43 47 44 48 45 50 46 51
REMARK SMILES IDX 47 53 48 54 49 55 50 57 51 58 52 59 53 60 54 61 67 62 55 63
REMARK SMILES IDX 66 64 56 65 57 66 65 67 58 68 61 69 59 70 62 71 63 72 64 73
REMARK SMILES IDX 60 74 4 76 2 77 1 79 3 80
REMARK H PARENT 31 24 18 32 20 34 33 36 35 38 37 40 40 44 7 46 44 49 46 52
REMARK H PARENT 48 56 60 75 4 78
REMARK Flexibility Score: inf
ROOT
ATOM      1  C   UNL     1      26.447  37.894   9.678  1.00  0.00     0.272 C 
ATOM      2  C   UNL     1      25.483  38.107   8.495  1.00  0.00     0.113 C 
ATOM      3  C   UNL     1      25.944  37.247   7.322  1.00  0.00     0.145 C 
ATOM      4  C   UNL     1      27.279  37.900   6.879  1.00  0.00     0.142 C 
ATOM      5  C   UNL     1      28.077  38.285   8.093  1.00  0.00     0.178 C 
ATOM      6  O   UNL     1      27.688  37.522   9.210  1.00  0.00    -0.332 OA
ENDROOT
BRANCH   1   7
ATOM      7  O   UNL     1      25.895  36.848  10.392  1.00  0.00    -0.338 OA
BRANCH   7   8
ATOM      8  C   UNL     1      26.445  36.573  11.608  1.00  0.00     0.199 C 
BRANCH   8   9
ATOM      9  C   UNL     1      25.251  36.451  12.586  1.00  0.00     0.179 C 
ATOM     10  C   UNL     1      23.058  35.893  12.442  1.00  0.00     0.282 C 
ATOM     11  O   UNL     1      24.143  36.487  11.795  1.00  0.00    -0.341 OA
ATOM     12  C   UNL     1      23.304  34.424  12.444  1.00  0.00     0.202 C 
ATOM     13  C   UNL     1      24.526  34.130  13.274  1.00  0.00     0.179 C 
ATOM     14  C   UNL     1      25.462  35.267  13.444  1.00  0.00     0.177 C 
BRANCH  10  15
ATOM     15  O   UNL     1      21.867  36.271  11.807  1.00  0.00    -0.341 OA
BRANCH  15  16
ATOM     16  C   UNL     1      22.185  37.033  10.700  1.00  0.00     0.184 C 
ATOM     17  C   UNL     1      21.630  38.415  10.691  1.00  0.00     0.178 C 
ATOM     18  O   UNL     1      22.282  39.118   9.685  1.00  0.00    -0.341 OA
ATOM     19  C   UNL     1      21.852  38.655   8.406  1.00  0.00     0.281 C 
ATOM     20  C   UNL     1      21.595  36.360   9.431  1.00  0.00     0.180 C 
ATOM     21  C   UNL     1      22.093  37.199   8.257  1.00  0.00     0.202 C 
BRANCH  17  22
ATOM     22  C   UNL     1      21.732  39.168  11.976  1.00  0.00     0.191 C 
BRANCH  22  23
ATOM     23  O   UNL     1      23.042  39.234  12.416  1.00  0.00    -0.394 OA
ATOM     24  H   UNL     1      23.558  38.510  11.937  1.00  0.00     0.210 HD
ENDBRANCH  22  23
ENDBRANCH  17  22
BRANCH  19  25
ATOM     25  O   UNL     1      22.651  39.373   7.524  1.00  0.00    -0.350 OA
BRANCH  25  26
ATOM     26  C   UNL     1      22.692  40.729   7.786  1.00  0.00     0.169 C 
BRANCH  26  27
ATOM     27  C   UNL     1      23.832  41.400   7.085  1.00  0.00     0.119 C 
BRANCH  27  28
ATOM     28  N   UNL     1      24.796  41.835   8.093  1.00  0.00    -0.092 NA
ATOM     29  N   UNL     1      26.008  41.569   7.935  1.00  0.00     0.001 N 
ATOM     30  N   UNL     1      27.220  41.781   7.750  1.00  0.00    -0.003 NA
ENDBRANCH  27  28
ENDBRANCH  26  27
ENDBRANCH  25  26
ENDBRANCH  19  25
BRANCH  20  31
ATOM     31  O   UNL     1      22.104  35.081   9.271  1.00  0.00    -0.387 OA
ATOM     32  H   UNL     1      22.849  35.051   8.610  1.00  0.00     0.211 HD
ENDBRANCH  20  31
BRANCH  21  33
ATOM     33  O   UNL     1      21.407  36.707   7.149  1.00  0.00    -0.385 OA
ATOM     34  H   UNL     1      21.370  37.363   6.426  1.00  0.00     0.211 HD
ENDBRANCH  21  33
ENDBRANCH  15  16
ENDBRANCH  10  15
BRANCH  12  35
ATOM     35  O   UNL     1      22.224  33.683  12.911  1.00  0.00    -0.385 OA
ATOM     36  H   UNL     1      21.390  33.902  12.404  1.00  0.00     0.211 HD
ENDBRANCH  12  35
BRANCH  13  37
ATOM     37  O   UNL     1      25.111  32.975  12.741  1.00  0.00    -0.387 OA
ATOM     38  H   UNL     1      24.643  32.200  13.153  1.00  0.00     0.211 HD
ENDBRANCH  13  37
BRANCH  14  39
ATOM     39  O   UNL     1      26.779  34.768  13.353  1.00  0.00    -0.387 OA
ATOM     40  H   UNL     1      27.117  34.441  14.213  1.00  0.00     0.211 HD
ENDBRANCH  14  39
ENDBRANCH   8   9
ENDBRANCH   7   8
ENDBRANCH   1   7
BRANCH   1  41
ATOM     41  C   UNL     1      26.383  39.120  10.465  1.00  0.00     0.364 C 
ATOM     42  O   UNL     1      27.347  39.670  11.060  1.00  0.00    -0.246 OA
BRANCH  41  43
ATOM     43  O   UNL     1      25.160  39.782  10.595  1.00  0.00    -0.477 OA
ATOM     44  H   UNL     1      24.480  39.832   9.844  1.00  0.00     0.296 HD
ENDBRANCH  41  43
ENDBRANCH   1  41
BRANCH   3  45
ATOM     45  O   UNL     1      26.149  35.946   7.699  1.00  0.00    -0.391 OA
ATOM     46  H   UNL     1      25.722  35.345   7.043  1.00  0.00     0.211 HD
ENDBRANCH   3  45
BRANCH   5  47
ATOM     47  C   UNL     1      29.534  37.970   7.855  1.00  0.00     0.176 C 
BRANCH  47  48
ATOM     48  O   UNL     1      29.657  37.440   6.581  1.00  0.00    -0.388 OA
ATOM     49  H   UNL     1      29.890  36.478   6.588  1.00  0.00     0.211 HD
ENDBRANCH  47  48
BRANCH  47  50
ATOM     50  C   UNL     1      30.453  39.158   7.985  1.00  0.00     0.165 C 
BRANCH  50  51
ATOM     51  O   UNL     1      31.758  38.606   7.876  1.00  0.00    -0.388 OA
ATOM     52  H   UNL     1      32.342  38.921   8.621  1.00  0.00     0.211 HD
ENDBRANCH  50  51
BRANCH  50  53
ATOM     53  C   UNL     1      30.380  39.776   9.352  1.00  0.00     0.154 C 
BRANCH  53  54
ATOM     54  N   UNL     1      31.411  39.237  10.199  1.00  0.00    -0.319 N 
ATOM     55  C   UNL     1      31.225  38.277  11.215  1.00  0.00     0.407 C 
ATOM     56  H   UNL     1      32.413  39.577  10.068  1.00  0.00     0.167 HD
ATOM     57  O   UNL     1      30.075  37.858  11.406  1.00  0.00    -0.225 OA
BRANCH  55  58
ATOM     58  O   UNL     1      32.229  37.770  12.006  1.00  0.00    -0.443 OA
BRANCH  58  59
ATOM     59  C   UNL     1      32.443  36.385  12.107  1.00  0.00     0.294 C 
BRANCH  59  60
ATOM     60  C   UNL     1      32.178  35.977  13.519  1.00  0.00     0.121 A 
ATOM     61  C   UNL     1      31.769  34.710  13.942  1.00  0.00     0.144 A 
ATOM     62  N   UNL     1      32.253  36.678  14.657  1.00  0.00    -0.131 NA
ATOM     63  N   UNL     1      31.626  34.723  15.263  1.00  0.00    -0.220 N 
ATOM     64  N   UNL     1      31.933  35.947  15.665  1.00  0.00    -0.062 NA
BRANCH  63  65
ATOM     65  C   UNL     1      31.213  33.625  16.094  1.00  0.00     0.073 A 
ATOM     66  C   UNL     1      30.906  32.413  15.555  1.00  0.00     0.033 A 
ATOM     67  C   UNL     1      31.114  33.753  17.453  1.00  0.00     0.118 A 
ATOM     68  C   UNL     1      30.509  31.333  16.308  1.00  0.00     0.056 A 
ATOM     69  C   UNL     1      30.709  32.664  18.251  1.00  0.00     0.312 A 
ATOM     70  C   UNL     1      30.401  31.443  17.712  1.00  0.00     0.194 A 
BRANCH  69  71
ATOM     71  N   UNL     1      30.639  32.882  19.638  1.00  0.00     0.066 N 
ATOM     72  O   UNL     1      29.934  33.861  20.038  1.00  0.00    -0.258 OA
ATOM     73  O   UNL     1      31.294  32.091  20.526  1.00  0.00    -0.258 OA
ENDBRANCH  69  71
BRANCH  70  74
ATOM     74  O   UNL     1      30.001  30.324  18.423  1.00  0.00    -0.502 OA
ATOM     75  H   UNL     1      30.558  29.541  18.548  1.00  0.00     0.293 HD
ENDBRANCH  70  74
ENDBRANCH  63  65
ENDBRANCH  59  60
ENDBRANCH  58  59
ENDBRANCH  55  58
ENDBRANCH  53  54
ENDBRANCH  50  53
ENDBRANCH  47  50
ENDBRANCH   5  47
BRANCH   4  76
ATOM     76  N   UNL     1      26.866  39.048   6.097  1.00  0.00    -0.348 N 
ATOM     77  C   UNL     1      27.339  39.246   4.758  1.00  0.00     0.217 C 
ATOM     78  H   UNL     1      26.217  39.757   6.485  1.00  0.00     0.163 HD
ATOM     79  C   UNL     1      26.903  40.427   3.977  1.00  0.00     0.114 C 
ATOM     80  O   UNL     1      28.133  38.389   4.266  1.00  0.00    -0.275 OA
ENDBRANCH   4  76
TORSDOF 32
BEGIN_RES LYS A 131
REMARK  4 active torsions:
REMARK  status: ('A' for Active; 'I' for Inactive)
REMARK    1  A    between atoms: CA   and  CB  
REMARK    2  A    between atoms: CB   and  CG  
REMARK    3  A    between atoms: CG   and  CD  
REMARK    4  A    between atoms: CD   and  CE  
ROOT
ATOM      1  CA  LYS A 131      29.867  25.555  16.977  1.00 20.52     0.186 C 
ENDROOT
BRANCH   1   2
ATOM      2  CB  LYS A 131      28.345  25.722  17.026  1.00 20.94     0.034 C 
BRANCH   2   3
ATOM      3  CG  LYS A 131      27.601  24.401  16.899  1.00 22.96     0.005 C 
BRANCH   3   4
ATOM      4  CD  LYS A 131      26.148  24.533  17.260  1.00 24.33     0.041 C 
BRANCH   4   5
ATOM      5  CE  LYS A 131      25.621  23.188  17.751  1.00 26.91     0.338 C 
ATOM      6  NZ  LYS A 131      25.524  23.177  19.230  1.00 27.40     0.618 N 
ENDBRANCH   4   5
ENDBRANCH   3   4
ENDBRANCH   2   3
ENDBRANCH   1   2
END_RES LYS A 131
BEGIN_RES LYS A 135
REMARK  4 active torsions:
REMARK  status: ('A' for Active; 'I' for Inactive)
REMARK    5  A    between atoms: CA   and  CB  
REMARK    6  A    between atoms: CB   and  CG  
REMARK    7  A    between atoms: CG   and  CD  
REMARK    8  A    between atoms: CD   and  CE  
ROOT
ATOM      7  CA  LYS A 135      33.193  34.663   9.290  1.00 25.02     0.186 C 
ENDROOT
BRANCH   7   8
ATOM      8  CB  LYS A 135      32.060  35.360  10.034  1.00 26.63     0.034 C 
BRANCH   8   9
ATOM      9  CG  LYS A 135      30.745  34.629   9.951  1.00 29.45     0.005 C 
BRANCH   9  10
ATOM     10  CD  LYS A 135      30.360  34.379   8.501  1.00 32.00     0.041 C 
BRANCH  10  11
ATOM     11  CE  LYS A 135      28.852  34.396   8.340  1.00 34.25     0.338 C 
ATOM     12  NZ  LYS A 135      28.179  33.810   9.532  1.00 35.99     0.618 N 
ENDBRANCH  10  11
ENDBRANCH   9  10
ENDBRANCH   8   9
ENDBRANCH   7   8
END_RES LYS A 135
