REMARK VINA RESULT:    -3.822      4.186      7.308
REMARK INTER + INTRA:         -22.382
REMARK INTER:                 -12.015
REMARK INTRA:                 -10.367
REMARK UNBOUND:               -11.857
REMARK SMILES CC[N+](C)(CC)CCCn1cc(COC(=O)NC[C@@H](O)C(O)[C@@H]2O[C@@](OC[C@H]3O[C@@H](O[C@H]4[C@H](O)[C@@H](O)[C@H](OCCN=[N+]=[N-])O[C@@H]4CO)[C@H](O)[C@@H](O)[C@H]3O)(C(=O)O)C[C@H](O)[C@H]2NC(C)=O)nn1
REMARK SMILES IDX 21 1 23 2 25 3 57 4 24 5 58 6 60 7 26 8 27 9 28 10 30 11
REMARK SMILES IDX 29 12 48 13 50 14 52 15 31 16 32 17 45 18 44 19 37 20 33 21
REMARK SMILES IDX 35 22 46 23 47 24 38 26 39 27 40 28 41 29 42 30 43 31 34 32
REMARK SMILES IDX 36 34 49 36 51 38 53 40 54 42 55 43 56 44 59 46 61 48 62 49
REMARK SMILES IDX 63 51 64 52 22 53 19 55 20 56 18 58 17 59 15 60 16 62 14 63
REMARK SMILES IDX 13 64 12 65 11 66 65 67 10 68 66 69 9 70 8 71 7 72 3 73 4 74
REMARK SMILES IDX 2 75 1 76 5 77 6 78
REMARK H PARENT 47 25 34 33 36 35 49 37 51 39 53 41 56 45 59 47 61 50 22 54
REMARK H PARENT 20 57 17 61
REMARK Flexibility Score: inf
ROOT
ATOM      1  C   UNL     1      27.733  31.105  16.405  1.00  0.00     0.176 C 
ENDROOT
BRANCH   1   2
ATOM      2  C   UNL     1      28.785  32.146  16.775  1.00  0.00     0.178 C 
ATOM      3  C   UNL     1      29.686  34.164  15.948  1.00  0.00     0.272 C 
ATOM      4  C   UNL     1      30.939  33.679  16.598  1.00  0.00     0.113 C 
ATOM      5  O   UNL     1      28.908  32.998  15.700  1.00  0.00    -0.332 OA
ATOM      6  C   UNL     1      31.168  32.205  16.387  1.00  0.00     0.145 C 
ATOM      7  C   UNL     1      30.062  31.450  17.119  1.00  0.00     0.142 C 
BRANCH   3   8
ATOM      8  O   UNL     1      29.871  34.684  14.685  1.00  0.00    -0.338 OA
BRANCH   8   9
ATOM      9  C   UNL     1      30.612  35.790  14.505  1.00  0.00     0.199 C 
BRANCH   9  10
ATOM     10  C   UNL     1      30.801  36.095  12.996  1.00  0.00     0.179 C 
ATOM     11  C   UNL     1      28.833  37.293  12.492  1.00  0.00     0.282 C 
ATOM     12  O   UNL     1      29.646  36.180  12.322  1.00  0.00    -0.341 OA
ATOM     13  C   UNL     1      29.574  38.546  12.767  1.00  0.00     0.202 C 
ATOM     14  C   UNL     1      30.925  38.377  12.040  1.00  0.00     0.179 C 
ATOM     15  C   UNL     1      31.666  37.348  12.865  1.00  0.00     0.177 C 
BRANCH  11  16
ATOM     16  O   UNL     1      27.774  36.996  13.363  1.00  0.00    -0.341 OA
BRANCH  16  17
ATOM     17  C   UNL     1      26.681  36.499  12.715  1.00  0.00     0.184 C 
ATOM     18  C   UNL     1      25.450  37.290  12.628  1.00  0.00     0.178 C 
ATOM     19  O   UNL     1      24.597  36.718  11.702  1.00  0.00    -0.341 OA
ATOM     20  C   UNL     1      24.756  35.424  11.361  1.00  0.00     0.281 C 
ATOM     21  C   UNL     1      26.257  35.148  13.337  1.00  0.00     0.180 C 
ATOM     22  C   UNL     1      25.266  34.481  12.422  1.00  0.00     0.202 C 
BRANCH  18  23
ATOM     23  C   UNL     1      25.611  38.751  12.257  1.00  0.00     0.191 C 
BRANCH  23  24
ATOM     24  O   UNL     1      25.181  39.045  10.971  1.00  0.00    -0.394 OA
ATOM     25  H   UNL     1      25.366  40.030  10.833  1.00  0.00     0.210 HD
ENDBRANCH  23  24
ENDBRANCH  18  23
BRANCH  20  26
ATOM     26  O   UNL     1      25.443  35.298  10.167  1.00  0.00    -0.350 OA
BRANCH  26  27
ATOM     27  C   UNL     1      24.768  35.659   9.048  1.00  0.00     0.169 C 
BRANCH  27  28
ATOM     28  C   UNL     1      25.444  36.754   8.249  1.00  0.00     0.119 C 
BRANCH  28  29
ATOM     29  N   UNL     1      24.466  37.771   7.902  1.00  0.00    -0.092 NA
ATOM     30  N   UNL     1      23.522  38.070   8.630  1.00  0.00     0.001 N 
ATOM     31  N   UNL     1      22.583  38.401   9.355  1.00  0.00    -0.003 NA
ENDBRANCH  28  29
ENDBRANCH  27  28
ENDBRANCH  26  27
ENDBRANCH  20  26
BRANCH  21  32
ATOM     32  O   UNL     1      27.413  34.440  13.572  1.00  0.00    -0.387 OA
ATOM     33  H   UNL     1      27.760  34.486  14.477  1.00  0.00     0.211 HD
ENDBRANCH  21  32
BRANCH  22  34
ATOM     34  O   UNL     1      24.252  33.928  13.188  1.00  0.00    -0.385 OA
ATOM     35  H   UNL     1      24.548  33.614  14.082  1.00  0.00     0.211 HD
ENDBRANCH  22  34
ENDBRANCH  16  17
ENDBRANCH  11  16
BRANCH  13  36
ATOM     36  O   UNL     1      28.982  39.688  12.205  1.00  0.00    -0.385 OA
ATOM     37  H   UNL     1      29.510  39.924  11.412  1.00  0.00     0.211 HD
ENDBRANCH  13  36
BRANCH  14  38
ATOM     38  O   UNL     1      31.609  39.593  12.044  1.00  0.00    -0.387 OA
ATOM     39  H   UNL     1      30.935  40.296  12.146  1.00  0.00     0.211 HD
ENDBRANCH  14  38
BRANCH  15  40
ATOM     40  O   UNL     1      31.783  37.894  14.142  1.00  0.00    -0.387 OA
ATOM     41  H   UNL     1      31.151  38.597  14.354  1.00  0.00     0.211 HD
ENDBRANCH  15  40
ENDBRANCH   9  10
ENDBRANCH   8   9
ENDBRANCH   3   8
BRANCH   3  42
ATOM     42  C   UNL     1      28.895  35.105  16.760  1.00  0.00     0.364 C 
ATOM     43  O   UNL     1      27.709  35.385  16.479  1.00  0.00    -0.246 OA
BRANCH  42  44
ATOM     44  O   UNL     1      29.439  35.716  17.864  1.00  0.00    -0.477 OA
ATOM     45  H   UNL     1      29.023  36.527  18.317  1.00  0.00     0.296 HD
ENDBRANCH  42  44
ENDBRANCH   3  42
BRANCH   6  46
ATOM     46  O   UNL     1      31.176  31.835  15.063  1.00  0.00    -0.391 OA
ATOM     47  H   UNL     1      31.350  30.850  14.949  1.00  0.00     0.211 HD
ENDBRANCH   6  46
BRANCH   7  48
ATOM     48  N   UNL     1      30.348  31.668  18.547  1.00  0.00    -0.348 N 
ATOM     49  C   UNL     1      29.858  30.782  19.546  1.00  0.00     0.217 C 
ATOM     50  H   UNL     1      30.910  32.470  18.901  1.00  0.00     0.163 HD
ATOM     51  C   UNL     1      30.124  30.960  20.995  1.00  0.00     0.114 C 
ATOM     52  O   UNL     1      29.175  29.808  19.183  1.00  0.00    -0.275 OA
ENDBRANCH   7  48
ENDBRANCH   1   2
BRANCH   1  53
ATOM     53  O   UNL     1      28.374  30.073  15.637  1.00  0.00    -0.388 OA
ATOM     54  H   UNL     1      29.264  30.433  15.382  1.00  0.00     0.211 HD
ENDBRANCH   1  53
BRANCH   1  55
ATOM     55  C   UNL     1      26.684  31.694  15.519  1.00  0.00     0.165 C 
BRANCH  55  56
ATOM     56  O   UNL     1      26.132  32.763  16.339  1.00  0.00    -0.388 OA
ATOM     57  H   UNL     1      25.275  32.410  16.732  1.00  0.00     0.211 HD
ENDBRANCH  55  56
BRANCH  55  58
ATOM     58  C   UNL     1      25.553  30.824  15.111  1.00  0.00     0.154 C 
BRANCH  58  59
ATOM     59  N   UNL     1      24.521  31.263  14.285  1.00  0.00    -0.319 N 
ATOM     60  C   UNL     1      23.809  30.536  13.303  1.00  0.00     0.407 C 
ATOM     61  H   UNL     1      24.207  32.313  14.396  1.00  0.00     0.167 HD
ATOM     62  O   UNL     1      24.023  29.343  13.037  1.00  0.00    -0.225 OA
BRANCH  60  63
ATOM     63  O   UNL     1      22.792  31.177  12.553  1.00  0.00    -0.443 OA
BRANCH  63  64
ATOM     64  C   UNL     1      21.490  30.561  12.571  1.00  0.00     0.294 C 
BRANCH  64  65
ATOM     65  C   UNL     1      20.560  31.738  12.398  1.00  0.00     0.120 A 
ATOM     66  C   UNL     1      20.897  33.069  12.450  1.00  0.00     0.138 A 
ATOM     67  N   UNL     1      19.253  31.729  12.113  1.00  0.00    -0.132 NA
ATOM     68  N   UNL     1      19.778  33.820  12.191  1.00  0.00    -0.252 N 
ATOM     69  N   UNL     1      18.797  32.959  11.994  1.00  0.00    -0.067 NA
BRANCH  68  70
ATOM     70  C   UNL     1      19.731  35.269  12.110  1.00  0.00     0.152 C 
BRANCH  70  71
ATOM     71  C   UNL     1      20.109  35.778  10.787  1.00  0.00     0.085 C 
BRANCH  71  72
ATOM     72  C   UNL     1      19.187  35.659   9.645  1.00  0.00     0.265 C 
BRANCH  72  73
ATOM     73  N   UNL     1      19.717  35.688   8.322  1.00  0.00    -0.326 N 
ATOM     74  C   UNL     1      21.109  35.329   8.335  1.00  0.00     0.334 C 
BRANCH  73  75
ATOM     75  C   UNL     1      19.504  36.906   7.593  1.00  0.00     0.260 C 
ATOM     76  C   UNL     1      18.133  37.499   7.818  1.00  0.00     0.071 C 
ENDBRANCH  73  75
BRANCH  73  77
ATOM     77  C   UNL     1      19.044  34.600   7.594  1.00  0.00     0.260 C 
ATOM     78  C   UNL     1      18.109  33.799   8.429  1.00  0.00     0.071 C 
ENDBRANCH  73  77
ENDBRANCH  72  73
ENDBRANCH  71  72
ENDBRANCH  70  71
ENDBRANCH  68  70
ENDBRANCH  64  65
ENDBRANCH  63  64
ENDBRANCH  60  63
ENDBRANCH  58  59
ENDBRANCH  55  58
ENDBRANCH   1  55
TORSDOF 35
BEGIN_RES LYS A 131
REMARK  4 active torsions:
REMARK  status: ('A' for Active; 'I' for Inactive)
REMARK    1  A    between atoms: CA   and  CB  
REMARK    2  A    between atoms: CB   and  CG  
REMARK    3  A    between atoms: CG   and  CD  
REMARK    4  A    between atoms: CD   and  CE  
ROOT
ATOM      1  CA  LYS A 131      29.867  25.555  16.977  1.00 20.52     0.186 C 
ENDROOT
BRANCH   1   2
ATOM      2  CB  LYS A 131      28.345  25.722  17.026  1.00 20.94     0.034 C 
BRANCH   2   3
ATOM      3  CG  LYS A 131      27.601  24.403  16.888  1.00 22.96     0.005 C 
BRANCH   3   4
ATOM      4  CD  LYS A 131      26.568  24.220  17.966  1.00 24.33     0.041 C 
BRANCH   4   5
ATOM      5  CE  LYS A 131      25.986  25.576  18.348  1.00 26.91     0.338 C 
ATOM      6  NZ  LYS A 131      25.800  25.667  19.816  1.00 27.40     0.618 N 
ENDBRANCH   4   5
ENDBRANCH   3   4
ENDBRANCH   2   3
ENDBRANCH   1   2
END_RES LYS A 131
BEGIN_RES LYS A 135
REMARK  4 active torsions:
REMARK  status: ('A' for Active; 'I' for Inactive)
REMARK    5  A    between atoms: CA   and  CB  
REMARK    6  A    between atoms: CB   and  CG  
REMARK    7  A    between atoms: CG   and  CD  
REMARK    8  A    between atoms: CD   and  CE  
ROOT
ATOM      7  CA  LYS A 135      33.193  34.663   9.290  1.00 25.02     0.186 C 
ENDROOT
BRANCH   7   8
ATOM      8  CB  LYS A 135      32.060  35.360  10.034  1.00 26.63     0.034 C 
BRANCH   8   9
ATOM      9  CG  LYS A 135      30.808  35.520   9.211  1.00 29.45     0.005 C 
BRANCH   9  10
ATOM     10  CD  LYS A 135      30.078  34.192   9.081  1.00 32.00     0.041 C 
BRANCH  10  11
ATOM     11  CE  LYS A 135      28.665  34.409   8.575  1.00 34.25     0.338 C 
ATOM     12  NZ  LYS A 135      28.659  35.234   7.335  1.00 35.99     0.618 N 
ENDBRANCH  10  11
ENDBRANCH   9  10
ENDBRANCH   8   9
ENDBRANCH   7   8
END_RES LYS A 135
