REMARK VINA RESULT:    -5.296      3.779      8.204
REMARK INTER + INTRA:         -23.469
REMARK INTER:                 -11.294
REMARK INTRA:                 -12.174
REMARK UNBOUND:                -9.504
REMARK SMILES CC(=O)N[C@@H]1[C@@H](O)C[C@](OC[C@H]2O[C@@H](O[C@H]3[C@H](O)[C@@H](O)[C@H](OCCN=[N+]=[N-])O[C@@H]3CO)[C@H](O)[C@@H](O)[C@H]2O)(C(=O)O)O[C@H]1C(O)[C@H](O)CNC(=O)OCc1cn(COCc2ccccc2)nn1
REMARK SMILES IDX 43 1 42 2 9 3 8 4 41 5 6 6 5 7 10 8 11 9 12 10 14 11 13 12
REMARK SMILES IDX 32 13 34 14 36 15 15 16 16 17 29 18 28 19 21 20 17 21 19 22
REMARK SMILES IDX 30 23 31 24 22 26 23 27 24 28 25 29 26 30 27 31 18 32 20 34
REMARK SMILES IDX 33 36 35 38 37 40 38 42 39 43 40 44 7 46 4 48 2 49 1 51 3 52
REMARK SMILES IDX 44 53 45 55 46 56 47 58 48 59 49 60 50 62 51 63 52 64 53 65
REMARK SMILES IDX 54 66 66 67 55 68 65 69 56 70 57 71 58 72 59 73 60 74 64 75
REMARK SMILES IDX 61 76 63 77 62 78
REMARK H PARENT 31 25 18 33 20 35 33 37 35 39 37 41 40 45 7 47 4 50 44 54
REMARK H PARENT 46 57 48 61
REMARK Flexibility Score: inf
ROOT
ATOM      1  C   UNL     1      28.746  35.994  17.449  1.00  0.00     0.176 C 
ENDROOT
BRANCH   1   2
ATOM      2  C   UNL     1      29.499  34.871  16.701  1.00  0.00     0.178 C 
ATOM      3  C   UNL     1      30.144  34.443  14.509  1.00  0.00     0.272 C 
ATOM      4  C   UNL     1      29.752  32.980  14.692  1.00  0.00     0.113 C 
ATOM      5  O   UNL     1      29.334  35.150  15.343  1.00  0.00    -0.332 OA
ATOM      6  C   UNL     1      28.555  32.886  15.608  1.00  0.00     0.145 C 
ATOM      7  C   UNL     1      28.924  33.519  16.984  1.00  0.00     0.142 C 
BRANCH   3   8
ATOM      8  O   UNL     1      29.946  34.825  13.168  1.00  0.00    -0.338 OA
BRANCH   8   9
ATOM      9  C   UNL     1      28.799  35.454  12.868  1.00  0.00     0.199 C 
BRANCH   9  10
ATOM     10  C   UNL     1      29.042  36.547  11.853  1.00  0.00     0.179 C 
ATOM     11  C   UNL     1      28.181  37.833  10.198  1.00  0.00     0.282 C 
ATOM     12  O   UNL     1      27.856  36.838  11.149  1.00  0.00    -0.341 OA
ATOM     13  C   UNL     1      28.345  39.186  10.884  1.00  0.00     0.202 C 
ATOM     14  C   UNL     1      28.523  38.871  12.377  1.00  0.00     0.179 C 
ATOM     15  C   UNL     1      29.590  37.798  12.434  1.00  0.00     0.177 C 
BRANCH  11  16
ATOM     16  O   UNL     1      27.135  37.931   9.323  1.00  0.00    -0.341 OA
BRANCH  16  17
ATOM     17  C   UNL     1      25.973  37.311   9.760  1.00  0.00     0.184 C 
ATOM     18  C   UNL     1      25.458  36.282   8.819  1.00  0.00     0.178 C 
ATOM     19  O   UNL     1      24.925  36.884   7.719  1.00  0.00    -0.341 OA
ATOM     20  C   UNL     1      23.774  37.601   7.945  1.00  0.00     0.281 C 
ATOM     21  C   UNL     1      24.951  38.352  10.061  1.00  0.00     0.180 C 
ATOM     22  C   UNL     1      23.744  38.384   9.198  1.00  0.00     0.202 C 
BRANCH  18  23
ATOM     23  C   UNL     1      24.504  35.359   9.542  1.00  0.00     0.191 C 
BRANCH  23  24
ATOM     24  O   UNL     1      24.904  35.154  10.868  1.00  0.00    -0.394 OA
ATOM     25  H   UNL     1      24.193  35.474  11.478  1.00  0.00     0.210 HD
ENDBRANCH  23  24
ENDBRANCH  18  23
BRANCH  20  26
ATOM     26  O   UNL     1      22.719  36.682   7.957  1.00  0.00    -0.350 OA
BRANCH  26  27
ATOM     27  C   UNL     1      21.506  37.220   8.304  1.00  0.00     0.169 C 
BRANCH  27  28
ATOM     28  C   UNL     1      20.674  36.088   8.881  1.00  0.00     0.119 C 
BRANCH  28  29
ATOM     29  N   UNL     1      20.377  35.073   7.896  1.00  0.00    -0.092 NA
ATOM     30  N   UNL     1      19.197  34.751   7.665  1.00  0.00     0.001 N 
ATOM     31  N   UNL     1      18.151  34.103   7.862  1.00  0.00    -0.003 NA
ENDBRANCH  28  29
ENDBRANCH  27  28
ENDBRANCH  26  27
ENDBRANCH  20  26
BRANCH  21  32
ATOM     32  O   UNL     1      24.488  38.196  11.397  1.00  0.00    -0.387 OA
ATOM     33  H   UNL     1      24.432  37.263  11.656  1.00  0.00     0.211 HD
ENDBRANCH  21  32
BRANCH  22  34
ATOM     34  O   UNL     1      23.521  39.736   8.821  1.00  0.00    -0.385 OA
ATOM     35  H   UNL     1      23.238  40.201   9.651  1.00  0.00     0.211 HD
ENDBRANCH  22  34
ENDBRANCH  16  17
ENDBRANCH  11  16
BRANCH  13  36
ATOM     36  O   UNL     1      29.520  39.828  10.495  1.00  0.00    -0.385 OA
ATOM     37  H   UNL     1      29.797  39.434   9.631  1.00  0.00     0.211 HD
ENDBRANCH  13  36
BRANCH  14  38
ATOM     38  O   UNL     1      27.315  38.313  12.776  1.00  0.00    -0.387 OA
ATOM     39  H   UNL     1      26.566  38.960  12.794  1.00  0.00     0.211 HD
ENDBRANCH  14  38
BRANCH  15  40
ATOM     40  O   UNL     1      30.117  37.649  13.707  1.00  0.00    -0.387 OA
ATOM     41  H   UNL     1      30.417  36.725  13.903  1.00  0.00     0.211 HD
ENDBRANCH  15  40
ENDBRANCH   9  10
ENDBRANCH   8   9
ENDBRANCH   3   8
BRANCH   3  42
ATOM     42  C   UNL     1      31.559  34.694  14.781  1.00  0.00     0.364 C 
ATOM     43  O   UNL     1      32.443  33.850  15.081  1.00  0.00    -0.246 OA
BRANCH  42  44
ATOM     44  O   UNL     1      32.038  36.025  14.711  1.00  0.00    -0.477 OA
ATOM     45  H   UNL     1      31.649  36.681  14.034  1.00  0.00     0.296 HD
ENDBRANCH  42  44
ENDBRANCH   3  42
BRANCH   6  46
ATOM     46  O   UNL     1      27.412  33.473  15.196  1.00  0.00    -0.391 OA
ATOM     47  H   UNL     1      26.606  33.178  15.723  1.00  0.00     0.211 HD
ENDBRANCH   6  46
BRANCH   7  48
ATOM     48  N   UNL     1      29.889  32.600  17.538  1.00  0.00    -0.348 N 
ATOM     49  C   UNL     1      29.494  31.756  18.596  1.00  0.00     0.217 C 
ATOM     50  H   UNL     1      30.844  32.562  17.175  1.00  0.00     0.163 HD
ATOM     51  C   UNL     1      30.467  30.790  19.174  1.00  0.00     0.114 C 
ATOM     52  O   UNL     1      28.313  31.802  19.064  1.00  0.00    -0.275 OA
ENDBRANCH   7  48
ENDBRANCH   1   2
BRANCH   1  53
ATOM     53  O   UNL     1      27.347  35.775  17.152  1.00  0.00    -0.388 OA
ATOM     54  H   UNL     1      26.877  36.597  17.484  1.00  0.00     0.211 HD
ENDBRANCH   1  53
BRANCH   1  55
ATOM     55  C   UNL     1      29.046  37.373  16.980  1.00  0.00     0.165 C 
BRANCH  55  56
ATOM     56  O   UNL     1      30.336  37.657  16.630  1.00  0.00    -0.388 OA
ATOM     57  H   UNL     1      30.451  38.003  15.718  1.00  0.00     0.211 HD
ENDBRANCH  55  56
BRANCH  55  58
ATOM     58  C   UNL     1      28.361  38.529  17.599  1.00  0.00     0.154 C 
BRANCH  58  59
ATOM     59  N   UNL     1      27.163  39.016  16.975  1.00  0.00    -0.319 N 
ATOM     60  C   UNL     1      25.847  38.740  17.431  1.00  0.00     0.407 C 
ATOM     61  H   UNL     1      27.226  39.630  16.133  1.00  0.00     0.167 HD
ATOM     62  O   UNL     1      25.671  38.044  18.437  1.00  0.00    -0.225 OA
BRANCH  60  63
ATOM     63  O   UNL     1      24.690  39.216  16.804  1.00  0.00    -0.443 OA
BRANCH  63  64
ATOM     64  C   UNL     1      24.458  38.922  15.425  1.00  0.00     0.294 C 
BRANCH  64  65
ATOM     65  C   UNL     1      24.730  37.504  15.096  1.00  0.00     0.120 A 
ATOM     66  C   UNL     1      23.766  36.517  15.113  1.00  0.00     0.141 A 
ATOM     67  N   UNL     1      25.875  36.906  14.747  1.00  0.00    -0.132 NA
ATOM     68  N   UNL     1      24.365  35.349  14.773  1.00  0.00    -0.226 N 
ATOM     69  N   UNL     1      25.643  35.621  14.558  1.00  0.00    -0.065 NA
BRANCH  68  70
ATOM     70  C   UNL     1      23.766  34.039  14.650  1.00  0.00     0.307 C 
BRANCH  70  71
ATOM     71  O   UNL     1      23.807  33.571  13.365  1.00  0.00    -0.355 OA
BRANCH  71  72
ATOM     72  C   UNL     1      24.539  32.394  13.312  1.00  0.00     0.198 C 
BRANCH  72  73
ATOM     73  C   UNL     1      23.609  31.260  12.971  1.00  0.00    -0.022 A 
ATOM     74  C   UNL     1      24.135  29.985  12.928  1.00  0.00     0.006 A 
ATOM     75  C   UNL     1      22.283  31.493  12.711  1.00  0.00     0.006 A 
ATOM     76  C   UNL     1      23.317  28.921  12.619  1.00  0.00     0.000 A 
ATOM     77  C   UNL     1      21.492  30.424  12.406  1.00  0.00     0.000 A 
ATOM     78  C   UNL     1      21.980  29.128  12.352  1.00  0.00     0.000 A 
ENDBRANCH  72  73
ENDBRANCH  71  72
ENDBRANCH  70  71
ENDBRANCH  68  70
ENDBRANCH  64  65
ENDBRANCH  63  64
ENDBRANCH  60  63
ENDBRANCH  58  59
ENDBRANCH  55  58
ENDBRANCH   1  55
TORSDOF 33
BEGIN_RES LYS A 131
REMARK  4 active torsions:
REMARK  status: ('A' for Active; 'I' for Inactive)
REMARK    1  A    between atoms: CA   and  CB  
REMARK    2  A    between atoms: CB   and  CG  
REMARK    3  A    between atoms: CG   and  CD  
REMARK    4  A    between atoms: CD   and  CE  
ROOT
ATOM      1  CA  LYS A 131      29.867  25.555  16.977  1.00 20.52     0.186 C 
ENDROOT
BRANCH   1   2
ATOM      2  CB  LYS A 131      28.345  25.722  17.026  1.00 20.94     0.034 C 
BRANCH   2   3
ATOM      3  CG  LYS A 131      27.602  24.399  16.918  1.00 22.96     0.005 C 
BRANCH   3   4
ATOM      4  CD  LYS A 131      26.144  24.539  17.260  1.00 24.33     0.041 C 
BRANCH   4   5
ATOM      5  CE  LYS A 131      25.626  23.223  17.829  1.00 26.91     0.338 C 
ATOM      6  NZ  LYS A 131      25.512  23.305  19.305  1.00 27.40     0.618 N 
ENDBRANCH   4   5
ENDBRANCH   3   4
ENDBRANCH   2   3
ENDBRANCH   1   2
END_RES LYS A 131
BEGIN_RES LYS A 135
REMARK  4 active torsions:
REMARK  status: ('A' for Active; 'I' for Inactive)
REMARK    5  A    between atoms: CA   and  CB  
REMARK    6  A    between atoms: CB   and  CG  
REMARK    7  A    between atoms: CG   and  CD  
REMARK    8  A    between atoms: CD   and  CE  
ROOT
ATOM      7  CA  LYS A 135      33.193  34.663   9.290  1.00 25.02     0.186 C 
ENDROOT
BRANCH   7   8
ATOM      8  CB  LYS A 135      32.060  35.360  10.034  1.00 26.63     0.034 C 
BRANCH   8   9
ATOM      9  CG  LYS A 135      30.792  35.476   9.229  1.00 29.45     0.005 C 
BRANCH   9  10
ATOM     10  CD  LYS A 135      30.059  34.143   9.186  1.00 32.00     0.041 C 
BRANCH  10  11
ATOM     11  CE  LYS A 135      28.643  34.330   8.678  1.00 34.25     0.338 C 
ATOM     12  NZ  LYS A 135      28.612  35.233   7.494  1.00 35.99     0.618 N 
ENDBRANCH  10  11
ENDBRANCH   9  10
ENDBRANCH   8   9
ENDBRANCH   7   8
END_RES LYS A 135
