REMARK VINA RESULT:    -3.780      3.266      8.593
REMARK INTER + INTRA:         -21.890
REMARK INTER:                 -11.453
REMARK INTRA:                 -10.437
REMARK UNBOUND:               -11.702
REMARK SMILES CC(=O)N[C@@H]1[C@@H](O)C[C@](OC[C@H]2O[C@@H](O[C@H]3[C@H](O)[C@@H](O)[C@H](OCCN=[N+]=[N-])O[C@@H]3CO)[C@H](O)[C@@H](O)[C@H]2O)(C(=O)O)O[C@H]1C(O)[C@H](O)CNC(=O)OCc1cn([C@@H](CC(=O)O)C(=O)O)nn1
REMARK SMILES IDX 43 1 42 2 9 3 8 4 41 5 6 6 5 7 10 8 11 9 12 10 14 11 13 12
REMARK SMILES IDX 32 13 34 14 36 15 15 16 16 17 29 18 28 19 21 20 17 21 19 22
REMARK SMILES IDX 30 23 31 24 22 26 23 27 24 28 25 29 26 30 27 31 18 32 20 34
REMARK SMILES IDX 33 36 35 38 37 40 38 42 39 43 40 44 7 46 4 48 2 49 1 51 3 52
REMARK SMILES IDX 44 53 45 55 46 56 47 58 48 59 49 60 50 62 51 63 52 64 53 65
REMARK SMILES IDX 54 66 65 67 55 68 64 69 56 70 57 71 58 72 59 73 60 74 61 76
REMARK SMILES IDX 62 77 63 78
REMARK H PARENT 31 25 18 33 20 35 33 37 35 39 37 41 40 45 7 47 4 50 44 54
REMARK H PARENT 46 57 48 61 60 75 63 79
REMARK Flexibility Score: inf
ROOT
ATOM      1  C   UNL     1      26.876  38.282   8.475  1.00  0.00     0.176 C 
ENDROOT
BRANCH   1   2
ATOM      2  C   UNL     1      25.698  39.235   8.584  1.00  0.00     0.178 C 
ATOM      3  C   UNL     1      23.513  39.335   9.446  1.00  0.00     0.272 C 
ATOM      4  C   UNL     1      23.556  40.498   8.445  1.00  0.00     0.113 C 
ATOM      5  O   UNL     1      24.674  38.572   9.186  1.00  0.00    -0.332 OA
ATOM      6  C   UNL     1      23.904  39.864   7.106  1.00  0.00     0.145 C 
ATOM      7  C   UNL     1      25.434  39.724   7.172  1.00  0.00     0.142 C 
BRANCH   3   8
ATOM      8  O   UNL     1      22.465  38.660   9.324  1.00  0.00    -0.338 OA
BRANCH   8   9
ATOM      9  C   UNL     1      21.427  37.984   9.212  1.00  0.00     0.199 C 
BRANCH   9  10
ATOM     10  C   UNL     1      21.551  36.584   8.610  1.00  0.00     0.179 C 
ATOM     11  C   UNL     1      20.371  35.288  10.101  1.00  0.00     0.282 C 
ATOM     12  O   UNL     1      21.564  35.563   9.499  1.00  0.00    -0.341 OA
ATOM     13  C   UNL     1      19.283  35.027   9.134  1.00  0.00     0.202 C 
ATOM     14  C   UNL     1      19.950  34.949   7.752  1.00  0.00     0.179 C 
ATOM     15  C   UNL     1      20.531  36.332   7.525  1.00  0.00     0.177 C 
BRANCH  11  16
ATOM     16  O   UNL     1      20.050  36.071  11.199  1.00  0.00    -0.341 OA
BRANCH  16  17
ATOM     17  C   UNL     1      20.828  35.818  12.305  1.00  0.00     0.184 C 
ATOM     18  C   UNL     1      20.043  35.227  13.420  1.00  0.00     0.178 C 
ATOM     19  O   UNL     1      20.853  34.925  14.507  1.00  0.00    -0.341 OA
ATOM     20  C   UNL     1      21.867  35.860  14.737  1.00  0.00     0.281 C 
ATOM     21  C   UNL     1      21.392  37.168  12.739  1.00  0.00     0.180 C 
ATOM     22  C   UNL     1      21.429  37.232  14.233  1.00  0.00     0.202 C 
BRANCH  18  23
ATOM     23  C   UNL     1      19.493  33.887  12.934  1.00  0.00     0.191 C 
BRANCH  23  24
ATOM     24  O   UNL     1      18.200  34.096  12.412  1.00  0.00    -0.394 OA
ATOM     25  H   UNL     1      18.283  34.932  11.864  1.00  0.00     0.210 HD
ENDBRANCH  23  24
ENDBRANCH  18  23
BRANCH  20  26
ATOM     26  O   UNL     1      22.965  35.474  13.991  1.00  0.00    -0.350 OA
BRANCH  26  27
ATOM     27  C   UNL     1      23.470  34.235  14.236  1.00  0.00     0.169 C 
BRANCH  27  28
ATOM     28  C   UNL     1      23.816  33.535  12.957  1.00  0.00     0.119 C 
BRANCH  28  29
ATOM     29  N   UNL     1      22.877  32.426  12.777  1.00  0.00    -0.092 NA
ATOM     30  N   UNL     1      23.306  31.269  12.965  1.00  0.00     0.001 N 
ATOM     31  N   UNL     1      23.501  30.071  12.688  1.00  0.00    -0.003 NA
ENDBRANCH  28  29
ENDBRANCH  27  28
ENDBRANCH  26  27
ENDBRANCH  20  26
BRANCH  21  32
ATOM     32  O   UNL     1      22.675  37.328  12.230  1.00  0.00    -0.387 OA
ATOM     33  H   UNL     1      22.824  38.280  11.962  1.00  0.00     0.211 HD
ENDBRANCH  21  32
BRANCH  22  34
ATOM     34  O   UNL     1      20.217  37.607  14.815  1.00  0.00    -0.385 OA
ATOM     35  H   UNL     1      20.144  37.029  15.639  1.00  0.00     0.211 HD
ENDBRANCH  22  34
ENDBRANCH  16  17
ENDBRANCH  11  16
BRANCH  13  36
ATOM     36  O   UNL     1      18.655  33.792   9.312  1.00  0.00    -0.385 OA
ATOM     37  H   UNL     1      18.330  33.758  10.258  1.00  0.00     0.211 HD
ENDBRANCH  13  36
BRANCH  14  38
ATOM     38  O   UNL     1      19.077  34.590   6.756  1.00  0.00    -0.387 OA
ATOM     39  H   UNL     1      18.731  35.381   6.254  1.00  0.00     0.211 HD
ENDBRANCH  14  38
BRANCH  15  40
ATOM     40  O   UNL     1      19.514  37.260   7.533  1.00  0.00    -0.387 OA
ATOM     41  H   UNL     1      19.256  37.569   8.418  1.00  0.00     0.211 HD
ENDBRANCH  15  40
ENDBRANCH   9  10
ENDBRANCH   8   9
ENDBRANCH   3   8
BRANCH   3  42
ATOM     42  C   UNL     1      23.721  40.017  10.796  1.00  0.00     0.364 C 
ATOM     43  O   UNL     1      22.741  40.308  11.497  1.00  0.00    -0.246 OA
BRANCH  42  44
ATOM     44  O   UNL     1      24.988  40.319  11.256  1.00  0.00    -0.477 OA
ATOM     45  H   UNL     1      25.165  40.629  12.221  1.00  0.00     0.296 HD
ENDBRANCH  42  44
ENDBRANCH   3  42
BRANCH   6  46
ATOM     46  O   UNL     1      23.461  38.523   7.082  1.00  0.00    -0.391 OA
ATOM     47  H   UNL     1      22.692  38.392   6.503  1.00  0.00     0.211 HD
ENDBRANCH   6  46
BRANCH   7  48
ATOM     48  N   UNL     1      25.966  41.041   6.911  1.00  0.00    -0.348 N 
ATOM     49  C   UNL     1      27.065  41.205   6.013  1.00  0.00     0.217 C 
ATOM     50  H   UNL     1      25.584  41.907   7.355  1.00  0.00     0.163 HD
ATOM     51  C   UNL     1      27.574  42.600   5.786  1.00  0.00     0.114 C 
ATOM     52  O   UNL     1      27.597  40.226   5.426  1.00  0.00    -0.275 OA
ENDBRANCH   7  48
ENDBRANCH   1   2
BRANCH   1  53
ATOM     53  O   UNL     1      28.057  38.957   8.191  1.00  0.00    -0.388 OA
ATOM     54  H   UNL     1      27.980  39.510   7.362  1.00  0.00     0.211 HD
ENDBRANCH   1  53
BRANCH   1  55
ATOM     55  C   UNL     1      26.692  37.132   7.558  1.00  0.00     0.165 C 
BRANCH  55  56
ATOM     56  O   UNL     1      26.107  36.009   8.099  1.00  0.00    -0.388 OA
ATOM     57  H   UNL     1      26.687  35.509   8.733  1.00  0.00     0.211 HD
ENDBRANCH  55  56
BRANCH  55  58
ATOM     58  C   UNL     1      27.926  36.859   6.768  1.00  0.00     0.154 C 
BRANCH  58  59
ATOM     59  N   UNL     1      28.720  35.748   7.193  1.00  0.00    -0.319 N 
ATOM     60  C   UNL     1      29.860  35.975   8.000  1.00  0.00     0.407 C 
ATOM     61  H   UNL     1      28.479  34.784   6.928  1.00  0.00     0.167 HD
ATOM     62  O   UNL     1      30.129  37.182   8.331  1.00  0.00    -0.225 OA
BRANCH  60  63
ATOM     63  O   UNL     1      30.732  35.008   8.469  1.00  0.00    -0.443 OA
BRANCH  63  64
ATOM     64  C   UNL     1      30.208  33.823   9.091  1.00  0.00     0.294 C 
BRANCH  64  65
ATOM     65  C   UNL     1      28.961  34.178   9.809  1.00  0.00     0.120 A 
ATOM     66  C   UNL     1      28.777  34.934  10.946  1.00  0.00     0.139 A 
ATOM     67  N   UNL     1      27.696  33.773   9.454  1.00  0.00    -0.132 NA
ATOM     68  N   UNL     1      27.445  34.966  11.243  1.00  0.00    -0.237 N 
ATOM     69  N   UNL     1      26.853  34.261  10.324  1.00  0.00    -0.066 NA
BRANCH  68  70
ATOM     70  C   UNL     1      26.834  35.639  12.366  1.00  0.00     0.229 C 
BRANCH  70  71
ATOM     71  C   UNL     1      27.914  36.421  13.093  1.00  0.00     0.161 C 
BRANCH  71  72
ATOM     72  C   UNL     1      27.837  36.224  14.553  1.00  0.00     0.306 C 
ATOM     73  O   UNL     1      28.778  35.680  15.186  1.00  0.00    -0.252 OA
BRANCH  72  74
ATOM     74  O   UNL     1      26.725  36.634  15.255  1.00  0.00    -0.481 OA
ATOM     75  H   UNL     1      26.531  36.203  16.166  1.00  0.00     0.296 HD
ENDBRANCH  72  74
ENDBRANCH  71  72
ENDBRANCH  70  71
BRANCH  70  76
ATOM     76  C   UNL     1      25.805  36.568  11.868  1.00  0.00     0.329 C 
ATOM     77  O   UNL     1      25.682  37.688  12.416  1.00  0.00    -0.250 OA
BRANCH  76  78
ATOM     78  O   UNL     1      24.956  36.264  10.813  1.00  0.00    -0.480 OA
ATOM     79  H   UNL     1      24.769  36.985  10.122  1.00  0.00     0.296 HD
ENDBRANCH  76  78
ENDBRANCH  70  76
ENDBRANCH  68  70
ENDBRANCH  64  65
ENDBRANCH  63  64
ENDBRANCH  60  63
ENDBRANCH  58  59
ENDBRANCH  55  58
ENDBRANCH   1  55
TORSDOF 35
BEGIN_RES LYS A 131
REMARK  4 active torsions:
REMARK  status: ('A' for Active; 'I' for Inactive)
REMARK    1  A    between atoms: CA   and  CB  
REMARK    2  A    between atoms: CB   and  CG  
REMARK    3  A    between atoms: CG   and  CD  
REMARK    4  A    between atoms: CD   and  CE  
ROOT
ATOM      1  CA  LYS A 131      29.867  25.555  16.977  1.00 20.52     0.186 C 
ENDROOT
BRANCH   1   2
ATOM      2  CB  LYS A 131      28.345  25.722  17.026  1.00 20.94     0.034 C 
BRANCH   2   3
ATOM      3  CG  LYS A 131      27.602  24.399  16.926  1.00 22.96     0.005 C 
BRANCH   3   4
ATOM      4  CD  LYS A 131      26.165  24.523  17.349  1.00 24.33     0.041 C 
BRANCH   4   5
ATOM      5  CE  LYS A 131      25.869  23.509  18.450  1.00 26.91     0.338 C 
ATOM      6  NZ  LYS A 131      24.467  23.639  18.913  1.00 27.40     0.618 N 
ENDBRANCH   4   5
ENDBRANCH   3   4
ENDBRANCH   2   3
ENDBRANCH   1   2
END_RES LYS A 131
BEGIN_RES LYS A 135
REMARK  4 active torsions:
REMARK  status: ('A' for Active; 'I' for Inactive)
REMARK    5  A    between atoms: CA   and  CB  
REMARK    6  A    between atoms: CB   and  CG  
REMARK    7  A    between atoms: CG   and  CD  
REMARK    8  A    between atoms: CD   and  CE  
ROOT
ATOM      7  CA  LYS A 135      33.193  34.663   9.290  1.00 25.02     0.186 C 
ENDROOT
BRANCH   7   8
ATOM      8  CB  LYS A 135      32.060  35.360  10.034  1.00 26.63     0.034 C 
BRANCH   8   9
ATOM      9  CG  LYS A 135      32.449  35.846  11.406  1.00 29.45     0.005 C 
BRANCH   9  10
ATOM     10  CD  LYS A 135      31.897  37.240  11.659  1.00 32.00     0.041 C 
BRANCH  10  11
ATOM     11  CE  LYS A 135      31.532  37.411  13.121  1.00 34.25     0.338 C 
ATOM     12  NZ  LYS A 135      30.803  38.690  13.346  1.00 35.99     0.618 N 
ENDBRANCH  10  11
ENDBRANCH   9  10
ENDBRANCH   8   9
ENDBRANCH   7   8
END_RES LYS A 135
