REMARK VINA RESULT:    -3.801      5.018      9.757
REMARK INTER + INTRA:         -22.277
REMARK INTER:                 -10.851
REMARK INTRA:                 -11.426
REMARK UNBOUND:               -12.699
REMARK SMILES CC(=O)N[C@@H]1[C@@H](O)C[C@](OC[C@H]2O[C@@H](O[C@H]3[C@H](O)[C@@H](O)[C@H](OCCN=[N+]=[N-])O[C@@H]3CO)[C@H](O)[C@@H](O)[C@H]2O)(C(=O)O)O[C@H]1C(O)[C@H](O)CNC(=O)OCc1cn(Cc2ccc(Br)cc2)nn1
REMARK SMILES IDX 9 1 8 2 6 3 5 4 42 5 41 6 10 7 11 8 12 9 14 10 13 11 32 12
REMARK SMILES IDX 34 13 36 14 15 15 16 16 29 17 28 18 21 19 17 20 19 21 30 22
REMARK SMILES IDX 31 23 22 25 23 26 24 27 25 28 26 29 27 30 18 31 20 33 33 35
REMARK SMILES IDX 35 37 37 39 38 41 39 42 40 43 7 45 43 47 44 48 45 50 46 51
REMARK SMILES IDX 47 53 48 54 49 55 50 57 51 58 52 59 53 60 54 61 65 62 55 63
REMARK SMILES IDX 64 64 56 65 57 66 58 67 63 68 59 69 62 70 60 71 61 72 4 73
REMARK SMILES IDX 2 74 1 76 3 77
REMARK H PARENT 31 24 18 32 20 34 33 36 35 38 37 40 40 44 7 46 44 49 46 52
REMARK H PARENT 48 56 4 75
REMARK Flexibility Score: inf
ROOT
ATOM      1  C   UNL     1      30.036  38.778  10.945  1.00  0.00     0.272 C 
ATOM      2  C   UNL     1      31.215  38.771  11.849  1.00  0.00     0.113 C 
ATOM      3  C   UNL     1      31.473  37.570  12.671  1.00  0.00     0.145 C 
ATOM      4  C   UNL     1      30.230  36.659  12.859  1.00  0.00     0.142 C 
ATOM      5  C   UNL     1      29.097  37.645  12.781  1.00  0.00     0.178 C 
ATOM      6  O   UNL     1      29.016  37.916  11.386  1.00  0.00    -0.332 OA
ENDROOT
BRANCH   1   7
ATOM      7  O   UNL     1      30.189  38.779   9.626  1.00  0.00    -0.338 OA
BRANCH   7   8
ATOM      8  C   UNL     1      29.549  39.203   8.604  1.00  0.00     0.199 C 
BRANCH   8   9
ATOM      9  C   UNL     1      28.959  38.154   7.691  1.00  0.00     0.179 C 
ATOM     10  C   UNL     1      27.274  36.664   7.397  1.00  0.00     0.282 C 
ATOM     11  O   UNL     1      27.938  37.450   8.272  1.00  0.00    -0.341 OA
ATOM     12  C   UNL     1      27.924  36.452   6.042  1.00  0.00     0.202 C 
ATOM     13  C   UNL     1      28.347  37.762   5.416  1.00  0.00     0.179 C 
ATOM     14  C   UNL     1      28.355  38.862   6.468  1.00  0.00     0.177 C 
BRANCH  10  15
ATOM     15  O   UNL     1      25.964  36.929   7.173  1.00  0.00    -0.341 OA
BRANCH  15  16
ATOM     16  C   UNL     1      25.054  37.110   8.139  1.00  0.00     0.184 C 
ATOM     17  C   UNL     1      24.810  35.961   9.063  1.00  0.00     0.178 C 
ATOM     18  O   UNL     1      23.548  35.440   8.986  1.00  0.00    -0.341 OA
ATOM     19  C   UNL     1      22.536  36.330   9.314  1.00  0.00     0.281 C 
ATOM     20  C   UNL     1      23.737  37.523   7.517  1.00  0.00     0.180 C 
ATOM     21  C   UNL     1      22.725  37.668   8.626  1.00  0.00     0.202 C 
BRANCH  17  22
ATOM     22  C   UNL     1      25.169  36.371  10.473  1.00  0.00     0.191 C 
BRANCH  22  23
ATOM     23  O   UNL     1      26.038  37.480  10.479  1.00  0.00    -0.394 OA
ATOM     24  H   UNL     1      26.340  37.698   9.579  1.00  0.00     0.210 HD
ENDBRANCH  22  23
ENDBRANCH  17  22
BRANCH  19  25
ATOM     25  O   UNL     1      22.341  36.490  10.676  1.00  0.00    -0.350 OA
BRANCH  25  26
ATOM     26  C   UNL     1      21.566  35.536  11.279  1.00  0.00     0.169 C 
BRANCH  26  27
ATOM     27  C   UNL     1      22.180  34.938  12.511  1.00  0.00     0.119 C 
BRANCH  27  28
ATOM     28  N   UNL     1      23.192  33.957  12.139  1.00  0.00    -0.092 NA
ATOM     29  N   UNL     1      24.181  33.795  12.850  1.00  0.00     0.001 N 
ATOM     30  N   UNL     1      25.323  33.685  13.350  1.00  0.00    -0.003 NA
ENDBRANCH  27  28
ENDBRANCH  26  27
ENDBRANCH  25  26
ENDBRANCH  19  25
BRANCH  20  31
ATOM     31  O   UNL     1      23.937  38.807   6.973  1.00  0.00    -0.387 OA
ATOM     32  H   UNL     1      23.496  38.868   6.080  1.00  0.00     0.211 HD
ENDBRANCH  20  31
BRANCH  21  33
ATOM     33  O   UNL     1      21.520  38.194   8.175  1.00  0.00    -0.385 OA
ATOM     34  H   UNL     1      20.869  37.447   8.142  1.00  0.00     0.211 HD
ENDBRANCH  21  33
ENDBRANCH  15  16
ENDBRANCH  10  15
BRANCH  12  35
ATOM     35  O   UNL     1      29.008  35.592   6.075  1.00  0.00    -0.385 OA
ATOM     36  H   UNL     1      29.541  35.569   5.247  1.00  0.00     0.211 HD
ENDBRANCH  12  35
BRANCH  13  37
ATOM     37  O   UNL     1      27.563  38.126   4.328  1.00  0.00    -0.387 OA
ATOM     38  H   UNL     1      27.870  39.019   4.035  1.00  0.00     0.211 HD
ENDBRANCH  13  37
BRANCH  14  39
ATOM     39  O   UNL     1      27.056  39.228   6.836  1.00  0.00    -0.387 OA
ATOM     40  H   UNL     1      27.033  39.452   7.787  1.00  0.00     0.211 HD
ENDBRANCH  14  39
ENDBRANCH   8   9
ENDBRANCH   7   8
ENDBRANCH   1   7
BRANCH   1  41
ATOM     41  C   UNL     1      29.379  40.150  11.175  1.00  0.00     0.364 C 
ATOM     42  O   UNL     1      28.151  40.199  11.228  1.00  0.00    -0.246 OA
BRANCH  41  43
ATOM     43  O   UNL     1      30.105  41.302  11.321  1.00  0.00    -0.477 OA
ATOM     44  H   UNL     1      30.898  41.321  11.982  1.00  0.00     0.296 HD
ENDBRANCH  41  43
ENDBRANCH   1  41
BRANCH   3  45
ATOM     45  O   UNL     1      32.588  36.820  12.336  1.00  0.00    -0.391 OA
ATOM     46  H   UNL     1      32.409  36.355  11.491  1.00  0.00     0.211 HD
ENDBRANCH   3  45
BRANCH   5  47
ATOM     47  C   UNL     1      27.768  37.211  13.276  1.00  0.00     0.176 C 
BRANCH  47  48
ATOM     48  O   UNL     1      27.474  35.924  12.969  1.00  0.00    -0.388 OA
ATOM     49  H   UNL     1      27.573  35.323  13.716  1.00  0.00     0.211 HD
ENDBRANCH  47  48
BRANCH  47  50
ATOM     50  C   UNL     1      27.309  37.643  14.605  1.00  0.00     0.165 C 
BRANCH  50  51
ATOM     51  O   UNL     1      27.687  36.751  15.623  1.00  0.00    -0.388 OA
ATOM     52  H   UNL     1      26.950  36.325  16.085  1.00  0.00     0.211 HD
ENDBRANCH  50  51
BRANCH  50  53
ATOM     53  C   UNL     1      25.926  38.119  14.793  1.00  0.00     0.154 C 
BRANCH  53  54
ATOM     54  N   UNL     1      25.170  38.331  13.571  1.00  0.00    -0.319 N 
ATOM     55  C   UNL     1      25.062  39.613  12.973  1.00  0.00     0.407 C 
ATOM     56  H   UNL     1      24.672  37.553  13.070  1.00  0.00     0.167 HD
ATOM     57  O   UNL     1      25.647  40.611  13.503  1.00  0.00    -0.225 OA
BRANCH  55  58
ATOM     58  O   UNL     1      24.334  39.861  11.813  1.00  0.00    -0.443 OA
BRANCH  58  59
ATOM     59  C   UNL     1      23.753  41.160  11.589  1.00  0.00     0.294 C 
BRANCH  59  60
ATOM     60  C   UNL     1      23.439  41.396  10.171  1.00  0.00     0.120 A 
ATOM     61  C   UNL     1      23.918  42.447   9.413  1.00  0.00     0.138 A 
ATOM     62  N   UNL     1      22.655  40.670   9.372  1.00  0.00    -0.132 NA
ATOM     63  N   UNL     1      23.411  42.329   8.180  1.00  0.00    -0.248 N 
ATOM     64  N   UNL     1      22.655  41.250   8.186  1.00  0.00    -0.067 NA
BRANCH  63  65
ATOM     65  C   UNL     1      23.636  43.177   7.026  1.00  0.00     0.181 C 
BRANCH  65  66
ATOM     66  C   UNL     1      24.820  42.792   6.224  1.00  0.00    -0.026 A 
ATOM     67  C   UNL     1      26.038  43.413   6.516  1.00  0.00     0.007 A 
ATOM     68  C   UNL     1      24.805  41.859   5.228  1.00  0.00     0.007 A 
ATOM     69  C   UNL     1      27.178  43.078   5.805  1.00  0.00     0.016 A 
ATOM     70  C   UNL     1      25.947  41.511   4.504  1.00  0.00     0.016 A 
ATOM     71  C   UNL     1      27.132  42.128   4.801  1.00  0.00     0.017 A 
ATOM     72  Br  UNL     1      28.738  41.686   3.838  1.00  0.00    -0.051 Br
ENDBRANCH  65  66
ENDBRANCH  63  65
ENDBRANCH  59  60
ENDBRANCH  58  59
ENDBRANCH  55  58
ENDBRANCH  53  54
ENDBRANCH  50  53
ENDBRANCH  47  50
ENDBRANCH   5  47
BRANCH   4  73
ATOM     73  N   UNL     1      30.363  35.916  14.058  1.00  0.00    -0.348 N 
ATOM     74  C   UNL     1      30.247  34.504  14.048  1.00  0.00     0.217 C 
ATOM     75  H   UNL     1      30.562  36.395  14.952  1.00  0.00     0.163 HD
ATOM     76  C   UNL     1      30.373  33.637  15.222  1.00  0.00     0.114 C 
ATOM     77  O   UNL     1      30.017  33.929  12.925  1.00  0.00    -0.275 OA
ENDBRANCH   4  73
TORSDOF 31
BEGIN_RES LYS A 131
REMARK  4 active torsions:
REMARK  status: ('A' for Active; 'I' for Inactive)
REMARK    1  A    between atoms: CA   and  CB  
REMARK    2  A    between atoms: CB   and  CG  
REMARK    3  A    between atoms: CG   and  CD  
REMARK    4  A    between atoms: CD   and  CE  
ROOT
ATOM      1  CA  LYS A 131      29.867  25.555  16.977  1.00 20.52     0.186 C 
ENDROOT
BRANCH   1   2
ATOM      2  CB  LYS A 131      28.345  25.722  17.026  1.00 20.94     0.034 C 
BRANCH   2   3
ATOM      3  CG  LYS A 131      27.602  24.400  16.912  1.00 22.96     0.005 C 
BRANCH   3   4
ATOM      4  CD  LYS A 131      26.156  24.527  17.307  1.00 24.33     0.041 C 
BRANCH   4   5
ATOM      5  CE  LYS A 131      26.036  25.464  18.504  1.00 26.91     0.338 C 
ATOM      6  NZ  LYS A 131      24.935  26.434  18.296  1.00 27.40     0.618 N 
ENDBRANCH   4   5
ENDBRANCH   3   4
ENDBRANCH   2   3
ENDBRANCH   1   2
END_RES LYS A 131
BEGIN_RES LYS A 135
REMARK  4 active torsions:
REMARK  status: ('A' for Active; 'I' for Inactive)
REMARK    5  A    between atoms: CA   and  CB  
REMARK    6  A    between atoms: CB   and  CG  
REMARK    7  A    between atoms: CG   and  CD  
REMARK    8  A    between atoms: CD   and  CE  
ROOT
ATOM      7  CA  LYS A 135      33.193  34.663   9.290  1.00 25.02     0.186 C 
ENDROOT
BRANCH   7   8
ATOM      8  CB  LYS A 135      32.060  35.360  10.034  1.00 26.63     0.034 C 
BRANCH   8   9
ATOM      9  CG  LYS A 135      30.797  35.490   9.223  1.00 29.45     0.005 C 
BRANCH   9  10
ATOM     10  CD  LYS A 135      29.973  34.214   9.303  1.00 32.00     0.041 C 
BRANCH  10  11
ATOM     11  CE  LYS A 135      28.667  34.468  10.030  1.00 34.25     0.338 C 
ATOM     12  NZ  LYS A 135      27.557  33.675   9.433  1.00 35.99     0.618 N 
ENDBRANCH  10  11
ENDBRANCH   9  10
ENDBRANCH   8   9
ENDBRANCH   7   8
END_RES LYS A 135
