REMARK VINA RESULT:    -6.852      5.781     10.278
REMARK INTER + INTRA:         -20.292
REMARK INTER:                 -11.171
REMARK INTRA:                  -9.122
REMARK UNBOUND:                -1.022
REMARK SMILES CC(=O)N[C@@H]1[C@@H](O)C[C@](OC[C@H]2O[C@@H](O[C@H]3[C@H](O)[C@@H](O)[C@H](OCCN=[N+]=[N-])O[C@@H]3CO)[C@H](O)[C@@H](O)[C@H]2O)(C(=O)O)O[C@H]1C(O)[C@H](O)CNC(=O)OCc1cn(C2CC(O)C=C[C@@H](O)C2)nn1
REMARK SMILES IDX 43 1 42 2 9 3 8 4 41 5 6 6 5 7 10 8 11 9 12 10 14 11 13 12
REMARK SMILES IDX 32 13 34 14 36 15 15 16 16 17 29 18 28 19 21 20 17 21 19 22
REMARK SMILES IDX 30 23 31 24 22 26 23 27 24 28 25 29 26 30 27 31 18 32 20 34
REMARK SMILES IDX 33 36 35 38 37 40 38 42 39 43 40 44 7 46 4 48 2 49 1 51 3 52
REMARK SMILES IDX 44 53 45 55 46 56 47 58 48 59 49 60 50 62 51 63 52 64 53 65
REMARK SMILES IDX 54 66 66 67 55 68 65 69 56 70 57 71 58 72 59 74 64 76 62 77
REMARK SMILES IDX 61 78 60 79 63 81
REMARK H PARENT 31 25 18 33 20 35 33 37 35 39 37 41 40 45 7 47 4 50 44 54
REMARK H PARENT 46 57 48 61 59 75 63 82
REMARK Flexibility Score: 90.00
ROOT
ATOM      1  C   UNL     1      29.677  33.139  15.166  1.00  0.00     0.176 C 
ENDROOT
BRANCH   1   2
ATOM      2  C   UNL     1      30.120  34.257  14.238  1.00  0.00     0.178 C 
ATOM      3  C   UNL     1      31.729  35.973  14.287  1.00  0.00     0.272 C 
ATOM      4  C   UNL     1      31.034  36.713  13.205  1.00  0.00     0.113 C 
ATOM      5  O   UNL     1      31.066  35.027  14.973  1.00  0.00    -0.332 OA
ATOM      6  C   UNL     1      29.828  36.039  12.660  1.00  0.00     0.145 C 
ATOM      7  C   UNL     1      29.114  35.221  13.781  1.00  0.00     0.142 C 
BRANCH   3   8
ATOM      8  O   UNL     1      32.323  36.919  15.148  1.00  0.00    -0.338 OA
BRANCH   8   9
ATOM      9  C   UNL     1      31.827  36.929  16.419  1.00  0.00     0.199 C 
BRANCH   9  10
ATOM     10  C   UNL     1      32.959  36.896  17.447  1.00  0.00     0.179 C 
ATOM     11  C   UNL     1      35.230  37.269  17.268  1.00  0.00     0.282 C 
ATOM     12  O   UNL     1      34.109  36.587  16.793  1.00  0.00    -0.341 OA
ATOM     13  C   UNL     1      34.960  38.723  16.928  1.00  0.00     0.202 C 
ATOM     14  C   UNL     1      33.904  39.190  17.905  1.00  0.00     0.179 C 
ATOM     15  C   UNL     1      32.963  38.103  18.319  1.00  0.00     0.177 C 
BRANCH  11  16
ATOM     16  O   UNL     1      36.355  36.757  16.666  1.00  0.00    -0.341 OA
BRANCH  16  17
ATOM     17  C   UNL     1      37.265  36.345  17.644  1.00  0.00     0.184 C 
ATOM     18  C   UNL     1      38.515  37.185  17.579  1.00  0.00     0.178 C 
ATOM     19  O   UNL     1      39.356  36.882  16.539  1.00  0.00    -0.341 OA
ATOM     20  C   UNL     1      38.981  35.754  15.813  1.00  0.00     0.281 C 
ATOM     21  C   UNL     1      37.556  34.870  17.583  1.00  0.00     0.180 C 
ATOM     22  C   UNL     1      38.779  34.575  16.759  1.00  0.00     0.202 C 
BRANCH  18  23
ATOM     23  C   UNL     1      39.274  37.123  18.897  1.00  0.00     0.191 C 
BRANCH  23  24
ATOM     24  O   UNL     1      38.425  37.044  19.985  1.00  0.00    -0.394 OA
ATOM     25  H   UNL     1      37.830  37.806  20.063  1.00  0.00     0.210 HD
ENDBRANCH  23  24
ENDBRANCH  18  23
BRANCH  20  26
ATOM     26  O   UNL     1      40.031  35.493  14.938  1.00  0.00    -0.350 OA
BRANCH  26  27
ATOM     27  C   UNL     1      39.705  36.009  13.688  1.00  0.00     0.169 C 
BRANCH  27  28
ATOM     28  C   UNL     1      39.793  34.942  12.611  1.00  0.00     0.119 C 
BRANCH  28  29
ATOM     29  N   UNL     1      39.050  33.759  12.994  1.00  0.00    -0.092 NA
ATOM     30  N   UNL     1      37.863  33.655  12.643  1.00  0.00     0.001 N 
ATOM     31  N   UNL     1      36.669  33.721  12.320  1.00  0.00    -0.003 NA
ENDBRANCH  28  29
ENDBRANCH  27  28
ENDBRANCH  26  27
ENDBRANCH  20  26
BRANCH  21  32
ATOM     32  O   UNL     1      37.717  34.356  18.869  1.00  0.00    -0.387 OA
ATOM     33  H   UNL     1      37.221  33.511  18.994  1.00  0.00     0.211 HD
ENDBRANCH  21  32
BRANCH  22  34
ATOM     34  O   UNL     1      38.616  33.410  16.019  1.00  0.00    -0.385 OA
ATOM     35  H   UNL     1      38.302  32.667  16.597  1.00  0.00     0.211 HD
ENDBRANCH  22  34
ENDBRANCH  16  17
ENDBRANCH  11  16
BRANCH  13  36
ATOM     36  O   UNL     1      36.061  39.534  16.993  1.00  0.00    -0.385 OA
ATOM     37  H   UNL     1      36.111  40.108  17.774  1.00  0.00     0.211 HD
ENDBRANCH  13  36
BRANCH  14  38
ATOM     38  O   UNL     1      33.255  40.270  17.307  1.00  0.00    -0.387 OA
ATOM     39  H   UNL     1      33.344  40.234  16.315  1.00  0.00     0.211 HD
ENDBRANCH  14  38
BRANCH  15  40
ATOM     40  O   UNL     1      31.643  38.596  18.347  1.00  0.00    -0.387 OA
ATOM     41  H   UNL     1      31.408  39.029  19.180  1.00  0.00     0.211 HD
ENDBRANCH  15  40
ENDBRANCH   9  10
ENDBRANCH   8   9
ENDBRANCH   3   8
BRANCH   3  42
ATOM     42  C   UNL     1      32.895  35.273  13.622  1.00  0.00     0.364 C 
ATOM     43  O   UNL     1      33.669  34.503  14.251  1.00  0.00    -0.246 OA
BRANCH  42  44
ATOM     44  O   UNL     1      33.095  35.504  12.271  1.00  0.00    -0.477 OA
ATOM     45  H   UNL     1      32.545  35.015  11.566  1.00  0.00     0.296 HD
ENDBRANCH  42  44
ENDBRANCH   3  42
BRANCH   6  46
ATOM     46  O   UNL     1      28.951  36.934  12.100  1.00  0.00    -0.391 OA
ATOM     47  H   UNL     1      29.433  37.567  11.526  1.00  0.00     0.211 HD
ENDBRANCH   6  46
BRANCH   7  48
ATOM     48  N   UNL     1      27.853  34.804  13.302  1.00  0.00    -0.348 N 
ATOM     49  C   UNL     1      26.686  35.025  14.076  1.00  0.00     0.217 C 
ATOM     50  H   UNL     1      27.751  34.362  12.370  1.00  0.00     0.163 HD
ATOM     51  C   UNL     1      25.348  34.596  13.592  1.00  0.00     0.114 C 
ATOM     52  O   UNL     1      26.781  35.592  15.191  1.00  0.00    -0.275 OA
ENDBRANCH   7  48
ENDBRANCH   1   2
BRANCH   1  53
ATOM     53  O   UNL     1      29.104  33.922  16.263  1.00  0.00    -0.388 OA
ATOM     54  H   UNL     1      28.103  33.893  16.154  1.00  0.00     0.211 HD
ENDBRANCH   1  53
BRANCH   1  55
ATOM     55  C   UNL     1      30.805  32.436  15.866  1.00  0.00     0.165 C 
BRANCH  55  56
ATOM     56  O   UNL     1      31.880  32.221  15.039  1.00  0.00    -0.388 OA
ATOM     57  H   UNL     1      31.651  31.784  14.189  1.00  0.00     0.211 HD
ENDBRANCH  55  56
BRANCH  55  58
ATOM     58  C   UNL     1      30.360  31.065  16.364  1.00  0.00     0.154 C 
BRANCH  58  59
ATOM     59  N   UNL     1      29.979  31.037  17.739  1.00  0.00    -0.319 N 
ATOM     60  C   UNL     1      28.626  30.941  18.166  1.00  0.00     0.407 C 
ATOM     61  H   UNL     1      30.728  31.091  18.493  1.00  0.00     0.167 HD
ATOM     62  O   UNL     1      27.745  30.882  17.261  1.00  0.00    -0.225 OA
BRANCH  60  63
ATOM     63  O   UNL     1      28.319  30.916  19.507  1.00  0.00    -0.443 OA
BRANCH  63  64
ATOM     64  C   UNL     1      28.101  32.128  20.225  1.00  0.00     0.294 C 
BRANCH  64  65
ATOM     65  C   UNL     1      29.351  32.918  20.170  1.00  0.00     0.120 A 
ATOM     66  C   UNL     1      30.448  32.833  20.987  1.00  0.00     0.138 A 
ATOM     67  N   UNL     1      29.619  33.888  19.278  1.00  0.00    -0.132 NA
ATOM     68  N   UNL     1      31.345  33.758  20.563  1.00  0.00    -0.249 N 
ATOM     69  N   UNL     1      30.814  34.378  19.530  1.00  0.00    -0.067 NA
BRANCH  68  70
ATOM     70  C   UNL     1      32.666  34.028  21.149  1.00  0.00     0.115 C 
BRANCH  70  71
ATOM     71  C   UNL     1      33.316  35.123  20.372  1.00  0.00     0.063 C 
BRANCH  71  72
ATOM     72  C   UNL     1      34.824  34.858  20.306  1.00  0.00     0.139 CG0
ATOM     73  G   UNL     1      35.147  33.708  21.167  1.00  0.00     0.000 G0
BRANCH  72  74
ATOM     74  O   UNL     1      35.523  35.998  20.697  1.00  0.00    -0.389 OA
ATOM     75  H   UNL     1      35.814  36.476  19.869  1.00  0.00     0.211 HD
ENDBRANCH  72  74
ENDBRANCH  71  72
ENDBRANCH  70  71
BRANCH  70  76
ATOM     76  C   UNL     1      32.480  34.412  22.583  1.00  0.00     0.063 C 
BRANCH  76  77
ATOM     77  C   UNL     1      33.842  34.234  23.264  1.00  0.00     0.139 C 
BRANCH  77  78
ATOM     78  C   UNL     1      34.724  33.402  22.403  1.00  0.00     0.002 C 
ATOM     79  C   UNL     1      35.124  33.700  21.175  1.00  0.00     0.002 CG0
ATOM     80  G   UNL     1      34.824  34.882  20.349  1.00  0.00     0.000 G0
ENDBRANCH  77  78
BRANCH  77  81
ATOM     81  O   UNL     1      34.427  35.454  23.564  1.00  0.00    -0.389 OA
ATOM     82  H   UNL     1      34.356  36.028  22.750  1.00  0.00     0.211 HD
ENDBRANCH  77  81
ENDBRANCH  76  77
ENDBRANCH  70  76
ENDBRANCH  68  70
ENDBRANCH  64  65
ENDBRANCH  63  64
ENDBRANCH  60  63
ENDBRANCH  58  59
ENDBRANCH  55  58
ENDBRANCH   1  55
TORSDOF 32
BEGIN_RES LYS A 131
REMARK  4 active torsions:
REMARK  status: ('A' for Active; 'I' for Inactive)
REMARK    1  A    between atoms: CA   and  CB  
REMARK    2  A    between atoms: CB   and  CG  
REMARK    3  A    between atoms: CG   and  CD  
REMARK    4  A    between atoms: CD   and  CE  
ROOT
ATOM      1  CA  LYS A 131      29.867  25.555  16.977  1.00 20.52     0.186 C 
ENDROOT
BRANCH   1   2
ATOM      2  CB  LYS A 131      28.345  25.722  17.026  1.00 20.94     0.034 C 
BRANCH   2   3
ATOM      3  CG  LYS A 131      27.609  24.397  17.148  1.00 22.96     0.005 C 
BRANCH   3   4
ATOM      4  CD  LYS A 131      26.228  24.566  17.719  1.00 24.33     0.041 C 
BRANCH   4   5
ATOM      5  CE  LYS A 131      25.779  23.258  18.363  1.00 26.91     0.338 C 
ATOM      6  NZ  LYS A 131      25.470  22.248  17.324  1.00 27.40     0.618 N 
ENDBRANCH   4   5
ENDBRANCH   3   4
ENDBRANCH   2   3
ENDBRANCH   1   2
END_RES LYS A 131
BEGIN_RES LYS A 135
REMARK  4 active torsions:
REMARK  status: ('A' for Active; 'I' for Inactive)
REMARK    5  A    between atoms: CA   and  CB  
REMARK    6  A    between atoms: CB   and  CG  
REMARK    7  A    between atoms: CG   and  CD  
REMARK    8  A    between atoms: CD   and  CE  
ROOT
ATOM      7  CA  LYS A 135      33.193  34.663   9.290  1.00 25.02     0.186 C 
ENDROOT
BRANCH   7   8
ATOM      8  CB  LYS A 135      32.060  35.360  10.034  1.00 26.63     0.034 C 
BRANCH   8   9
ATOM      9  CG  LYS A 135      30.832  35.583   9.190  1.00 29.45     0.005 C 
BRANCH   9  10
ATOM     10  CD  LYS A 135      30.152  34.260   8.871  1.00 32.00     0.041 C 
BRANCH  10  11
ATOM     11  CE  LYS A 135      28.655  34.453   8.721  1.00 34.25     0.338 C 
ATOM     12  NZ  LYS A 135      27.912  33.748   9.801  1.00 35.99     0.618 N 
ENDBRANCH  10  11
ENDBRANCH   9  10
ENDBRANCH   8   9
ENDBRANCH   7   8
END_RES LYS A 135
