REMARK VINA RESULT:    -4.914      2.895      5.919
REMARK INTER + INTRA:         -22.112
REMARK INTER:                 -10.937
REMARK INTRA:                 -11.175
REMARK UNBOUND:                -9.729
REMARK SMILES CC(=O)N[C@@H]1[C@@H](O)C[C@](OC[C@H]2O[C@@H](O[C@H]3[C@H](O)[C@@H](O)[C@H](OCCN=[N+]=[N-])O[C@@H]3CO)[C@H](O)[C@@H](O)[C@H]2O)(C(=O)O)O[C@H]1C(O)[C@H](O)CNC(=O)OCc1cn(-c2ncccc2C#N)nn1
REMARK SMILES IDX 9 1 8 2 6 3 5 4 42 5 41 6 10 7 11 8 12 9 14 10 13 11 32 12
REMARK SMILES IDX 34 13 36 14 15 15 16 16 29 17 28 18 21 19 17 20 19 21 30 22
REMARK SMILES IDX 31 23 22 25 23 26 24 27 25 28 26 29 27 30 18 31 20 33 33 35
REMARK SMILES IDX 35 37 37 39 38 41 39 42 40 43 7 45 43 47 44 48 45 50 46 51
REMARK SMILES IDX 47 53 48 54 49 55 50 57 51 58 52 59 53 60 54 61 65 62 55 63
REMARK SMILES IDX 64 64 56 65 57 66 61 67 58 68 60 69 59 70 62 71 63 72 4 73
REMARK SMILES IDX 2 74 1 76 3 77
REMARK H PARENT 31 24 18 32 20 34 33 36 35 38 37 40 40 44 7 46 44 49 46 52
REMARK H PARENT 48 56 4 75
REMARK Flexibility Score: inf
ROOT
ATOM      1  C   UNL     1      29.946  30.959  20.356  1.00  0.00     0.272 C 
ATOM      2  C   UNL     1      31.057  30.189  19.780  1.00  0.00     0.113 C 
ATOM      3  C   UNL     1      31.589  29.146  20.683  1.00  0.00     0.145 C 
ATOM      4  C   UNL     1      30.629  28.554  21.661  1.00  0.00     0.142 C 
ATOM      5  C   UNL     1      29.204  29.019  21.562  1.00  0.00     0.178 C 
ATOM      6  O   UNL     1      29.035  30.231  21.086  1.00  0.00    -0.332 OA
ENDROOT
BRANCH   1   7
ATOM      7  O   UNL     1      29.190  31.758  19.598  1.00  0.00    -0.338 OA
BRANCH   7   8
ATOM      8  C   UNL     1      28.184  32.551  19.802  1.00  0.00     0.199 C 
BRANCH   8   9
ATOM      9  C   UNL     1      27.669  32.995  18.428  1.00  0.00     0.179 C 
ATOM     10  C   UNL     1      25.817  33.526  17.233  1.00  0.00     0.282 C 
ATOM     11  O   UNL     1      26.338  32.706  18.300  1.00  0.00    -0.341 OA
ATOM     12  C   UNL     1      25.722  34.935  17.693  1.00  0.00     0.202 C 
ATOM     13  C   UNL     1      27.056  35.415  18.272  1.00  0.00     0.179 C 
ATOM     14  C   UNL     1      28.074  34.365  18.028  1.00  0.00     0.177 C 
BRANCH  10  15
ATOM     15  O   UNL     1      24.635  33.039  16.796  1.00  0.00    -0.341 OA
BRANCH  15  16
ATOM     16  C   UNL     1      24.620  32.581  15.509  1.00  0.00     0.184 C 
ATOM     17  C   UNL     1      23.166  32.616  14.955  1.00  0.00     0.178 C 
ATOM     18  O   UNL     1      22.728  31.301  14.813  1.00  0.00    -0.341 OA
ATOM     19  C   UNL     1      22.869  30.599  16.019  1.00  0.00     0.281 C 
ATOM     20  C   UNL     1      25.146  31.180  15.331  1.00  0.00     0.180 C 
ATOM     21  C   UNL     1      24.312  30.211  16.178  1.00  0.00     0.202 C 
BRANCH  17  22
ATOM     22  C   UNL     1      23.167  33.365  13.661  1.00  0.00     0.191 C 
BRANCH  22  23
ATOM     23  O   UNL     1      24.472  33.674  13.234  1.00  0.00    -0.394 OA
ATOM     24  H   UNL     1      25.002  32.862  13.050  1.00  0.00     0.210 HD
ENDBRANCH  22  23
ENDBRANCH  17  22
BRANCH  19  25
ATOM     25  O   UNL     1      22.025  29.515  15.946  1.00  0.00    -0.350 OA
BRANCH  25  26
ATOM     26  C   UNL     1      22.582  28.478  15.175  1.00  0.00     0.169 C 
BRANCH  26  27
ATOM     27  C   UNL     1      22.138  27.130  15.704  1.00  0.00     0.119 C 
BRANCH  27  28
ATOM     28  N   UNL     1      23.249  26.624  16.521  1.00  0.00    -0.092 NA
ATOM     29  N   UNL     1      23.275  27.038  17.709  1.00  0.00     0.001 N 
ATOM     30  N   UNL     1      23.573  27.657  18.742  1.00  0.00    -0.003 NA
ENDBRANCH  27  28
ENDBRANCH  26  27
ENDBRANCH  25  26
ENDBRANCH  19  25
BRANCH  20  31
ATOM     31  O   UNL     1      25.145  30.766  14.020  1.00  0.00    -0.387 OA
ATOM     32  H   UNL     1      24.744  31.356  13.362  1.00  0.00     0.211 HD
ENDBRANCH  20  31
BRANCH  21  33
ATOM     33  O   UNL     1      24.730  30.268  17.504  1.00  0.00    -0.385 OA
ATOM     34  H   UNL     1      25.708  30.458  17.491  1.00  0.00     0.211 HD
ENDBRANCH  21  33
ENDBRANCH  15  16
ENDBRANCH  10  15
BRANCH  12  35
ATOM     35  O   UNL     1      25.360  35.772  16.652  1.00  0.00    -0.385 OA
ATOM     36  H   UNL     1      24.746  35.244  16.043  1.00  0.00     0.211 HD
ENDBRANCH  12  35
BRANCH  13  37
ATOM     37  O   UNL     1      26.891  35.671  19.654  1.00  0.00    -0.387 OA
ATOM     38  H   UNL     1      27.601  36.296  19.971  1.00  0.00     0.211 HD
ENDBRANCH  13  37
BRANCH  14  39
ATOM     39  O   UNL     1      29.329  34.665  18.564  1.00  0.00    -0.387 OA
ATOM     40  H   UNL     1      30.056  34.336  17.944  1.00  0.00     0.211 HD
ENDBRANCH  14  39
ENDBRANCH   8   9
ENDBRANCH   7   8
ENDBRANCH   1   7
BRANCH   1  41
ATOM     41  C   UNL     1      30.596  31.893  21.377  1.00  0.00     0.364 C 
ATOM     42  O   UNL     1      30.366  31.883  22.574  1.00  0.00    -0.246 OA
BRANCH  41  43
ATOM     43  O   UNL     1      31.532  32.844  20.923  1.00  0.00    -0.477 OA
ATOM     44  H   UNL     1      32.402  32.583  20.486  1.00  0.00     0.296 HD
ENDBRANCH  41  43
ENDBRANCH   1  41
BRANCH   3  45
ATOM     45  O   UNL     1      32.256  28.147  19.948  1.00  0.00    -0.391 OA
ATOM     46  H   UNL     1      31.618  27.360  19.961  1.00  0.00     0.211 HD
ENDBRANCH   3  45
BRANCH   5  47
ATOM     47  C   UNL     1      28.316  27.954  20.857  1.00  0.00     0.176 C 
BRANCH  47  48
ATOM     48  O   UNL     1      29.171  27.295  19.925  1.00  0.00    -0.388 OA
ATOM     49  H   UNL     1      29.159  26.332  20.063  1.00  0.00     0.211 HD
ENDBRANCH  47  48
BRANCH  47  50
ATOM     50  C   UNL     1      27.191  28.450  20.108  1.00  0.00     0.165 C 
BRANCH  50  51
ATOM     51  O   UNL     1      25.945  27.804  20.304  1.00  0.00    -0.388 OA
ATOM     52  H   UNL     1      25.228  28.508  20.386  1.00  0.00     0.211 HD
ENDBRANCH  50  51
BRANCH  50  53
ATOM     53  C   UNL     1      27.360  28.428  18.622  1.00  0.00     0.154 C 
BRANCH  53  54
ATOM     54  N   UNL     1      27.951  29.519  17.954  1.00  0.00    -0.319 N 
ATOM     55  C   UNL     1      28.167  29.721  16.591  1.00  0.00     0.407 C 
ATOM     56  H   UNL     1      28.307  30.340  18.580  1.00  0.00     0.167 HD
ATOM     57  O   UNL     1      27.783  28.828  15.797  1.00  0.00    -0.225 OA
BRANCH  55  58
ATOM     58  O   UNL     1      28.791  30.906  16.152  1.00  0.00    -0.443 OA
BRANCH  58  59
ATOM     59  C   UNL     1      30.172  31.038  16.316  1.00  0.00     0.294 C 
BRANCH  59  60
ATOM     60  C   UNL     1      30.635  32.398  16.114  1.00  0.00     0.121 A 
ATOM     61  C   UNL     1      30.512  33.122  14.989  1.00  0.00     0.146 A 
ATOM     62  N   UNL     1      31.351  33.182  17.031  1.00  0.00    -0.131 NA
ATOM     63  N   UNL     1      31.103  34.300  15.138  1.00  0.00    -0.201 N 
ATOM     64  N   UNL     1      31.569  34.268  16.350  1.00  0.00    -0.060 NA
BRANCH  63  65
ATOM     65  C   UNL     1      31.189  35.410  14.270  1.00  0.00     0.173 A 
ATOM     66  N   UNL     1      30.066  36.168  14.173  1.00  0.00    -0.236 NA
ATOM     67  C   UNL     1      32.303  35.630  13.449  1.00  0.00     0.097 A 
ATOM     68  C   UNL     1      30.049  37.216  13.178  1.00  0.00     0.113 A 
ATOM     69  C   UNL     1      32.210  36.642  12.519  1.00  0.00     0.025 A 
ATOM     70  C   UNL     1      31.106  37.381  12.421  1.00  0.00     0.022 A 
BRANCH  67  71
ATOM     71  C   UNL     1      33.551  34.946  13.566  1.00  0.00     0.103 C 
ATOM     72  N   UNL     1      34.618  34.385  13.667  1.00  0.00    -0.192 NA
ENDBRANCH  67  71
ENDBRANCH  63  65
ENDBRANCH  59  60
ENDBRANCH  58  59
ENDBRANCH  55  58
ENDBRANCH  53  54
ENDBRANCH  50  53
ENDBRANCH  47  50
ENDBRANCH   5  47
BRANCH   4  73
ATOM     73  N   UNL     1      31.267  28.661  22.955  1.00  0.00    -0.348 N 
ATOM     74  C   UNL     1      32.344  27.919  23.448  1.00  0.00     0.217 C 
ATOM     75  H   UNL     1      30.869  29.392  23.650  1.00  0.00     0.163 HD
ATOM     76  C   UNL     1      32.916  28.209  24.823  1.00  0.00     0.114 C 
ATOM     77  O   UNL     1      32.918  26.992  22.836  1.00  0.00    -0.275 OA
ENDBRANCH   4  73
TORSDOF 31
BEGIN_RES LYS A 131
REMARK  4 active torsions:
REMARK  status: ('A' for Active; 'I' for Inactive)
REMARK    1  A    between atoms: CA   and  CB  
REMARK    2  A    between atoms: CB   and  CG  
REMARK    3  A    between atoms: CG   and  CD  
REMARK    4  A    between atoms: CD   and  CE  
ROOT
ATOM      1  CA  LYS A 131      29.867  25.555  16.977  1.00 20.52     0.186 C 
ENDROOT
BRANCH   1   2
ATOM      2  CB  LYS A 131      28.345  25.722  17.026  1.00 20.94     0.034 C 
BRANCH   2   3
ATOM      3  CG  LYS A 131      27.602  24.397  16.944  1.00 22.96     0.005 C 
BRANCH   3   4
ATOM      4  CD  LYS A 131      26.145  24.543  17.283  1.00 24.33     0.041 C 
BRANCH   4   5
ATOM      5  CE  LYS A 131      25.979  24.627  18.797  1.00 26.91     0.338 C 
ATOM      6  NZ  LYS A 131      24.655  24.101  19.204  1.00 27.40     0.618 N 
ENDBRANCH   4   5
ENDBRANCH   3   4
ENDBRANCH   2   3
ENDBRANCH   1   2
END_RES LYS A 131
BEGIN_RES LYS A 135
REMARK  4 active torsions:
REMARK  status: ('A' for Active; 'I' for Inactive)
REMARK    5  A    between atoms: CA   and  CB  
REMARK    6  A    between atoms: CB   and  CG  
REMARK    7  A    between atoms: CG   and  CD  
REMARK    8  A    between atoms: CD   and  CE  
ROOT
ATOM      7  CA  LYS A 135      33.193  34.663   9.290  1.00 25.02     0.186 C 
ENDROOT
BRANCH   7   8
ATOM      8  CB  LYS A 135      32.060  35.360  10.034  1.00 26.63     0.034 C 
BRANCH   8   9
ATOM      9  CG  LYS A 135      30.697  34.800   9.717  1.00 29.45     0.005 C 
BRANCH   9  10
ATOM     10  CD  LYS A 135      30.328  35.076   8.268  1.00 32.00     0.041 C 
BRANCH  10  11
ATOM     11  CE  LYS A 135      28.861  34.774   8.026  1.00 34.25     0.338 C 
ATOM     12  NZ  LYS A 135      28.378  35.429   6.779  1.00 35.99     0.618 N 
ENDBRANCH  10  11
ENDBRANCH   9  10
ENDBRANCH   8   9
ENDBRANCH   7   8
END_RES LYS A 135
