REMARK VINA RESULT:    -5.097      1.992      2.264
REMARK INTER + INTRA:         -22.964
REMARK INTER:                 -11.080
REMARK INTRA:                 -11.884
REMARK UNBOUND:               -10.416
REMARK SMILES CC(=O)N[C@@H]1[C@@H](O)C[C@](OC[C@H]2O[C@@H](O[C@H]3[C@H](O)[C@@H](O)[C@H](OCCN=[N+]=[N-])O[C@@H]3CO)[C@H](O)[C@@H](O)[C@H]2O)(C(=O)O)O[C@H]1C(O)[C@H](O)CNC(=O)OCc1cn(-c2ccc3c(c2)OCO3)nn1
REMARK SMILES IDX 9 1 8 2 6 3 5 4 42 5 41 6 10 7 11 8 12 9 14 10 13 11 32 12
REMARK SMILES IDX 34 13 36 14 15 15 16 16 29 17 28 18 21 19 17 20 19 21 30 22
REMARK SMILES IDX 31 23 22 25 23 26 24 27 25 28 26 29 27 30 18 31 20 33 33 35
REMARK SMILES IDX 35 37 37 39 38 41 39 42 40 43 7 45 43 47 44 48 45 50 46 51
REMARK SMILES IDX 47 53 48 54 49 55 50 57 51 58 52 59 53 60 54 61 66 62 55 63
REMARK SMILES IDX 65 64 56 65 57 66 61 67 58 68 60 69 59 70 62 71 64 72 63 73
REMARK SMILES IDX 4 74 2 75 1 77 3 78
REMARK H PARENT 31 24 18 32 20 34 33 36 35 38 37 40 40 44 7 46 44 49 46 52
REMARK H PARENT 48 56 4 76
REMARK Flexibility Score: inf
ROOT
ATOM      1  C   UNL     1      29.892  32.862  17.698  1.00  0.00     0.272 C 
ATOM      2  C   UNL     1      30.404  31.480  17.400  1.00  0.00     0.113 C 
ATOM      3  C   UNL     1      29.673  30.841  16.205  1.00  0.00     0.145 C 
ATOM      4  C   UNL     1      28.255  30.612  16.685  1.00  0.00     0.142 C 
ATOM      5  C   UNL     1      27.774  31.956  17.193  1.00  0.00     0.178 C 
ATOM      6  O   UNL     1      28.640  32.983  17.030  1.00  0.00    -0.332 OA
ENDROOT
BRANCH   1   7
ATOM      7  O   UNL     1      30.638  33.841  17.213  1.00  0.00    -0.338 OA
BRANCH   7   8
ATOM      8  C   UNL     1      31.831  33.898  16.705  1.00  0.00     0.199 C 
BRANCH   8   9
ATOM      9  C   UNL     1      32.091  34.427  15.320  1.00  0.00     0.179 C 
ATOM     10  C   UNL     1      30.934  34.714  13.319  1.00  0.00     0.282 C 
ATOM     11  O   UNL     1      31.047  34.053  14.514  1.00  0.00    -0.341 OA
ATOM     12  C   UNL     1      32.119  35.551  12.969  1.00  0.00     0.202 C 
ATOM     13  C   UNL     1      32.453  36.545  14.069  1.00  0.00     0.179 C 
ATOM     14  C   UNL     1      32.139  35.974  15.414  1.00  0.00     0.177 C 
BRANCH  10  15
ATOM     15  O   UNL     1      29.841  35.595  13.441  1.00  0.00    -0.341 OA
BRANCH  15  16
ATOM     16  C   UNL     1      28.704  35.133  12.831  1.00  0.00     0.184 C 
ATOM     17  C   UNL     1      28.060  36.251  12.055  1.00  0.00     0.178 C 
ATOM     18  O   UNL     1      27.217  37.038  12.805  1.00  0.00    -0.341 OA
ATOM     19  C   UNL     1      27.576  37.089  14.152  1.00  0.00     0.281 C 
ATOM     20  C   UNL     1      27.800  34.595  13.916  1.00  0.00     0.180 C 
ATOM     21  C   UNL     1      27.427  35.746  14.823  1.00  0.00     0.202 C 
BRANCH  17  22
ATOM     22  C   UNL     1      27.256  35.722  10.876  1.00  0.00     0.191 C 
BRANCH  22  23
ATOM     23  O   UNL     1      27.521  34.378  10.647  1.00  0.00    -0.394 OA
ATOM     24  H   UNL     1      27.938  34.217   9.745  1.00  0.00     0.210 HD
ENDBRANCH  22  23
ENDBRANCH  17  22
BRANCH  19  25
ATOM     25  O   UNL     1      26.680  37.967  14.747  1.00  0.00    -0.350 OA
BRANCH  25  26
ATOM     26  C   UNL     1      27.064  39.270  14.447  1.00  0.00     0.169 C 
BRANCH  26  27
ATOM     27  C   UNL     1      27.201  40.107  15.714  1.00  0.00     0.119 C 
BRANCH  27  28
ATOM     28  N   UNL     1      28.051  39.336  16.634  1.00  0.00    -0.092 NA
ATOM     29  N   UNL     1      29.288  39.341  16.457  1.00  0.00     0.001 N 
ATOM     30  N   UNL     1      30.471  39.433  16.084  1.00  0.00    -0.003 NA
ENDBRANCH  27  28
ENDBRANCH  26  27
ENDBRANCH  25  26
ENDBRANCH  19  25
BRANCH  20  31
ATOM     31  O   UNL     1      26.696  33.925  13.428  1.00  0.00    -0.387 OA
ATOM     32  H   UNL     1      26.903  33.300  12.673  1.00  0.00     0.211 HD
ENDBRANCH  20  31
BRANCH  21  33
ATOM     33  O   UNL     1      28.300  35.721  15.913  1.00  0.00    -0.385 OA
ATOM     34  H   UNL     1      27.958  36.226  16.693  1.00  0.00     0.211 HD
ENDBRANCH  21  33
ENDBRANCH  15  16
ENDBRANCH  10  15
BRANCH  12  35
ATOM     35  O   UNL     1      33.267  34.826  12.663  1.00  0.00    -0.385 OA
ATOM     36  H   UNL     1      34.064  35.410  12.865  1.00  0.00     0.211 HD
ENDBRANCH  12  35
BRANCH  13  37
ATOM     37  O   UNL     1      31.710  37.705  13.838  1.00  0.00    -0.387 OA
ATOM     38  H   UNL     1      31.645  37.953  12.897  1.00  0.00     0.211 HD
ENDBRANCH  13  37
BRANCH  14  39
ATOM     39  O   UNL     1      30.899  36.457  15.822  1.00  0.00    -0.387 OA
ATOM     40  H   UNL     1      30.719  37.370  15.544  1.00  0.00     0.211 HD
ENDBRANCH  14  39
ENDBRANCH   8   9
ENDBRANCH   7   8
ENDBRANCH   1   7
BRANCH   1  41
ATOM     41  C   UNL     1      29.576  33.012  19.155  1.00  0.00     0.364 C 
ATOM     42  O   UNL     1      29.944  32.041  19.905  1.00  0.00    -0.246 OA
BRANCH  41  43
ATOM     43  O   UNL     1      28.945  34.064  19.737  1.00  0.00    -0.477 OA
ATOM     44  H   UNL     1      28.243  33.977  20.455  1.00  0.00     0.296 HD
ENDBRANCH  41  43
ENDBRANCH   1  41
BRANCH   3  45
ATOM     45  O   UNL     1      29.713  31.805  15.189  1.00  0.00    -0.391 OA
ATOM     46  H   UNL     1      28.984  31.659  14.547  1.00  0.00     0.211 HD
ENDBRANCH   3  45
BRANCH   5  47
ATOM     47  C   UNL     1      26.564  32.296  16.299  1.00  0.00     0.176 C 
BRANCH  47  48
ATOM     48  O   UNL     1      26.305  31.340  15.361  1.00  0.00    -0.388 OA
ATOM     49  H   UNL     1      25.440  30.873  15.476  1.00  0.00     0.211 HD
ENDBRANCH  47  48
BRANCH  47  50
ATOM     50  C   UNL     1      25.319  32.551  17.139  1.00  0.00     0.165 C 
BRANCH  50  51
ATOM     51  O   UNL     1      24.528  31.458  17.256  1.00  0.00    -0.388 OA
ATOM     52  H   UNL     1      24.160  31.082  16.430  1.00  0.00     0.211 HD
ENDBRANCH  50  51
BRANCH  50  53
ATOM     53  C   UNL     1      24.605  33.695  16.490  1.00  0.00     0.154 C 
BRANCH  53  54
ATOM     54  N   UNL     1      24.341  33.464  15.104  1.00  0.00    -0.319 N 
ATOM     55  C   UNL     1      23.186  32.834  14.573  1.00  0.00     0.407 C 
ATOM     56  H   UNL     1      25.049  33.775  14.349  1.00  0.00     0.167 HD
ATOM     57  O   UNL     1      22.272  32.435  15.323  1.00  0.00    -0.225 OA
BRANCH  55  58
ATOM     58  O   UNL     1      23.031  32.640  13.198  1.00  0.00    -0.443 OA
BRANCH  58  59
ATOM     59  C   UNL     1      21.860  32.957  12.496  1.00  0.00     0.294 C 
BRANCH  59  60
ATOM     60  C   UNL     1      22.031  34.312  11.871  1.00  0.00     0.121 A 
ATOM     61  C   UNL     1      23.216  34.816  11.331  1.00  0.00     0.144 A 
ATOM     62  N   UNL     1      21.121  35.278  11.697  1.00  0.00    -0.131 NA
ATOM     63  N   UNL     1      22.978  36.059  10.858  1.00  0.00    -0.220 N 
ATOM     64  N   UNL     1      21.698  36.292  11.102  1.00  0.00    -0.062 NA
BRANCH  63  65
ATOM     65  C   UNL     1      23.879  36.937  10.228  1.00  0.00     0.070 A 
ATOM     66  C   UNL     1      24.236  38.114  10.824  1.00  0.00     0.032 A 
ATOM     67  C   UNL     1      24.416  36.621   9.003  1.00  0.00     0.079 A 
ATOM     68  C   UNL     1      25.137  38.977  10.185  1.00  0.00     0.053 A 
ATOM     69  C   UNL     1      25.303  37.458   8.361  1.00  0.00     0.167 A 
ATOM     70  C   UNL     1      25.659  38.638   8.961  1.00  0.00     0.165 A 
ATOM     71  O   UNL     1      25.954  37.347   7.152  1.00  0.00    -0.454 OA
ATOM     72  O   UNL     1      26.553  39.291   8.122  1.00  0.00    -0.454 OA
ATOM     73  C   UNL     1      26.511  38.639   6.882  1.00  0.00     0.468 C 
ENDBRANCH  63  65
ENDBRANCH  59  60
ENDBRANCH  58  59
ENDBRANCH  55  58
ENDBRANCH  53  54
ENDBRANCH  50  53
ENDBRANCH  47  50
ENDBRANCH   5  47
BRANCH   4  74
ATOM     74  N   UNL     1      28.249  29.573  17.669  1.00  0.00    -0.348 N 
ATOM     75  C   UNL     1      27.102  28.718  17.858  1.00  0.00     0.217 C 
ATOM     76  H   UNL     1      29.040  29.355  18.310  1.00  0.00     0.163 HD
ATOM     77  C   UNL     1      27.108  27.641  18.884  1.00  0.00     0.114 C 
ATOM     78  O   UNL     1      26.101  28.887  17.154  1.00  0.00    -0.275 OA
ENDBRANCH   4  74
TORSDOF 30
BEGIN_RES LYS A 131
REMARK  4 active torsions:
REMARK  status: ('A' for Active; 'I' for Inactive)
REMARK    1  A    between atoms: CA   and  CB  
REMARK    2  A    between atoms: CB   and  CG  
REMARK    3  A    between atoms: CG   and  CD  
REMARK    4  A    between atoms: CD   and  CE  
ROOT
ATOM      1  CA  LYS A 131      29.867  25.555  16.977  1.00 20.52     0.186 C 
ENDROOT
BRANCH   1   2
ATOM      2  CB  LYS A 131      28.345  25.722  17.026  1.00 20.94     0.034 C 
BRANCH   2   3
ATOM      3  CG  LYS A 131      27.601  24.405  16.870  1.00 22.96     0.005 C 
BRANCH   3   4
ATOM      4  CD  LYS A 131      26.363  24.349  17.722  1.00 24.33     0.041 C 
BRANCH   4   5
ATOM      5  CE  LYS A 131      25.689  22.992  17.552  1.00 26.91     0.338 C 
ATOM      6  NZ  LYS A 131      24.850  22.678  18.732  1.00 27.40     0.618 N 
ENDBRANCH   4   5
ENDBRANCH   3   4
ENDBRANCH   2   3
ENDBRANCH   1   2
END_RES LYS A 131
BEGIN_RES LYS A 135
REMARK  4 active torsions:
REMARK  status: ('A' for Active; 'I' for Inactive)
REMARK    5  A    between atoms: CA   and  CB  
REMARK    6  A    between atoms: CB   and  CG  
REMARK    7  A    between atoms: CG   and  CD  
REMARK    8  A    between atoms: CD   and  CE  
ROOT
ATOM      7  CA  LYS A 135      33.193  34.663   9.290  1.00 25.02     0.186 C 
ENDROOT
BRANCH   7   8
ATOM      8  CB  LYS A 135      32.060  35.360  10.034  1.00 26.63     0.034 C 
BRANCH   8   9
ATOM      9  CG  LYS A 135      30.693  34.830   9.684  1.00 29.45     0.005 C 
BRANCH   9  10
ATOM     10  CD  LYS A 135      30.602  34.522   8.197  1.00 32.00     0.041 C 
BRANCH  10  11
ATOM     11  CE  LYS A 135      29.373  35.174   7.593  1.00 34.25     0.338 C 
ATOM     12  NZ  LYS A 135      29.267  36.602   8.003  1.00 35.99     0.618 N 
ENDBRANCH  10  11
ENDBRANCH   9  10
ENDBRANCH   8   9
ENDBRANCH   7   8
END_RES LYS A 135
