REMARK VINA RESULT:    -5.292      5.359     11.830
REMARK INTER + INTRA:         -21.132
REMARK INTER:                  -9.984
REMARK INTRA:                 -11.148
REMARK UNBOUND:                -8.107
REMARK SMILES CC(=O)N[C@@H]1[C@@H](O)C[C@](OC[C@H]2O[C@@H](O[C@H]3[C@H](O)[C@@H](O)[C@H](OCCN=[N+]=[N-])O[C@@H]3CO)[C@H](O)[C@@H](O)[C@H]2O)(C(=O)O)O[C@H]1C(O)[C@H](O)CNC(=O)OCc1cn(C2CCN(C)CC2)nn1
REMARK SMILES IDX 9 1 8 2 6 3 5 4 42 5 41 6 10 7 11 8 12 9 14 10 13 11 32 12
REMARK SMILES IDX 34 13 36 14 15 15 16 16 29 17 28 18 21 19 17 20 19 21 30 22
REMARK SMILES IDX 31 23 22 25 23 26 24 27 25 28 26 29 27 30 18 31 20 33 33 35
REMARK SMILES IDX 35 37 37 39 38 41 39 42 40 43 7 45 43 47 44 48 45 50 46 51
REMARK SMILES IDX 47 53 48 54 49 55 50 57 51 58 52 59 53 60 54 61 64 62 55 63
REMARK SMILES IDX 63 64 56 65 57 66 62 67 58 68 61 69 59 70 60 71 4 72 2 73
REMARK SMILES IDX 1 75 3 76
REMARK H PARENT 31 24 18 32 20 34 33 36 35 38 37 40 40 44 7 46 44 49 46 52
REMARK H PARENT 48 56 4 74
REMARK Flexibility Score: inf
ROOT
ATOM      1  C   UNL     1      28.416  34.897  13.883  1.00  0.00     0.272 C 
ATOM      2  C   UNL     1      29.590  33.949  13.723  1.00  0.00     0.113 C 
ATOM      3  C   UNL     1      30.195  33.443  14.966  1.00  0.00     0.145 C 
ATOM      4  C   UNL     1      29.210  33.120  16.068  1.00  0.00     0.142 C 
ATOM      5  C   UNL     1      27.911  33.815  15.920  1.00  0.00     0.178 C 
ATOM      6  O   UNL     1      27.483  34.214  14.729  1.00  0.00    -0.332 OA
ENDROOT
BRANCH   1   7
ATOM      7  O   UNL     1      27.756  34.954  12.716  1.00  0.00    -0.338 OA
BRANCH   7   8
ATOM      8  C   UNL     1      26.947  35.812  12.194  1.00  0.00     0.199 C 
BRANCH   8   9
ATOM      9  C   UNL     1      26.247  35.624  10.884  1.00  0.00     0.179 C 
ATOM     10  C   UNL     1      23.903  35.490  11.316  1.00  0.00     0.282 C 
ATOM     11  O   UNL     1      25.113  34.907  11.146  1.00  0.00    -0.341 OA
ATOM     12  C   UNL     1      23.912  36.955  11.264  1.00  0.00     0.202 C 
ATOM     13  C   UNL     1      24.623  37.320   9.949  1.00  0.00     0.179 C 
ATOM     14  C   UNL     1      26.034  36.887  10.117  1.00  0.00     0.177 C 
BRANCH  10  15
ATOM     15  O   UNL     1      23.386  34.878  12.451  1.00  0.00    -0.341 OA
BRANCH  15  16
ATOM     16  C   UNL     1      23.225  33.555  12.426  1.00  0.00     0.184 C 
ATOM     17  C   UNL     1      21.832  33.167  12.785  1.00  0.00     0.178 C 
ATOM     18  O   UNL     1      21.605  31.859  12.341  1.00  0.00    -0.341 OA
ATOM     19  C   UNL     1      22.373  30.980  13.068  1.00  0.00     0.281 C 
ATOM     20  C   UNL     1      24.090  32.801  13.449  1.00  0.00     0.180 C 
ATOM     21  C   UNL     1      23.836  31.327  13.147  1.00  0.00     0.202 C 
BRANCH  17  22
ATOM     22  C   UNL     1      20.771  34.113  12.338  1.00  0.00     0.191 C 
BRANCH  22  23
ATOM     23  O   UNL     1      20.760  34.150  10.950  1.00  0.00    -0.394 OA
ATOM     24  H   UNL     1      20.869  33.249  10.553  1.00  0.00     0.210 HD
ENDBRANCH  22  23
ENDBRANCH  17  22
BRANCH  19  25
ATOM     25  O   UNL     1      22.307  29.750  12.399  1.00  0.00    -0.350 OA
BRANCH  25  26
ATOM     26  C   UNL     1      21.031  29.294  12.187  1.00  0.00     0.169 C 
BRANCH  26  27
ATOM     27  C   UNL     1      20.518  28.390  13.290  1.00  0.00     0.119 C 
BRANCH  27  28
ATOM     28  N   UNL     1      19.559  29.084  14.128  1.00  0.00    -0.092 NA
ATOM     29  N   UNL     1      19.880  29.519  15.232  1.00  0.00     0.001 N 
ATOM     30  N   UNL     1      19.915  29.583  16.462  1.00  0.00    -0.003 NA
ENDBRANCH  27  28
ENDBRANCH  26  27
ENDBRANCH  25  26
ENDBRANCH  19  25
BRANCH  20  31
ATOM     31  O   UNL     1      25.432  33.011  13.280  1.00  0.00    -0.387 OA
ATOM     32  H   UNL     1      25.907  32.717  14.086  1.00  0.00     0.211 HD
ENDBRANCH  20  31
BRANCH  21  33
ATOM     33  O   UNL     1      24.459  30.556  14.095  1.00  0.00    -0.385 OA
ATOM     34  H   UNL     1      24.880  29.762  13.727  1.00  0.00     0.211 HD
ENDBRANCH  21  33
ENDBRANCH  15  16
ENDBRANCH  10  15
BRANCH  12  35
ATOM     35  O   UNL     1      22.660  37.550  11.123  1.00  0.00    -0.385 OA
ATOM     36  H   UNL     1      22.437  37.655  10.166  1.00  0.00     0.211 HD
ENDBRANCH  12  35
BRANCH  13  37
ATOM     37  O   UNL     1      24.505  38.651   9.638  1.00  0.00    -0.387 OA
ATOM     38  H   UNL     1      23.653  38.772   9.145  1.00  0.00     0.211 HD
ENDBRANCH  13  37
BRANCH  14  39
ATOM     39  O   UNL     1      26.740  37.915  10.737  1.00  0.00    -0.387 OA
ATOM     40  H   UNL     1      27.717  37.813  10.664  1.00  0.00     0.211 HD
ENDBRANCH  14  39
ENDBRANCH   8   9
ENDBRANCH   7   8
ENDBRANCH   1   7
BRANCH   1  41
ATOM     41  C   UNL     1      28.866  36.098  14.571  1.00  0.00     0.364 C 
ATOM     42  O   UNL     1      29.960  36.646  14.138  1.00  0.00    -0.246 OA
BRANCH  41  43
ATOM     43  O   UNL     1      28.329  36.778  15.631  1.00  0.00    -0.477 OA
ATOM     44  H   UNL     1      27.463  37.316  15.591  1.00  0.00     0.296 HD
ENDBRANCH  41  43
ENDBRANCH   1  41
BRANCH   3  45
ATOM     45  O   UNL     1      30.936  32.260  14.665  1.00  0.00    -0.391 OA
ATOM     46  H   UNL     1      31.207  32.248  13.723  1.00  0.00     0.211 HD
ENDBRANCH   3  45
BRANCH   5  47
ATOM     47  C   UNL     1      26.766  32.979  16.555  1.00  0.00     0.176 C 
BRANCH  47  48
ATOM     48  O   UNL     1      26.513  31.873  15.754  1.00  0.00    -0.388 OA
ATOM     49  H   UNL     1      27.269  31.635  15.178  1.00  0.00     0.211 HD
ENDBRANCH  47  48
BRANCH  47  50
ATOM     50  C   UNL     1      25.574  33.798  16.749  1.00  0.00     0.165 C 
BRANCH  50  51
ATOM     51  O   UNL     1      26.051  35.125  17.080  1.00  0.00    -0.388 OA
ATOM     52  H   UNL     1      26.967  35.231  16.727  1.00  0.00     0.211 HD
ENDBRANCH  50  51
BRANCH  50  53
ATOM     53  C   UNL     1      24.566  33.442  17.755  1.00  0.00     0.154 C 
BRANCH  53  54
ATOM     54  N   UNL     1      24.221  32.120  18.067  1.00  0.00    -0.319 N 
ATOM     55  C   UNL     1      23.277  31.297  17.405  1.00  0.00     0.407 C 
ATOM     56  H   UNL     1      24.724  31.667  18.906  1.00  0.00     0.167 HD
ATOM     57  O   UNL     1      22.660  31.696  16.398  1.00  0.00    -0.225 OA
BRANCH  55  58
ATOM     58  O   UNL     1      23.044  29.999  17.913  1.00  0.00    -0.443 OA
BRANCH  58  59
ATOM     59  C   UNL     1      23.592  28.898  17.235  1.00  0.00     0.294 C 
BRANCH  59  60
ATOM     60  C   UNL     1      25.069  28.958  17.349  1.00  0.00     0.120 A 
ATOM     61  C   UNL     1      25.811  28.767  18.528  1.00  0.00     0.138 A 
ATOM     62  N   UNL     1      26.006  29.184  16.417  1.00  0.00    -0.132 NA
ATOM     63  N   UNL     1      27.123  28.882  18.262  1.00  0.00    -0.249 N 
ATOM     64  N   UNL     1      27.212  29.133  16.982  1.00  0.00    -0.067 NA
BRANCH  63  65
ATOM     65  C   UNL     1      28.205  28.751  19.210  1.00  0.00     0.111 C 
ATOM     66  C   UNL     1      28.148  29.935  20.133  1.00  0.00     0.043 C 
ATOM     67  C   UNL     1      28.107  27.486  20.016  1.00  0.00     0.043 C 
ATOM     68  C   UNL     1      27.554  29.507  21.455  1.00  0.00     0.086 C 
ATOM     69  C   UNL     1      28.905  27.534  21.291  1.00  0.00     0.086 C 
ATOM     70  N   UNL     1      28.536  28.657  22.127  1.00  0.00    -0.306 NA
ATOM     71  C   UNL     1      29.715  29.466  22.383  1.00  0.00     0.105 C 
ENDBRANCH  63  65
ENDBRANCH  59  60
ENDBRANCH  58  59
ENDBRANCH  55  58
ENDBRANCH  53  54
ENDBRANCH  50  53
ENDBRANCH  47  50
ENDBRANCH   5  47
BRANCH   4  72
ATOM     72  N   UNL     1      29.785  33.344  17.380  1.00  0.00    -0.348 N 
ATOM     73  C   UNL     1      30.337  32.253  18.088  1.00  0.00     0.217 C 
ATOM     74  H   UNL     1      29.806  34.293  17.827  1.00  0.00     0.163 HD
ATOM     75  C   UNL     1      30.941  32.429  19.448  1.00  0.00     0.114 C 
ATOM     76  O   UNL     1      30.328  31.090  17.569  1.00  0.00    -0.275 OA
ENDBRANCH   4  72
TORSDOF 30
BEGIN_RES LYS A 131
REMARK  4 active torsions:
REMARK  status: ('A' for Active; 'I' for Inactive)
REMARK    1  A    between atoms: CA   and  CB  
REMARK    2  A    between atoms: CB   and  CG  
REMARK    3  A    between atoms: CG   and  CD  
REMARK    4  A    between atoms: CD   and  CE  
ROOT
ATOM      1  CA  LYS A 131      29.867  25.555  16.977  1.00 20.52     0.186 C 
ENDROOT
BRANCH   1   2
ATOM      2  CB  LYS A 131      28.345  25.722  17.026  1.00 20.94     0.034 C 
BRANCH   2   3
ATOM      3  CG  LYS A 131      27.602  24.398  16.935  1.00 22.96     0.005 C 
BRANCH   3   4
ATOM      4  CD  LYS A 131      26.149  24.538  17.293  1.00 24.33     0.041 C 
BRANCH   4   5
ATOM      5  CE  LYS A 131      25.999  24.572  18.811  1.00 26.91     0.338 C 
ATOM      6  NZ  LYS A 131      25.517  23.264  19.314  1.00 27.40     0.618 N 
ENDBRANCH   4   5
ENDBRANCH   3   4
ENDBRANCH   2   3
ENDBRANCH   1   2
END_RES LYS A 131
BEGIN_RES LYS A 135
REMARK  4 active torsions:
REMARK  status: ('A' for Active; 'I' for Inactive)
REMARK    5  A    between atoms: CA   and  CB  
REMARK    6  A    between atoms: CB   and  CG  
REMARK    7  A    between atoms: CG   and  CD  
REMARK    8  A    between atoms: CD   and  CE  
ROOT
ATOM      7  CA  LYS A 135      33.193  34.663   9.290  1.00 25.02     0.186 C 
ENDROOT
BRANCH   7   8
ATOM      8  CB  LYS A 135      32.060  35.360  10.034  1.00 26.63     0.034 C 
BRANCH   8   9
ATOM      9  CG  LYS A 135      30.900  35.736   9.149  1.00 29.45     0.005 C 
BRANCH   9  10
ATOM     10  CD  LYS A 135      30.386  34.521   8.393  1.00 32.00     0.041 C 
BRANCH  10  11
ATOM     11  CE  LYS A 135      28.976  34.177   8.833  1.00 34.25     0.338 C 
ATOM     12  NZ  LYS A 135      27.966  34.771   7.913  1.00 35.99     0.618 N 
ENDBRANCH  10  11
ENDBRANCH   9  10
ENDBRANCH   8   9
ENDBRANCH   7   8
END_RES LYS A 135
