REMARK VINA RESULT:    -3.641      4.289      9.223
REMARK INTER + INTRA:         -22.700
REMARK INTER:                 -12.805
REMARK INTRA:                  -9.894
REMARK UNBOUND:               -13.100
REMARK SMILES CC(=O)N[C@@H]1[C@@H](O)C[C@](OC[C@H]2O[C@@H](O[C@H]3[C@H](O)[C@@H](O)[C@H](OCCN=[N+]=[N-])O[C@@H]3CO)[C@H](O)[C@@H](O)[C@H]2O)(C(=O)O)O[C@H]1C(O)[C@H](O)CNC(=O)OCc1cn(CCNS(C)(=O)=O)nn1
REMARK SMILES IDX 43 1 42 2 9 3 8 4 41 5 6 6 5 7 10 8 11 9 12 10 14 11 13 12
REMARK SMILES IDX 32 13 34 14 36 15 15 16 16 17 29 18 28 19 21 20 17 21 19 22
REMARK SMILES IDX 30 23 31 24 22 26 23 27 24 28 25 29 26 30 27 31 18 32 20 34
REMARK SMILES IDX 33 36 35 38 37 40 38 42 39 43 40 44 7 46 4 48 2 49 1 51 3 52
REMARK SMILES IDX 44 53 45 55 46 56 47 58 48 59 49 60 50 62 51 63 52 64 53 65
REMARK SMILES IDX 54 66 64 67 55 68 63 69 56 70 57 71 58 72 59 74 61 75 62 76
REMARK SMILES IDX 60 77
REMARK H PARENT 31 25 18 33 20 35 33 37 35 39 37 41 40 45 7 47 4 50 44 54
REMARK H PARENT 46 57 48 61 58 73
REMARK Flexibility Score: inf
ROOT
ATOM      1  C   UNL     1      28.186  35.511  15.510  1.00  0.00     0.176 C 
ENDROOT
BRANCH   1   2
ATOM      2  C   UNL     1      29.371  34.531  15.601  1.00  0.00     0.178 C 
ATOM      3  C   UNL     1      30.070  32.815  17.032  1.00  0.00     0.272 C 
ATOM      4  C   UNL     1      31.313  33.493  17.450  1.00  0.00     0.113 C 
ATOM      5  O   UNL     1      29.086  33.716  16.642  1.00  0.00    -0.332 OA
ATOM      6  C   UNL     1      31.519  34.873  16.890  1.00  0.00     0.145 C 
ATOM      7  C   UNL     1      30.637  35.278  15.759  1.00  0.00     0.142 C 
BRANCH   3   8
ATOM      8  O   UNL     1      29.442  32.029  18.003  1.00  0.00    -0.338 OA
BRANCH   8   9
ATOM      9  C   UNL     1      28.127  32.400  18.224  1.00  0.00     0.199 C 
BRANCH   9  10
ATOM     10  C   UNL     1      27.238  31.207  18.176  1.00  0.00     0.179 C 
ATOM     11  C   UNL     1      25.773  29.967  16.896  1.00  0.00     0.282 C 
ATOM     12  O   UNL     1      26.782  30.944  16.895  1.00  0.00    -0.341 OA
ATOM     13  C   UNL     1      26.278  28.656  17.392  1.00  0.00     0.202 C 
ATOM     14  C   UNL     1      26.719  28.858  18.825  1.00  0.00     0.179 C 
ATOM     15  C   UNL     1      27.687  29.989  18.911  1.00  0.00     0.177 C 
BRANCH  11  16
ATOM     16  O   UNL     1      25.297  29.888  15.622  1.00  0.00    -0.341 OA
BRANCH  16  17
ATOM     17  C   UNL     1      24.689  30.993  15.133  1.00  0.00     0.184 C 
ATOM     18  C   UNL     1      23.323  31.354  15.566  1.00  0.00     0.178 C 
ATOM     19  O   UNL     1      22.731  32.118  14.560  1.00  0.00    -0.341 OA
ATOM     20  C   UNL     1      22.343  31.362  13.491  1.00  0.00     0.281 C 
ATOM     21  C   UNL     1      24.726  31.013  13.581  1.00  0.00     0.180 C 
ATOM     22  C   UNL     1      23.426  30.349  13.180  1.00  0.00     0.202 C 
BRANCH  18  23
ATOM     23  C   UNL     1      23.373  32.288  16.770  1.00  0.00     0.191 C 
BRANCH  23  24
ATOM     24  O   UNL     1      24.468  33.173  16.639  1.00  0.00    -0.394 OA
ATOM     25  H   UNL     1      24.211  34.101  16.835  1.00  0.00     0.210 HD
ENDBRANCH  23  24
ENDBRANCH  18  23
BRANCH  20  26
ATOM     26  O   UNL     1      22.058  32.157  12.372  1.00  0.00    -0.350 OA
BRANCH  26  27
ATOM     27  C   UNL     1      21.281  33.255  12.639  1.00  0.00     0.169 C 
BRANCH  27  28
ATOM     28  C   UNL     1      21.862  34.433  11.924  1.00  0.00     0.119 C 
BRANCH  28  29
ATOM     29  N   UNL     1      23.062  34.937  12.581  1.00  0.00    -0.092 NA
ATOM     30  N   UNL     1      22.933  35.174  13.795  1.00  0.00     0.001 N 
ATOM     31  N   UNL     1      23.094  35.552  14.949  1.00  0.00    -0.003 NA
ENDBRANCH  28  29
ENDBRANCH  27  28
ENDBRANCH  26  27
ENDBRANCH  20  26
BRANCH  21  32
ATOM     32  O   UNL     1      24.685  32.335  13.126  1.00  0.00    -0.387 OA
ATOM     33  H   UNL     1      25.356  32.868  13.629  1.00  0.00     0.211 HD
ENDBRANCH  21  32
BRANCH  22  34
ATOM     34  O   UNL     1      23.207  29.132  13.785  1.00  0.00    -0.385 OA
ATOM     35  H   UNL     1      22.426  29.116  14.395  1.00  0.00     0.211 HD
ENDBRANCH  22  34
ENDBRANCH  16  17
ENDBRANCH  11  16
BRANCH  13  36
ATOM     36  O   UNL     1      25.244  27.710  17.457  1.00  0.00    -0.385 OA
ATOM     37  H   UNL     1      24.350  28.137  17.477  1.00  0.00     0.211 HD
ENDBRANCH  13  36
BRANCH  14  38
ATOM     38  O   UNL     1      27.141  27.691  19.412  1.00  0.00    -0.387 OA
ATOM     39  H   UNL     1      26.723  26.877  18.988  1.00  0.00     0.211 HD
ENDBRANCH  14  38
BRANCH  15  40
ATOM     40  O   UNL     1      28.903  29.575  18.375  1.00  0.00    -0.387 OA
ATOM     41  H   UNL     1      28.904  29.556  17.384  1.00  0.00     0.211 HD
ENDBRANCH  15  40
ENDBRANCH   9  10
ENDBRANCH   8   9
ENDBRANCH   3   8
BRANCH   3  42
ATOM     42  C   UNL     1      30.322  31.877  15.912  1.00  0.00     0.364 C 
ATOM     43  O   UNL     1      29.562  30.878  15.686  1.00  0.00    -0.246 OA
BRANCH  42  44
ATOM     44  O   UNL     1      31.376  31.989  15.028  1.00  0.00    -0.477 OA
ATOM     45  H   UNL     1      31.271  31.918  14.019  1.00  0.00     0.296 HD
ENDBRANCH  42  44
ENDBRANCH   3  42
BRANCH   6  46
ATOM     46  O   UNL     1      31.464  35.833  17.891  1.00  0.00    -0.391 OA
ATOM     47  H   UNL     1      30.576  36.190  18.088  1.00  0.00     0.211 HD
ENDBRANCH   6  46
BRANCH   7  48
ATOM     48  N   UNL     1      31.426  35.181  14.520  1.00  0.00    -0.348 N 
ATOM     49  C   UNL     1      31.802  36.246  13.695  1.00  0.00     0.217 C 
ATOM     50  H   UNL     1      31.786  34.208  14.218  1.00  0.00     0.163 HD
ATOM     51  C   UNL     1      32.602  36.019  12.440  1.00  0.00     0.114 C 
ATOM     52  O   UNL     1      31.490  37.438  13.962  1.00  0.00    -0.275 OA
ENDBRANCH   7  48
ENDBRANCH   1   2
BRANCH   1  53
ATOM     53  O   UNL     1      28.550  36.571  14.660  1.00  0.00    -0.388 OA
ATOM     54  H   UNL     1      29.503  36.478  14.480  1.00  0.00     0.211 HD
ENDBRANCH   1  53
BRANCH   1  55
ATOM     55  C   UNL     1      27.002  34.831  14.929  1.00  0.00     0.165 C 
BRANCH  55  56
ATOM     56  O   UNL     1      27.051  33.459  14.891  1.00  0.00    -0.388 OA
ATOM     57  H   UNL     1      26.525  33.063  14.146  1.00  0.00     0.211 HD
ENDBRANCH  55  56
BRANCH  55  58
ATOM     58  C   UNL     1      26.498  35.396  13.637  1.00  0.00     0.154 C 
BRANCH  58  59
ATOM     59  N   UNL     1      26.822  34.559  12.513  1.00  0.00    -0.319 N 
ATOM     60  C   UNL     1      27.923  34.969  11.668  1.00  0.00     0.407 C 
ATOM     61  H   UNL     1      26.323  33.689  12.269  1.00  0.00     0.167 HD
ATOM     62  O   UNL     1      28.528  36.020  12.002  1.00  0.00    -0.225 OA
BRANCH  60  63
ATOM     63  O   UNL     1      28.274  34.237  10.564  1.00  0.00    -0.443 OA
BRANCH  63  64
ATOM     64  C   UNL     1      27.295  33.840   9.633  1.00  0.00     0.294 C 
BRANCH  64  65
ATOM     65  C   UNL     1      26.866  34.977   8.798  1.00  0.00     0.120 A 
ATOM     66  C   UNL     1      25.808  35.840   9.032  1.00  0.00     0.138 A 
ATOM     67  N   UNL     1      27.435  35.413   7.683  1.00  0.00    -0.132 NA
ATOM     68  N   UNL     1      25.763  36.762   8.069  1.00  0.00    -0.251 N 
ATOM     69  N   UNL     1      26.772  36.488   7.240  1.00  0.00    -0.067 NA
BRANCH  68  70
ATOM     70  C   UNL     1      24.798  37.842   7.945  1.00  0.00     0.162 C 
BRANCH  70  71
ATOM     71  C   UNL     1      23.429  37.270   7.581  1.00  0.00     0.122 C 
BRANCH  71  72
ATOM     72  N   UNL     1      22.400  38.253   7.765  1.00  0.00    -0.214 NA
ATOM     73  H   UNL     1      21.851  38.345   6.869  1.00  0.00     0.141 HD
BRANCH  72  74
ATOM     74  S   UNL     1      21.277  37.827   8.996  1.00  0.00     0.208 S 
ATOM     75  O   UNL     1      20.015  38.663   8.858  1.00  0.00    -0.213 OA
ATOM     76  O   UNL     1      20.916  36.374   8.756  1.00  0.00    -0.213 OA
ATOM     77  C   UNL     1      21.988  38.022  10.601  1.00  0.00     0.176 C 
ENDBRANCH  72  74
ENDBRANCH  71  72
ENDBRANCH  70  71
ENDBRANCH  68  70
ENDBRANCH  64  65
ENDBRANCH  63  64
ENDBRANCH  60  63
ENDBRANCH  58  59
ENDBRANCH  55  58
ENDBRANCH   1  55
TORSDOF 33
BEGIN_RES LYS A 131
REMARK  4 active torsions:
REMARK  status: ('A' for Active; 'I' for Inactive)
REMARK    1  A    between atoms: CA   and  CB  
REMARK    2  A    between atoms: CB   and  CG  
REMARK    3  A    between atoms: CG   and  CD  
REMARK    4  A    between atoms: CD   and  CE  
ROOT
ATOM      1  CA  LYS A 131      29.867  25.555  16.977  1.00 20.52     0.186 C 
ENDROOT
BRANCH   1   2
ATOM      2  CB  LYS A 131      28.345  25.722  17.026  1.00 20.94     0.034 C 
BRANCH   2   3
ATOM      3  CG  LYS A 131      27.601  24.401  16.900  1.00 22.96     0.005 C 
BRANCH   3   4
ATOM      4  CD  LYS A 131      26.525  24.256  17.940  1.00 24.33     0.041 C 
BRANCH   4   5
ATOM      5  CE  LYS A 131      25.199  23.933  17.258  1.00 26.91     0.338 C 
ATOM      6  NZ  LYS A 131      24.606  22.703  17.833  1.00 27.40     0.618 N 
ENDBRANCH   4   5
ENDBRANCH   3   4
ENDBRANCH   2   3
ENDBRANCH   1   2
END_RES LYS A 131
BEGIN_RES LYS A 135
REMARK  4 active torsions:
REMARK  status: ('A' for Active; 'I' for Inactive)
REMARK    5  A    between atoms: CA   and  CB  
REMARK    6  A    between atoms: CB   and  CG  
REMARK    7  A    between atoms: CG   and  CD  
REMARK    8  A    between atoms: CD   and  CE  
ROOT
ATOM      7  CA  LYS A 135      33.193  34.663   9.290  1.00 25.02     0.186 C 
ENDROOT
BRANCH   7   8
ATOM      8  CB  LYS A 135      32.060  35.360  10.034  1.00 26.63     0.034 C 
BRANCH   8   9
ATOM      9  CG  LYS A 135      30.859  35.648   9.170  1.00 29.45     0.005 C 
BRANCH   9  10
ATOM     10  CD  LYS A 135      30.308  37.035   9.462  1.00 32.00     0.041 C 
BRANCH  10  11
ATOM     11  CE  LYS A 135      31.428  38.056   9.499  1.00 34.25     0.338 C 
ATOM     12  NZ  LYS A 135      31.329  38.918  10.710  1.00 35.99     0.618 N 
ENDBRANCH  10  11
ENDBRANCH   9  10
ENDBRANCH   8   9
ENDBRANCH   7   8
END_RES LYS A 135
