REMARK VINA RESULT:    -4.761      5.691     12.102
REMARK INTER + INTRA:         -23.568
REMARK INTER:                 -15.415
REMARK INTRA:                  -8.153
REMARK UNBOUND:               -10.737
REMARK SMILES CC(=O)N[C@@H]1[C@@H](O)C[C@](OC[C@H]2O[C@@H](O[C@H]3[C@H](O)[C@@H](O)[C@H](OCCN=[N+]=[N-])O[C@@H]3CO)[C@H](O)[C@@H](O)[C@H]2O)(C(=O)O)O[C@H]1C(O)[C@H](O)CNC(=O)OCc1cn(CCNC(=O)NCc2ccco2)nn1
REMARK SMILES IDX 43 1 42 2 9 3 8 4 41 5 6 6 5 7 10 8 11 9 12 10 14 11 13 12
REMARK SMILES IDX 32 13 34 14 36 15 15 16 16 17 29 18 28 19 21 20 17 21 19 22
REMARK SMILES IDX 30 23 31 24 22 26 23 27 24 28 25 29 26 30 27 31 18 32 20 34
REMARK SMILES IDX 33 36 35 38 37 40 38 42 39 43 40 44 7 46 4 48 2 49 1 51 3 52
REMARK SMILES IDX 44 53 45 55 46 56 47 58 48 59 49 60 50 62 51 63 52 64 53 65
REMARK SMILES IDX 54 66 69 67 55 68 68 69 56 70 57 71 58 72 59 73 60 75 61 76
REMARK SMILES IDX 62 78 63 79 64 80 67 81 65 82 66 83
REMARK H PARENT 31 25 18 33 20 35 33 37 35 39 37 41 40 45 7 47 4 50 44 54
REMARK H PARENT 46 57 48 61 58 74 61 77
REMARK Flexibility Score: inf
ROOT
ATOM      1  C   UNL     1      25.783  36.928   9.103  1.00  0.00     0.176 C 
ENDROOT
BRANCH   1   2
ATOM      2  C   UNL     1      27.250  37.034   8.831  1.00  0.00     0.178 C 
ATOM      3  C   UNL     1      27.678  39.253   8.092  1.00  0.00     0.272 C 
ATOM      4  C   UNL     1      27.135  38.671   6.747  1.00  0.00     0.113 C 
ATOM      5  O   UNL     1      27.761  38.281   9.022  1.00  0.00    -0.332 OA
ATOM      6  C   UNL     1      27.684  37.335   6.440  1.00  0.00     0.145 C 
ATOM      7  C   UNL     1      27.734  36.367   7.596  1.00  0.00     0.142 C 
BRANCH   3   8
ATOM      8  O   UNL     1      26.693  40.139   8.474  1.00  0.00    -0.338 OA
BRANCH   8   9
ATOM      9  C   UNL     1      25.638  40.373   7.699  1.00  0.00     0.199 C 
BRANCH   9  10
ATOM     10  C   UNL     1      24.242  40.148   8.020  1.00  0.00     0.179 C 
ATOM     11  C   UNL     1      22.471  38.717   8.296  1.00  0.00     0.282 C 
ATOM     12  O   UNL     1      23.860  38.838   8.253  1.00  0.00    -0.341 OA
ATOM     13  C   UNL     1      21.737  39.971   8.600  1.00  0.00     0.202 C 
ATOM     14  C   UNL     1      22.451  40.954   9.481  1.00  0.00     0.179 C 
ATOM     15  C   UNL     1      23.943  40.876   9.346  1.00  0.00     0.177 C 
BRANCH  11  16
ATOM     16  O   UNL     1      22.059  37.719   9.164  1.00  0.00    -0.341 OA
BRANCH  16  17
ATOM     17  C   UNL     1      20.661  37.538   9.159  1.00  0.00     0.184 C 
ATOM     18  C   UNL     1      20.289  36.897  10.464  1.00  0.00     0.178 C 
ATOM     19  O   UNL     1      19.212  36.024  10.337  1.00  0.00    -0.341 OA
ATOM     20  C   UNL     1      19.657  34.960   9.562  1.00  0.00     0.281 C 
ATOM     21  C   UNL     1      20.310  36.757   7.937  1.00  0.00     0.180 C 
ATOM     22  C   UNL     1      19.766  35.394   8.139  1.00  0.00     0.202 C 
BRANCH  18  23
ATOM     23  C   UNL     1      19.829  38.000  11.418  1.00  0.00     0.191 C 
BRANCH  23  24
ATOM     24  O   UNL     1      20.993  38.592  11.953  1.00  0.00    -0.394 OA
ATOM     25  H   UNL     1      20.649  39.276  12.599  1.00  0.00     0.210 HD
ENDBRANCH  23  24
ENDBRANCH  18  23
BRANCH  20  26
ATOM     26  O   UNL     1      18.658  33.984   9.629  1.00  0.00    -0.350 OA
BRANCH  26  27
ATOM     27  C   UNL     1      17.397  34.526   9.385  1.00  0.00     0.169 C 
BRANCH  27  28
ATOM     28  C   UNL     1      16.476  33.349   9.054  1.00  0.00     0.119 C 
BRANCH  28  29
ATOM     29  N   UNL     1      17.282  32.147   9.183  1.00  0.00    -0.092 NA
ATOM     30  N   UNL     1      17.218  31.244   8.336  1.00  0.00     0.001 N 
ATOM     31  N   UNL     1      17.368  30.517   7.339  1.00  0.00    -0.003 NA
ENDBRANCH  28  29
ENDBRANCH  27  28
ENDBRANCH  26  27
ENDBRANCH  20  26
BRANCH  21  32
ATOM     32  O   UNL     1      19.399  37.535   7.194  1.00  0.00    -0.387 OA
ATOM     33  H   UNL     1      18.915  38.170   7.752  1.00  0.00     0.211 HD
ENDBRANCH  21  32
BRANCH  22  34
ATOM     34  O   UNL     1      20.646  34.472   7.516  1.00  0.00    -0.385 OA
ATOM     35  H   UNL     1      21.567  34.839   7.684  1.00  0.00     0.211 HD
ENDBRANCH  22  34
ENDBRANCH  16  17
ENDBRANCH  11  16
BRANCH  13  36
ATOM     36  O   UNL     1      21.202  40.580   7.457  1.00  0.00    -0.385 OA
ATOM     37  H   UNL     1      21.860  41.150   7.001  1.00  0.00     0.211 HD
ENDBRANCH  13  36
BRANCH  14  38
ATOM     38  O   UNL     1      22.069  40.827  10.823  1.00  0.00    -0.387 OA
ATOM     39  H   UNL     1      21.857  41.755  11.121  1.00  0.00     0.211 HD
ENDBRANCH  14  38
BRANCH  15  40
ATOM     40  O   UNL     1      24.570  40.262  10.404  1.00  0.00    -0.387 OA
ATOM     41  H   UNL     1      23.886  39.949  11.025  1.00  0.00     0.211 HD
ENDBRANCH  15  40
ENDBRANCH   9  10
ENDBRANCH   8   9
ENDBRANCH   3   8
BRANCH   3  42
ATOM     42  C   UNL     1      28.903  39.941   7.691  1.00  0.00     0.364 C 
ATOM     43  O   UNL     1      28.891  41.123   7.319  1.00  0.00    -0.246 OA
BRANCH  42  44
ATOM     44  O   UNL     1      30.162  39.333   7.695  1.00  0.00    -0.477 OA
ATOM     45  H   UNL     1      30.313  38.510   8.280  1.00  0.00     0.296 HD
ENDBRANCH  42  44
ENDBRANCH   3  42
BRANCH   6  46
ATOM     46  O   UNL     1      26.889  36.776   5.421  1.00  0.00    -0.391 OA
ATOM     47  H   UNL     1      26.922  35.789   5.492  1.00  0.00     0.211 HD
ENDBRANCH   6  46
BRANCH   7  48
ATOM     48  N   UNL     1      29.110  35.892   7.744  1.00  0.00    -0.348 N 
ATOM     49  C   UNL     1      29.399  34.683   8.392  1.00  0.00     0.217 C 
ATOM     50  H   UNL     1      29.875  36.481   7.351  1.00  0.00     0.163 HD
ATOM     51  C   UNL     1      30.786  34.158   8.570  1.00  0.00     0.114 C 
ATOM     52  O   UNL     1      28.416  34.015   8.847  1.00  0.00    -0.275 OA
ENDBRANCH   7  48
ENDBRANCH   1   2
BRANCH   1  53
ATOM     53  O   UNL     1      25.504  37.684  10.297  1.00  0.00    -0.388 OA
ATOM     54  H   UNL     1      24.622  37.399  10.580  1.00  0.00     0.211 HD
ENDBRANCH   1  53
BRANCH   1  55
ATOM     55  C   UNL     1      25.267  35.563   9.454  1.00  0.00     0.165 C 
BRANCH  55  56
ATOM     56  O   UNL     1      24.016  35.233   8.990  1.00  0.00    -0.388 OA
ATOM     57  H   UNL     1      23.283  35.720   9.443  1.00  0.00     0.211 HD
ENDBRANCH  55  56
BRANCH  55  58
ATOM     58  C   UNL     1      25.367  35.304  10.961  1.00  0.00     0.154 C 
BRANCH  58  59
ATOM     59  N   UNL     1      26.661  34.767  11.308  1.00  0.00    -0.319 N 
ATOM     60  C   UNL     1      27.621  35.482  12.060  1.00  0.00     0.407 C 
ATOM     61  H   UNL     1      26.896  33.807  10.991  1.00  0.00     0.167 HD
ATOM     62  O   UNL     1      27.352  36.646  12.457  1.00  0.00    -0.225 OA
BRANCH  60  63
ATOM     63  O   UNL     1      28.862  34.939  12.378  1.00  0.00    -0.443 OA
BRANCH  63  64
ATOM     64  C   UNL     1      29.400  35.172  13.676  1.00  0.00     0.294 C 
BRANCH  64  65
ATOM     65  C   UNL     1      29.195  33.892  14.421  1.00  0.00     0.120 A 
ATOM     66  C   UNL     1      28.026  33.505  15.019  1.00  0.00     0.138 A 
ATOM     67  N   UNL     1      30.110  32.913  14.626  1.00  0.00    -0.132 NA
ATOM     68  N   UNL     1      28.261  32.320  15.564  1.00  0.00    -0.250 N 
ATOM     69  N   UNL     1      29.524  31.968  15.322  1.00  0.00    -0.067 NA
BRANCH  68  70
ATOM     70  C   UNL     1      27.281  31.540  16.319  1.00  0.00     0.167 C 
BRANCH  70  71
ATOM     71  C   UNL     1      25.910  32.156  16.038  1.00  0.00     0.141 C 
BRANCH  71  72
ATOM     72  N   UNL     1      25.530  31.749  14.717  1.00  0.00    -0.336 N 
ATOM     73  C   UNL     1      24.686  30.654  14.443  1.00  0.00     0.315 C 
ATOM     74  H   UNL     1      25.920  32.321  13.920  1.00  0.00     0.165 HD
ATOM     75  O   UNL     1      24.225  29.944  15.363  1.00  0.00    -0.249 OA
ATOM     76  N   UNL     1      24.357  30.363  13.075  1.00  0.00    -0.331 N 
ATOM     77  H   UNL     1      24.767  30.987  12.335  1.00  0.00     0.165 HD
BRANCH  76  78
ATOM     78  C   UNL     1      23.498  29.257  12.756  1.00  0.00     0.193 C 
BRANCH  78  79
ATOM     79  C   UNL     1      22.108  29.731  12.523  1.00  0.00     0.122 A 
ATOM     80  C   UNL     1      21.059  28.914  12.119  1.00  0.00     0.047 A 
ATOM     81  O   UNL     1      21.664  30.935  12.655  1.00  0.00    -0.467 OA
ATOM     82  C   UNL     1      19.967  29.726  12.023  1.00  0.00     0.042 A 
ATOM     83  C   UNL     1      20.382  30.984  12.365  1.00  0.00     0.195 A 
ENDBRANCH  78  79
ENDBRANCH  76  78
ENDBRANCH  71  72
ENDBRANCH  70  71
ENDBRANCH  68  70
ENDBRANCH  64  65
ENDBRANCH  63  64
ENDBRANCH  60  63
ENDBRANCH  58  59
ENDBRANCH  55  58
ENDBRANCH   1  55
TORSDOF 34
BEGIN_RES LYS A 131
REMARK  4 active torsions:
REMARK  status: ('A' for Active; 'I' for Inactive)
REMARK    1  A    between atoms: CA   and  CB  
REMARK    2  A    between atoms: CB   and  CG  
REMARK    3  A    between atoms: CG   and  CD  
REMARK    4  A    between atoms: CD   and  CE  
ROOT
ATOM      1  CA  LYS A 131      29.867  25.555  16.977  1.00 20.52     0.186 C 
ENDROOT
BRANCH   1   2
ATOM      2  CB  LYS A 131      28.345  25.722  17.026  1.00 20.94     0.034 C 
BRANCH   2   3
ATOM      3  CG  LYS A 131      27.602  24.400  16.916  1.00 22.96     0.005 C 
BRANCH   3   4
ATOM      4  CD  LYS A 131      26.461  24.308  17.891  1.00 24.33     0.041 C 
BRANCH   4   5
ATOM      5  CE  LYS A 131      26.429  25.564  18.756  1.00 26.91     0.338 C 
ATOM      6  NZ  LYS A 131      25.031  25.953  19.056  1.00 27.40     0.618 N 
ENDBRANCH   4   5
ENDBRANCH   3   4
ENDBRANCH   2   3
ENDBRANCH   1   2
END_RES LYS A 131
BEGIN_RES LYS A 135
REMARK  4 active torsions:
REMARK  status: ('A' for Active; 'I' for Inactive)
REMARK    5  A    between atoms: CA   and  CB  
REMARK    6  A    between atoms: CB   and  CG  
REMARK    7  A    between atoms: CG   and  CD  
REMARK    8  A    between atoms: CD   and  CE  
ROOT
ATOM      7  CA  LYS A 135      33.193  34.663   9.290  1.00 25.02     0.186 C 
ENDROOT
BRANCH   7   8
ATOM      8  CB  LYS A 135      32.060  35.360  10.034  1.00 26.63     0.034 C 
BRANCH   8   9
ATOM      9  CG  LYS A 135      32.381  35.661  11.475  1.00 29.45     0.005 C 
BRANCH   9  10
ATOM     10  CD  LYS A 135      32.016  37.097  11.818  1.00 32.00     0.041 C 
BRANCH  10  11
ATOM     11  CE  LYS A 135      31.799  37.907  10.555  1.00 34.25     0.338 C 
ATOM     12  NZ  LYS A 135      31.569  39.344  10.872  1.00 35.99     0.618 N 
ENDBRANCH  10  11
ENDBRANCH   9  10
ENDBRANCH   8   9
ENDBRANCH   7   8
END_RES LYS A 135
