REMARK VINA RESULT:    -7.227      5.594     10.457
REMARK INTER + INTRA:         -20.684
REMARK INTER:                  -7.967
REMARK INTRA:                 -12.718
REMARK UNBOUND:                -1.206
REMARK SMILES CC(=O)N[C@@H]1[C@@H](O)C[C@](OC[C@H]2O[C@@H](O[C@H]3[C@H](O)[C@@H](O)[C@H](OCCN=[N+]=[N-])O[C@@H]3CO)[C@H](O)[C@@H](O)[C@H]2O)(C(=O)O)O[C@H]1C(O)[C@H](O)CNC(=O)OCc1cn(C2CCc3ccccc3NC2=O)nn1
REMARK SMILES IDX 43 1 42 2 9 3 8 4 41 5 6 6 5 7 10 8 11 9 12 10 14 11 13 12
REMARK SMILES IDX 32 13 34 14 36 15 15 16 16 17 29 18 28 19 21 20 17 21 19 22
REMARK SMILES IDX 30 23 31 24 22 26 23 27 24 28 25 29 26 30 27 31 18 32 20 34
REMARK SMILES IDX 33 36 35 38 37 40 38 42 39 43 40 44 7 46 4 48 2 49 1 51 3 52
REMARK SMILES IDX 44 53 45 55 46 56 47 58 48 59 49 60 50 62 51 63 52 64 53 65
REMARK SMILES IDX 54 66 69 67 55 68 68 69 56 70 57 71 66 73 65 74 67 75 64 77
REMARK SMILES IDX 59 78 63 79 60 80 62 81 61 82 58 83
REMARK H PARENT 31 25 18 33 20 35 33 37 35 39 37 41 40 45 7 47 4 50 44 54
REMARK H PARENT 46 57 48 61 65 76
REMARK Flexibility Score: 90.00
ROOT
ATOM      1  C   UNL     1      27.383  34.457  18.823  1.00  0.00     0.176 C 
ENDROOT
BRANCH   1   2
ATOM      2  C   UNL     1      26.784  33.334  17.952  1.00  0.00     0.178 C 
ATOM      3  C   UNL     1      27.974  32.327  16.147  1.00  0.00     0.272 C 
ATOM      4  C   UNL     1      27.036  32.918  15.174  1.00  0.00     0.113 C 
ATOM      5  O   UNL     1      27.671  32.466  17.503  1.00  0.00    -0.332 OA
ATOM      6  C   UNL     1      26.449  34.206  15.644  1.00  0.00     0.145 C 
ATOM      7  C   UNL     1      25.797  33.942  16.993  1.00  0.00     0.142 C 
BRANCH   3   8
ATOM      8  O   UNL     1      29.264  32.710  16.035  1.00  0.00    -0.338 OA
BRANCH   8   9
ATOM      9  C   UNL     1      29.969  32.711  14.916  1.00  0.00     0.199 C 
BRANCH   9  10
ATOM     10  C   UNL     1      31.011  33.677  14.552  1.00  0.00     0.179 C 
ATOM     11  C   UNL     1      31.191  35.782  13.608  1.00  0.00     0.282 C 
ATOM     12  O   UNL     1      30.317  34.893  14.232  1.00  0.00    -0.341 OA
ATOM     13  C   UNL     1      32.633  35.510  13.780  1.00  0.00     0.202 C 
ATOM     14  C   UNL     1      33.060  34.846  15.044  1.00  0.00     0.179 C 
ATOM     15  C   UNL     1      31.903  34.138  15.703  1.00  0.00     0.177 C 
BRANCH  11  16
ATOM     16  O   UNL     1      30.804  37.094  13.953  1.00  0.00    -0.341 OA
BRANCH  16  17
ATOM     17  C   UNL     1      29.520  37.156  14.424  1.00  0.00     0.184 C 
ATOM     18  C   UNL     1      28.508  37.743  13.475  1.00  0.00     0.178 C 
ATOM     19  O   UNL     1      27.266  37.576  14.090  1.00  0.00    -0.341 OA
ATOM     20  C   UNL     1      27.065  38.506  15.100  1.00  0.00     0.281 C 
ATOM     21  C   UNL     1      29.441  37.977  15.703  1.00  0.00     0.180 C 
ATOM     22  C   UNL     1      28.345  38.980  15.720  1.00  0.00     0.202 C 
BRANCH  18  23
ATOM     23  C   UNL     1      28.449  36.980  12.167  1.00  0.00     0.191 C 
BRANCH  23  24
ATOM     24  O   UNL     1      28.011  35.670  12.351  1.00  0.00    -0.394 OA
ATOM     25  H   UNL     1      28.699  35.001  12.146  1.00  0.00     0.210 HD
ENDBRANCH  23  24
ENDBRANCH  18  23
BRANCH  20  26
ATOM     26  O   UNL     1      26.195  37.964  16.028  1.00  0.00    -0.350 OA
BRANCH  26  27
ATOM     27  C   UNL     1      24.913  38.465  15.886  1.00  0.00     0.169 C 
BRANCH  27  28
ATOM     28  C   UNL     1      24.756  39.911  16.232  1.00  0.00     0.119 C 
BRANCH  28  29
ATOM     29  N   UNL     1      23.960  40.027  17.442  1.00  0.00    -0.092 NA
ATOM     30  N   UNL     1      24.338  39.544  18.525  1.00  0.00     0.001 N 
ATOM     31  N   UNL     1      25.028  39.467  19.552  1.00  0.00    -0.003 NA
ENDBRANCH  28  29
ENDBRANCH  27  28
ENDBRANCH  26  27
ENDBRANCH  20  26
BRANCH  21  32
ATOM     32  O   UNL     1      29.438  37.153  16.839  1.00  0.00    -0.387 OA
ATOM     33  H   UNL     1      30.282  36.632  16.851  1.00  0.00     0.211 HD
ENDBRANCH  21  32
BRANCH  22  34
ATOM     34  O   UNL     1      28.723  40.206  15.124  1.00  0.00    -0.385 OA
ATOM     35  H   UNL     1      28.917  40.110  14.173  1.00  0.00     0.211 HD
ENDBRANCH  22  34
ENDBRANCH  16  17
ENDBRANCH  11  16
BRANCH  13  36
ATOM     36  O   UNL     1      33.137  34.877  12.639  1.00  0.00    -0.385 OA
ATOM     37  H   UNL     1      33.875  34.265  12.897  1.00  0.00     0.211 HD
ENDBRANCH  13  36
BRANCH  14  38
ATOM     38  O   UNL     1      33.727  35.705  15.916  1.00  0.00    -0.387 OA
ATOM     39  H   UNL     1      34.430  36.153  15.376  1.00  0.00     0.211 HD
ENDBRANCH  14  38
BRANCH  15  40
ATOM     40  O   UNL     1      31.177  35.054  16.505  1.00  0.00    -0.387 OA
ATOM     41  H   UNL     1      30.338  34.598  16.733  1.00  0.00     0.211 HD
ENDBRANCH  15  40
ENDBRANCH   9  10
ENDBRANCH   8   9
ENDBRANCH   3   8
BRANCH   3  42
ATOM     42  C   UNL     1      27.837  30.828  15.998  1.00  0.00     0.364 C 
ATOM     43  O   UNL     1      26.834  30.317  15.555  1.00  0.00    -0.246 OA
BRANCH  42  44
ATOM     44  O   UNL     1      28.894  29.997  16.382  1.00  0.00    -0.477 OA
ATOM     45  H   UNL     1      28.748  29.063  16.726  1.00  0.00     0.296 HD
ENDBRANCH  42  44
ENDBRANCH   3  42
BRANCH   6  46
ATOM     46  O   UNL     1      27.506  35.118  15.795  1.00  0.00    -0.391 OA
ATOM     47  H   UNL     1      27.241  36.039  15.633  1.00  0.00     0.211 HD
ENDBRANCH   6  46
BRANCH   7  48
ATOM     48  N   UNL     1      24.614  33.180  16.774  1.00  0.00    -0.348 N 
ATOM     49  C   UNL     1      23.437  33.430  17.535  1.00  0.00     0.217 C 
ATOM     50  H   UNL     1      24.581  32.419  16.056  1.00  0.00     0.163 HD
ATOM     51  C   UNL     1      22.178  32.660  17.344  1.00  0.00     0.114 C 
ATOM     52  O   UNL     1      23.480  34.329  18.383  1.00  0.00    -0.275 OA
ENDBRANCH   7  48
ENDBRANCH   1   2
BRANCH   1  53
ATOM     53  O   UNL     1      28.645  34.801  18.329  1.00  0.00    -0.388 OA
ATOM     54  H   UNL     1      28.832  34.426  17.440  1.00  0.00     0.211 HD
ENDBRANCH   1  53
BRANCH   1  55
ATOM     55  C   UNL     1      26.546  35.684  18.852  1.00  0.00     0.165 C 
BRANCH  55  56
ATOM     56  O   UNL     1      27.167  36.833  18.378  1.00  0.00    -0.388 OA
ATOM     57  H   UNL     1      27.526  36.628  17.473  1.00  0.00     0.211 HD
ENDBRANCH  55  56
BRANCH  55  58
ATOM     58  C   UNL     1      25.914  36.023  20.163  1.00  0.00     0.154 C 
BRANCH  58  59
ATOM     59  N   UNL     1      26.740  35.829  21.316  1.00  0.00    -0.319 N 
ATOM     60  C   UNL     1      27.674  36.776  21.795  1.00  0.00     0.407 C 
ATOM     61  H   UNL     1      26.649  34.934  21.837  1.00  0.00     0.167 HD
ATOM     62  O   UNL     1      27.835  37.877  21.215  1.00  0.00    -0.225 OA
BRANCH  60  63
ATOM     63  O   UNL     1      28.413  36.478  22.915  1.00  0.00    -0.443 OA
BRANCH  63  64
ATOM     64  C   UNL     1      28.628  35.192  23.381  1.00  0.00     0.294 C 
BRANCH  64  65
ATOM     65  C   UNL     1      29.798  34.594  22.734  1.00  0.00     0.120 A 
ATOM     66  C   UNL     1      29.814  33.460  21.959  1.00  0.00     0.139 A 
ATOM     67  N   UNL     1      31.084  35.018  22.764  1.00  0.00    -0.132 NA
ATOM     68  N   UNL     1      31.082  33.220  21.541  1.00  0.00    -0.240 N 
ATOM     69  N   UNL     1      31.821  34.184  22.049  1.00  0.00    -0.066 NA
BRANCH  68  70
ATOM     70  C   UNL     1      31.535  32.107  20.689  1.00  0.00     0.198 C 
BRANCH  70  71
ATOM     71  C   UNL     1      31.533  30.898  21.546  1.00  0.00     0.042 CG0
ATOM     72  G   UNL     1      31.586  29.580  20.855  1.00  0.00     0.000 G0
ENDBRANCH  70  71
BRANCH  70  73
ATOM     73  C   UNL     1      30.628  32.093  19.537  1.00  0.00     0.249 C 
ATOM     74  N   UNL     1      29.489  31.287  19.277  1.00  0.00    -0.324 N 
ATOM     75  O   UNL     1      30.906  32.931  18.637  1.00  0.00    -0.272 OA
ATOM     76  H   UNL     1      28.763  31.642  18.618  1.00  0.00     0.170 HD
BRANCH  74  77
ATOM     77  C   UNL     1      29.267  29.992  19.875  1.00  0.00     0.044 A 
ATOM     78  C   UNL     1      30.157  29.187  20.578  1.00  0.00    -0.024 A 
ATOM     79  C   UNL     1      27.974  29.558  19.682  1.00  0.00     0.026 A 
ATOM     80  C   UNL     1      29.778  27.967  21.087  1.00  0.00     0.006 A 
ATOM     81  C   UNL     1      27.567  28.337  20.183  1.00  0.00     0.002 A 
ATOM     82  C   UNL     1      28.485  27.550  20.886  1.00  0.00     0.000 A 
BRANCH  78  83
ATOM     83  C   UNL     1      31.574  29.567  20.840  1.00  0.00     0.040 CG0
ATOM     84  G   UNL     1      31.549  30.881  21.538  1.00  0.00     0.000 G0
ENDBRANCH  78  83
ENDBRANCH  74  77
ENDBRANCH  70  73
ENDBRANCH  68  70
ENDBRANCH  64  65
ENDBRANCH  63  64
ENDBRANCH  60  63
ENDBRANCH  58  59
ENDBRANCH  55  58
ENDBRANCH   1  55
TORSDOF 30
BEGIN_RES LYS A 131
REMARK  4 active torsions:
REMARK  status: ('A' for Active; 'I' for Inactive)
REMARK    1  A    between atoms: CA   and  CB  
REMARK    2  A    between atoms: CB   and  CG  
REMARK    3  A    between atoms: CG   and  CD  
REMARK    4  A    between atoms: CD   and  CE  
ROOT
ATOM      1  CA  LYS A 131      29.867  25.555  16.977  1.00 20.52     0.186 C 
ENDROOT
BRANCH   1   2
ATOM      2  CB  LYS A 131      28.345  25.722  17.026  1.00 20.94     0.034 C 
BRANCH   2   3
ATOM      3  CG  LYS A 131      27.602  24.398  16.933  1.00 22.96     0.005 C 
BRANCH   3   4
ATOM      4  CD  LYS A 131      26.178  24.514  17.401  1.00 24.33     0.041 C 
BRANCH   4   5
ATOM      5  CE  LYS A 131      26.071  25.628  18.438  1.00 26.91     0.338 C 
ATOM      6  NZ  LYS A 131      25.613  25.085  19.738  1.00 27.40     0.618 N 
ENDBRANCH   4   5
ENDBRANCH   3   4
ENDBRANCH   2   3
ENDBRANCH   1   2
END_RES LYS A 131
BEGIN_RES LYS A 135
REMARK  4 active torsions:
REMARK  status: ('A' for Active; 'I' for Inactive)
REMARK    5  A    between atoms: CA   and  CB  
REMARK    6  A    between atoms: CB   and  CG  
REMARK    7  A    between atoms: CG   and  CD  
REMARK    8  A    between atoms: CD   and  CE  
ROOT
ATOM      7  CA  LYS A 135      33.193  34.663   9.290  1.00 25.02     0.186 C 
ENDROOT
BRANCH   7   8
ATOM      8  CB  LYS A 135      32.060  35.360  10.034  1.00 26.63     0.034 C 
BRANCH   8   9
ATOM      9  CG  LYS A 135      30.710  34.734   9.798  1.00 29.45     0.005 C 
BRANCH   9  10
ATOM     10  CD  LYS A 135      30.477  34.506   8.312  1.00 32.00     0.041 C 
BRANCH  10  11
ATOM     11  CE  LYS A 135      29.132  35.066   7.892  1.00 34.25     0.338 C 
ATOM     12  NZ  LYS A 135      28.948  36.456   8.396  1.00 35.99     0.618 N 
ENDBRANCH  10  11
ENDBRANCH   9  10
ENDBRANCH   8   9
ENDBRANCH   7   8
END_RES LYS A 135
