REMARK VINA RESULT:    -4.691      2.494      8.559
REMARK INTER + INTRA:         -21.839
REMARK INTER:                 -12.656
REMARK INTRA:                  -9.183
REMARK UNBOUND:               -10.018
REMARK SMILES COc1ccc(-n2cc(COC(=O)NC[C@@H](O)C(O)[C@@H]3O[C@@](OC[C@H]4O[C@@H](O[C@H]5[C@H](O)[C@@H](O)[C@H](OCCN=[N+]=[N-])O[C@@H]5CO)[C@H](O)[C@@H](O)[C@H]4O)(C(=O)O)C[C@H](O)[C@H]3NC(C)=O)nn2)cc1
REMARK SMILES IDX 22 1 54 2 55 3 57 4 20 5 21 6 23 7 24 8 25 9 27 10 26 11
REMARK SMILES IDX 45 12 47 13 49 14 28 15 29 16 42 17 41 18 34 19 30 20 32 21
REMARK SMILES IDX 43 22 44 23 35 25 36 26 37 27 38 28 39 29 40 30 31 31 33 33
REMARK SMILES IDX 46 35 48 37 50 39 51 41 52 42 53 43 56 45 18 47 19 48 16 50
REMARK SMILES IDX 17 51 15 53 14 54 12 55 13 57 11 58 10 59 9 60 8 61 62 62
REMARK SMILES IDX 7 63 63 64 6 65 5 66 64 67 4 68 65 69 3 70 2 71 1 72 58 73
REMARK SMILES IDX 59 74 60 76 61 77
REMARK H PARENT 44 24 31 32 33 34 46 36 48 38 50 40 53 44 56 46 19 49 17 52
REMARK H PARENT 14 56 58 75
REMARK Flexibility Score: inf
ROOT
ATOM      1  C   UNL     1      26.479  37.798   9.012  1.00  0.00     0.272 C 
ATOM      2  C   UNL     1      25.703  38.908   9.618  1.00  0.00     0.113 C 
ATOM      3  C   UNL     1      24.705  39.579   8.760  1.00  0.00     0.145 C 
ATOM      4  C   UNL     1      25.103  39.341   7.290  1.00  0.00     0.142 C 
ATOM      5  C   UNL     1      26.589  39.374   7.232  1.00  0.00     0.178 C 
ATOM      6  O   UNL     1      27.049  38.179   7.784  1.00  0.00    -0.332 OA
ENDROOT
BRANCH   1   7
ATOM      7  O   UNL     1      26.076  36.571   8.921  1.00  0.00    -0.338 OA
BRANCH   7   8
ATOM      8  C   UNL     1      25.099  35.857   8.501  1.00  0.00     0.199 C 
BRANCH   8   9
ATOM      9  C   UNL     1      24.031  35.274   9.381  1.00  0.00     0.179 C 
ATOM     10  C   UNL     1      23.350  34.761  11.501  1.00  0.00     0.282 C 
ATOM     11  O   UNL     1      24.277  35.448  10.700  1.00  0.00    -0.341 OA
ATOM     12  C   UNL     1      21.933  35.187  11.288  1.00  0.00     0.202 C 
ATOM     13  C   UNL     1      21.658  35.905  10.020  1.00  0.00     0.179 C 
ATOM     14  C   UNL     1      22.648  35.693   8.947  1.00  0.00     0.177 C 
BRANCH  10  15
ATOM     15  O   UNL     1      23.705  34.996  12.826  1.00  0.00    -0.341 OA
BRANCH  15  16
ATOM     16  C   UNL     1      24.356  33.941  13.404  1.00  0.00     0.184 C 
ATOM     17  C   UNL     1      23.677  33.444  14.627  1.00  0.00     0.178 C 
ATOM     18  O   UNL     1      24.441  32.418  15.246  1.00  0.00    -0.341 OA
ATOM     19  C   UNL     1      25.574  33.078  15.790  1.00  0.00     0.281 C 
ATOM     20  C   UNL     1      25.781  34.400  13.761  1.00  0.00     0.180 C 
ATOM     21  C   UNL     1      26.464  33.330  14.570  1.00  0.00     0.202 C 
BRANCH  17  22
ATOM     22  C   UNL     1      22.297  32.915  14.334  1.00  0.00     0.191 C 
BRANCH  22  23
ATOM     23  O   UNL     1      21.386  33.952  14.430  1.00  0.00    -0.394 OA
ATOM     24  H   UNL     1      21.736  34.804  14.088  1.00  0.00     0.210 HD
ENDBRANCH  22  23
ENDBRANCH  17  22
BRANCH  19  25
ATOM     25  O   UNL     1      26.189  32.320  16.724  1.00  0.00    -0.350 OA
BRANCH  25  26
ATOM     26  C   UNL     1      25.718  31.076  17.008  1.00  0.00     0.169 C 
BRANCH  26  27
ATOM     27  C   UNL     1      26.372  29.919  16.332  1.00  0.00     0.119 C 
BRANCH  27  28
ATOM     28  N   UNL     1      27.764  29.736  16.614  1.00  0.00    -0.092 NA
ATOM     29  N   UNL     1      28.618  30.458  16.112  1.00  0.00     0.001 N 
ATOM     30  N   UNL     1      29.372  31.177  15.448  1.00  0.00    -0.003 NA
ENDBRANCH  27  28
ENDBRANCH  26  27
ENDBRANCH  25  26
ENDBRANCH  19  25
BRANCH  20  31
ATOM     31  O   UNL     1      26.460  34.684  12.591  1.00  0.00    -0.387 OA
ATOM     32  H   UNL     1      25.925  34.283  11.838  1.00  0.00     0.211 HD
ENDBRANCH  20  31
BRANCH  21  33
ATOM     33  O   UNL     1      27.687  33.772  15.020  1.00  0.00    -0.385 OA
ATOM     34  H   UNL     1      28.169  34.278  14.320  1.00  0.00     0.211 HD
ENDBRANCH  21  33
ENDBRANCH  15  16
ENDBRANCH  10  15
BRANCH  12  35
ATOM     35  O   UNL     1      21.053  34.093  11.333  1.00  0.00    -0.385 OA
ATOM     36  H   UNL     1      21.412  33.323  10.836  1.00  0.00     0.211 HD
ENDBRANCH  12  35
BRANCH  13  37
ATOM     37  O   UNL     1      21.392  37.255  10.278  1.00  0.00    -0.387 OA
ATOM     38  H   UNL     1      22.027  37.863   9.849  1.00  0.00     0.211 HD
ENDBRANCH  13  37
BRANCH  14  39
ATOM     39  O   UNL     1      22.684  36.832   8.138  1.00  0.00    -0.387 OA
ATOM     40  H   UNL     1      23.394  36.682   7.465  1.00  0.00     0.211 HD
ENDBRANCH  14  39
ENDBRANCH   8   9
ENDBRANCH   7   8
ENDBRANCH   1   7
BRANCH   1  41
ATOM     41  C   UNL     1      27.760  37.760   9.905  1.00  0.00     0.364 C 
ATOM     42  O   UNL     1      28.678  38.560   9.712  1.00  0.00    -0.246 OA
BRANCH  41  43
ATOM     43  O   UNL     1      27.784  36.802  10.888  1.00  0.00    -0.477 OA
ATOM     44  H   UNL     1      27.474  37.004  11.849  1.00  0.00     0.296 HD
ENDBRANCH  41  43
ENDBRANCH   1  41
BRANCH   3  45
ATOM     45  O   UNL     1      23.391  39.293   8.996  1.00  0.00    -0.391 OA
ATOM     46  H   UNL     1      23.212  38.628   9.697  1.00  0.00     0.211 HD
ENDBRANCH   3  45
BRANCH   5  47
ATOM     47  C   UNL     1      27.147  39.379   5.789  1.00  0.00     0.176 C 
BRANCH  47  48
ATOM     48  O   UNL     1      27.630  40.608   5.459  1.00  0.00    -0.388 OA
ATOM     49  H   UNL     1      28.524  40.729   5.856  1.00  0.00     0.211 HD
ENDBRANCH  47  48
BRANCH  47  50
ATOM     50  C   UNL     1      27.838  38.158   5.455  1.00  0.00     0.165 C 
BRANCH  50  51
ATOM     51  O   UNL     1      27.053  36.972   5.465  1.00  0.00    -0.388 OA
ATOM     52  H   UNL     1      26.772  36.853   6.394  1.00  0.00     0.211 HD
ENDBRANCH  50  51
BRANCH  50  53
ATOM     53  C   UNL     1      29.131  37.746   6.025  1.00  0.00     0.154 C 
BRANCH  53  54
ATOM     54  N   UNL     1      29.794  38.596   6.906  1.00  0.00    -0.319 N 
ATOM     55  C   UNL     1      30.600  39.694   6.570  1.00  0.00     0.407 C 
ATOM     56  H   UNL     1      29.689  38.406   7.961  1.00  0.00     0.167 HD
ATOM     57  O   UNL     1      30.789  40.038   5.392  1.00  0.00    -0.225 OA
BRANCH  55  58
ATOM     58  O   UNL     1      31.217  40.437   7.603  1.00  0.00    -0.443 OA
BRANCH  58  59
ATOM     59  C   UNL     1      32.353  39.874   8.211  1.00  0.00     0.294 C 
BRANCH  59  60
ATOM     60  C   UNL     1      32.017  39.427   9.583  1.00  0.00     0.121 A 
ATOM     61  C   UNL     1      31.979  38.152  10.115  1.00  0.00     0.144 A 
ATOM     62  N   UNL     1      31.693  40.262  10.590  1.00  0.00    -0.131 NA
ATOM     63  N   UNL     1      31.638  38.264  11.405  1.00  0.00    -0.220 N 
ATOM     64  N   UNL     1      31.468  39.563  11.670  1.00  0.00    -0.062 NA
BRANCH  63  65
ATOM     65  C   UNL     1      31.460  37.291  12.422  1.00  0.00     0.067 A 
ATOM     66  C   UNL     1      32.364  36.304  12.709  1.00  0.00     0.032 A 
ATOM     67  C   UNL     1      30.290  37.321  13.179  1.00  0.00     0.032 A 
ATOM     68  C   UNL     1      32.121  35.376  13.712  1.00  0.00     0.048 A 
ATOM     69  C   UNL     1      30.048  36.398  14.177  1.00  0.00     0.048 A 
ATOM     70  C   UNL     1      30.960  35.405  14.465  1.00  0.00     0.119 A 
BRANCH  70  71
ATOM     71  O   UNL     1      30.726  34.456  15.479  1.00  0.00    -0.497 OA
ATOM     72  C   UNL     1      31.850  33.671  15.904  1.00  0.00     0.278 C 
ENDBRANCH  70  71
ENDBRANCH  63  65
ENDBRANCH  59  60
ENDBRANCH  58  59
ENDBRANCH  55  58
ENDBRANCH  53  54
ENDBRANCH  50  53
ENDBRANCH  47  50
ENDBRANCH   5  47
BRANCH   4  73
ATOM     73  N   UNL     1      24.377  40.265   6.464  1.00  0.00    -0.348 N 
ATOM     74  C   UNL     1      24.505  41.667   6.638  1.00  0.00     0.217 C 
ATOM     75  H   UNL     1      23.770  39.902   5.708  1.00  0.00     0.163 HD
ATOM     76  C   UNL     1      23.740  42.601   5.771  1.00  0.00     0.114 C 
ATOM     77  O   UNL     1      25.253  42.178   7.512  1.00  0.00    -0.275 OA
ENDBRANCH   4  73
TORSDOF 31
BEGIN_RES LYS A 131
REMARK  4 active torsions:
REMARK  status: ('A' for Active; 'I' for Inactive)
REMARK    1  A    between atoms: CA   and  CB  
REMARK    2  A    between atoms: CB   and  CG  
REMARK    3  A    between atoms: CG   and  CD  
REMARK    4  A    between atoms: CD   and  CE  
ROOT
ATOM      1  CA  LYS A 131      29.867  25.555  16.977  1.00 20.52     0.186 C 
ENDROOT
BRANCH   1   2
ATOM      2  CB  LYS A 131      28.345  25.722  17.026  1.00 20.94     0.034 C 
BRANCH   2   3
ATOM      3  CG  LYS A 131      27.599  24.475  16.575  1.00 22.96     0.005 C 
BRANCH   3   4
ATOM      4  CD  LYS A 131      27.263  23.569  17.727  1.00 24.33     0.041 C 
BRANCH   4   5
ATOM      5  CE  LYS A 131      25.749  23.516  17.908  1.00 26.91     0.338 C 
ATOM      6  NZ  LYS A 131      25.078  24.404  16.929  1.00 27.40     0.618 N 
ENDBRANCH   4   5
ENDBRANCH   3   4
ENDBRANCH   2   3
ENDBRANCH   1   2
END_RES LYS A 131
BEGIN_RES LYS A 135
REMARK  4 active torsions:
REMARK  status: ('A' for Active; 'I' for Inactive)
REMARK    5  A    between atoms: CA   and  CB  
REMARK    6  A    between atoms: CB   and  CG  
REMARK    7  A    between atoms: CG   and  CD  
REMARK    8  A    between atoms: CD   and  CE  
ROOT
ATOM      7  CA  LYS A 135      33.193  34.663   9.290  1.00 25.02     0.186 C 
ENDROOT
BRANCH   7   8
ATOM      8  CB  LYS A 135      32.060  35.360  10.034  1.00 26.63     0.034 C 
BRANCH   8   9
ATOM      9  CG  LYS A 135      30.712  34.724   9.812  1.00 29.45     0.005 C 
BRANCH   9  10
ATOM     10  CD  LYS A 135      30.107  35.194   8.498  1.00 32.00     0.041 C 
BRANCH  10  11
ATOM     11  CE  LYS A 135      28.778  34.506   8.248  1.00 34.25     0.338 C 
ATOM     12  NZ  LYS A 135      28.299  33.803   9.470  1.00 35.99     0.618 N 
ENDBRANCH  10  11
ENDBRANCH   9  10
ENDBRANCH   8   9
ENDBRANCH   7   8
END_RES LYS A 135
