REMARK VINA RESULT:    -5.189      2.434      4.591
REMARK INTER + INTRA:         -22.841
REMARK INTER:                 -12.844
REMARK INTRA:                  -9.997
REMARK UNBOUND:               -10.068
REMARK SMILES CC(=O)N[C@@H]1[C@@H](O)C[C@](OC[C@H]2O[C@@H](O[C@H]3[C@H](O)[C@@H](O)[C@H](OCCN=[N+]=[N-])O[C@@H]3CO)[C@H](O)[C@@H](O)[C@H]2O)(C(=O)O)O[C@H]1C(O)[C@H](O)CNC(=O)OCc1cn(-c2cnc3ccccc3c2)nn1
REMARK SMILES IDX 9 1 8 2 6 3 5 4 42 5 41 6 10 7 11 8 12 9 14 10 13 11 32 12
REMARK SMILES IDX 34 13 36 14 15 15 16 16 29 17 28 18 21 19 17 20 19 21 30 22
REMARK SMILES IDX 31 23 22 25 23 26 24 27 25 28 26 29 27 30 18 31 20 33 33 35
REMARK SMILES IDX 35 37 37 39 38 41 39 42 40 43 7 45 43 47 44 48 45 50 46 51
REMARK SMILES IDX 47 53 48 54 49 55 50 57 51 58 52 59 53 60 54 61 67 62 55 63
REMARK SMILES IDX 66 64 56 65 57 66 65 67 58 68 64 69 59 70 63 71 60 72 62 73
REMARK SMILES IDX 61 74 4 75 2 76 1 78 3 79
REMARK H PARENT 31 24 18 32 20 34 33 36 35 38 37 40 40 44 7 46 44 49 46 52
REMARK H PARENT 48 56 4 77
REMARK Flexibility Score: inf
ROOT
ATOM      1  C   UNL     1      29.565  31.384  18.587  1.00  0.00     0.272 C 
ATOM      2  C   UNL     1      29.573  32.678  19.317  1.00  0.00     0.113 C 
ATOM      3  C   UNL     1      28.482  33.616  18.839  1.00  0.00     0.145 C 
ATOM      4  C   UNL     1      27.204  32.776  18.835  1.00  0.00     0.142 C 
ATOM      5  C   UNL     1      27.396  31.730  17.725  1.00  0.00     0.178 C 
ATOM      6  O   UNL     1      28.343  30.851  18.293  1.00  0.00    -0.332 OA
ENDROOT
BRANCH   1   7
ATOM      7  O   UNL     1      30.228  30.379  19.324  1.00  0.00    -0.338 OA
BRANCH   7   8
ATOM      8  C   UNL     1      31.179  30.846  20.188  1.00  0.00     0.199 C 
BRANCH   8   9
ATOM      9  C   UNL     1      31.273  29.893  21.360  1.00  0.00     0.179 C 
ATOM     10  C   UNL     1      30.135  28.949  23.115  1.00  0.00     0.282 C 
ATOM     11  O   UNL     1      30.047  29.481  21.839  1.00  0.00    -0.341 OA
ATOM     12  C   UNL     1      31.487  28.367  23.406  1.00  0.00     0.202 C 
ATOM     13  C   UNL     1      32.179  27.808  22.213  1.00  0.00     0.179 C 
ATOM     14  C   UNL     1      32.302  28.863  21.152  1.00  0.00     0.177 C 
BRANCH  10  15
ATOM     15  O   UNL     1      29.108  28.051  23.307  1.00  0.00    -0.341 OA
BRANCH  15  16
ATOM     16  C   UNL     1      28.048  28.239  22.418  1.00  0.00     0.184 C 
ATOM     17  C   UNL     1      26.818  28.809  23.081  1.00  0.00     0.178 C 
ATOM     18  O   UNL     1      25.648  28.177  22.797  1.00  0.00    -0.341 OA
ATOM     19  C   UNL     1      25.403  27.836  21.496  1.00  0.00     0.281 C 
ATOM     20  C   UNL     1      27.778  27.018  21.584  1.00  0.00     0.180 C 
ATOM     21  C   UNL     1      26.556  27.237  20.750  1.00  0.00     0.202 C 
BRANCH  17  22
ATOM     22  C   UNL     1      26.764  30.328  22.903  1.00  0.00     0.191 C 
BRANCH  22  23
ATOM     23  O   UNL     1      27.193  30.723  21.639  1.00  0.00    -0.394 OA
ATOM     24  H   UNL     1      27.200  31.694  21.524  1.00  0.00     0.210 HD
ENDBRANCH  22  23
ENDBRANCH  17  22
BRANCH  19  25
ATOM     25  O   UNL     1      24.789  28.856  20.766  1.00  0.00    -0.350 OA
BRANCH  25  26
ATOM     26  C   UNL     1      23.580  29.242  21.306  1.00  0.00     0.169 C 
BRANCH  26  27
ATOM     27  C   UNL     1      22.506  29.376  20.251  1.00  0.00     0.119 C 
BRANCH  27  28
ATOM     28  N   UNL     1      23.092  29.512  18.933  1.00  0.00    -0.092 NA
ATOM     29  N   UNL     1      22.684  30.335  18.114  1.00  0.00     0.001 N 
ATOM     30  N   UNL     1      22.559  31.381  17.477  1.00  0.00    -0.003 NA
ENDBRANCH  27  28
ENDBRANCH  26  27
ENDBRANCH  25  26
ENDBRANCH  19  25
BRANCH  20  31
ATOM     31  O   UNL     1      28.868  26.847  20.703  1.00  0.00    -0.387 OA
ATOM     32  H   UNL     1      29.721  26.836  21.216  1.00  0.00     0.211 HD
ENDBRANCH  20  31
BRANCH  21  33
ATOM     33  O   UNL     1      26.225  25.988  20.174  1.00  0.00    -0.385 OA
ATOM     34  H   UNL     1      26.657  25.254  20.702  1.00  0.00     0.211 HD
ENDBRANCH  21  33
ENDBRANCH  15  16
ENDBRANCH  10  15
BRANCH  12  35
ATOM     35  O   UNL     1      32.347  29.251  24.051  1.00  0.00    -0.385 OA
ATOM     36  H   UNL     1      32.389  30.124  23.594  1.00  0.00     0.211 HD
ENDBRANCH  12  35
BRANCH  13  37
ATOM     37  O   UNL     1      31.518  26.672  21.740  1.00  0.00    -0.387 OA
ATOM     38  H   UNL     1      31.955  25.872  22.076  1.00  0.00     0.211 HD
ENDBRANCH  13  37
BRANCH  14  39
ATOM     39  O   UNL     1      32.231  28.215  19.923  1.00  0.00    -0.387 OA
ATOM     40  H   UNL     1      33.100  27.926  19.587  1.00  0.00     0.211 HD
ENDBRANCH  14  39
ENDBRANCH   8   9
ENDBRANCH   7   8
ENDBRANCH   1   7
BRANCH   1  41
ATOM     41  C   UNL     1      30.280  31.576  17.278  1.00  0.00     0.364 C 
ATOM     42  O   UNL     1      30.953  32.635  17.055  1.00  0.00    -0.246 OA
BRANCH  41  43
ATOM     43  O   UNL     1      30.270  30.666  16.248  1.00  0.00    -0.477 OA
ATOM     44  H   UNL     1      29.441  30.493  15.658  1.00  0.00     0.296 HD
ENDBRANCH  41  43
ENDBRANCH   1  41
BRANCH   3  45
ATOM     45  O   UNL     1      28.360  34.731  19.632  1.00  0.00    -0.391 OA
ATOM     46  H   UNL     1      29.198  35.235  19.585  1.00  0.00     0.211 HD
ENDBRANCH   3  45
BRANCH   5  47
ATOM     47  C   UNL     1      26.155  30.905  17.526  1.00  0.00     0.176 C 
BRANCH  47  48
ATOM     48  O   UNL     1      25.969  30.144  18.711  1.00  0.00    -0.388 OA
ATOM     49  H   UNL     1      25.011  29.929  18.846  1.00  0.00     0.211 HD
ENDBRANCH  47  48
BRANCH  47  50
ATOM     50  C   UNL     1      26.247  29.884  16.401  1.00  0.00     0.165 C 
BRANCH  50  51
ATOM     51  O   UNL     1      27.424  30.317  15.693  1.00  0.00    -0.388 OA
ATOM     52  H   UNL     1      28.079  29.583  15.757  1.00  0.00     0.211 HD
ENDBRANCH  50  51
BRANCH  50  53
ATOM     53  C   UNL     1      25.150  30.122  15.385  1.00  0.00     0.154 C 
BRANCH  53  54
ATOM     54  N   UNL     1      24.823  31.470  15.111  1.00  0.00    -0.319 N 
ATOM     55  C   UNL     1      24.470  31.970  13.839  1.00  0.00     0.407 C 
ATOM     56  H   UNL     1      24.851  32.152  15.934  1.00  0.00     0.167 HD
ATOM     57  O   UNL     1      24.448  31.191  12.866  1.00  0.00    -0.225 OA
BRANCH  55  58
ATOM     58  O   UNL     1      24.166  33.307  13.729  1.00  0.00    -0.443 OA
BRANCH  58  59
ATOM     59  C   UNL     1      22.915  33.768  13.295  1.00  0.00     0.294 C 
BRANCH  59  60
ATOM     60  C   UNL     1      23.056  34.449  11.968  1.00  0.00     0.121 A 
ATOM     61  C   UNL     1      24.188  34.845  11.340  1.00  0.00     0.144 A 
ATOM     62  N   UNL     1      22.009  34.785  11.179  1.00  0.00    -0.131 NA
ATOM     63  N   UNL     1      23.800  35.413  10.182  1.00  0.00    -0.219 N 
ATOM     64  N   UNL     1      22.468  35.371  10.093  1.00  0.00    -0.062 NA
BRANCH  63  65
ATOM     65  C   UNL     1      24.692  35.968   9.219  1.00  0.00     0.085 A 
ATOM     66  C   UNL     1      24.461  37.208   8.717  1.00  0.00     0.140 A 
ATOM     67  C   UNL     1      25.789  35.220   8.822  1.00  0.00     0.040 A 
ATOM     68  N   UNL     1      25.319  37.720   7.812  1.00  0.00    -0.254 NA
ATOM     69  C   UNL     1      26.647  35.756   7.905  1.00  0.00     0.002 A 
ATOM     70  C   UNL     1      26.380  37.005   7.422  1.00  0.00     0.070 A 
ATOM     71  C   UNL     1      27.746  35.031   7.493  1.00  0.00     0.010 A 
ATOM     72  C   UNL     1      27.262  37.546   6.485  1.00  0.00     0.029 A 
ATOM     73  C   UNL     1      28.607  35.588   6.563  1.00  0.00     0.001 A 
ATOM     74  C   UNL     1      28.362  36.864   6.051  1.00  0.00     0.002 A 
ENDBRANCH  63  65
ENDBRANCH  59  60
ENDBRANCH  58  59
ENDBRANCH  55  58
ENDBRANCH  53  54
ENDBRANCH  50  53
ENDBRANCH  47  50
ENDBRANCH   5  47
BRANCH   4  75
ATOM     75  N   UNL     1      26.043  33.573  18.726  1.00  0.00    -0.348 N 
ATOM     76  C   UNL     1      24.927  33.374  19.622  1.00  0.00     0.217 C 
ATOM     77  H   UNL     1      25.913  34.340  18.035  1.00  0.00     0.163 HD
ATOM     78  C   UNL     1      23.717  34.191  19.523  1.00  0.00     0.114 C 
ATOM     79  O   UNL     1      25.054  32.460  20.492  1.00  0.00    -0.275 OA
ENDBRANCH   4  75
TORSDOF 30
BEGIN_RES LYS A 131
REMARK  4 active torsions:
REMARK  status: ('A' for Active; 'I' for Inactive)
REMARK    1  A    between atoms: CA   and  CB  
REMARK    2  A    between atoms: CB   and  CG  
REMARK    3  A    between atoms: CG   and  CD  
REMARK    4  A    between atoms: CD   and  CE  
ROOT
ATOM      1  CA  LYS A 131      29.867  25.555  16.977  1.00 20.52     0.186 C 
ENDROOT
BRANCH   1   2
ATOM      2  CB  LYS A 131      28.345  25.722  17.026  1.00 20.94     0.034 C 
BRANCH   2   3
ATOM      3  CG  LYS A 131      27.603  24.396  16.956  1.00 22.96     0.005 C 
BRANCH   3   4
ATOM      4  CD  LYS A 131      26.112  24.577  17.037  1.00 24.33     0.041 C 
BRANCH   4   5
ATOM      5  CE  LYS A 131      25.467  23.278  17.508  1.00 26.91     0.338 C 
ATOM      6  NZ  LYS A 131      25.756  23.046  18.943  1.00 27.40     0.618 N 
ENDBRANCH   4   5
ENDBRANCH   3   4
ENDBRANCH   2   3
ENDBRANCH   1   2
END_RES LYS A 131
BEGIN_RES LYS A 135
REMARK  4 active torsions:
REMARK  status: ('A' for Active; 'I' for Inactive)
REMARK    5  A    between atoms: CA   and  CB  
REMARK    6  A    between atoms: CB   and  CG  
REMARK    7  A    between atoms: CG   and  CD  
REMARK    8  A    between atoms: CD   and  CE  
ROOT
ATOM      7  CA  LYS A 135      33.193  34.663   9.290  1.00 25.02     0.186 C 
ENDROOT
BRANCH   7   8
ATOM      8  CB  LYS A 135      32.060  35.360  10.034  1.00 26.63     0.034 C 
BRANCH   8   9
ATOM      9  CG  LYS A 135      30.690  34.868   9.644  1.00 29.45     0.005 C 
BRANCH   9  10
ATOM     10  CD  LYS A 135      29.618  35.541  10.486  1.00 32.00     0.041 C 
BRANCH  10  11
ATOM     11  CE  LYS A 135      29.472  36.999  10.095  1.00 34.25     0.338 C 
ATOM     12  NZ  LYS A 135      29.038  37.825  11.256  1.00 35.99     0.618 N 
ENDBRANCH  10  11
ENDBRANCH   9  10
ENDBRANCH   8   9
ENDBRANCH   7   8
END_RES LYS A 135
