REMARK VINA RESULT:    -3.071      5.938     11.474
REMARK INTER + INTRA:         -21.337
REMARK INTER:                 -10.875
REMARK INTRA:                 -10.463
REMARK UNBOUND:               -13.239
REMARK SMILES CCOC(=O)Cn1cc(COC(=O)NC[C@@H](O)C(O)[C@@H]2O[C@@](OC[C@H]3O[C@@H](O[C@H]4[C@H](O)[C@@H](O)[C@H](OCCN=[N+]=[N-])O[C@@H]4CO)[C@H](O)[C@@H](O)[C@H]3O)(C(=O)O)C[C@H](O)[C@H]2NC(C)=O)nn1
REMARK SMILES IDX 18 1 20 2 22 3 54 4 21 5 55 6 57 7 23 8 24 9 25 10 27 11
REMARK SMILES IDX 26 12 45 13 47 14 49 15 28 16 29 17 42 18 41 19 34 20 30 21
REMARK SMILES IDX 32 22 43 23 44 24 35 26 36 27 37 28 38 29 39 30 40 31 31 32
REMARK SMILES IDX 33 34 46 36 48 38 50 40 51 42 52 43 53 44 56 46 58 48 59 49
REMARK SMILES IDX 60 51 61 52 19 53 16 55 17 56 15 58 14 59 12 60 13 62 11 63
REMARK SMILES IDX 10 64 9 65 8 66 62 67 7 68 63 69 6 70 4 71 5 72 3 73 2 74
REMARK SMILES IDX 1 75
REMARK H PARENT 44 25 31 33 33 35 46 37 48 39 50 41 53 45 56 47 58 50 19 54
REMARK H PARENT 17 57 14 61
REMARK Flexibility Score: inf
ROOT
ATOM      1  C   UNL     1      25.357  37.326   8.017  1.00  0.00     0.176 C 
ENDROOT
BRANCH   1   2
ATOM      2  C   UNL     1      26.609  36.640   7.544  1.00  0.00     0.178 C 
ATOM      3  C   UNL     1      28.651  35.821   8.336  1.00  0.00     0.272 C 
ATOM      4  C   UNL     1      28.966  35.771   6.881  1.00  0.00     0.113 C 
ATOM      5  O   UNL     1      27.275  36.027   8.572  1.00  0.00    -0.332 OA
ATOM      6  C   UNL     1      28.552  36.991   6.122  1.00  0.00     0.145 C 
ATOM      7  C   UNL     1      27.491  37.715   6.934  1.00  0.00     0.142 C 
BRANCH   3   8
ATOM      8  O   UNL     1      29.366  36.744   9.068  1.00  0.00    -0.338 OA
BRANCH   8   9
ATOM      9  C   UNL     1      28.926  37.067  10.305  1.00  0.00     0.199 C 
BRANCH   9  10
ATOM     10  C   UNL     1      29.402  38.497  10.627  1.00  0.00     0.179 C 
ATOM     11  C   UNL     1      30.247  40.428   9.659  1.00  0.00     0.282 C 
ATOM     12  O   UNL     1      30.013  39.074   9.560  1.00  0.00    -0.341 OA
ATOM     13  C   UNL     1      29.039  41.226  10.046  1.00  0.00     0.202 C 
ATOM     14  C   UNL     1      28.610  40.740  11.407  1.00  0.00     0.179 C 
ATOM     15  C   UNL     1      28.306  39.285  11.279  1.00  0.00     0.177 C 
BRANCH  11  16
ATOM     16  O   UNL     1      30.774  40.973   8.500  1.00  0.00    -0.341 OA
BRANCH  16  17
ATOM     17  C   UNL     1      32.119  40.779   8.318  1.00  0.00     0.184 C 
ATOM     18  C   UNL     1      32.876  42.055   8.015  1.00  0.00     0.178 C 
ATOM     19  O   UNL     1      33.326  42.084   6.703  1.00  0.00    -0.341 OA
ATOM     20  C   UNL     1      34.298  41.088   6.455  1.00  0.00     0.281 C 
ATOM     21  C   UNL     1      32.339  39.804   7.162  1.00  0.00     0.180 C 
ATOM     22  C   UNL     1      33.843  39.746   6.934  1.00  0.00     0.202 C 
BRANCH  18  23
ATOM     23  C   UNL     1      33.964  42.266   9.035  1.00  0.00     0.191 C 
BRANCH  23  24
ATOM     24  O   UNL     1      34.532  43.547   8.905  1.00  0.00    -0.394 OA
ATOM     25  H   UNL     1      33.891  44.247   9.142  1.00  0.00     0.210 HD
ENDBRANCH  23  24
ENDBRANCH  18  23
BRANCH  20  26
ATOM     26  O   UNL     1      35.510  41.453   6.979  1.00  0.00    -0.350 OA
BRANCH  26  27
ATOM     27  C   UNL     1      36.572  41.653   6.164  1.00  0.00     0.169 C 
BRANCH  27  28
ATOM     28  C   UNL     1      36.509  41.197   4.754  1.00  0.00     0.119 C 
BRANCH  28  29
ATOM     29  N   UNL     1      37.394  40.155   4.360  1.00  0.00    -0.092 NA
ATOM     30  N   UNL     1      37.175  38.966   4.674  1.00  0.00     0.001 N 
ATOM     31  N   UNL     1      36.672  37.854   4.915  1.00  0.00    -0.003 NA
ENDBRANCH  28  29
ENDBRANCH  27  28
ENDBRANCH  26  27
ENDBRANCH  20  26
BRANCH  21  32
ATOM     32  O   UNL     1      31.867  38.541   7.529  1.00  0.00    -0.387 OA
ATOM     33  H   UNL     1      32.656  37.917   7.482  1.00  0.00     0.211 HD
ENDBRANCH  21  32
BRANCH  22  34
ATOM     34  O   UNL     1      34.133  38.716   6.035  1.00  0.00    -0.385 OA
ATOM     35  H   UNL     1      34.272  37.840   6.472  1.00  0.00     0.211 HD
ENDBRANCH  22  34
ENDBRANCH  16  17
ENDBRANCH  11  16
BRANCH  13  36
ATOM     36  O   UNL     1      29.392  42.569  10.103  1.00  0.00    -0.385 OA
ATOM     37  H   UNL     1      30.084  42.845   9.484  1.00  0.00     0.211 HD
ENDBRANCH  13  36
BRANCH  14  38
ATOM     38  O   UNL     1      27.428  41.431  11.756  1.00  0.00    -0.387 OA
ATOM     39  H   UNL     1      27.647  42.239  12.283  1.00  0.00     0.211 HD
ENDBRANCH  14  38
BRANCH  15  40
ATOM     40  O   UNL     1      27.093  39.170  10.561  1.00  0.00    -0.387 OA
ATOM     41  H   UNL     1      26.387  39.222  11.262  1.00  0.00     0.211 HD
ENDBRANCH  15  40
ENDBRANCH   9  10
ENDBRANCH   8   9
ENDBRANCH   3   8
BRANCH   3  42
ATOM     42  C   UNL     1      28.897  34.468   8.892  1.00  0.00     0.364 C 
ATOM     43  O   UNL     1      30.057  33.999   8.884  1.00  0.00    -0.246 OA
BRANCH  42  44
ATOM     44  O   UNL     1      27.872  33.727   9.410  1.00  0.00    -0.477 OA
ATOM     45  H   UNL     1      26.916  34.070   9.446  1.00  0.00     0.296 HD
ENDBRANCH  42  44
ENDBRANCH   3  42
BRANCH   6  46
ATOM     46  O   UNL     1      29.580  37.823   5.750  1.00  0.00    -0.391 OA
ATOM     47  H   UNL     1      29.665  37.799   4.755  1.00  0.00     0.211 HD
ENDBRANCH   6  46
BRANCH   7  48
ATOM     48  N   UNL     1      26.720  38.615   6.088  1.00  0.00    -0.348 N 
ATOM     49  C   UNL     1      26.477  39.963   6.445  1.00  0.00     0.217 C 
ATOM     50  H   UNL     1      26.343  38.256   5.194  1.00  0.00     0.163 HD
ATOM     51  C   UNL     1      25.688  40.895   5.586  1.00  0.00     0.114 C 
ATOM     52  O   UNL     1      26.951  40.381   7.536  1.00  0.00    -0.275 OA
ENDBRANCH   7  48
ENDBRANCH   1   2
BRANCH   1  53
ATOM     53  O   UNL     1      24.337  37.169   7.100  1.00  0.00    -0.388 OA
ATOM     54  H   UNL     1      24.273  37.923   6.446  1.00  0.00     0.211 HD
ENDBRANCH   1  53
BRANCH   1  55
ATOM     55  C   UNL     1      24.880  36.824   9.369  1.00  0.00     0.165 C 
BRANCH  55  56
ATOM     56  O   UNL     1      24.447  35.520   9.336  1.00  0.00    -0.388 OA
ATOM     57  H   UNL     1      23.517  35.396   9.636  1.00  0.00     0.211 HD
ENDBRANCH  55  56
BRANCH  55  58
ATOM     58  C   UNL     1      23.816  37.745   9.866  1.00  0.00     0.154 C 
BRANCH  58  59
ATOM     59  N   UNL     1      24.086  39.126   9.678  1.00  0.00    -0.319 N 
ATOM     60  C   UNL     1      23.442  39.971   8.736  1.00  0.00     0.407 C 
ATOM     61  H   UNL     1      24.838  39.615  10.280  1.00  0.00     0.167 HD
ATOM     62  O   UNL     1      22.552  39.554   7.976  1.00  0.00    -0.225 OA
BRANCH  60  63
ATOM     63  O   UNL     1      23.818  41.324   8.661  1.00  0.00    -0.443 OA
BRANCH  63  64
ATOM     64  C   UNL     1      24.309  41.991   9.776  1.00  0.00     0.294 C 
BRANCH  64  65
ATOM     65  C   UNL     1      25.383  42.958   9.477  1.00  0.00     0.120 A 
ATOM     66  C   UNL     1      25.720  43.450   8.231  1.00  0.00     0.139 A 
ATOM     67  N   UNL     1      26.238  43.534  10.331  1.00  0.00    -0.132 NA
ATOM     68  N   UNL     1      26.764  44.305   8.356  1.00  0.00    -0.241 N 
ATOM     69  N   UNL     1      27.049  44.331   9.640  1.00  0.00    -0.066 NA
BRANCH  68  70
ATOM     70  C   UNL     1      27.393  45.011   7.247  1.00  0.00     0.268 C 
BRANCH  70  71
ATOM     71  C   UNL     1      28.796  44.476   7.116  1.00  0.00     0.327 C 
ATOM     72  O   UNL     1      29.037  43.254   7.067  1.00  0.00    -0.250 OA
BRANCH  71  73
ATOM     73  O   UNL     1      29.882  45.330   7.045  1.00  0.00    -0.465 OA
BRANCH  73  74
ATOM     74  C   UNL     1      31.029  45.229   7.839  1.00  0.00     0.229 C 
ATOM     75  C   UNL     1      32.284  45.651   7.116  1.00  0.00     0.049 C 
ENDBRANCH  73  74
ENDBRANCH  71  73
ENDBRANCH  70  71
ENDBRANCH  68  70
ENDBRANCH  64  65
ENDBRANCH  63  64
ENDBRANCH  60  63
ENDBRANCH  58  59
ENDBRANCH  55  58
ENDBRANCH   1  55
TORSDOF 33
BEGIN_RES LYS A 131
REMARK  4 active torsions:
REMARK  status: ('A' for Active; 'I' for Inactive)
REMARK    1  A    between atoms: CA   and  CB  
REMARK    2  A    between atoms: CB   and  CG  
REMARK    3  A    between atoms: CG   and  CD  
REMARK    4  A    between atoms: CD   and  CE  
ROOT
ATOM      1  CA  LYS A 131      29.867  25.555  16.977  1.00 20.52     0.186 C 
ENDROOT
BRANCH   1   2
ATOM      2  CB  LYS A 131      28.345  25.722  17.026  1.00 20.94     0.034 C 
BRANCH   2   3
ATOM      3  CG  LYS A 131      27.600  24.418  16.789  1.00 22.96     0.005 C 
BRANCH   3   4
ATOM      4  CD  LYS A 131      26.833  23.974  18.004  1.00 24.33     0.041 C 
BRANCH   4   5
ATOM      5  CE  LYS A 131      25.499  24.712  18.061  1.00 26.91     0.338 C 
ATOM      6  NZ  LYS A 131      24.654  24.346  16.900  1.00 27.40     0.618 N 
ENDBRANCH   4   5
ENDBRANCH   3   4
ENDBRANCH   2   3
ENDBRANCH   1   2
END_RES LYS A 131
BEGIN_RES LYS A 135
REMARK  4 active torsions:
REMARK  status: ('A' for Active; 'I' for Inactive)
REMARK    5  A    between atoms: CA   and  CB  
REMARK    6  A    between atoms: CB   and  CG  
REMARK    7  A    between atoms: CG   and  CD  
REMARK    8  A    between atoms: CD   and  CE  
ROOT
ATOM      7  CA  LYS A 135      33.193  34.663   9.290  1.00 25.02     0.186 C 
ENDROOT
BRANCH   7   8
ATOM      8  CB  LYS A 135      32.060  35.360  10.034  1.00 26.63     0.034 C 
BRANCH   8   9
ATOM      9  CG  LYS A 135      32.330  35.547  11.505  1.00 29.45     0.005 C 
BRANCH   9  10
ATOM     10  CD  LYS A 135      31.165  35.029  12.334  1.00 32.00     0.041 C 
BRANCH  10  11
ATOM     11  CE  LYS A 135      30.771  36.045  13.390  1.00 34.25     0.338 C 
ATOM     12  NZ  LYS A 135      31.746  37.168  13.444  1.00 35.99     0.618 N 
ENDBRANCH  10  11
ENDBRANCH   9  10
ENDBRANCH   8   9
ENDBRANCH   7   8
END_RES LYS A 135
