REMARK VINA RESULT:    -3.487      3.845      9.810
REMARK INTER + INTRA:         -20.580
REMARK INTER:                  -8.392
REMARK INTRA:                 -12.187
REMARK UNBOUND:               -11.690
REMARK SMILES CC(=O)N[C@@H]1[C@@H](O)C[C@](OC[C@H]2O[C@@H](O[C@H]3[C@H](O)[C@@H](O)[C@H](OCCN=[N+]=[N-])O[C@@H]3CO)[C@H](O)[C@@H](O)[C@H]2O)(C(=O)O)O[C@H]1C(O)[C@H](O)CNC(=O)OCc1cn(CCO)nn1
REMARK SMILES IDX 9 1 8 2 6 3 5 4 42 5 41 6 10 7 11 8 12 9 14 10 13 11 32 12
REMARK SMILES IDX 34 13 36 14 15 15 16 16 29 17 28 18 21 19 17 20 19 21 30 22
REMARK SMILES IDX 31 23 22 25 23 26 24 27 25 28 26 29 27 30 18 31 20 33 33 35
REMARK SMILES IDX 35 37 37 39 38 41 39 42 40 43 7 45 43 47 44 48 45 50 46 51
REMARK SMILES IDX 47 53 48 54 49 55 50 57 51 58 52 59 53 60 54 61 60 62 55 63
REMARK SMILES IDX 59 64 56 65 57 66 58 67 4 69 2 70 1 72 3 73
REMARK H PARENT 31 24 18 32 20 34 33 36 35 38 37 40 40 44 7 46 44 49 46 52
REMARK H PARENT 48 56 58 68 4 71
REMARK Flexibility Score: inf
ROOT
ATOM      1  C   UNL     1      26.810  31.392  17.574  1.00  0.00     0.272 C 
ATOM      2  C   UNL     1      26.727  30.690  18.890  1.00  0.00     0.113 C 
ATOM      3  C   UNL     1      25.289  30.443  19.255  1.00  0.00     0.145 C 
ATOM      4  C   UNL     1      24.693  29.648  18.094  1.00  0.00     0.142 C 
ATOM      5  C   UNL     1      24.706  30.588  16.894  1.00  0.00     0.178 C 
ATOM      6  O   UNL     1      26.085  30.743  16.618  1.00  0.00    -0.332 OA
ENDROOT
BRANCH   1   7
ATOM      7  O   UNL     1      28.147  31.463  17.119  1.00  0.00    -0.338 OA
BRANCH   7   8
ATOM      8  C   UNL     1      29.096  31.095  18.015  1.00  0.00     0.199 C 
BRANCH   8   9
ATOM      9  C   UNL     1      30.398  31.881  17.796  1.00  0.00     0.179 C 
ATOM     10  C   UNL     1      31.560  33.126  16.220  1.00  0.00     0.282 C 
ATOM     11  O   UNL     1      30.500  32.257  16.473  1.00  0.00    -0.341 OA
ATOM     12  C   UNL     1      31.411  34.435  16.949  1.00  0.00     0.202 C 
ATOM     13  C   UNL     1      30.492  34.364  18.142  1.00  0.00     0.179 C 
ATOM     14  C   UNL     1      30.577  32.999  18.765  1.00  0.00     0.177 C 
BRANCH  10  15
ATOM     15  O   UNL     1      31.558  33.353  14.897  1.00  0.00    -0.341 OA
BRANCH  15  16
ATOM     16  C   UNL     1      30.859  34.366  14.360  1.00  0.00     0.184 C 
ATOM     17  C   UNL     1      29.557  34.170  13.722  1.00  0.00     0.178 C 
ATOM     18  O   UNL     1      29.404  35.026  12.646  1.00  0.00    -0.341 OA
ATOM     19  C   UNL     1      29.834  36.307  12.783  1.00  0.00     0.281 C 
ATOM     20  C   UNL     1      31.794  34.959  13.274  1.00  0.00     0.180 C 
ATOM     21  C   UNL     1      31.331  36.392  13.120  1.00  0.00     0.202 C 
BRANCH  17  22
ATOM     22  C   UNL     1      28.376  34.406  14.660  1.00  0.00     0.191 C 
BRANCH  22  23
ATOM     23  O   UNL     1      27.325  33.525  14.404  1.00  0.00    -0.394 OA
ATOM     24  H   UNL     1      27.215  32.947  15.182  1.00  0.00     0.210 HD
ENDBRANCH  22  23
ENDBRANCH  17  22
BRANCH  19  25
ATOM     25  O   UNL     1      29.093  37.132  13.581  1.00  0.00    -0.350 OA
BRANCH  25  26
ATOM     26  C   UNL     1      29.771  37.956  14.427  1.00  0.00     0.169 C 
BRANCH  26  27
ATOM     27  C   UNL     1      28.993  38.216  15.672  1.00  0.00     0.119 C 
BRANCH  27  28
ATOM     28  N   UNL     1      29.717  37.644  16.820  1.00  0.00    -0.092 NA
ATOM     29  N   UNL     1      30.942  37.868  16.827  1.00  0.00     0.001 N 
ATOM     30  N   UNL     1      31.958  38.456  17.236  1.00  0.00    -0.003 NA
ENDBRANCH  27  28
ENDBRANCH  26  27
ENDBRANCH  25  26
ENDBRANCH  19  25
BRANCH  20  31
ATOM     31  O   UNL     1      33.108  34.848  13.645  1.00  0.00    -0.387 OA
ATOM     32  H   UNL     1      33.383  33.912  13.813  1.00  0.00     0.211 HD
ENDBRANCH  20  31
BRANCH  21  33
ATOM     33  O   UNL     1      32.066  37.052  12.172  1.00  0.00    -0.385 OA
ATOM     34  H   UNL     1      32.674  36.454  11.670  1.00  0.00     0.211 HD
ENDBRANCH  21  33
ENDBRANCH  15  16
ENDBRANCH  10  15
BRANCH  12  35
ATOM     35  O   UNL     1      32.671  34.783  17.462  1.00  0.00    -0.385 OA
ATOM     36  H   UNL     1      32.708  34.770  18.439  1.00  0.00     0.211 HD
ENDBRANCH  12  35
BRANCH  13  37
ATOM     37  O   UNL     1      29.224  34.724  17.768  1.00  0.00    -0.387 OA
ATOM     38  H   UNL     1      28.687  35.076  18.546  1.00  0.00     0.211 HD
ENDBRANCH  13  37
BRANCH  14  39
ATOM     39  O   UNL     1      29.527  32.910  19.706  1.00  0.00    -0.387 OA
ATOM     40  H   UNL     1      28.714  32.528  19.292  1.00  0.00     0.211 HD
ENDBRANCH  14  39
ENDBRANCH   8   9
ENDBRANCH   7   8
ENDBRANCH   1   7
BRANCH   1  41
ATOM     41  C   UNL     1      26.419  32.805  17.763  1.00  0.00     0.364 C 
ATOM     42  O   UNL     1      26.729  33.465  18.772  1.00  0.00    -0.246 OA
BRANCH  41  43
ATOM     43  O   UNL     1      25.675  33.467  16.801  1.00  0.00    -0.477 OA
ATOM     44  H   UNL     1      25.627  34.499  16.742  1.00  0.00     0.296 HD
ENDBRANCH  41  43
ENDBRANCH   1  41
BRANCH   3  45
ATOM     45  O   UNL     1      25.202  29.604  20.388  1.00  0.00    -0.391 OA
ATOM     46  H   UNL     1      24.423  29.889  20.937  1.00  0.00     0.211 HD
ENDBRANCH   3  45
BRANCH   5  47
ATOM     47  C   UNL     1      24.169  29.862  15.703  1.00  0.00     0.176 C 
BRANCH  47  48
ATOM     48  O   UNL     1      22.774  29.890  15.664  1.00  0.00    -0.388 OA
ATOM     49  H   UNL     1      22.392  29.017  15.382  1.00  0.00     0.211 HD
ENDBRANCH  47  48
BRANCH  47  50
ATOM     50  C   UNL     1      24.726  30.169  14.368  1.00  0.00     0.165 C 
BRANCH  50  51
ATOM     51  O   UNL     1      24.891  31.621  14.429  1.00  0.00    -0.388 OA
ATOM     52  H   UNL     1      24.060  32.035  14.101  1.00  0.00     0.211 HD
ENDBRANCH  50  51
BRANCH  50  53
ATOM     53  C   UNL     1      23.730  30.044  13.229  1.00  0.00     0.154 C 
BRANCH  53  54
ATOM     54  N   UNL     1      23.222  31.296  12.766  1.00  0.00    -0.319 N 
ATOM     55  C   UNL     1      21.833  31.579  12.814  1.00  0.00     0.407 C 
ATOM     56  H   UNL     1      23.859  32.041  12.365  1.00  0.00     0.167 HD
ATOM     57  O   UNL     1      21.086  30.654  13.281  1.00  0.00    -0.225 OA
BRANCH  55  58
ATOM     58  O   UNL     1      21.230  32.740  12.412  1.00  0.00    -0.443 OA
BRANCH  58  59
ATOM     59  C   UNL     1      21.280  33.872  13.260  1.00  0.00     0.294 C 
BRANCH  59  60
ATOM     60  C   UNL     1      22.645  34.334  13.519  1.00  0.00     0.120 A 
ATOM     61  C   UNL     1      23.395  35.117  12.676  1.00  0.00     0.138 A 
ATOM     62  N   UNL     1      23.427  34.105  14.586  1.00  0.00    -0.132 NA
ATOM     63  N   UNL     1      24.599  35.346  13.237  1.00  0.00    -0.250 N 
ATOM     64  N   UNL     1      24.599  34.725  14.394  1.00  0.00    -0.067 NA
BRANCH  63  65
ATOM     65  C   UNL     1      25.681  36.143  12.643  1.00  0.00     0.174 C 
BRANCH  65  66
ATOM     66  C   UNL     1      26.007  35.560  11.290  1.00  0.00     0.179 C 
BRANCH  66  67
ATOM     67  O   UNL     1      26.830  34.442  11.501  1.00  0.00    -0.394 OA
ATOM     68  H   UNL     1      27.224  34.414  12.390  1.00  0.00     0.210 HD
ENDBRANCH  66  67
ENDBRANCH  65  66
ENDBRANCH  63  65
ENDBRANCH  59  60
ENDBRANCH  58  59
ENDBRANCH  55  58
ENDBRANCH  53  54
ENDBRANCH  50  53
ENDBRANCH  47  50
ENDBRANCH   5  47
BRANCH   4  69
ATOM     69  N   UNL     1      23.464  29.032  18.404  1.00  0.00    -0.348 N 
ATOM     70  C   UNL     1      23.298  27.693  18.826  1.00  0.00     0.217 C 
ATOM     71  H   UNL     1      22.576  29.594  18.344  1.00  0.00     0.163 HD
ATOM     72  C   UNL     1      21.944  27.178  19.115  1.00  0.00     0.114 C 
ATOM     73  O   UNL     1      24.274  26.940  18.957  1.00  0.00    -0.275 OA
ENDBRANCH   4  69
TORSDOF 32
BEGIN_RES LYS A 131
REMARK  4 active torsions:
REMARK  status: ('A' for Active; 'I' for Inactive)
REMARK    1  A    between atoms: CA   and  CB  
REMARK    2  A    between atoms: CB   and  CG  
REMARK    3  A    between atoms: CG   and  CD  
REMARK    4  A    between atoms: CD   and  CE  
ROOT
ATOM      1  CA  LYS A 131      29.867  25.555  16.977  1.00 20.52     0.186 C 
ENDROOT
BRANCH   1   2
ATOM      2  CB  LYS A 131      28.345  25.722  17.026  1.00 20.94     0.034 C 
BRANCH   2   3
ATOM      3  CG  LYS A 131      27.601  24.403  16.881  1.00 22.96     0.005 C 
BRANCH   3   4
ATOM      4  CD  LYS A 131      26.145  24.533  17.232  1.00 24.33     0.041 C 
BRANCH   4   5
ATOM      5  CE  LYS A 131      25.572  23.154  17.545  1.00 26.91     0.338 C 
ATOM      6  NZ  LYS A 131      24.152  23.076  17.129  1.00 27.40     0.618 N 
ENDBRANCH   4   5
ENDBRANCH   3   4
ENDBRANCH   2   3
ENDBRANCH   1   2
END_RES LYS A 131
BEGIN_RES LYS A 135
REMARK  4 active torsions:
REMARK  status: ('A' for Active; 'I' for Inactive)
REMARK    5  A    between atoms: CA   and  CB  
REMARK    6  A    between atoms: CB   and  CG  
REMARK    7  A    between atoms: CG   and  CD  
REMARK    8  A    between atoms: CD   and  CE  
ROOT
ATOM      7  CA  LYS A 135      33.193  34.663   9.290  1.00 25.02     0.186 C 
ENDROOT
BRANCH   7   8
ATOM      8  CB  LYS A 135      32.060  35.360  10.034  1.00 26.63     0.034 C 
BRANCH   8   9
ATOM      9  CG  LYS A 135      30.820  35.553   9.199  1.00 29.45     0.005 C 
BRANCH   9  10
ATOM     10  CD  LYS A 135      30.162  34.215   8.898  1.00 32.00     0.041 C 
BRANCH  10  11
ATOM     11  CE  LYS A 135      28.710  34.412   8.508  1.00 34.25     0.338 C 
ATOM     12  NZ  LYS A 135      28.361  35.859   8.450  1.00 35.99     0.618 N 
ENDBRANCH  10  11
ENDBRANCH   9  10
ENDBRANCH   8   9
ENDBRANCH   7   8
END_RES LYS A 135
