REMARK VINA RESULT:    -4.876      0.000      0.000
REMARK INTER + INTRA:         -22.945
REMARK INTER:                 -12.897
REMARK INTRA:                 -10.047
REMARK UNBOUND:               -10.943
REMARK SMILES CC(=O)N[C@@H]1[C@@H](O)C[C@](OC[C@H]2O[C@@H](O[C@H]3[C@H](O)[C@@H](O)[C@H](OCCN=[N+]=[N-])O[C@@H]3CO)[C@H](O)[C@@H](O)[C@H]2O)(C(=O)O)O[C@H]1C(O)[C@H](O)CNC(=O)OCc1cn([C@@H]2C[C@H]3CC[C@@H](C2)N3C)nn1
REMARK SMILES IDX 9 1 8 2 6 3 5 4 42 5 41 6 10 7 11 8 12 9 14 10 13 11 32 12
REMARK SMILES IDX 34 13 36 14 15 15 16 16 29 17 28 18 21 19 17 20 19 21 30 22
REMARK SMILES IDX 31 23 22 25 23 26 24 27 25 28 26 29 27 30 18 31 20 33 33 35
REMARK SMILES IDX 35 37 37 39 38 41 39 42 40 43 7 45 43 47 44 48 45 50 46 51
REMARK SMILES IDX 47 53 48 54 49 55 50 57 51 58 52 59 53 60 54 61 66 62 55 63
REMARK SMILES IDX 65 64 56 65 62 66 57 67 61 68 58 69 63 70 60 71 59 72 64 73
REMARK SMILES IDX 4 74 2 75 1 77 3 78
REMARK H PARENT 31 24 18 32 20 34 33 36 35 38 37 40 40 44 7 46 44 49 46 52
REMARK H PARENT 48 56 4 76
REMARK Flexibility Score: inf
ROOT
ATOM      1  C   UNL     1      22.739  31.130  14.032  1.00  0.00     0.272 C 
ATOM      2  C   UNL     1      23.634  31.417  12.894  1.00  0.00     0.113 C 
ATOM      3  C   UNL     1      24.177  32.838  12.945  1.00  0.00     0.145 C 
ATOM      4  C   UNL     1      22.996  33.829  13.072  1.00  0.00     0.142 C 
ATOM      5  C   UNL     1      21.980  33.339  14.025  1.00  0.00     0.178 C 
ATOM      6  O   UNL     1      22.536  32.324  14.776  1.00  0.00    -0.332 OA
ENDROOT
BRANCH   1   7
ATOM      7  O   UNL     1      22.980  30.124  14.898  1.00  0.00    -0.338 OA
BRANCH   7   8
ATOM      8  C   UNL     1      24.085  29.575  15.288  1.00  0.00     0.199 C 
BRANCH   8   9
ATOM      9  C   UNL     1      24.397  29.607  16.777  1.00  0.00     0.179 C 
ATOM     10  C   UNL     1      26.561  30.151  17.518  1.00  0.00     0.282 C 
ATOM     11  O   UNL     1      25.742  29.237  16.922  1.00  0.00    -0.341 OA
ATOM     12  C   UNL     1      26.094  30.607  18.860  1.00  0.00     0.202 C 
ATOM     13  C   UNL     1      24.690  31.085  18.732  1.00  0.00     0.179 C 
ATOM     14  C   UNL     1      24.121  30.955  17.363  1.00  0.00     0.177 C 
BRANCH  10  15
ATOM     15  O   UNL     1      26.955  31.177  16.677  1.00  0.00    -0.341 OA
BRANCH  15  16
ATOM     16  C   UNL     1      28.259  31.591  16.854  1.00  0.00     0.184 C 
ATOM     17  C   UNL     1      28.389  33.062  16.826  1.00  0.00     0.178 C 
ATOM     18  O   UNL     1      29.676  33.487  17.169  1.00  0.00    -0.341 OA
ATOM     19  C   UNL     1      30.623  32.462  17.131  1.00  0.00     0.281 C 
ATOM     20  C   UNL     1      29.098  31.110  15.622  1.00  0.00     0.180 C 
ATOM     21  C   UNL     1      30.492  31.554  15.926  1.00  0.00     0.202 C 
BRANCH  17  22
ATOM     22  C   UNL     1      27.378  33.857  17.577  1.00  0.00     0.191 C 
BRANCH  22  23
ATOM     23  O   UNL     1      26.220  34.015  16.821  1.00  0.00    -0.394 OA
ATOM     24  H   UNL     1      26.147  34.960  16.541  1.00  0.00     0.210 HD
ENDBRANCH  22  23
ENDBRANCH  17  22
BRANCH  19  25
ATOM     25  O   UNL     1      30.735  31.809  18.327  1.00  0.00    -0.350 OA
BRANCH  25  26
ATOM     26  C   UNL     1      30.703  32.505  19.483  1.00  0.00     0.169 C 
BRANCH  26  27
ATOM     27  C   UNL     1      29.698  32.053  20.477  1.00  0.00     0.119 C 
BRANCH  27  28
ATOM     28  N   UNL     1      29.165  30.752  20.269  1.00  0.00    -0.092 NA
ATOM     29  N   UNL     1      29.615  29.731  20.798  1.00  0.00     0.001 N 
ATOM     30  N   UNL     1      30.090  28.591  20.816  1.00  0.00    -0.003 NA
ENDBRANCH  27  28
ENDBRANCH  26  27
ENDBRANCH  25  26
ENDBRANCH  19  25
BRANCH  20  31
ATOM     31  O   UNL     1      29.056  29.744  15.500  1.00  0.00    -0.387 OA
ATOM     32  H   UNL     1      28.310  29.469  14.902  1.00  0.00     0.211 HD
ENDBRANCH  20  31
BRANCH  21  33
ATOM     33  O   UNL     1      31.055  32.201  14.821  1.00  0.00    -0.385 OA
ATOM     34  H   UNL     1      30.947  33.156  14.937  1.00  0.00     0.211 HD
ENDBRANCH  21  33
ENDBRANCH  15  16
ENDBRANCH  10  15
BRANCH  12  35
ATOM     35  O   UNL     1      26.149  29.524  19.762  1.00  0.00    -0.385 OA
ATOM     36  H   UNL     1      25.250  29.440  20.177  1.00  0.00     0.211 HD
ENDBRANCH  12  35
BRANCH  13  37
ATOM     37  O   UNL     1      24.582  32.439  19.128  1.00  0.00    -0.387 OA
ATOM     38  H   UNL     1      25.374  32.946  18.827  1.00  0.00     0.211 HD
ENDBRANCH  13  37
BRANCH  14  39
ATOM     39  O   UNL     1      24.551  32.021  16.562  1.00  0.00    -0.387 OA
ATOM     40  H   UNL     1      25.255  31.640  15.961  1.00  0.00     0.211 HD
ENDBRANCH  14  39
ENDBRANCH   8   9
ENDBRANCH   7   8
ENDBRANCH   1   7
BRANCH   1  41
ATOM     41  C   UNL     1      21.382  30.782  13.454  1.00  0.00     0.364 C 
ATOM     42  O   UNL     1      20.439  30.296  14.099  1.00  0.00    -0.246 OA
BRANCH  41  43
ATOM     43  O   UNL     1      21.133  31.012  12.097  1.00  0.00    -0.477 OA
ATOM     44  H   UNL     1      21.673  30.511  11.382  1.00  0.00     0.296 HD
ENDBRANCH  41  43
ENDBRANCH   1  41
BRANCH   3  45
ATOM     45  O   UNL     1      25.132  33.047  13.914  1.00  0.00    -0.391 OA
ATOM     46  H   UNL     1      25.640  32.189  14.042  1.00  0.00     0.211 HD
ENDBRANCH   3  45
BRANCH   5  47
ATOM     47  C   UNL     1      21.696  34.416  15.138  1.00  0.00     0.176 C 
BRANCH  47  48
ATOM     48  O   UNL     1      21.269  35.573  14.355  1.00  0.00    -0.388 OA
ATOM     49  H   UNL     1      20.953  36.237  15.039  1.00  0.00     0.211 HD
ENDBRANCH  47  48
BRANCH  47  50
ATOM     50  C   UNL     1      22.948  34.918  15.776  1.00  0.00     0.165 C 
BRANCH  50  51
ATOM     51  O   UNL     1      23.099  34.388  17.037  1.00  0.00    -0.388 OA
ATOM     52  H   UNL     1      24.008  34.191  17.312  1.00  0.00     0.211 HD
ENDBRANCH  50  51
BRANCH  50  53
ATOM     53  C   UNL     1      23.181  36.379  15.688  1.00  0.00     0.154 C 
BRANCH  53  54
ATOM     54  N   UNL     1      24.312  36.670  14.808  1.00  0.00    -0.319 N 
ATOM     55  C   UNL     1      25.585  36.929  15.325  1.00  0.00     0.407 C 
ATOM     56  H   UNL     1      24.141  36.677  13.791  1.00  0.00     0.167 HD
ATOM     57  O   UNL     1      25.745  36.907  16.582  1.00  0.00    -0.225 OA
BRANCH  55  58
ATOM     58  O   UNL     1      26.687  37.209  14.524  1.00  0.00    -0.443 OA
BRANCH  58  59
ATOM     59  C   UNL     1      27.568  36.171  14.112  1.00  0.00     0.294 C 
BRANCH  59  60
ATOM     60  C   UNL     1      27.144  35.657  12.773  1.00  0.00     0.120 A 
ATOM     61  C   UNL     1      27.874  34.863  11.914  1.00  0.00     0.138 A 
ATOM     62  N   UNL     1      25.984  35.873  12.161  1.00  0.00    -0.132 NA
ATOM     63  N   UNL     1      27.151  34.618  10.812  1.00  0.00    -0.249 N 
ATOM     64  N   UNL     1      25.985  35.263  11.003  1.00  0.00    -0.067 NA
BRANCH  63  65
ATOM     65  C   UNL     1      27.466  33.849   9.633  1.00  0.00     0.112 C 
ATOM     66  C   UNL     1      26.944  34.450   8.361  1.00  0.00     0.046 C 
ATOM     67  C   UNL     1      28.996  33.811   9.495  1.00  0.00     0.046 C 
ATOM     68  C   UNL     1      27.699  35.706   8.015  1.00  0.00     0.058 C 
ATOM     69  C   UNL     1      29.523  35.216   9.275  1.00  0.00     0.058 C 
ATOM     70  N   UNL     1      28.397  36.132   9.221  1.00  0.00    -0.300 NA
ATOM     71  C   UNL     1      28.816  35.448   7.039  1.00  0.00     0.021 C 
ATOM     72  C   UNL     1      30.067  35.344   7.866  1.00  0.00     0.021 C 
ATOM     73  C   UNL     1      28.805  37.491   9.036  1.00  0.00     0.105 C 
ENDBRANCH  63  65
ENDBRANCH  59  60
ENDBRANCH  58  59
ENDBRANCH  55  58
ENDBRANCH  53  54
ENDBRANCH  50  53
ENDBRANCH  47  50
ENDBRANCH   5  47
BRANCH   4  74
ATOM     74  N   UNL     1      22.514  34.090  11.709  1.00  0.00    -0.348 N 
ATOM     75  C   UNL     1      22.379  35.446  11.224  1.00  0.00     0.217 C 
ATOM     76  H   UNL     1      22.249  33.354  11.029  1.00  0.00     0.163 HD
ATOM     77  C   UNL     1      21.907  35.791   9.880  1.00  0.00     0.114 C 
ATOM     78  O   UNL     1      22.692  36.354  12.022  1.00  0.00    -0.275 OA
ENDBRANCH   4  74
TORSDOF 30
BEGIN_RES LYS A 131
REMARK  4 active torsions:
REMARK  status: ('A' for Active; 'I' for Inactive)
REMARK    1  A    between atoms: CA   and  CB  
REMARK    2  A    between atoms: CB   and  CG  
REMARK    3  A    between atoms: CG   and  CD  
REMARK    4  A    between atoms: CD   and  CE  
ROOT
ATOM      1  CA  LYS A 131      29.867  25.555  16.977  1.00 20.52     0.186 C 
ENDROOT
BRANCH   1   2
ATOM      2  CB  LYS A 131      28.345  25.722  17.026  1.00 20.94     0.034 C 
BRANCH   2   3
ATOM      3  CG  LYS A 131      27.601  24.400  16.908  1.00 22.96     0.005 C 
BRANCH   3   4
ATOM      4  CD  LYS A 131      26.205  24.485  17.459  1.00 24.33     0.041 C 
BRANCH   4   5
ATOM      5  CE  LYS A 131      26.094  25.695  18.382  1.00 26.91     0.338 C 
ATOM      6  NZ  LYS A 131      25.515  25.300  19.687  1.00 27.40     0.618 N 
ENDBRANCH   4   5
ENDBRANCH   3   4
ENDBRANCH   2   3
ENDBRANCH   1   2
END_RES LYS A 131
BEGIN_RES LYS A 135
REMARK  4 active torsions:
REMARK  status: ('A' for Active; 'I' for Inactive)
REMARK    5  A    between atoms: CA   and  CB  
REMARK    6  A    between atoms: CB   and  CG  
REMARK    7  A    between atoms: CG   and  CD  
REMARK    8  A    between atoms: CD   and  CE  
ROOT
ATOM      7  CA  LYS A 135      33.193  34.663   9.290  1.00 25.02     0.186 C 
ENDROOT
BRANCH   7   8
ATOM      8  CB  LYS A 135      32.060  35.360  10.034  1.00 26.63     0.034 C 
BRANCH   8   9
ATOM      9  CG  LYS A 135      32.493  36.000  11.328  1.00 29.45     0.005 C 
BRANCH   9  10
ATOM     10  CD  LYS A 135      31.808  35.334  12.511  1.00 32.00     0.041 C 
BRANCH  10  11
ATOM     11  CE  LYS A 135      31.440  36.364  13.562  1.00 34.25     0.338 C 
ATOM     12  NZ  LYS A 135      31.083  35.711  14.852  1.00 35.99     0.618 N 
ENDBRANCH  10  11
ENDBRANCH   9  10
ENDBRANCH   8   9
ENDBRANCH   7   8
END_RES LYS A 135
