REMARK VINA RESULT:    -4.348      3.026      8.819
REMARK INTER + INTRA:         -23.353
REMARK INTER:                 -12.602
REMARK INTRA:                 -10.751
REMARK UNBOUND:               -12.269
REMARK SMILES CC(=O)N[C@@H]1[C@@H](O)C[C@](OC[C@H]2O[C@@H](O[C@H]3[C@H](O)[C@@H](O)[C@H](OCCN=[N+]=[N-])O[C@@H]3CO)[C@H](O)[C@@H](O)[C@H]2O)(C(=O)O)O[C@H]1C(O)[C@H](O)CNC(=O)OCc1cn(-c2cccc(S(N)(=O)=O)c2)nn1
REMARK SMILES IDX 9 1 8 2 6 3 5 4 42 5 41 6 10 7 11 8 12 9 14 10 13 11 32 12
REMARK SMILES IDX 34 13 36 14 15 15 16 16 29 17 28 18 21 19 17 20 19 21 30 22
REMARK SMILES IDX 31 23 22 25 23 26 24 27 25 28 26 29 27 30 18 31 20 33 33 35
REMARK SMILES IDX 35 37 37 39 38 41 39 42 40 43 7 45 43 47 44 48 45 50 46 51
REMARK SMILES IDX 47 53 48 54 49 55 50 57 51 58 52 59 53 60 54 61 67 62 55 63
REMARK SMILES IDX 66 64 56 65 65 66 57 67 60 68 58 69 59 70 61 71 63 72 64 73
REMARK SMILES IDX 62 74 4 77 2 78 1 80 3 81
REMARK H PARENT 31 24 18 32 20 34 33 36 35 38 37 40 40 44 7 46 44 49 46 52
REMARK H PARENT 48 56 62 75 62 76 4 79
REMARK Flexibility Score: inf
ROOT
ATOM      1  C   UNL     1      28.066  35.305  13.144  1.00  0.00     0.272 C 
ATOM      2  C   UNL     1      29.249  34.635  12.419  1.00  0.00     0.113 C 
ATOM      3  C   UNL     1      30.507  35.236  12.941  1.00  0.00     0.145 C 
ATOM      4  C   UNL     1      30.621  35.043  14.411  1.00  0.00     0.142 C 
ATOM      5  C   UNL     1      29.306  35.046  15.107  1.00  0.00     0.178 C 
ATOM      6  O   UNL     1      28.146  35.026  14.441  1.00  0.00    -0.332 OA
ENDROOT
BRANCH   1   7
ATOM      7  O   UNL     1      26.939  34.681  12.542  1.00  0.00    -0.338 OA
BRANCH   7   8
ATOM      8  C   UNL     1      26.116  34.226  13.526  1.00  0.00     0.199 C 
BRANCH   8   9
ATOM      9  C   UNL     1      24.658  34.218  13.118  1.00  0.00     0.179 C 
ATOM     10  C   UNL     1      23.309  35.055  11.542  1.00  0.00     0.282 C 
ATOM     11  O   UNL     1      24.509  34.323  11.737  1.00  0.00    -0.341 OA
ATOM     12  C   UNL     1      22.200  34.532  12.379  1.00  0.00     0.202 C 
ATOM     13  C   UNL     1      22.463  33.195  13.026  1.00  0.00     0.179 C 
ATOM     14  C   UNL     1      23.863  33.065  13.595  1.00  0.00     0.177 C 
BRANCH  10  15
ATOM     15  O   UNL     1      23.043  35.229  10.208  1.00  0.00    -0.341 OA
BRANCH  15  16
ATOM     16  C   UNL     1      22.889  36.534   9.803  1.00  0.00     0.184 C 
ATOM     17  C   UNL     1      22.986  36.601   8.299  1.00  0.00     0.178 C 
ATOM     18  O   UNL     1      23.749  37.705   7.897  1.00  0.00    -0.341 OA
ATOM     19  C   UNL     1      25.069  37.425   8.162  1.00  0.00     0.281 C 
ATOM     20  C   UNL     1      23.997  37.329  10.458  1.00  0.00     0.180 C 
ATOM     21  C   UNL     1      25.251  37.377   9.645  1.00  0.00     0.202 C 
BRANCH  17  22
ATOM     22  C   UNL     1      21.664  36.719   7.610  1.00  0.00     0.191 C 
BRANCH  22  23
ATOM     23  O   UNL     1      20.966  35.496   7.637  1.00  0.00    -0.394 OA
ATOM     24  H   UNL     1      20.120  35.557   7.134  1.00  0.00     0.210 HD
ENDBRANCH  22  23
ENDBRANCH  17  22
BRANCH  19  25
ATOM     25  O   UNL     1      25.935  38.385   7.638  1.00  0.00    -0.350 OA
BRANCH  25  26
ATOM     26  C   UNL     1      27.076  37.886   7.069  1.00  0.00     0.169 C 
BRANCH  26  27
ATOM     27  C   UNL     1      28.052  38.938   6.587  1.00  0.00     0.119 C 
BRANCH  27  28
ATOM     28  N   UNL     1      29.348  38.789   7.220  1.00  0.00    -0.092 NA
ATOM     29  N   UNL     1      29.507  38.902   8.432  1.00  0.00     0.001 N 
ATOM     30  N   UNL     1      29.776  39.005   9.616  1.00  0.00    -0.003 NA
ENDBRANCH  27  28
ENDBRANCH  26  27
ENDBRANCH  25  26
ENDBRANCH  19  25
BRANCH  20  31
ATOM     31  O   UNL     1      23.553  38.653  10.628  1.00  0.00    -0.387 OA
ATOM     32  H   UNL     1      23.295  39.074   9.770  1.00  0.00     0.211 HD
ENDBRANCH  20  31
BRANCH  21  33
ATOM     33  O   UNL     1      26.059  36.252   9.935  1.00  0.00    -0.385 OA
ATOM     34  H   UNL     1      25.514  35.639  10.480  1.00  0.00     0.211 HD
ENDBRANCH  21  33
ENDBRANCH  15  16
ENDBRANCH  10  15
BRANCH  12  35
ATOM     35  O   UNL     1      21.739  35.465  13.339  1.00  0.00    -0.385 OA
ATOM     36  H   UNL     1      20.832  35.103  13.598  1.00  0.00     0.211 HD
ENDBRANCH  12  35
BRANCH  13  37
ATOM     37  O   UNL     1      22.098  32.142  12.208  1.00  0.00    -0.387 OA
ATOM     38  H   UNL     1      21.289  31.720  12.641  1.00  0.00     0.211 HD
ENDBRANCH  13  37
BRANCH  14  39
ATOM     39  O   UNL     1      24.410  31.889  13.069  1.00  0.00    -0.387 OA
ATOM     40  H   UNL     1      23.771  31.414  12.481  1.00  0.00     0.211 HD
ENDBRANCH  14  39
ENDBRANCH   8   9
ENDBRANCH   7   8
ENDBRANCH   1   7
BRANCH   1  41
ATOM     41  C   UNL     1      28.111  36.733  12.744  1.00  0.00     0.364 C 
ATOM     42  O   UNL     1      27.918  37.620  13.654  1.00  0.00    -0.246 OA
BRANCH  41  43
ATOM     43  O   UNL     1      28.341  37.227  11.494  1.00  0.00    -0.477 OA
ATOM     44  H   UNL     1      27.600  37.630  10.906  1.00  0.00     0.296 HD
ENDBRANCH  41  43
ENDBRANCH   1  41
BRANCH   3  45
ATOM     45  O   UNL     1      31.561  34.566  12.258  1.00  0.00    -0.391 OA
ATOM     46  H   UNL     1      31.984  35.292  11.702  1.00  0.00     0.211 HD
ENDBRANCH   3  45
BRANCH   5  47
ATOM     47  C   UNL     1      29.330  33.895  16.141  1.00  0.00     0.176 C 
BRANCH  47  48
ATOM     48  O   UNL     1      30.114  34.284  17.212  1.00  0.00    -0.388 OA
ATOM     49  H   UNL     1      29.677  34.842  17.877  1.00  0.00     0.211 HD
ENDBRANCH  47  48
BRANCH  47  50
ATOM     50  C   UNL     1      29.697  32.618  15.490  1.00  0.00     0.165 C 
BRANCH  50  51
ATOM     51  O   UNL     1      28.590  31.772  15.490  1.00  0.00    -0.388 OA
ATOM     52  H   UNL     1      28.849  31.015  16.089  1.00  0.00     0.211 HD
ENDBRANCH  50  51
BRANCH  50  53
ATOM     53  C   UNL     1      30.819  31.895  16.216  1.00  0.00     0.154 C 
BRANCH  53  54
ATOM     54  N   UNL     1      30.226  30.903  17.081  1.00  0.00    -0.319 N 
ATOM     55  C   UNL     1      30.193  31.134  18.507  1.00  0.00     0.407 C 
ATOM     56  H   UNL     1      29.818  30.011  16.720  1.00  0.00     0.167 HD
ATOM     57  O   UNL     1      30.674  32.184  19.006  1.00  0.00    -0.225 OA
BRANCH  55  58
ATOM     58  O   UNL     1      29.608  30.147  19.274  1.00  0.00    -0.443 OA
BRANCH  58  59
ATOM     59  C   UNL     1      28.263  30.216  19.644  1.00  0.00     0.294 C 
BRANCH  59  60
ATOM     60  C   UNL     1      27.366  30.029  18.494  1.00  0.00     0.121 A 
ATOM     61  C   UNL     1      26.021  30.426  18.481  1.00  0.00     0.144 A 
ATOM     62  N   UNL     1      27.609  29.489  17.306  1.00  0.00    -0.131 NA
ATOM     63  N   UNL     1      25.529  30.103  17.290  1.00  0.00    -0.220 N 
ATOM     64  N   UNL     1      26.490  29.548  16.607  1.00  0.00    -0.062 NA
BRANCH  63  65
ATOM     65  C   UNL     1      24.176  30.361  16.890  1.00  0.00     0.068 A 
ATOM     66  C   UNL     1      23.683  29.736  15.742  1.00  0.00     0.050 A 
ATOM     67  C   UNL     1      23.378  31.197  17.611  1.00  0.00     0.028 A 
ATOM     68  C   UNL     1      22.395  29.948  15.318  1.00  0.00     0.084 A 
ATOM     69  C   UNL     1      22.102  31.415  17.202  1.00  0.00     0.004 A 
ATOM     70  C   UNL     1      21.587  30.801  16.058  1.00  0.00     0.022 A 
BRANCH  68  71
ATOM     71  S   UNL     1      21.715  29.202  13.900  1.00  0.00     0.238 S 
ATOM     72  O   UNL     1      20.570  30.046  13.414  1.00  0.00    -0.207 OA
ATOM     73  O   UNL     1      21.202  27.836  14.224  1.00  0.00    -0.207 OA
BRANCH  71  74
ATOM     74  N   UNL     1      22.949  29.109  12.677  1.00  0.00    -0.225 NA
ATOM     75  H   UNL     1      23.862  28.913  13.146  1.00  0.00     0.137 HD
ATOM     76  H   UNL     1      22.955  29.953  12.069  1.00  0.00     0.137 HD
ENDBRANCH  71  74
ENDBRANCH  68  71
ENDBRANCH  63  65
ENDBRANCH  59  60
ENDBRANCH  58  59
ENDBRANCH  55  58
ENDBRANCH  53  54
ENDBRANCH  50  53
ENDBRANCH  47  50
ENDBRANCH   5  47
BRANCH   4  77
ATOM     77  N   UNL     1      31.425  36.162  14.928  1.00  0.00    -0.348 N 
ATOM     78  C   UNL     1      32.545  35.973  15.781  1.00  0.00     0.217 C 
ATOM     79  H   UNL     1      31.169  37.134  14.661  1.00  0.00     0.163 HD
ATOM     80  C   UNL     1      33.319  37.142  16.268  1.00  0.00     0.114 C 
ATOM     81  O   UNL     1      32.851  34.788  16.104  1.00  0.00    -0.275 OA
ENDBRANCH   4  77
TORSDOF 32
BEGIN_RES LYS A 131
REMARK  4 active torsions:
REMARK  status: ('A' for Active; 'I' for Inactive)
REMARK    1  A    between atoms: CA   and  CB  
REMARK    2  A    between atoms: CB   and  CG  
REMARK    3  A    between atoms: CG   and  CD  
REMARK    4  A    between atoms: CD   and  CE  
ROOT
ATOM      1  CA  LYS A 131      29.867  25.555  16.977  1.00 20.52     0.186 C 
ENDROOT
BRANCH   1   2
ATOM      2  CB  LYS A 131      28.345  25.722  17.026  1.00 20.94     0.034 C 
BRANCH   2   3
ATOM      3  CG  LYS A 131      27.602  24.399  16.925  1.00 22.96     0.005 C 
BRANCH   3   4
ATOM      4  CD  LYS A 131      26.467  24.310  17.907  1.00 24.33     0.041 C 
BRANCH   4   5
ATOM      5  CE  LYS A 131      25.387  23.386  17.355  1.00 26.91     0.338 C 
ATOM      6  NZ  LYS A 131      24.243  24.176  16.839  1.00 27.40     0.618 N 
ENDBRANCH   4   5
ENDBRANCH   3   4
ENDBRANCH   2   3
ENDBRANCH   1   2
END_RES LYS A 131
BEGIN_RES LYS A 135
REMARK  4 active torsions:
REMARK  status: ('A' for Active; 'I' for Inactive)
REMARK    5  A    between atoms: CA   and  CB  
REMARK    6  A    between atoms: CB   and  CG  
REMARK    7  A    between atoms: CG   and  CD  
REMARK    8  A    between atoms: CD   and  CE  
ROOT
ATOM      7  CA  LYS A 135      33.193  34.663   9.290  1.00 25.02     0.186 C 
ENDROOT
BRANCH   7   8
ATOM      8  CB  LYS A 135      32.060  35.360  10.034  1.00 26.63     0.034 C 
BRANCH   8   9
ATOM      9  CG  LYS A 135      30.838  35.598   9.185  1.00 29.45     0.005 C 
BRANCH   9  10
ATOM     10  CD  LYS A 135      30.248  34.279   8.711  1.00 32.00     0.041 C 
BRANCH  10  11
ATOM     11  CE  LYS A 135      28.756  34.416   8.477  1.00 34.25     0.338 C 
ATOM     12  NZ  LYS A 135      27.983  33.602   9.456  1.00 35.99     0.618 N 
ENDBRANCH  10  11
ENDBRANCH   9  10
ENDBRANCH   8   9
ENDBRANCH   7   8
END_RES LYS A 135
