REMARK VINA RESULT:    -5.974      3.347      8.982
REMARK INTER + INTRA:         -22.631
REMARK INTER:                 -11.465
REMARK INTRA:                 -11.166
REMARK UNBOUND:                -7.575
REMARK SMILES CC(=O)N[C@@H]1[C@@H](O)C[C@](OC[C@H]2O[C@@H](O[C@H]3[C@H](O)[C@@H](O)[C@H](OCCN=[N+]=[N-])O[C@@H]3CO)[C@H](O)[C@@H](O)[C@H]2O)(C(=O)O)O[C@H]1C(O)[C@H](O)CNC(=O)OCc1cn(Cc2ccccc2Br)nn1
REMARK SMILES IDX 9 1 8 2 6 3 5 4 42 5 41 6 10 7 11 8 12 9 14 10 13 11 32 12
REMARK SMILES IDX 34 13 36 14 15 15 16 16 29 17 28 18 21 19 17 20 19 21 30 22
REMARK SMILES IDX 31 23 22 25 23 26 24 27 25 28 26 29 27 30 18 31 20 33 33 35
REMARK SMILES IDX 35 37 37 39 38 41 39 42 40 43 7 45 43 47 44 48 45 50 46 51
REMARK SMILES IDX 47 53 48 54 49 55 50 57 51 58 52 59 53 60 54 61 65 62 55 63
REMARK SMILES IDX 64 64 56 65 57 66 58 67 62 68 59 69 61 70 63 71 60 72 4 73
REMARK SMILES IDX 2 74 1 76 3 77
REMARK H PARENT 31 24 18 32 20 34 33 36 35 38 37 40 40 44 7 46 44 49 46 52
REMARK H PARENT 48 56 4 75
REMARK Flexibility Score: inf
ROOT
ATOM      1  C   UNL     1      26.430  38.313   8.020  1.00  0.00     0.272 C 
ATOM      2  C   UNL     1      27.795  38.171   8.566  1.00  0.00     0.113 C 
ATOM      3  C   UNL     1      28.603  39.400   8.350  1.00  0.00     0.145 C 
ATOM      4  C   UNL     1      27.895  40.574   8.967  1.00  0.00     0.142 C 
ATOM      5  C   UNL     1      26.419  40.508   8.882  1.00  0.00     0.178 C 
ATOM      6  O   UNL     1      25.819  39.299   8.929  1.00  0.00    -0.332 OA
ENDROOT
BRANCH   1   7
ATOM      7  O   UNL     1      25.633  37.236   8.145  1.00  0.00    -0.338 OA
BRANCH   7   8
ATOM      8  C   UNL     1      24.344  37.127   8.099  1.00  0.00     0.199 C 
BRANCH   8   9
ATOM      9  C   UNL     1      23.435  36.242   8.830  1.00  0.00     0.179 C 
ATOM     10  C   UNL     1      22.784  35.206  10.770  1.00  0.00     0.282 C 
ATOM     11  O   UNL     1      23.413  36.351  10.224  1.00  0.00    -0.341 OA
ATOM     12  C   UNL     1      21.306  35.410  10.581  1.00  0.00     0.202 C 
ATOM     13  C   UNL     1      20.978  35.771   9.174  1.00  0.00     0.179 C 
ATOM     14  C   UNL     1      22.133  35.874   8.217  1.00  0.00     0.177 C 
BRANCH  10  15
ATOM     15  O   UNL     1      23.161  35.142  12.078  1.00  0.00    -0.341 OA
BRANCH  15  16
ATOM     16  C   UNL     1      24.461  35.406  12.387  1.00  0.00     0.184 C 
ATOM     17  C   UNL     1      25.432  34.301  12.158  1.00  0.00     0.178 C 
ATOM     18  O   UNL     1      26.203  34.151  13.307  1.00  0.00    -0.341 OA
ATOM     19  C   UNL     1      25.307  33.724  14.320  1.00  0.00     0.281 C 
ATOM     20  C   UNL     1      24.638  35.988  13.781  1.00  0.00     0.180 C 
ATOM     21  C   UNL     1      24.534  34.907  14.839  1.00  0.00     0.202 C 
BRANCH  17  22
ATOM     22  C   UNL     1      26.407  34.614  11.025  1.00  0.00     0.191 C 
BRANCH  22  23
ATOM     23  O   UNL     1      26.436  35.985  10.769  1.00  0.00    -0.394 OA
ATOM     24  H   UNL     1      26.139  36.204   9.856  1.00  0.00     0.210 HD
ENDBRANCH  22  23
ENDBRANCH  17  22
BRANCH  19  25
ATOM     25  O   UNL     1      26.097  33.114  15.290  1.00  0.00    -0.350 OA
BRANCH  25  26
ATOM     26  C   UNL     1      27.417  33.562  15.239  1.00  0.00     0.169 C 
BRANCH  26  27
ATOM     27  C   UNL     1      27.667  34.404  16.479  1.00  0.00     0.119 C 
BRANCH  27  28
ATOM     28  N   UNL     1      28.712  35.348  16.174  1.00  0.00    -0.092 NA
ATOM     29  N   UNL     1      28.491  36.560  16.100  1.00  0.00     0.001 N 
ATOM     30  N   UNL     1      28.077  37.643  15.637  1.00  0.00    -0.003 NA
ENDBRANCH  27  28
ENDBRANCH  26  27
ENDBRANCH  25  26
ENDBRANCH  19  25
BRANCH  20  31
ATOM     31  O   UNL     1      25.906  36.553  13.926  1.00  0.00    -0.387 OA
ATOM     32  H   UNL     1      26.261  36.683  13.002  1.00  0.00     0.211 HD
ENDBRANCH  20  31
BRANCH  21  33
ATOM     33  O   UNL     1      23.242  34.623  15.198  1.00  0.00    -0.385 OA
ATOM     34  H   UNL     1      22.769  34.216  14.436  1.00  0.00     0.211 HD
ENDBRANCH  21  33
ENDBRANCH  15  16
ENDBRANCH  10  15
BRANCH  12  35
ATOM     35  O   UNL     1      20.590  34.236  10.864  1.00  0.00    -0.385 OA
ATOM     36  H   UNL     1      20.837  33.582  10.171  1.00  0.00     0.211 HD
ENDBRANCH  12  35
BRANCH  13  37
ATOM     37  O   UNL     1      20.300  36.998   9.166  1.00  0.00    -0.387 OA
ATOM     38  H   UNL     1      20.888  37.746   8.941  1.00  0.00     0.211 HD
ENDBRANCH  13  37
BRANCH  14  39
ATOM     39  O   UNL     1      21.740  36.743   7.211  1.00  0.00    -0.387 OA
ATOM     40  H   UNL     1      21.720  37.683   7.440  1.00  0.00     0.211 HD
ENDBRANCH  14  39
ENDBRANCH   8   9
ENDBRANCH   7   8
ENDBRANCH   1   7
BRANCH   1  41
ATOM     41  C   UNL     1      26.271  39.015   6.730  1.00  0.00     0.364 C 
ATOM     42  O   UNL     1      25.505  39.978   6.497  1.00  0.00    -0.246 OA
BRANCH  41  43
ATOM     43  O   UNL     1      27.022  38.590   5.647  1.00  0.00    -0.477 OA
ATOM     44  H   UNL     1      26.689  37.863   5.013  1.00  0.00     0.296 HD
ENDBRANCH  41  43
ENDBRANCH   1  41
BRANCH   3  45
ATOM     45  O   UNL     1      29.816  39.184   9.081  1.00  0.00    -0.391 OA
ATOM     46  H   UNL     1      29.902  39.835   9.805  1.00  0.00     0.211 HD
ENDBRANCH   3  45
BRANCH   5  47
ATOM     47  C   UNL     1      25.807  41.341  10.012  1.00  0.00     0.176 C 
BRANCH  47  48
ATOM     48  O   UNL     1      26.854  41.808  10.792  1.00  0.00    -0.388 OA
ATOM     49  H   UNL     1      26.615  42.563  11.358  1.00  0.00     0.211 HD
ENDBRANCH  47  48
BRANCH  47  50
ATOM     50  C   UNL     1      24.866  40.560  10.859  1.00  0.00     0.165 C 
BRANCH  50  51
ATOM     51  O   UNL     1      23.714  41.297  11.184  1.00  0.00    -0.388 OA
ATOM     52  H   UNL     1      23.959  42.225  11.429  1.00  0.00     0.211 HD
ENDBRANCH  50  51
BRANCH  50  53
ATOM     53  C   UNL     1      25.505  40.209  12.178  1.00  0.00     0.154 C 
BRANCH  53  54
ATOM     54  N   UNL     1      26.234  38.994  12.078  1.00  0.00    -0.319 N 
ATOM     55  C   UNL     1      27.634  38.894  12.211  1.00  0.00     0.407 C 
ATOM     56  H   UNL     1      25.682  38.106  11.890  1.00  0.00     0.167 HD
ATOM     57  O   UNL     1      28.345  39.906  12.435  1.00  0.00    -0.225 OA
BRANCH  55  58
ATOM     58  O   UNL     1      28.292  37.663  12.099  1.00  0.00    -0.443 OA
BRANCH  58  59
ATOM     59  C   UNL     1      29.679  37.548  12.266  1.00  0.00     0.294 C 
BRANCH  59  60
ATOM     60  C   UNL     1      30.122  36.237  12.792  1.00  0.00     0.120 A 
ATOM     61  C   UNL     1      31.188  36.076  13.692  1.00  0.00     0.138 A 
ATOM     62  N   UNL     1      29.661  35.005  12.560  1.00  0.00    -0.132 NA
ATOM     63  N   UNL     1      31.314  34.780  13.953  1.00  0.00    -0.248 N 
ATOM     64  N   UNL     1      30.373  34.141  13.252  1.00  0.00    -0.067 NA
BRANCH  63  65
ATOM     65  C   UNL     1      32.262  34.101  14.837  1.00  0.00     0.182 C 
BRANCH  65  66
ATOM     66  C   UNL     1      31.612  33.319  15.909  1.00  0.00    -0.012 A 
ATOM     67  C   UNL     1      31.052  32.081  15.551  1.00  0.00     0.007 A 
ATOM     68  C   UNL     1      31.501  33.732  17.209  1.00  0.00     0.023 A 
ATOM     69  C   UNL     1      30.418  31.342  16.502  1.00  0.00     0.000 A 
ATOM     70  C   UNL     1      30.852  32.968  18.166  1.00  0.00     0.016 A 
ATOM     71  Br  UNL     1      32.290  35.366  17.773  1.00  0.00    -0.050 Br
ATOM     72  C   UNL     1      30.310  31.765  17.799  1.00  0.00     0.001 A 
ENDBRANCH  65  66
ENDBRANCH  63  65
ENDBRANCH  59  60
ENDBRANCH  58  59
ENDBRANCH  55  58
ENDBRANCH  53  54
ENDBRANCH  50  53
ENDBRANCH  47  50
ENDBRANCH   5  47
BRANCH   4  73
ATOM     73  N   UNL     1      28.378  41.785   8.356  1.00  0.00    -0.348 N 
ATOM     74  C   UNL     1      29.409  42.593   8.923  1.00  0.00     0.217 C 
ATOM     75  H   UNL     1      27.992  42.140   7.456  1.00  0.00     0.163 HD
ATOM     76  C   UNL     1      29.861  43.842   8.233  1.00  0.00     0.114 C 
ATOM     77  O   UNL     1      29.914  42.232   9.994  1.00  0.00    -0.275 OA
ENDBRANCH   4  73
TORSDOF 31
BEGIN_RES LYS A 131
REMARK  4 active torsions:
REMARK  status: ('A' for Active; 'I' for Inactive)
REMARK    1  A    between atoms: CA   and  CB  
REMARK    2  A    between atoms: CB   and  CG  
REMARK    3  A    between atoms: CG   and  CD  
REMARK    4  A    between atoms: CD   and  CE  
ROOT
ATOM      1  CA  LYS A 131      29.867  25.555  16.977  1.00 20.52     0.186 C 
ENDROOT
BRANCH   1   2
ATOM      2  CB  LYS A 131      28.345  25.722  17.026  1.00 20.94     0.034 C 
BRANCH   2   3
ATOM      3  CG  LYS A 131      27.599  24.453  16.644  1.00 22.96     0.005 C 
BRANCH   3   4
ATOM      4  CD  LYS A 131      27.070  23.723  17.848  1.00 24.33     0.041 C 
BRANCH   4   5
ATOM      5  CE  LYS A 131      25.640  23.264  17.577  1.00 26.91     0.338 C 
ATOM      6  NZ  LYS A 131      24.842  24.369  16.997  1.00 27.40     0.618 N 
ENDBRANCH   4   5
ENDBRANCH   3   4
ENDBRANCH   2   3
ENDBRANCH   1   2
END_RES LYS A 131
BEGIN_RES LYS A 135
REMARK  4 active torsions:
REMARK  status: ('A' for Active; 'I' for Inactive)
REMARK    5  A    between atoms: CA   and  CB  
REMARK    6  A    between atoms: CB   and  CG  
REMARK    7  A    between atoms: CG   and  CD  
REMARK    8  A    between atoms: CD   and  CE  
ROOT
ATOM      7  CA  LYS A 135      33.193  34.663   9.290  1.00 25.02     0.186 C 
ENDROOT
BRANCH   7   8
ATOM      8  CB  LYS A 135      32.060  35.360  10.034  1.00 26.63     0.034 C 
BRANCH   8   9
ATOM      9  CG  LYS A 135      30.925  35.786   9.140  1.00 29.45     0.005 C 
BRANCH   9  10
ATOM     10  CD  LYS A 135      30.162  34.575   8.625  1.00 32.00     0.041 C 
BRANCH  10  11
ATOM     11  CE  LYS A 135      29.247  34.968   7.482  1.00 34.25     0.338 C 
ATOM     12  NZ  LYS A 135      27.821  34.700   7.820  1.00 35.99     0.618 N 
ENDBRANCH  10  11
ENDBRANCH   9  10
ENDBRANCH   8   9
ENDBRANCH   7   8
END_RES LYS A 135
