REMARK VINA RESULT:    -4.752      4.787      9.675
REMARK INTER + INTRA:         -21.836
REMARK INTER:                 -11.641
REMARK INTRA:                 -10.194
REMARK UNBOUND:                -9.861
REMARK SMILES CC(=O)N[C@@H]1[C@@H](O)C[C@](OC[C@H]2O[C@@H](O[C@H]3[C@H](O)[C@@H](O)[C@H](OCCN=[N+]=[N-])O[C@@H]3CO)[C@H](O)[C@@H](O)[C@H]2O)(C(=O)O)O[C@H]1C(O)[C@H](O)CNC(=O)OCc1cn(-c2ccc([N+](=O)[O-])cc2)nn1
REMARK SMILES IDX 9 1 8 2 6 3 5 4 42 5 41 6 10 7 11 8 12 9 14 10 13 11 32 12
REMARK SMILES IDX 34 13 36 14 15 15 16 16 29 17 28 18 21 19 17 20 19 21 30 22
REMARK SMILES IDX 31 23 22 25 23 26 24 27 25 28 26 29 27 30 18 31 20 33 33 35
REMARK SMILES IDX 35 37 37 39 38 41 39 42 40 43 7 45 43 47 44 48 45 50 46 51
REMARK SMILES IDX 47 53 48 54 49 55 50 57 51 58 52 59 53 60 54 61 66 62 55 63
REMARK SMILES IDX 65 64 56 65 57 66 64 67 58 68 63 69 59 70 60 71 61 72 62 73
REMARK SMILES IDX 4 74 2 75 1 77 3 78
REMARK H PARENT 31 24 18 32 20 34 33 36 35 38 37 40 40 44 7 46 44 49 46 52
REMARK H PARENT 48 56 4 76
REMARK Flexibility Score: inf
ROOT
ATOM      1  C   UNL     1      30.629  36.668  12.983  1.00  0.00     0.272 C 
ATOM      2  C   UNL     1      30.719  38.087  12.526  1.00  0.00     0.113 C 
ATOM      3  C   UNL     1      29.478  38.805  12.845  1.00  0.00     0.145 C 
ATOM      4  C   UNL     1      28.283  37.926  13.255  1.00  0.00     0.142 C 
ATOM      5  C   UNL     1      28.323  36.686  12.491  1.00  0.00     0.178 C 
ATOM      6  O   UNL     1      29.562  36.073  12.334  1.00  0.00    -0.332 OA
ENDROOT
BRANCH   1   7
ATOM      7  O   UNL     1      30.636  36.478  14.330  1.00  0.00    -0.338 OA
BRANCH   7   8
ATOM      8  C   UNL     1      31.664  37.029  15.024  1.00  0.00     0.199 C 
BRANCH   8   9
ATOM      9  C   UNL     1      31.214  37.551  16.383  1.00  0.00     0.179 C 
ATOM     10  C   UNL     1      32.227  36.262  18.051  1.00  0.00     0.282 C 
ATOM     11  O   UNL     1      31.114  36.571  17.334  1.00  0.00    -0.341 OA
ATOM     12  C   UNL     1      33.461  37.031  17.810  1.00  0.00     0.202 C 
ATOM     13  C   UNL     1      33.169  38.491  17.589  1.00  0.00     0.179 C 
ATOM     14  C   UNL     1      31.915  38.778  16.844  1.00  0.00     0.177 C 
BRANCH  10  15
ATOM     15  O   UNL     1      32.393  34.882  17.990  1.00  0.00    -0.341 OA
BRANCH  15  16
ATOM     16  C   UNL     1      31.280  34.129  17.815  1.00  0.00     0.184 C 
ATOM     17  C   UNL     1      31.026  33.127  18.919  1.00  0.00     0.178 C 
ATOM     18  O   UNL     1      29.881  32.378  18.580  1.00  0.00    -0.341 OA
ATOM     19  C   UNL     1      30.206  31.497  17.548  1.00  0.00     0.281 C 
ATOM     20  C   UNL     1      31.541  33.257  16.571  1.00  0.00     0.180 C 
ATOM     21  C   UNL     1      30.327  32.389  16.305  1.00  0.00     0.202 C 
BRANCH  17  22
ATOM     22  C   UNL     1      30.734  33.745  20.261  1.00  0.00     0.191 C 
BRANCH  22  23
ATOM     23  O   UNL     1      31.258  32.833  21.211  1.00  0.00    -0.394 OA
ATOM     24  H   UNL     1      31.910  33.289  21.807  1.00  0.00     0.210 HD
ENDBRANCH  22  23
ENDBRANCH  17  22
BRANCH  19  25
ATOM     25  O   UNL     1      29.187  30.604  17.342  1.00  0.00    -0.350 OA
BRANCH  25  26
ATOM     26  C   UNL     1      28.399  30.326  18.430  1.00  0.00     0.169 C 
BRANCH  26  27
ATOM     27  C   UNL     1      27.410  29.212  18.231  1.00  0.00     0.119 C 
BRANCH  27  28
ATOM     28  N   UNL     1      27.253  28.989  16.792  1.00  0.00    -0.092 NA
ATOM     29  N   UNL     1      26.411  29.624  16.173  1.00  0.00     0.001 N 
ATOM     30  N   UNL     1      25.740  30.430  15.549  1.00  0.00    -0.003 NA
ENDBRANCH  27  28
ENDBRANCH  26  27
ENDBRANCH  25  26
ENDBRANCH  19  25
BRANCH  20  31
ATOM     31  O   UNL     1      31.921  34.002  15.490  1.00  0.00    -0.387 OA
ATOM     32  H   UNL     1      31.424  34.832  15.351  1.00  0.00     0.211 HD
ENDBRANCH  20  31
BRANCH  21  33
ATOM     33  O   UNL     1      30.513  31.663  15.160  1.00  0.00    -0.385 OA
ATOM     34  H   UNL     1      30.586  32.283  14.395  1.00  0.00     0.211 HD
ENDBRANCH  21  33
ENDBRANCH  15  16
ENDBRANCH  10  15
BRANCH  12  35
ATOM     35  O   UNL     1      34.248  37.003  18.978  1.00  0.00    -0.385 OA
ATOM     36  H   UNL     1      33.743  36.685  19.750  1.00  0.00     0.211 HD
ENDBRANCH  12  35
BRANCH  13  37
ATOM     37  O   UNL     1      34.292  39.090  16.968  1.00  0.00    -0.387 OA
ATOM     38  H   UNL     1      34.886  38.373  16.692  1.00  0.00     0.211 HD
ENDBRANCH  13  37
BRANCH  14  39
ATOM     39  O   UNL     1      32.053  39.669  15.788  1.00  0.00    -0.387 OA
ATOM     40  H   UNL     1      32.948  40.095  15.881  1.00  0.00     0.211 HD
ENDBRANCH  14  39
ENDBRANCH   8   9
ENDBRANCH   7   8
ENDBRANCH   1   7
BRANCH   1  41
ATOM     41  C   UNL     1      31.811  35.925  12.396  1.00  0.00     0.364 C 
ATOM     42  O   UNL     1      32.737  36.552  11.847  1.00  0.00    -0.246 OA
BRANCH  41  43
ATOM     43  O   UNL     1      31.854  34.560  12.468  1.00  0.00    -0.477 OA
ATOM     44  H   UNL     1      32.058  34.026  13.308  1.00  0.00     0.296 HD
ENDBRANCH  41  43
ENDBRANCH   1  41
BRANCH   3  45
ATOM     45  O   UNL     1      29.670  39.702  13.893  1.00  0.00    -0.391 OA
ATOM     46  H   UNL     1      28.889  40.279  14.010  1.00  0.00     0.211 HD
ENDBRANCH   3  45
BRANCH   5  47
ATOM     47  C   UNL     1      27.402  35.573  12.737  1.00  0.00     0.176 C 
BRANCH  47  48
ATOM     48  O   UNL     1      27.255  34.647  11.700  1.00  0.00    -0.388 OA
ATOM     49  H   UNL     1      28.080  34.405  11.245  1.00  0.00     0.211 HD
ENDBRANCH  47  48
BRANCH  47  50
ATOM     50  C   UNL     1      27.494  34.765  13.990  1.00  0.00     0.165 C 
BRANCH  50  51
ATOM     51  O   UNL     1      28.641  34.060  14.183  1.00  0.00    -0.388 OA
ATOM     52  H   UNL     1      29.458  34.610  14.059  1.00  0.00     0.211 HD
ENDBRANCH  50  51
BRANCH  50  53
ATOM     53  C   UNL     1      26.200  34.090  14.358  1.00  0.00     0.154 C 
BRANCH  53  54
ATOM     54  N   UNL     1      25.100  34.358  13.470  1.00  0.00    -0.319 N 
ATOM     55  C   UNL     1      24.023  35.228  13.767  1.00  0.00     0.407 C 
ATOM     56  H   UNL     1      25.056  33.895  12.523  1.00  0.00     0.167 HD
ATOM     57  O   UNL     1      23.985  35.808  14.856  1.00  0.00    -0.225 OA
BRANCH  55  58
ATOM     58  O   UNL     1      22.987  35.453  12.858  1.00  0.00    -0.443 OA
BRANCH  58  59
ATOM     59  C   UNL     1      22.950  36.524  11.953  1.00  0.00     0.294 C 
BRANCH  59  60
ATOM     60  C   UNL     1      24.037  36.403  10.959  1.00  0.00     0.121 A 
ATOM     61  C   UNL     1      24.868  37.404  10.460  1.00  0.00     0.144 A 
ATOM     62  N   UNL     1      24.468  35.270  10.329  1.00  0.00    -0.131 NA
ATOM     63  N   UNL     1      25.740  36.871   9.584  1.00  0.00    -0.220 N 
ATOM     64  N   UNL     1      25.471  35.585   9.529  1.00  0.00    -0.062 NA
BRANCH  63  65
ATOM     65  C   UNL     1      26.769  37.554   8.860  1.00  0.00     0.067 A 
ATOM     66  C   UNL     1      27.951  37.973   9.424  1.00  0.00     0.035 A 
ATOM     67  C   UNL     1      26.581  37.830   7.513  1.00  0.00     0.035 A 
ATOM     68  C   UNL     1      28.915  38.644   8.675  1.00  0.00     0.088 A 
ATOM     69  C   UNL     1      27.533  38.494   6.769  1.00  0.00     0.088 A 
ATOM     70  C   UNL     1      28.719  38.914   7.333  1.00  0.00     0.269 A 
BRANCH  70  71
ATOM     71  N   UNL     1      29.710  39.603   6.579  1.00  0.00     0.062 N 
ATOM     72  O   UNL     1      30.297  40.625   6.969  1.00  0.00    -0.258 OA
ATOM     73  O   UNL     1      30.033  39.105   5.342  1.00  0.00    -0.258 OA
ENDBRANCH  70  71
ENDBRANCH  63  65
ENDBRANCH  59  60
ENDBRANCH  58  59
ENDBRANCH  55  58
ENDBRANCH  53  54
ENDBRANCH  50  53
ENDBRANCH  47  50
ENDBRANCH   5  47
BRANCH   4  74
ATOM     74  N   UNL     1      27.164  38.760  12.785  1.00  0.00    -0.348 N 
ATOM     75  C   UNL     1      26.423  39.587  13.646  1.00  0.00     0.217 C 
ATOM     76  H   UNL     1      26.938  38.727  11.776  1.00  0.00     0.163 HD
ATOM     77  C   UNL     1      25.304  40.391  13.068  1.00  0.00     0.114 C 
ATOM     78  O   UNL     1      26.663  39.675  14.860  1.00  0.00    -0.275 OA
ENDBRANCH   4  74
TORSDOF 31
BEGIN_RES LYS A 131
REMARK  4 active torsions:
REMARK  status: ('A' for Active; 'I' for Inactive)
REMARK    1  A    between atoms: CA   and  CB  
REMARK    2  A    between atoms: CB   and  CG  
REMARK    3  A    between atoms: CG   and  CD  
REMARK    4  A    between atoms: CD   and  CE  
ROOT
ATOM      1  CA  LYS A 131      29.867  25.555  16.977  1.00 20.52     0.186 C 
ENDROOT
BRANCH   1   2
ATOM      2  CB  LYS A 131      28.345  25.722  17.026  1.00 20.94     0.034 C 
BRANCH   2   3
ATOM      3  CG  LYS A 131      27.602  24.399  16.920  1.00 22.96     0.005 C 
BRANCH   3   4
ATOM      4  CD  LYS A 131      26.645  24.194  18.062  1.00 24.33     0.041 C 
BRANCH   4   5
ATOM      5  CE  LYS A 131      26.143  25.548  18.554  1.00 26.91     0.338 C 
ATOM      6  NZ  LYS A 131      25.707  25.457  19.968  1.00 27.40     0.618 N 
ENDBRANCH   4   5
ENDBRANCH   3   4
ENDBRANCH   2   3
ENDBRANCH   1   2
END_RES LYS A 131
BEGIN_RES LYS A 135
REMARK  4 active torsions:
REMARK  status: ('A' for Active; 'I' for Inactive)
REMARK    5  A    between atoms: CA   and  CB  
REMARK    6  A    between atoms: CB   and  CG  
REMARK    7  A    between atoms: CG   and  CD  
REMARK    8  A    between atoms: CD   and  CE  
ROOT
ATOM      7  CA  LYS A 135      33.193  34.663   9.290  1.00 25.02     0.186 C 
ENDROOT
BRANCH   7   8
ATOM      8  CB  LYS A 135      32.060  35.360  10.034  1.00 26.63     0.034 C 
BRANCH   8   9
ATOM      9  CG  LYS A 135      30.823  35.560   9.197  1.00 29.45     0.005 C 
BRANCH   9  10
ATOM     10  CD  LYS A 135      29.897  34.359   9.312  1.00 32.00     0.041 C 
BRANCH  10  11
ATOM     11  CE  LYS A 135      28.748  34.476   8.329  1.00 34.25     0.338 C 
ATOM     12  NZ  LYS A 135      29.148  35.259   7.127  1.00 35.99     0.618 N 
ENDBRANCH  10  11
ENDBRANCH   9  10
ENDBRANCH   8   9
ENDBRANCH   7   8
END_RES LYS A 135
