REMARK VINA RESULT:    -5.490      5.633     12.040
REMARK INTER + INTRA:         -23.802
REMARK INTER:                 -14.164
REMARK INTRA:                  -9.638
REMARK UNBOUND:                -9.487
REMARK SMILES CC(=O)N[C@@H]1[C@@H](O)C[C@](OC[C@H]2O[C@@H](O[C@H]3[C@H](O)[C@@H](O)[C@H](OCCN=[N+]=[N-])O[C@@H]3CO)[C@H](O)[C@@H](O)[C@H]2O)(C(=O)O)O[C@H]1C(O)[C@H](O)CNC(=O)OCc1cn(Cc2ccc(C(=O)O)cc2)nn1
REMARK SMILES IDX 43 1 42 2 9 3 8 4 41 5 6 6 5 7 10 8 11 9 12 10 14 11 13 12
REMARK SMILES IDX 32 13 34 14 36 15 15 16 16 17 29 18 28 19 21 20 17 21 19 22
REMARK SMILES IDX 30 23 31 24 22 26 23 27 24 28 25 29 26 30 27 31 18 32 20 34
REMARK SMILES IDX 33 36 35 38 37 40 38 42 39 43 40 44 7 46 4 48 2 49 1 51 3 52
REMARK SMILES IDX 44 53 45 55 46 56 47 58 48 59 49 60 50 62 51 63 52 64 53 65
REMARK SMILES IDX 54 66 67 67 55 68 66 69 56 70 57 71 58 72 65 73 59 74 64 75
REMARK SMILES IDX 60 76 61 77 62 78 63 79
REMARK H PARENT 31 25 18 33 20 35 33 37 35 39 37 41 40 45 7 47 4 50 44 54
REMARK H PARENT 46 57 48 61 63 80
REMARK Flexibility Score: inf
ROOT
ATOM      1  C   UNL     1      31.400  32.967  15.817  1.00  0.00     0.176 C 
ENDROOT
BRANCH   1   2
ATOM      2  C   UNL     1      30.017  33.079  16.494  1.00  0.00     0.178 C 
ATOM      3  C   UNL     1      29.066  31.880  18.299  1.00  0.00     0.272 C 
ATOM      4  C   UNL     1      27.961  31.485  17.404  1.00  0.00     0.113 C 
ATOM      5  O   UNL     1      30.144  32.451  17.672  1.00  0.00    -0.332 OA
ATOM      6  C   UNL     1      28.392  31.299  15.964  1.00  0.00     0.145 C 
ATOM      7  C   UNL     1      29.013  32.594  15.530  1.00  0.00     0.142 C 
BRANCH   3   8
ATOM      8  O   UNL     1      29.569  30.805  18.984  1.00  0.00    -0.338 OA
BRANCH   8   9
ATOM      9  C   UNL     1      30.867  30.783  19.352  1.00  0.00     0.199 C 
BRANCH   9  10
ATOM     10  C   UNL     1      30.999  30.265  20.805  1.00  0.00     0.179 C 
ATOM     11  C   UNL     1      29.713  29.347  22.518  1.00  0.00     0.282 C 
ATOM     12  O   UNL     1      29.751  30.007  21.291  1.00  0.00    -0.341 OA
ATOM     13  C   UNL     1      31.033  29.240  23.194  1.00  0.00     0.202 C 
ATOM     14  C   UNL     1      31.998  28.560  22.246  1.00  0.00     0.179 C 
ATOM     15  C   UNL     1      31.903  29.060  20.838  1.00  0.00     0.177 C 
BRANCH  11  16
ATOM     16  O   UNL     1      29.154  28.087  22.309  1.00  0.00    -0.341 OA
BRANCH  16  17
ATOM     17  C   UNL     1      27.914  28.164  21.745  1.00  0.00     0.184 C 
ATOM     18  C   UNL     1      26.852  27.582  22.603  1.00  0.00     0.178 C 
ATOM     19  O   UNL     1      25.577  27.916  22.123  1.00  0.00    -0.341 OA
ATOM     20  C   UNL     1      25.522  27.806  20.731  1.00  0.00     0.281 C 
ATOM     21  C   UNL     1      27.989  27.376  20.423  1.00  0.00     0.180 C 
ATOM     22  C   UNL     1      26.574  26.910  20.149  1.00  0.00     0.202 C 
BRANCH  18  23
ATOM     23  C   UNL     1      26.961  28.095  24.011  1.00  0.00     0.191 C 
BRANCH  23  24
ATOM     24  O   UNL     1      27.782  27.168  24.693  1.00  0.00    -0.394 OA
ATOM     25  H   UNL     1      28.722  27.327  24.481  1.00  0.00     0.210 HD
ENDBRANCH  23  24
ENDBRANCH  18  23
BRANCH  20  26
ATOM     26  O   UNL     1      25.543  29.066  20.180  1.00  0.00    -0.350 OA
BRANCH  26  27
ATOM     27  C   UNL     1      24.472  29.368  19.370  1.00  0.00     0.169 C 
BRANCH  27  28
ATOM     28  C   UNL     1      24.785  30.201  18.173  1.00  0.00     0.119 C 
BRANCH  28  29
ATOM     29  N   UNL     1      24.962  29.268  17.048  1.00  0.00    -0.092 NA
ATOM     30  N   UNL     1      25.970  28.584  16.912  1.00  0.00     0.001 N 
ATOM     31  N   UNL     1      27.102  28.113  16.923  1.00  0.00    -0.003 NA
ENDBRANCH  28  29
ENDBRANCH  27  28
ENDBRANCH  26  27
ENDBRANCH  20  26
BRANCH  21  32
ATOM     32  O   UNL     1      28.469  28.179  19.412  1.00  0.00    -0.387 OA
ATOM     33  H   UNL     1      28.492  29.151  19.691  1.00  0.00     0.211 HD
ENDBRANCH  21  32
BRANCH  22  34
ATOM     34  O   UNL     1      26.428  25.604  20.556  1.00  0.00    -0.385 OA
ATOM     35  H   UNL     1      26.363  25.514  21.523  1.00  0.00     0.211 HD
ENDBRANCH  22  34
ENDBRANCH  16  17
ENDBRANCH  11  16
BRANCH  13  36
ATOM     36  O   UNL     1      31.532  30.496  23.570  1.00  0.00    -0.385 OA
ATOM     37  H   UNL     1      31.554  31.042  22.737  1.00  0.00     0.211 HD
ENDBRANCH  13  36
BRANCH  14  38
ATOM     38  O   UNL     1      31.829  27.175  22.257  1.00  0.00    -0.387 OA
ATOM     39  H   UNL     1      32.606  26.775  22.739  1.00  0.00     0.211 HD
ENDBRANCH  14  38
BRANCH  15  40
ATOM     40  O   UNL     1      31.470  28.066  19.950  1.00  0.00    -0.387 OA
ATOM     41  H   UNL     1      30.627  28.393  19.539  1.00  0.00     0.211 HD
ENDBRANCH  15  40
ENDBRANCH   9  10
ENDBRANCH   8   9
ENDBRANCH   3   8
BRANCH   3  42
ATOM     42  C   UNL     1      28.551  32.930  19.253  1.00  0.00     0.364 C 
ATOM     43  O   UNL     1      27.351  32.923  19.627  1.00  0.00    -0.246 OA
BRANCH  42  44
ATOM     44  O   UNL     1      29.372  33.929  19.749  1.00  0.00    -0.477 OA
ATOM     45  H   UNL     1      30.322  33.652  20.041  1.00  0.00     0.296 HD
ENDBRANCH  42  44
ENDBRANCH   3  42
BRANCH   6  46
ATOM     46  O   UNL     1      29.245  30.218  15.921  1.00  0.00    -0.391 OA
ATOM     47  H   UNL     1      29.960  30.326  16.602  1.00  0.00     0.211 HD
ENDBRANCH   6  46
BRANCH   7  48
ATOM     48  N   UNL     1      27.954  33.584  15.391  1.00  0.00    -0.348 N 
ATOM     49  C   UNL     1      27.904  34.470  14.258  1.00  0.00     0.217 C 
ATOM     50  H   UNL     1      27.183  33.720  16.079  1.00  0.00     0.163 HD
ATOM     51  C   UNL     1      26.799  35.474  14.151  1.00  0.00     0.114 C 
ATOM     52  O   UNL     1      28.787  34.376  13.390  1.00  0.00    -0.275 OA
ENDBRANCH   7  48
ENDBRANCH   1   2
BRANCH   1  53
ATOM     53  O   UNL     1      31.534  31.883  15.011  1.00  0.00    -0.388 OA
ATOM     54  H   UNL     1      31.628  31.012  15.454  1.00  0.00     0.211 HD
ENDBRANCH   1  53
BRANCH   1  55
ATOM     55  C   UNL     1      31.792  34.267  15.156  1.00  0.00     0.165 C 
BRANCH  55  56
ATOM     56  O   UNL     1      33.059  34.166  14.675  1.00  0.00    -0.388 OA
ATOM     57  H   UNL     1      33.360  33.270  14.429  1.00  0.00     0.211 HD
ENDBRANCH  55  56
BRANCH  55  58
ATOM     58  C   UNL     1      31.458  35.408  16.037  1.00  0.00     0.154 C 
BRANCH  58  59
ATOM     59  N   UNL     1      32.580  35.844  16.820  1.00  0.00    -0.319 N 
ATOM     60  C   UNL     1      32.750  35.560  18.194  1.00  0.00     0.407 C 
ATOM     61  H   UNL     1      33.344  36.416  16.364  1.00  0.00     0.167 HD
ATOM     62  O   UNL     1      31.923  34.898  18.838  1.00  0.00    -0.225 OA
BRANCH  60  63
ATOM     63  O   UNL     1      33.867  36.004  18.929  1.00  0.00    -0.443 OA
BRANCH  63  64
ATOM     64  C   UNL     1      34.587  37.144  18.496  1.00  0.00     0.294 C 
BRANCH  64  65
ATOM     65  C   UNL     1      36.021  36.871  18.295  1.00  0.00     0.120 A 
ATOM     66  C   UNL     1      36.784  36.986  17.166  1.00  0.00     0.138 A 
ATOM     67  N   UNL     1      36.840  36.416  19.262  1.00  0.00    -0.132 NA
ATOM     68  N   UNL     1      38.040  36.598  17.477  1.00  0.00    -0.248 N 
ATOM     69  N   UNL     1      38.047  36.258  18.753  1.00  0.00    -0.067 NA
BRANCH  68  70
ATOM     70  C   UNL     1      39.146  36.570  16.555  1.00  0.00     0.181 C 
BRANCH  70  71
ATOM     71  C   UNL     1      38.859  35.665  15.424  1.00  0.00    -0.026 A 
ATOM     72  C   UNL     1      38.079  34.546  15.619  1.00  0.00     0.006 A 
ATOM     73  C   UNL     1      39.388  35.926  14.163  1.00  0.00     0.006 A 
ATOM     74  C   UNL     1      37.865  33.731  14.522  1.00  0.00     0.016 A 
ATOM     75  C   UNL     1      39.172  35.110  13.076  1.00  0.00     0.016 A 
ATOM     76  C   UNL     1      38.393  33.994  13.274  1.00  0.00     0.059 A 
BRANCH  76  77
ATOM     77  C   UNL     1      38.134  33.093  12.162  1.00  0.00     0.335 C 
ATOM     78  O   UNL     1      38.659  31.971  12.132  1.00  0.00    -0.246 OA
BRANCH  77  79
ATOM     79  O   UNL     1      37.303  33.491  11.139  1.00  0.00    -0.478 OA
ATOM     80  H   UNL     1      36.561  32.894  10.778  1.00  0.00     0.297 HD
ENDBRANCH  77  79
ENDBRANCH  76  77
ENDBRANCH  70  71
ENDBRANCH  68  70
ENDBRANCH  64  65
ENDBRANCH  63  64
ENDBRANCH  60  63
ENDBRANCH  58  59
ENDBRANCH  55  58
ENDBRANCH   1  55
TORSDOF 33
BEGIN_RES LYS A 131
REMARK  4 active torsions:
REMARK  status: ('A' for Active; 'I' for Inactive)
REMARK    1  A    between atoms: CA   and  CB  
REMARK    2  A    between atoms: CB   and  CG  
REMARK    3  A    between atoms: CG   and  CD  
REMARK    4  A    between atoms: CD   and  CE  
ROOT
ATOM      1  CA  LYS A 131      29.867  25.555  16.977  1.00 20.52     0.186 C 
ENDROOT
BRANCH   1   2
ATOM      2  CB  LYS A 131      28.345  25.722  17.026  1.00 20.94     0.034 C 
BRANCH   2   3
ATOM      3  CG  LYS A 131      27.601  24.402  16.895  1.00 22.96     0.005 C 
BRANCH   3   4
ATOM      4  CD  LYS A 131      26.140  24.540  17.220  1.00 24.33     0.041 C 
BRANCH   4   5
ATOM      5  CE  LYS A 131      25.571  23.177  17.597  1.00 26.91     0.338 C 
ATOM      6  NZ  LYS A 131      24.165  23.058  17.144  1.00 27.40     0.618 N 
ENDBRANCH   4   5
ENDBRANCH   3   4
ENDBRANCH   2   3
ENDBRANCH   1   2
END_RES LYS A 131
BEGIN_RES LYS A 135
REMARK  4 active torsions:
REMARK  status: ('A' for Active; 'I' for Inactive)
REMARK    5  A    between atoms: CA   and  CB  
REMARK    6  A    between atoms: CB   and  CG  
REMARK    7  A    between atoms: CG   and  CD  
REMARK    8  A    between atoms: CD   and  CE  
ROOT
ATOM      7  CA  LYS A 135      33.193  34.663   9.290  1.00 25.02     0.186 C 
ENDROOT
BRANCH   7   8
ATOM      8  CB  LYS A 135      32.060  35.360  10.034  1.00 26.63     0.034 C 
BRANCH   8   9
ATOM      9  CG  LYS A 135      30.802  35.505   9.217  1.00 29.45     0.005 C 
BRANCH   9  10
ATOM     10  CD  LYS A 135      30.131  34.154   9.021  1.00 32.00     0.041 C 
BRANCH  10  11
ATOM     11  CE  LYS A 135      28.674  34.334   8.641  1.00 34.25     0.338 C 
ATOM     12  NZ  LYS A 135      27.775  33.721   9.657  1.00 35.99     0.618 N 
ENDBRANCH  10  11
ENDBRANCH   9  10
ENDBRANCH   8   9
ENDBRANCH   7   8
END_RES LYS A 135
