REMARK VINA RESULT:    -4.996      4.141      8.869
REMARK INTER + INTRA:         -24.424
REMARK INTER:                 -10.529
REMARK INTRA:                 -13.895
REMARK UNBOUND:               -10.521
REMARK SMILES CC(=O)N[C@@H]1[C@@H](O)C[C@](OC[C@H]2O[C@@H](O[C@H]3[C@H](O)[C@@H](O)[C@H](OCCN=[N+]=[N-])O[C@@H]3CO)[C@H](O)[C@@H](O)[C@H]2O)(C(=O)O)O[C@H]1C(O)[C@H](O)CNC(=O)OCc1cn(CCCCCC(=O)O)nn1
REMARK SMILES IDX 47 1 45 2 43 3 42 4 9 5 8 6 41 7 6 8 5 9 10 10 11 11 12 12
REMARK SMILES IDX 14 13 13 14 32 15 34 16 36 17 15 18 16 19 29 20 28 21 21 22
REMARK SMILES IDX 17 23 19 24 30 25 31 26 22 28 23 29 24 30 25 31 26 32 27 33
REMARK SMILES IDX 18 34 20 36 33 38 35 40 37 42 38 44 39 45 40 46 7 48 4 50
REMARK SMILES IDX 2 51 1 53 3 54 44 55 46 57 48 59 49 60 50 62 51 63 52 64
REMARK SMILES IDX 53 65 54 66 65 67 55 68 64 69 56 70 57 71 58 72 59 73 60 74
REMARK SMILES IDX 61 75 62 76 63 77
REMARK H PARENT 31 27 18 35 20 37 33 39 35 41 37 43 40 47 7 49 4 52 44 56
REMARK H PARENT 46 58 48 61 63 78
REMARK Flexibility Score: inf
ROOT
ATOM      1  C   UNL     1      24.930  33.128  17.124  1.00  0.00     0.154 C 
ENDROOT
BRANCH   1   2
ATOM      2  C   UNL     1      24.770  31.896  16.267  1.00  0.00     0.165 C 
BRANCH   2   3
ATOM      3  C   UNL     1      25.700  30.863  16.815  1.00  0.00     0.176 C 
BRANCH   3   4
ATOM      4  C   UNL     1      27.125  31.273  16.956  1.00  0.00     0.178 C 
ATOM      5  C   UNL     1      28.854  32.347  15.991  1.00  0.00     0.272 C 
ATOM      6  C   UNL     1      29.372  32.383  17.392  1.00  0.00     0.113 C 
ATOM      7  O   UNL     1      27.800  31.474  15.763  1.00  0.00    -0.332 OA
ATOM      8  C   UNL     1      29.151  31.189  18.240  1.00  0.00     0.145 C 
ATOM      9  C   UNL     1      27.988  30.316  17.748  1.00  0.00     0.142 C 
BRANCH   5  10
ATOM     10  O   UNL     1      29.868  32.189  15.047  1.00  0.00    -0.338 OA
BRANCH  10  11
ATOM     11  C   UNL     1      31.149  32.302  15.482  1.00  0.00     0.199 C 
BRANCH  11  12
ATOM     12  C   UNL     1      31.741  33.511  14.782  1.00  0.00     0.179 C 
ATOM     13  C   UNL     1      31.474  35.187  13.326  1.00  0.00     0.282 C 
ATOM     14  O   UNL     1      30.796  34.408  14.310  1.00  0.00    -0.341 OA
ATOM     15  C   UNL     1      32.875  35.475  13.628  1.00  0.00     0.202 C 
ATOM     16  C   UNL     1      33.321  35.317  15.055  1.00  0.00     0.179 C 
ATOM     17  C   UNL     1      32.540  34.281  15.818  1.00  0.00     0.177 C 
BRANCH  13  18
ATOM     18  O   UNL     1      30.651  36.232  12.914  1.00  0.00    -0.341 OA
BRANCH  18  19
ATOM     19  C   UNL     1      29.578  36.474  13.688  1.00  0.00     0.184 C 
ATOM     20  C   UNL     1      28.388  36.956  12.917  1.00  0.00     0.178 C 
ATOM     21  O   UNL     1      27.287  36.771  13.779  1.00  0.00    -0.341 OA
ATOM     22  C   UNL     1      27.336  37.630  14.824  1.00  0.00     0.281 C 
ATOM     23  C   UNL     1      29.865  37.679  14.649  1.00  0.00     0.180 C 
ATOM     24  C   UNL     1      28.581  38.430  14.894  1.00  0.00     0.202 C 
BRANCH  20  25
ATOM     25  C   UNL     1      28.105  36.162  11.669  1.00  0.00     0.191 C 
BRANCH  25  26
ATOM     26  O   UNL     1      28.041  34.814  11.946  1.00  0.00    -0.394 OA
ATOM     27  H   UNL     1      28.687  34.353  11.347  1.00  0.00     0.210 HD
ENDBRANCH  25  26
ENDBRANCH  20  25
BRANCH  22  28
ATOM     28  O   UNL     1      27.068  37.024  16.058  1.00  0.00    -0.350 OA
BRANCH  28  29
ATOM     29  C   UNL     1      26.833  37.934  17.057  1.00  0.00     0.169 C 
BRANCH  29  30
ATOM     30  C   UNL     1      26.581  37.202  18.367  1.00  0.00     0.119 C 
BRANCH  30  31
ATOM     31  N   UNL     1      27.692  37.390  19.287  1.00  0.00    -0.092 NA
ATOM     32  N   UNL     1      28.846  37.095  18.923  1.00  0.00     0.001 N 
ATOM     33  N   UNL     1      29.881  36.434  18.827  1.00  0.00    -0.003 NA
ENDBRANCH  30  31
ENDBRANCH  29  30
ENDBRANCH  28  29
ENDBRANCH  22  28
BRANCH  23  34
ATOM     34  O   UNL     1      30.295  37.171  15.873  1.00  0.00    -0.387 OA
ATOM     35  H   UNL     1      30.426  36.182  15.782  1.00  0.00     0.211 HD
ENDBRANCH  23  34
BRANCH  24  36
ATOM     36  O   UNL     1      28.521  39.644  14.196  1.00  0.00    -0.385 OA
ATOM     37  H   UNL     1      28.919  40.392  14.707  1.00  0.00     0.211 HD
ENDBRANCH  24  36
ENDBRANCH  18  19
ENDBRANCH  13  18
BRANCH  15  38
ATOM     38  O   UNL     1      33.758  34.650  12.872  1.00  0.00    -0.385 OA
ATOM     39  H   UNL     1      34.386  35.199  12.368  1.00  0.00     0.211 HD
ENDBRANCH  15  38
BRANCH  16  40
ATOM     40  O   UNL     1      33.229  36.516  15.785  1.00  0.00    -0.387 OA
ATOM     41  H   UNL     1      34.098  36.877  16.035  1.00  0.00     0.211 HD
ENDBRANCH  16  40
BRANCH  17  42
ATOM     42  O   UNL     1      31.583  34.934  16.636  1.00  0.00    -0.387 OA
ATOM     43  H   UNL     1      32.130  35.495  17.272  1.00  0.00     0.211 HD
ENDBRANCH  17  42
ENDBRANCH  11  12
ENDBRANCH  10  11
ENDBRANCH   5  10
BRANCH   5  44
ATOM     44  C   UNL     1      28.293  33.699  15.715  1.00  0.00     0.364 C 
ATOM     45  O   UNL     1      27.492  33.879  14.772  1.00  0.00    -0.246 OA
BRANCH  44  46
ATOM     46  O   UNL     1      28.652  34.768  16.499  1.00  0.00    -0.477 OA
ATOM     47  H   UNL     1      29.571  34.845  16.965  1.00  0.00     0.296 HD
ENDBRANCH  44  46
ENDBRANCH   5  44
BRANCH   8  48
ATOM     48  O   UNL     1      30.287  30.435  18.520  1.00  0.00    -0.391 OA
ATOM     49  H   UNL     1      30.817  30.927  19.187  1.00  0.00     0.211 HD
ENDBRANCH   8  48
BRANCH   9  50
ATOM     50  N   UNL     1      27.330  29.661  18.823  1.00  0.00    -0.348 N 
ATOM     51  C   UNL     1      27.032  28.280  18.727  1.00  0.00     0.217 C 
ATOM     52  H   UNL     1      27.065  30.171  19.677  1.00  0.00     0.163 HD
ATOM     53  C   UNL     1      26.348  27.570  19.838  1.00  0.00     0.114 C 
ATOM     54  O   UNL     1      27.332  27.596  17.704  1.00  0.00    -0.275 OA
ENDBRANCH   9  50
ENDBRANCH   3   4
BRANCH   3  55
ATOM     55  O   UNL     1      25.644  29.673  16.055  1.00  0.00    -0.388 OA
ATOM     56  H   UNL     1      26.096  28.946  16.540  1.00  0.00     0.211 HD
ENDBRANCH   3  55
ENDBRANCH   2   3
BRANCH   2  57
ATOM     57  O   UNL     1      25.118  32.231  14.964  1.00  0.00    -0.388 OA
ATOM     58  H   UNL     1      24.451  32.890  14.647  1.00  0.00     0.211 HD
ENDBRANCH   2  57
ENDBRANCH   1   2
BRANCH   1  59
ATOM     59  N   UNL     1      25.044  34.346  16.387  1.00  0.00    -0.319 N 
ATOM     60  C   UNL     1      23.913  35.222  16.346  1.00  0.00     0.407 C 
ATOM     61  H   UNL     1      25.902  34.623  15.885  1.00  0.00     0.167 HD
ATOM     62  O   UNL     1      22.851  34.920  16.946  1.00  0.00    -0.225 OA
BRANCH  60  63
ATOM     63  O   UNL     1      23.937  36.412  15.657  1.00  0.00    -0.443 OA
BRANCH  63  64
ATOM     64  C   UNL     1      23.335  36.629  14.430  1.00  0.00     0.294 C 
BRANCH  64  65
ATOM     65  C   UNL     1      23.950  35.981  13.265  1.00  0.00     0.120 A 
ATOM     66  C   UNL     1      24.093  36.493  12.002  1.00  0.00     0.138 A 
ATOM     67  N   UNL     1      24.475  34.735  13.247  1.00  0.00    -0.132 NA
ATOM     68  N   UNL     1      24.691  35.563  11.255  1.00  0.00    -0.252 N 
ATOM     69  N   UNL     1      24.906  34.522  12.034  1.00  0.00    -0.067 NA
BRANCH  68  70
ATOM     70  C   UNL     1      25.043  35.696   9.848  1.00  0.00     0.146 C 
BRANCH  70  71
ATOM     71  C   UNL     1      23.829  36.257   9.108  1.00  0.00     0.024 C 
BRANCH  71  72
ATOM     72  C   UNL     1      22.743  35.230   8.983  1.00  0.00     0.002 C 
BRANCH  72  73
ATOM     73  C   UNL     1      21.422  35.834   9.364  1.00  0.00     0.012 C 
BRANCH  73  74
ATOM     74  C   UNL     1      21.245  37.232   8.872  1.00  0.00     0.122 C 
BRANCH  74  75
ATOM     75  C   UNL     1      20.035  37.306   8.008  1.00  0.00     0.303 C 
ATOM     76  O   UNL     1      19.627  36.282   7.416  1.00  0.00    -0.252 OA
BRANCH  75  77
ATOM     77  O   UNL     1      19.341  38.501   7.844  1.00  0.00    -0.481 OA
ATOM     78  H   UNL     1      19.415  39.009   6.960  1.00  0.00     0.296 HD
ENDBRANCH  75  77
ENDBRANCH  74  75
ENDBRANCH  73  74
ENDBRANCH  72  73
ENDBRANCH  71  72
ENDBRANCH  70  71
ENDBRANCH  68  70
ENDBRANCH  64  65
ENDBRANCH  63  64
ENDBRANCH  60  63
ENDBRANCH   1  59
TORSDOF 36
BEGIN_RES LYS A 131
REMARK  4 active torsions:
REMARK  status: ('A' for Active; 'I' for Inactive)
REMARK    1  A    between atoms: CA   and  CB  
REMARK    2  A    between atoms: CB   and  CG  
REMARK    3  A    between atoms: CG   and  CD  
REMARK    4  A    between atoms: CD   and  CE  
ROOT
ATOM      1  CA  LYS A 131      29.867  25.555  16.977  1.00 20.52     0.186 C 
ENDROOT
BRANCH   1   2
ATOM      2  CB  LYS A 131      28.345  25.722  17.026  1.00 20.94     0.034 C 
BRANCH   2   3
ATOM      3  CG  LYS A 131      27.599  24.446  16.667  1.00 22.96     0.005 C 
BRANCH   3   4
ATOM      4  CD  LYS A 131      27.025  23.765  17.878  1.00 24.33     0.041 C 
BRANCH   4   5
ATOM      5  CE  LYS A 131      25.662  24.368  18.203  1.00 26.91     0.338 C 
ATOM      6  NZ  LYS A 131      24.706  24.115  17.099  1.00 27.40     0.618 N 
ENDBRANCH   4   5
ENDBRANCH   3   4
ENDBRANCH   2   3
ENDBRANCH   1   2
END_RES LYS A 131
BEGIN_RES LYS A 135
REMARK  4 active torsions:
REMARK  status: ('A' for Active; 'I' for Inactive)
REMARK    5  A    between atoms: CA   and  CB  
REMARK    6  A    between atoms: CB   and  CG  
REMARK    7  A    between atoms: CG   and  CD  
REMARK    8  A    between atoms: CD   and  CE  
ROOT
ATOM      7  CA  LYS A 135      33.193  34.663   9.290  1.00 25.02     0.186 C 
ENDROOT
BRANCH   7   8
ATOM      8  CB  LYS A 135      32.060  35.360  10.034  1.00 26.63     0.034 C 
BRANCH   8   9
ATOM      9  CG  LYS A 135      30.815  35.540   9.204  1.00 29.45     0.005 C 
BRANCH   9  10
ATOM     10  CD  LYS A 135      30.087  34.216   9.034  1.00 32.00     0.041 C 
BRANCH  10  11
ATOM     11  CE  LYS A 135      28.746  34.428   8.358  1.00 34.25     0.338 C 
ATOM     12  NZ  LYS A 135      28.880  35.311   7.166  1.00 35.99     0.618 N 
ENDBRANCH  10  11
ENDBRANCH   9  10
ENDBRANCH   8   9
ENDBRANCH   7   8
END_RES LYS A 135
