REMARK VINA RESULT:    -5.345      2.905      4.431
REMARK INTER + INTRA:         -23.666
REMARK INTER:                 -14.073
REMARK INTRA:                  -9.593
REMARK UNBOUND:                -9.883
REMARK SMILES CC(=O)N[C@@H]1[C@@H](O)C[C@](OC[C@H]2O[C@@H](O[C@H]3[C@H](O)[C@@H](O)[C@H](OCCN=[N+]=[N-])O[C@@H]3CO)[C@H](O)[C@@H](O)[C@H]2O)(C(=O)O)O[C@H]1C(O)[C@H](O)CNC(=O)OCc1cn(C(c2ccccc2)c2ccccc2)nn1
REMARK SMILES IDX 9 1 8 2 6 3 5 4 42 5 41 6 10 7 11 8 12 9 14 10 13 11 32 12
REMARK SMILES IDX 34 13 36 14 15 15 16 16 29 17 28 18 21 19 17 20 19 21 30 22
REMARK SMILES IDX 31 23 22 25 23 26 24 27 25 28 26 29 27 30 18 31 20 33 33 35
REMARK SMILES IDX 35 37 37 39 38 41 39 42 40 43 7 45 43 47 44 48 45 50 46 51
REMARK SMILES IDX 47 53 48 54 49 55 50 57 51 58 52 59 53 60 54 61 70 62 55 63
REMARK SMILES IDX 69 64 56 65 57 66 58 67 62 68 59 69 61 70 60 71 63 72 64 73
REMARK SMILES IDX 68 74 65 75 67 76 66 77 4 78 2 79 1 81 3 82
REMARK H PARENT 31 24 18 32 20 34 33 36 35 38 37 40 40 44 7 46 44 49 46 52
REMARK H PARENT 48 56 4 80
REMARK Flexibility Score: inf
ROOT
ATOM      1  C   UNL     1      29.701  35.726  14.789  1.00  0.00     0.272 C 
ATOM      2  C   UNL     1      30.891  36.451  15.453  1.00  0.00     0.113 C 
ATOM      3  C   UNL     1      31.392  37.512  14.561  1.00  0.00     0.145 C 
ATOM      4  C   UNL     1      30.287  38.491  14.255  1.00  0.00     0.142 C 
ATOM      5  C   UNL     1      28.928  37.926  14.450  1.00  0.00     0.178 C 
ATOM      6  O   UNL     1      28.804  36.585  14.280  1.00  0.00    -0.332 OA
ENDROOT
BRANCH   1   7
ATOM      7  O   UNL     1      29.087  34.940  15.777  1.00  0.00    -0.338 OA
BRANCH   7   8
ATOM      8  C   UNL     1      29.823  34.915  16.933  1.00  0.00     0.199 C 
BRANCH   8   9
ATOM      9  C   UNL     1      29.752  33.562  17.639  1.00  0.00     0.179 C 
ATOM     10  C   UNL     1      28.052  32.107  16.814  1.00  0.00     0.282 C 
ATOM     11  O   UNL     1      28.546  33.062  17.626  1.00  0.00    -0.341 OA
ATOM     12  C   UNL     1      28.954  31.635  15.777  1.00  0.00     0.202 C 
ATOM     13  C   UNL     1      30.398  31.650  16.140  1.00  0.00     0.179 C 
ATOM     14  C   UNL     1      30.840  32.630  17.155  1.00  0.00     0.177 C 
BRANCH  10  15
ATOM     15  O   UNL     1      26.833  32.683  16.339  1.00  0.00    -0.341 OA
BRANCH  15  16
ATOM     16  C   UNL     1      26.274  31.937  15.346  1.00  0.00     0.184 C 
ATOM     17  C   UNL     1      25.585  32.779  14.331  1.00  0.00     0.178 C 
ATOM     18  O   UNL     1      25.216  32.003  13.224  1.00  0.00    -0.341 OA
ATOM     19  C   UNL     1      24.178  31.177  13.561  1.00  0.00     0.281 C 
ATOM     20  C   UNL     1      25.220  30.981  15.891  1.00  0.00     0.180 C 
ATOM     21  C   UNL     1      24.036  30.928  15.008  1.00  0.00     0.202 C 
BRANCH  17  22
ATOM     22  C   UNL     1      26.354  34.010  13.894  1.00  0.00     0.191 C 
BRANCH  22  23
ATOM     23  O   UNL     1      26.119  35.039  14.801  1.00  0.00    -0.394 OA
ATOM     24  H   UNL     1      26.490  34.876  15.693  1.00  0.00     0.210 HD
ENDBRANCH  22  23
ENDBRANCH  17  22
BRANCH  19  25
ATOM     25  O   UNL     1      24.195  29.989  12.812  1.00  0.00    -0.350 OA
BRANCH  25  26
ATOM     26  C   UNL     1      23.113  29.176  12.994  1.00  0.00     0.169 C 
BRANCH  26  27
ATOM     27  C   UNL     1      21.879  29.847  12.437  1.00  0.00     0.119 C 
BRANCH  27  28
ATOM     28  N   UNL     1      20.851  28.874  12.078  1.00  0.00    -0.092 NA
ATOM     29  N   UNL     1      19.735  29.210  11.699  1.00  0.00     0.001 N 
ATOM     30  N   UNL     1      18.574  29.633  11.661  1.00  0.00    -0.003 NA
ENDBRANCH  27  28
ENDBRANCH  26  27
ENDBRANCH  25  26
ENDBRANCH  19  25
BRANCH  20  31
ATOM     31  O   UNL     1      25.851  29.753  16.096  1.00  0.00    -0.387 OA
ATOM     32  H   UNL     1      25.380  29.209  16.782  1.00  0.00     0.211 HD
ENDBRANCH  20  31
BRANCH  21  33
ATOM     33  O   UNL     1      23.056  31.811  15.549  1.00  0.00    -0.385 OA
ATOM     34  H   UNL     1      23.573  32.477  16.083  1.00  0.00     0.211 HD
ENDBRANCH  21  33
ENDBRANCH  15  16
ENDBRANCH  10  15
BRANCH  12  35
ATOM     35  O   UNL     1      28.686  30.305  15.362  1.00  0.00    -0.385 OA
ATOM     36  H   UNL     1      28.946  30.270  14.410  1.00  0.00     0.211 HD
ENDBRANCH  12  35
BRANCH  13  37
ATOM     37  O   UNL     1      31.211  31.806  14.987  1.00  0.00    -0.387 OA
ATOM     38  H   UNL     1      30.855  32.549  14.435  1.00  0.00     0.211 HD
ENDBRANCH  13  37
BRANCH  14  39
ATOM     39  O   UNL     1      31.827  33.460  16.598  1.00  0.00    -0.387 OA
ATOM     40  H   UNL     1      31.535  34.400  16.549  1.00  0.00     0.211 HD
ENDBRANCH  14  39
ENDBRANCH   8   9
ENDBRANCH   7   8
ENDBRANCH   1   7
BRANCH   1  41
ATOM     41  C   UNL     1      30.295  34.850  13.779  1.00  0.00     0.364 C 
ATOM     42  O   UNL     1      29.681  34.562  12.734  1.00  0.00    -0.246 OA
BRANCH  41  43
ATOM     43  O   UNL     1      31.568  34.293  13.929  1.00  0.00    -0.477 OA
ATOM     44  H   UNL     1      32.106  34.444  14.769  1.00  0.00     0.296 HD
ENDBRANCH  41  43
ENDBRANCH   1  41
BRANCH   3  45
ATOM     45  O   UNL     1      32.432  38.175  15.248  1.00  0.00    -0.391 OA
ATOM     46  H   UNL     1      33.310  37.775  15.027  1.00  0.00     0.211 HD
ENDBRANCH   3  45
BRANCH   5  47
ATOM     47  C   UNL     1      28.189  38.355  15.686  1.00  0.00     0.176 C 
BRANCH  47  48
ATOM     48  O   UNL     1      26.857  37.921  15.515  1.00  0.00    -0.388 OA
ATOM     49  H   UNL     1      26.408  37.721  16.354  1.00  0.00     0.211 HD
ENDBRANCH  47  48
BRANCH  47  50
ATOM     50  C   UNL     1      28.162  39.814  15.965  1.00  0.00     0.165 C 
BRANCH  50  51
ATOM     51  O   UNL     1      27.166  40.032  16.909  1.00  0.00    -0.388 OA
ATOM     52  H   UNL     1      26.845  39.196  17.336  1.00  0.00     0.211 HD
ENDBRANCH  50  51
BRANCH  50  53
ATOM     53  C   UNL     1      27.944  40.705  14.792  1.00  0.00     0.154 C 
BRANCH  53  54
ATOM     54  N   UNL     1      26.832  40.389  13.954  1.00  0.00    -0.319 N 
ATOM     55  C   UNL     1      25.516  40.850  14.063  1.00  0.00     0.407 C 
ATOM     56  H   UNL     1      27.018  39.719  13.140  1.00  0.00     0.167 HD
ATOM     57  O   UNL     1      25.196  41.617  14.978  1.00  0.00    -0.225 OA
BRANCH  55  58
ATOM     58  O   UNL     1      24.537  40.463  13.151  1.00  0.00    -0.443 OA
BRANCH  58  59
ATOM     59  C   UNL     1      23.696  39.336  13.443  1.00  0.00     0.294 C 
BRANCH  59  60
ATOM     60  C   UNL     1      24.242  38.149  12.738  1.00  0.00     0.120 A 
ATOM     61  C   UNL     1      23.557  37.464  11.776  1.00  0.00     0.139 A 
ATOM     62  N   UNL     1      25.438  37.602  12.930  1.00  0.00    -0.132 NA
ATOM     63  N   UNL     1      24.379  36.475  11.384  1.00  0.00    -0.240 N 
ATOM     64  N   UNL     1      25.512  36.570  12.089  1.00  0.00    -0.066 NA
BRANCH  63  65
ATOM     65  C   UNL     1      24.173  35.452  10.380  1.00  0.00     0.169 C 
BRANCH  65  66
ATOM     66  C   UNL     1      25.147  35.673   9.303  1.00  0.00    -0.019 A 
ATOM     67  C   UNL     1      26.065  34.695   8.975  1.00  0.00     0.006 A 
ATOM     68  C   UNL     1      25.215  36.846   8.583  1.00  0.00     0.006 A 
ATOM     69  C   UNL     1      27.005  34.889   7.972  1.00  0.00     0.000 A 
ATOM     70  C   UNL     1      26.152  37.051   7.575  1.00  0.00     0.000 A 
ATOM     71  C   UNL     1      27.063  36.061   7.261  1.00  0.00     0.000 A 
ENDBRANCH  65  66
BRANCH  65  72
ATOM     72  C   UNL     1      22.761  35.427   9.948  1.00  0.00    -0.019 A 
ATOM     73  C   UNL     1      21.820  35.025  10.890  1.00  0.00     0.006 A 
ATOM     74  C   UNL     1      22.321  35.739   8.696  1.00  0.00     0.006 A 
ATOM     75  C   UNL     1      20.493  34.950  10.561  1.00  0.00     0.000 A 
ATOM     76  C   UNL     1      20.982  35.666   8.356  1.00  0.00     0.000 A 
ATOM     77  C   UNL     1      20.060  35.269   9.290  1.00  0.00     0.000 A 
ENDBRANCH  65  72
ENDBRANCH  63  65
ENDBRANCH  59  60
ENDBRANCH  58  59
ENDBRANCH  55  58
ENDBRANCH  53  54
ENDBRANCH  50  53
ENDBRANCH  47  50
ENDBRANCH   5  47
BRANCH   4  78
ATOM     78  N   UNL     1      30.483  38.847  12.836  1.00  0.00    -0.348 N 
ATOM     79  C   UNL     1      30.939  40.132  12.432  1.00  0.00     0.217 C 
ATOM     80  H   UNL     1      30.292  38.155  12.069  1.00  0.00     0.163 HD
ATOM     81  C   UNL     1      31.132  40.463  10.979  1.00  0.00     0.114 C 
ATOM     82  O   UNL     1      31.193  41.023  13.270  1.00  0.00    -0.275 OA
ENDBRANCH   4  78
TORSDOF 32
BEGIN_RES LYS A 131
REMARK  4 active torsions:
REMARK  status: ('A' for Active; 'I' for Inactive)
REMARK    1  A    between atoms: CA   and  CB  
REMARK    2  A    between atoms: CB   and  CG  
REMARK    3  A    between atoms: CG   and  CD  
REMARK    4  A    between atoms: CD   and  CE  
ROOT
ATOM      1  CA  LYS A 131      29.867  25.555  16.977  1.00 20.52     0.186 C 
ENDROOT
BRANCH   1   2
ATOM      2  CB  LYS A 131      28.345  25.722  17.026  1.00 20.94     0.034 C 
BRANCH   2   3
ATOM      3  CG  LYS A 131      27.601  24.401  16.904  1.00 22.96     0.005 C 
BRANCH   3   4
ATOM      4  CD  LYS A 131      26.245  24.452  17.551  1.00 24.33     0.041 C 
BRANCH   4   5
ATOM      5  CE  LYS A 131      26.292  25.384  18.758  1.00 26.91     0.338 C 
ATOM      6  NZ  LYS A 131      25.247  25.013  19.741  1.00 27.40     0.618 N 
ENDBRANCH   4   5
ENDBRANCH   3   4
ENDBRANCH   2   3
ENDBRANCH   1   2
END_RES LYS A 131
BEGIN_RES LYS A 135
REMARK  4 active torsions:
REMARK  status: ('A' for Active; 'I' for Inactive)
REMARK    5  A    between atoms: CA   and  CB  
REMARK    6  A    between atoms: CB   and  CG  
REMARK    7  A    between atoms: CG   and  CD  
REMARK    8  A    between atoms: CD   and  CE  
ROOT
ATOM      7  CA  LYS A 135      33.193  34.663   9.290  1.00 25.02     0.186 C 
ENDROOT
BRANCH   7   8
ATOM      8  CB  LYS A 135      32.060  35.360  10.034  1.00 26.63     0.034 C 
BRANCH   8   9
ATOM      9  CG  LYS A 135      30.715  35.192   9.376  1.00 29.45     0.005 C 
BRANCH   9  10
ATOM     10  CD  LYS A 135      29.845  36.417   9.613  1.00 32.00     0.041 C 
BRANCH  10  11
ATOM     11  CE  LYS A 135      30.196  37.518   8.630  1.00 34.25     0.338 C 
ATOM     12  NZ  LYS A 135      29.225  38.644   8.716  1.00 35.99     0.618 N 
ENDBRANCH  10  11
ENDBRANCH   9  10
ENDBRANCH   8   9
ENDBRANCH   7   8
END_RES LYS A 135
