REMARK VINA RESULT:    -5.459      3.679      9.971
REMARK INTER + INTRA:         -25.585
REMARK INTER:                 -11.695
REMARK INTRA:                 -13.890
REMARK UNBOUND:               -11.349
REMARK SMILES CC(=O)N[C@@H]1[C@@H](O)C[C@](OC[C@H]2O[C@@H](O[C@H]3[C@H](O)[C@@H](O)[C@H](OCCN=[N+]=[N-])O[C@@H]3CO)[C@H](O)[C@@H](O)[C@H]2O)(C(=O)O)O[C@H]1C(O)[C@H](O)CNC(=O)OCc1cn(-c2ccc(-c3c4ccc(=O)cc-4oc4cc(O)ccc34)c(C(=O)[O-])c2)nn1
REMARK SMILES IDX 9 1 8 2 6 3 5 4 42 5 41 6 10 7 11 8 12 9 14 10 13 11 32 12
REMARK SMILES IDX 34 13 36 14 15 15 16 16 29 17 28 18 21 19 17 20 19 21 30 22
REMARK SMILES IDX 31 23 22 25 23 26 24 27 25 28 26 29 27 30 18 31 20 33 33 35
REMARK SMILES IDX 35 37 37 39 38 41 39 42 40 43 7 45 43 47 44 48 45 50 46 51
REMARK SMILES IDX 47 53 48 54 49 55 50 57 51 58 52 59 53 60 54 61 82 62 55 63
REMARK SMILES IDX 81 64 56 65 80 66 57 67 76 68 58 69 59 70 77 71 78 72 79 73
REMARK SMILES IDX 60 74 75 75 61 76 74 77 69 78 67 79 62 80 73 81 70 82 68 83
REMARK SMILES IDX 66 84 63 85 71 86 64 87 65 88 72 89 4 91 2 92 1 94 3 95
REMARK H PARENT 31 24 18 32 20 34 33 36 35 38 37 40 40 44 7 46 44 49 46 52
REMARK H PARENT 48 56 72 90 4 93
REMARK Flexibility Score: inf
ROOT
ATOM      1  C   UNL     1      28.592  31.960  16.799  1.00  0.00     0.272 C 
ATOM      2  C   UNL     1      27.513  32.332  15.812  1.00  0.00     0.113 C 
ATOM      3  C   UNL     1      27.154  33.791  15.846  1.00  0.00     0.145 C 
ATOM      4  C   UNL     1      27.699  34.372  17.126  1.00  0.00     0.142 C 
ATOM      5  C   UNL     1      27.379  33.386  18.218  1.00  0.00     0.178 C 
ATOM      6  O   UNL     1      28.215  32.302  18.121  1.00  0.00    -0.332 OA
ENDROOT
BRANCH   1   7
ATOM      7  O   UNL     1      29.839  32.458  16.541  1.00  0.00    -0.338 OA
BRANCH   7   8
ATOM      8  C   UNL     1      30.372  32.070  15.363  1.00  0.00     0.199 C 
BRANCH   8   9
ATOM      9  C   UNL     1      31.141  33.212  14.682  1.00  0.00     0.179 C 
ATOM     10  C   UNL     1      30.820  35.238  13.628  1.00  0.00     0.282 C 
ATOM     11  O   UNL     1      30.357  33.981  13.902  1.00  0.00    -0.341 OA
ATOM     12  C   UNL     1      32.290  35.390  13.637  1.00  0.00     0.202 C 
ATOM     13  C   UNL     1      32.934  34.831  14.884  1.00  0.00     0.179 C 
ATOM     14  C   UNL     1      31.928  33.999  15.663  1.00  0.00     0.177 C 
BRANCH  10  15
ATOM     15  O   UNL     1      30.092  36.117  14.429  1.00  0.00    -0.341 OA
BRANCH  15  16
ATOM     16  C   UNL     1      29.633  37.208  13.768  1.00  0.00     0.184 C 
ATOM     17  C   UNL     1      29.923  38.488  14.489  1.00  0.00     0.178 C 
ATOM     18  O   UNL     1      29.833  39.573  13.605  1.00  0.00    -0.341 OA
ATOM     19  C   UNL     1      28.724  39.456  12.775  1.00  0.00     0.281 C 
ATOM     20  C   UNL     1      28.103  37.205  13.594  1.00  0.00     0.180 C 
ATOM     21  C   UNL     1      27.643  38.631  13.374  1.00  0.00     0.202 C 
BRANCH  17  22
ATOM     22  C   UNL     1      31.305  38.462  15.065  1.00  0.00     0.191 C 
BRANCH  22  23
ATOM     23  O   UNL     1      31.278  37.751  16.267  1.00  0.00    -0.394 OA
ATOM     24  H   UNL     1      30.496  37.157  16.228  1.00  0.00     0.210 HD
ENDBRANCH  22  23
ENDBRANCH  17  22
BRANCH  19  25
ATOM     25  O   UNL     1      29.082  39.007  11.521  1.00  0.00    -0.350 OA
BRANCH  25  26
ATOM     26  C   UNL     1      28.193  39.361  10.514  1.00  0.00     0.169 C 
BRANCH  26  27
ATOM     27  C   UNL     1      28.256  38.252   9.479  1.00  0.00     0.119 C 
BRANCH  27  28
ATOM     28  N   UNL     1      27.018  37.525   9.395  1.00  0.00    -0.092 NA
ATOM     29  N   UNL     1      26.417  37.497   8.314  1.00  0.00     0.001 N 
ATOM     30  N   UNL     1      25.804  37.134   7.309  1.00  0.00    -0.003 NA
ENDBRANCH  27  28
ENDBRANCH  26  27
ENDBRANCH  25  26
ENDBRANCH  19  25
BRANCH  20  31
ATOM     31  O   UNL     1      27.845  36.496  12.424  1.00  0.00    -0.387 OA
ATOM     32  H   UNL     1      27.993  35.529  12.504  1.00  0.00     0.211 HD
ENDBRANCH  20  31
BRANCH  21  33
ATOM     33  O   UNL     1      27.095  39.209  14.520  1.00  0.00    -0.385 OA
ATOM     34  H   UNL     1      26.213  38.743  14.653  1.00  0.00     0.211 HD
ENDBRANCH  21  33
ENDBRANCH  15  16
ENDBRANCH  10  15
BRANCH  12  35
ATOM     35  O   UNL     1      32.860  34.767  12.497  1.00  0.00    -0.385 OA
ATOM     36  H   UNL     1      32.177  34.143  12.107  1.00  0.00     0.211 HD
ENDBRANCH  12  35
BRANCH  13  37
ATOM     37  O   UNL     1      33.534  35.812  15.655  1.00  0.00    -0.387 OA
ATOM     38  H   UNL     1      32.880  36.106  16.332  1.00  0.00     0.211 HD
ENDBRANCH  13  37
BRANCH  14  39
ATOM     39  O   UNL     1      31.181  34.867  16.448  1.00  0.00    -0.387 OA
ATOM     40  H   UNL     1      31.346  34.583  17.394  1.00  0.00     0.211 HD
ENDBRANCH  14  39
ENDBRANCH   8   9
ENDBRANCH   7   8
ENDBRANCH   1   7
BRANCH   1  41
ATOM     41  C   UNL     1      28.570  30.444  16.835  1.00  0.00     0.364 C 
ATOM     42  O   UNL     1      28.300  29.736  15.848  1.00  0.00    -0.246 OA
BRANCH  41  43
ATOM     43  O   UNL     1      28.862  29.775  18.021  1.00  0.00    -0.477 OA
ATOM     44  H   UNL     1      28.130  29.351  18.573  1.00  0.00     0.296 HD
ENDBRANCH  41  43
ENDBRANCH   1  41
BRANCH   3  45
ATOM     45  O   UNL     1      27.619  34.405  14.699  1.00  0.00    -0.391 OA
ATOM     46  H   UNL     1      28.324  35.044  14.968  1.00  0.00     0.211 HD
ENDBRANCH   3  45
BRANCH   5  47
ATOM     47  C   UNL     1      27.644  34.004  19.595  1.00  0.00     0.176 C 
BRANCH  47  48
ATOM     48  O   UNL     1      28.955  33.637  19.983  1.00  0.00    -0.388 OA
ATOM     49  H   UNL     1      29.161  33.894  20.896  1.00  0.00     0.211 HD
ENDBRANCH  47  48
BRANCH  47  50
ATOM     50  C   UNL     1      26.735  33.421  20.626  1.00  0.00     0.165 C 
BRANCH  50  51
ATOM     51  O   UNL     1      25.761  34.355  20.986  1.00  0.00    -0.388 OA
ATOM     52  H   UNL     1      25.298  34.658  20.164  1.00  0.00     0.211 HD
ENDBRANCH  50  51
BRANCH  50  53
ATOM     53  C   UNL     1      27.403  32.852  21.828  1.00  0.00     0.154 C 
BRANCH  53  54
ATOM     54  N   UNL     1      27.243  31.418  21.914  1.00  0.00    -0.319 N 
ATOM     55  C   UNL     1      28.180  30.477  21.425  1.00  0.00     0.407 C 
ATOM     56  H   UNL     1      26.381  30.985  22.368  1.00  0.00     0.167 HD
ATOM     57  O   UNL     1      29.228  30.870  20.878  1.00  0.00    -0.225 OA
BRANCH  55  58
ATOM     58  O   UNL     1      27.990  29.105  21.524  1.00  0.00    -0.443 OA
BRANCH  58  59
ATOM     59  C   UNL     1      26.694  28.504  21.426  1.00  0.00     0.294 C 
BRANCH  59  60
ATOM     60  C   UNL     1      26.335  28.545  19.986  1.00  0.00     0.121 A 
ATOM     61  C   UNL     1      25.558  29.477  19.355  1.00  0.00     0.144 A 
ATOM     62  N   UNL     1      26.713  27.661  19.018  1.00  0.00    -0.131 NA
ATOM     63  N   UNL     1      25.469  29.165  18.044  1.00  0.00    -0.220 N 
ATOM     64  N   UNL     1      26.183  28.055  17.875  1.00  0.00    -0.062 NA
BRANCH  63  65
ATOM     65  C   UNL     1      24.751  29.898  17.064  1.00  0.00     0.067 A 
ATOM     66  C   UNL     1      24.445  29.368  15.833  1.00  0.00     0.039 A 
ATOM     67  C   UNL     1      24.346  31.176  17.360  1.00  0.00     0.029 A 
ATOM     68  C   UNL     1      23.742  30.118  14.920  1.00  0.00     0.007 A 
ATOM     69  C   UNL     1      23.642  31.925  16.442  1.00  0.00     0.012 A 
ATOM     70  C   UNL     1      23.325  31.415  15.205  1.00  0.00    -0.008 A 
BRANCH  68  71
ATOM     71  C   UNL     1      23.399  29.584  13.600  1.00  0.00     0.072 C 
ATOM     72  O   UNL     1      24.128  29.771  12.596  1.00  0.00    -0.545 OA
ATOM     73  O   UNL     1      22.245  28.855  13.450  1.00  0.00    -0.545 OA
ENDBRANCH  68  71
BRANCH  70  74
ATOM     74  C   UNL     1      22.580  32.195  14.233  1.00  0.00     0.004 A 
ATOM     75  C   UNL     1      23.268  33.015  13.372  1.00  0.00     0.026 A 
ATOM     76  C   UNL     1      21.213  32.143  14.146  1.00  0.00     0.026 A 
ATOM     77  C   UNL     1      24.638  33.131  13.387  1.00  0.00     0.016 A 
ATOM     78  C   UNL     1      22.540  33.758  12.450  1.00  0.00     0.139 A 
ATOM     79  C   UNL     1      20.483  32.952  13.146  1.00  0.00     0.139 A 
ATOM     80  C   UNL     1      20.459  31.347  14.971  1.00  0.00     0.016 A 
ATOM     81  C   UNL     1      25.321  33.961  12.516  1.00  0.00     0.047 A 
ATOM     82  C   UNL     1      23.225  34.579  11.588  1.00  0.00     0.093 A 
ATOM     83  O   UNL     1      21.225  33.702  12.373  1.00  0.00    -0.456 OA
ATOM     84  C   UNL     1      19.115  32.897  13.064  1.00  0.00     0.099 A 
ATOM     85  C   UNL     1      19.079  31.301  14.876  1.00  0.00     0.053 A 
ATOM     86  C   UNL     1      24.608  34.700  11.598  1.00  0.00     0.119 A 
ATOM     87  C   UNL     1      18.432  32.074  13.928  1.00  0.00     0.182 A 
ATOM     88  O   UNL     1      17.175  31.987  13.891  1.00  0.00    -0.290 OA
BRANCH  86  89
ATOM     89  O   UNL     1      25.300  35.528  10.728  1.00  0.00    -0.508 OA
ATOM     90  H   UNL     1      26.245  35.243  10.483  1.00  0.00     0.293 HD
ENDBRANCH  86  89
ENDBRANCH  70  74
ENDBRANCH  63  65
ENDBRANCH  59  60
ENDBRANCH  58  59
ENDBRANCH  55  58
ENDBRANCH  53  54
ENDBRANCH  50  53
ENDBRANCH  47  50
ENDBRANCH   5  47
BRANCH   4  91
ATOM     91  N   UNL     1      27.169  35.689  17.407  1.00  0.00    -0.348 N 
ATOM     92  C   UNL     1      28.071  36.735  17.686  1.00  0.00     0.217 C 
ATOM     93  H   UNL     1      26.148  35.905  17.415  1.00  0.00     0.163 HD
ATOM     94  C   UNL     1      27.640  38.122  17.989  1.00  0.00     0.114 C 
ATOM     95  O   UNL     1      29.335  36.535  17.693  1.00  0.00    -0.275 OA
ENDBRANCH   4  91
TORSDOF 33
BEGIN_RES LYS A 131
REMARK  4 active torsions:
REMARK  status: ('A' for Active; 'I' for Inactive)
REMARK    1  A    between atoms: CA   and  CB  
REMARK    2  A    between atoms: CB   and  CG  
REMARK    3  A    between atoms: CG   and  CD  
REMARK    4  A    between atoms: CD   and  CE  
ROOT
ATOM      1  CA  LYS A 131      29.867  25.555  16.977  1.00 20.52     0.186 C 
ENDROOT
BRANCH   1   2
ATOM      2  CB  LYS A 131      28.345  25.722  17.026  1.00 20.94     0.034 C 
BRANCH   2   3
ATOM      3  CG  LYS A 131      27.600  24.407  16.852  1.00 22.96     0.005 C 
BRANCH   3   4
ATOM      4  CD  LYS A 131      26.550  24.207  17.909  1.00 24.33     0.041 C 
BRANCH   4   5
ATOM      5  CE  LYS A 131      25.167  24.378  17.291  1.00 26.91     0.338 C 
ATOM      6  NZ  LYS A 131      24.115  24.231  18.325  1.00 27.40     0.618 N 
ENDBRANCH   4   5
ENDBRANCH   3   4
ENDBRANCH   2   3
ENDBRANCH   1   2
END_RES LYS A 131
BEGIN_RES LYS A 135
REMARK  4 active torsions:
REMARK  status: ('A' for Active; 'I' for Inactive)
REMARK    5  A    between atoms: CA   and  CB  
REMARK    6  A    between atoms: CB   and  CG  
REMARK    7  A    between atoms: CG   and  CD  
REMARK    8  A    between atoms: CD   and  CE  
ROOT
ATOM      7  CA  LYS A 135      33.193  34.663   9.290  1.00 25.02     0.186 C 
ENDROOT
BRANCH   7   8
ATOM      8  CB  LYS A 135      32.060  35.360  10.034  1.00 26.63     0.034 C 
BRANCH   8   9
ATOM      9  CG  LYS A 135      30.751  35.347   9.287  1.00 29.45     0.005 C 
BRANCH   9  10
ATOM     10  CD  LYS A 135      29.709  34.538  10.044  1.00 32.00     0.041 C 
BRANCH  10  11
ATOM     11  CE  LYS A 135      28.546  34.188   9.136  1.00 34.25     0.338 C 
ATOM     12  NZ  LYS A 135      28.701  34.819   7.797  1.00 35.99     0.618 N 
ENDBRANCH  10  11
ENDBRANCH   9  10
ENDBRANCH   8   9
ENDBRANCH   7   8
END_RES LYS A 135
