REMARK VINA RESULT:    -3.782      2.999      6.466
REMARK INTER + INTRA:         -22.348
REMARK INTER:                 -12.557
REMARK INTRA:                  -9.791
REMARK UNBOUND:               -13.037
REMARK SMILES CC(=O)N[C@@H]1[C@@H](O)C[C@](OC[C@H]2O[C@@H](O[C@H]3[C@H](O)[C@@H](O)[C@H](OCCN=[N+]=[N-])O[C@@H]3CO)[C@H](O)[C@@H](O)[C@H]2O)(C(=O)O)O[C@H]1C(O)[C@H](O)CNC(=O)OCc1cn([C@H]2C[C@H]3CC[C@@H](C2)N3C)nn1
REMARK SMILES IDX 9 1 8 2 6 3 5 4 42 5 41 6 10 7 11 8 12 9 14 10 13 11 32 12
REMARK SMILES IDX 34 13 36 14 15 15 16 16 29 17 28 18 21 19 17 20 19 21 30 22
REMARK SMILES IDX 31 23 22 25 23 26 24 27 25 28 26 29 27 30 18 31 20 33 33 35
REMARK SMILES IDX 35 37 37 39 38 41 39 42 40 43 7 45 43 47 44 48 45 50 46 51
REMARK SMILES IDX 47 53 48 54 49 55 50 57 51 58 52 59 53 60 54 61 66 62 55 63
REMARK SMILES IDX 65 64 56 65 62 66 57 67 61 68 58 69 63 70 60 71 59 72 64 73
REMARK SMILES IDX 4 74 2 75 1 77 3 78
REMARK H PARENT 31 24 18 32 20 34 33 36 35 38 37 40 40 44 7 46 44 49 46 52
REMARK H PARENT 48 56 4 76
REMARK Flexibility Score: inf
ROOT
ATOM      1  C   UNL     1      24.711  37.499   8.577  1.00  0.00     0.272 C 
ATOM      2  C   UNL     1      24.892  38.869   9.206  1.00  0.00     0.113 C 
ATOM      3  C   UNL     1      25.814  38.900  10.387  1.00  0.00     0.145 C 
ATOM      4  C   UNL     1      25.718  37.601  11.095  1.00  0.00     0.142 C 
ATOM      5  C   UNL     1      24.317  37.040  10.837  1.00  0.00     0.178 C 
ATOM      6  O   UNL     1      24.473  36.509   9.491  1.00  0.00    -0.332 OA
ENDROOT
BRANCH   1   7
ATOM      7  O   UNL     1      25.773  37.268   7.756  1.00  0.00    -0.338 OA
BRANCH   7   8
ATOM      8  C   UNL     1      26.195  36.009   7.527  1.00  0.00     0.199 C 
BRANCH   8   9
ATOM      9  C   UNL     1      27.559  35.613   7.951  1.00  0.00     0.179 C 
ATOM     10  C   UNL     1      29.633  36.505   8.015  1.00  0.00     0.282 C 
ATOM     11  O   UNL     1      28.290  36.799   8.283  1.00  0.00    -0.341 OA
ATOM     12  C   UNL     1      30.129  35.299   8.693  1.00  0.00     0.202 C 
ATOM     13  C   UNL     1      29.146  34.370   9.297  1.00  0.00     0.179 C 
ATOM     14  C   UNL     1      27.694  34.779   9.183  1.00  0.00     0.177 C 
BRANCH  10  15
ATOM     15  O   UNL     1      30.341  37.643   8.318  1.00  0.00    -0.341 OA
BRANCH  15  16
ATOM     16  C   UNL     1      29.693  38.807   7.896  1.00  0.00     0.184 C 
ATOM     17  C   UNL     1      29.630  38.987   6.416  1.00  0.00     0.178 C 
ATOM     18  O   UNL     1      30.759  39.412   5.792  1.00  0.00    -0.341 OA
ATOM     19  C   UNL     1      31.425  40.413   6.411  1.00  0.00     0.281 C 
ATOM     20  C   UNL     1      30.447  39.939   8.558  1.00  0.00     0.180 C 
ATOM     21  C   UNL     1      31.791  39.998   7.835  1.00  0.00     0.202 C 
BRANCH  17  22
ATOM     22  C   UNL     1      28.359  39.737   6.000  1.00  0.00     0.191 C 
BRANCH  22  23
ATOM     23  O   UNL     1      27.345  39.664   6.928  1.00  0.00    -0.394 OA
ATOM     24  H   UNL     1      27.365  40.398   7.577  1.00  0.00     0.210 HD
ENDBRANCH  22  23
ENDBRANCH  17  22
BRANCH  19  25
ATOM     25  O   UNL     1      30.895  41.667   6.354  1.00  0.00    -0.350 OA
BRANCH  25  26
ATOM     26  C   UNL     1      31.629  42.652   5.767  1.00  0.00     0.169 C 
BRANCH  26  27
ATOM     27  C   UNL     1      32.814  42.123   5.034  1.00  0.00     0.119 C 
BRANCH  27  28
ATOM     28  N   UNL     1      34.073  42.565   5.650  1.00  0.00    -0.092 NA
ATOM     29  N   UNL     1      35.055  41.802   5.672  1.00  0.00     0.001 N 
ATOM     30  N   UNL     1      36.023  41.192   5.177  1.00  0.00    -0.003 NA
ENDBRANCH  27  28
ENDBRANCH  26  27
ENDBRANCH  25  26
ENDBRANCH  19  25
BRANCH  20  31
ATOM     31  O   UNL     1      29.823  41.159   8.451  1.00  0.00    -0.387 OA
ATOM     32  H   UNL     1      30.330  41.889   8.838  1.00  0.00     0.211 HD
ENDBRANCH  20  31
BRANCH  21  33
ATOM     33  O   UNL     1      32.406  38.749   7.820  1.00  0.00    -0.385 OA
ATOM     34  H   UNL     1      32.233  38.333   8.707  1.00  0.00     0.211 HD
ENDBRANCH  21  33
ENDBRANCH  15  16
ENDBRANCH  10  15
BRANCH  12  35
ATOM     35  O   UNL     1      30.883  34.564   7.742  1.00  0.00    -0.385 OA
ATOM     36  H   UNL     1      31.841  34.769   7.787  1.00  0.00     0.211 HD
ENDBRANCH  12  35
BRANCH  13  37
ATOM     37  O   UNL     1      29.395  34.186  10.680  1.00  0.00    -0.387 OA
ATOM     38  H   UNL     1      29.940  34.980  10.986  1.00  0.00     0.211 HD
ENDBRANCH  13  37
BRANCH  14  39
ATOM     39  O   UNL     1      27.433  35.579  10.321  1.00  0.00    -0.387 OA
ATOM     40  H   UNL     1      28.240  36.180  10.370  1.00  0.00     0.211 HD
ENDBRANCH  14  39
ENDBRANCH   8   9
ENDBRANCH   7   8
ENDBRANCH   1   7
BRANCH   1  41
ATOM     41  C   UNL     1      23.459  37.641   7.767  1.00  0.00     0.364 C 
ATOM     42  O   UNL     1      22.515  36.867   7.888  1.00  0.00    -0.246 OA
BRANCH  41  43
ATOM     43  O   UNL     1      23.333  38.680   6.835  1.00  0.00    -0.477 OA
ATOM     44  H   UNL     1      23.409  39.639   7.200  1.00  0.00     0.296 HD
ENDBRANCH  41  43
ENDBRANCH   1  41
BRANCH   3  45
ATOM     45  O   UNL     1      27.110  39.140   9.872  1.00  0.00    -0.391 OA
ATOM     46  H   UNL     1      27.511  38.293   9.550  1.00  0.00     0.211 HD
ENDBRANCH   3  45
BRANCH   5  47
ATOM     47  C   UNL     1      23.939  35.900  11.695  1.00  0.00     0.176 C 
BRANCH  47  48
ATOM     48  O   UNL     1      24.775  34.780  11.263  1.00  0.00    -0.388 OA
ATOM     49  H   UNL     1      25.555  35.165  10.788  1.00  0.00     0.211 HD
ENDBRANCH  47  48
BRANCH  47  50
ATOM     50  C   UNL     1      22.577  35.281  11.413  1.00  0.00     0.165 C 
BRANCH  50  51
ATOM     51  O   UNL     1      21.783  36.333  10.896  1.00  0.00    -0.388 OA
ATOM     52  H   UNL     1      20.844  36.254  11.197  1.00  0.00     0.211 HD
ENDBRANCH  50  51
BRANCH  50  53
ATOM     53  C   UNL     1      21.880  34.618  12.531  1.00  0.00     0.154 C 
BRANCH  53  54
ATOM     54  N   UNL     1      22.919  33.947  13.339  1.00  0.00    -0.319 N 
ATOM     55  C   UNL     1      23.326  34.463  14.595  1.00  0.00     0.407 C 
ATOM     56  H   UNL     1      23.350  33.082  12.967  1.00  0.00     0.167 HD
ATOM     57  O   UNL     1      22.768  35.520  15.031  1.00  0.00    -0.225 OA
BRANCH  55  58
ATOM     58  O   UNL     1      24.310  33.828  15.334  1.00  0.00    -0.443 OA
BRANCH  58  59
ATOM     59  C   UNL     1      25.281  33.072  14.644  1.00  0.00     0.294 C 
BRANCH  59  60
ATOM     60  C   UNL     1      26.494  33.842  14.302  1.00  0.00     0.120 A 
ATOM     61  C   UNL     1      27.636  33.894  15.075  1.00  0.00     0.138 A 
ATOM     62  N   UNL     1      26.741  34.627  13.248  1.00  0.00    -0.132 NA
ATOM     63  N   UNL     1      28.534  34.695  14.489  1.00  0.00    -0.249 N 
ATOM     64  N   UNL     1      27.970  35.138  13.365  1.00  0.00    -0.067 NA
BRANCH  63  65
ATOM     65  C   UNL     1      29.851  34.989  15.034  1.00  0.00     0.112 C 
ATOM     66  C   UNL     1      30.833  34.146  14.294  1.00  0.00     0.046 C 
ATOM     67  C   UNL     1      29.802  34.789  16.514  1.00  0.00     0.046 C 
ATOM     68  C   UNL     1      31.872  33.492  15.147  1.00  0.00     0.058 C 
ATOM     69  C   UNL     1      31.005  34.129  17.113  1.00  0.00     0.058 C 
ATOM     70  N   UNL     1      32.196  34.271  16.301  1.00  0.00    -0.300 NA
ATOM     71  C   UNL     1      31.275  32.225  15.754  1.00  0.00     0.021 C 
ATOM     72  C   UNL     1      30.776  32.632  17.120  1.00  0.00     0.021 C 
ATOM     73  C   UNL     1      32.532  35.648  16.034  1.00  0.00     0.105 C 
ENDBRANCH  63  65
ENDBRANCH  59  60
ENDBRANCH  58  59
ENDBRANCH  55  58
ENDBRANCH  53  54
ENDBRANCH  50  53
ENDBRANCH  47  50
ENDBRANCH   5  47
BRANCH   4  74
ATOM     74  N   UNL     1      26.248  37.533  12.390  1.00  0.00    -0.348 N 
ATOM     75  C   UNL     1      25.805  38.386  13.457  1.00  0.00     0.217 C 
ATOM     76  H   UNL     1      26.972  36.824  12.646  1.00  0.00     0.163 HD
ATOM     77  C   UNL     1      26.424  38.227  14.815  1.00  0.00     0.114 C 
ATOM     78  O   UNL     1      24.930  39.242  13.279  1.00  0.00    -0.275 OA
ENDBRANCH   4  74
TORSDOF 30
BEGIN_RES LYS A 131
REMARK  4 active torsions:
REMARK  status: ('A' for Active; 'I' for Inactive)
REMARK    1  A    between atoms: CA   and  CB  
REMARK    2  A    between atoms: CB   and  CG  
REMARK    3  A    between atoms: CG   and  CD  
REMARK    4  A    between atoms: CD   and  CE  
ROOT
ATOM      1  CA  LYS A 131      29.867  25.555  16.977  1.00 20.52     0.186 C 
ENDROOT
BRANCH   1   2
ATOM      2  CB  LYS A 131      28.345  25.722  17.026  1.00 20.94     0.034 C 
BRANCH   2   3
ATOM      3  CG  LYS A 131      27.599  24.474  16.579  1.00 22.96     0.005 C 
BRANCH   3   4
ATOM      4  CD  LYS A 131      27.115  23.656  17.744  1.00 24.33     0.041 C 
BRANCH   4   5
ATOM      5  CE  LYS A 131      25.723  24.126  18.153  1.00 26.91     0.338 C 
ATOM      6  NZ  LYS A 131      24.880  24.357  16.956  1.00 27.40     0.618 N 
ENDBRANCH   4   5
ENDBRANCH   3   4
ENDBRANCH   2   3
ENDBRANCH   1   2
END_RES LYS A 131
BEGIN_RES LYS A 135
REMARK  4 active torsions:
REMARK  status: ('A' for Active; 'I' for Inactive)
REMARK    5  A    between atoms: CA   and  CB  
REMARK    6  A    between atoms: CB   and  CG  
REMARK    7  A    between atoms: CG   and  CD  
REMARK    8  A    between atoms: CD   and  CE  
ROOT
ATOM      7  CA  LYS A 135      33.193  34.663   9.290  1.00 25.02     0.186 C 
ENDROOT
BRANCH   7   8
ATOM      8  CB  LYS A 135      32.060  35.360  10.034  1.00 26.63     0.034 C 
BRANCH   8   9
ATOM      9  CG  LYS A 135      32.503  36.044  11.302  1.00 29.45     0.005 C 
BRANCH   9  10
ATOM     10  CD  LYS A 135      31.917  37.445  11.389  1.00 32.00     0.041 C 
BRANCH  10  11
ATOM     11  CE  LYS A 135      30.460  37.388  11.804  1.00 34.25     0.338 C 
ATOM     12  NZ  LYS A 135      30.265  37.976  13.158  1.00 35.99     0.618 N 
ENDBRANCH  10  11
ENDBRANCH   9  10
ENDBRANCH   8   9
ENDBRANCH   7   8
END_RES LYS A 135
