REMARK VINA RESULT:    -3.847      3.864      8.079
REMARK INTER + INTRA:         -21.540
REMARK INTER:                 -11.866
REMARK INTRA:                  -9.673
REMARK UNBOUND:               -12.070
REMARK SMILES CC(=O)N[C@@H]1[C@@H](O)C[C@](OC[C@H]2O[C@@H](O[C@H]3[C@H](O)[C@@H](O)[C@H](OCCN=[N+]=[N-])O[C@@H]3CO)[C@H](O)[C@@H](O)[C@H]2O)(C(=O)O)O[C@H]1C(O)[C@H](O)CNC(=O)OCc1cn(-c2ccccc2I)nn1
REMARK SMILES IDX 9 1 8 2 6 3 5 4 42 5 41 6 10 7 11 8 12 9 14 10 13 11 32 12
REMARK SMILES IDX 34 13 36 14 15 15 16 16 29 17 28 18 21 19 17 20 19 21 30 22
REMARK SMILES IDX 31 23 22 25 23 26 24 27 25 28 26 29 27 30 18 31 20 33 33 35
REMARK SMILES IDX 35 37 37 39 38 41 39 42 40 43 7 45 43 47 44 48 45 50 46 51
REMARK SMILES IDX 47 53 48 54 49 55 50 57 51 58 52 59 53 60 54 61 64 62 55 63
REMARK SMILES IDX 63 64 56 65 57 66 61 67 58 68 60 69 62 70 59 71 4 72 2 73
REMARK SMILES IDX 1 75 3 76
REMARK H PARENT 31 24 18 32 20 34 33 36 35 38 37 40 40 44 7 46 44 49 46 52
REMARK H PARENT 48 56 4 74
REMARK Flexibility Score: inf
ROOT
ATOM      1  C   UNL     1      31.443  36.210  13.580  1.00  0.00     0.272 C 
ATOM      2  C   UNL     1      31.157  34.934  12.839  1.00  0.00     0.113 C 
ATOM      3  C   UNL     1      29.647  34.639  12.801  1.00  0.00     0.145 C 
ATOM      4  C   UNL     1      29.253  34.408  14.289  1.00  0.00     0.142 C 
ATOM      5  C   UNL     1      29.761  35.567  15.100  1.00  0.00     0.178 C 
ATOM      6  O   UNL     1      30.200  36.555  14.211  1.00  0.00    -0.332 OA
ENDROOT
BRANCH   1   7
ATOM      7  O   UNL     1      31.733  37.321  12.853  1.00  0.00    -0.338 OA
BRANCH   7   8
ATOM      8  C   UNL     1      31.121  37.793  11.808  1.00  0.00     0.199 C 
BRANCH   8   9
ATOM      9  C   UNL     1      30.717  39.211  11.716  1.00  0.00     0.179 C 
ATOM     10  C   UNL     1      29.270  39.539   9.979  1.00  0.00     0.282 C 
ATOM     11  O   UNL     1      30.523  39.748  10.488  1.00  0.00    -0.341 OA
ATOM     12  C   UNL     1      28.256  40.459  10.647  1.00  0.00     0.202 C 
ATOM     13  C   UNL     1      28.733  40.712  12.096  1.00  0.00     0.179 C 
ATOM     14  C   UNL     1      29.436  39.455  12.570  1.00  0.00     0.177 C 
BRANCH  10  15
ATOM     15  O   UNL     1      28.864  38.261   9.763  1.00  0.00    -0.341 OA
BRANCH  15  16
ATOM     16  C   UNL     1      27.723  38.107   9.010  1.00  0.00     0.184 C 
ATOM     17  C   UNL     1      26.744  37.077   9.506  1.00  0.00     0.178 C 
ATOM     18  O   UNL     1      25.947  36.623   8.458  1.00  0.00    -0.341 OA
ATOM     19  C   UNL     1      25.757  37.569   7.444  1.00  0.00     0.281 C 
ATOM     20  C   UNL     1      28.181  37.532   7.652  1.00  0.00     0.180 C 
ATOM     21  C   UNL     1      27.036  37.851   6.700  1.00  0.00     0.202 C 
BRANCH  17  22
ATOM     22  C   UNL     1      25.946  37.483  10.702  1.00  0.00     0.191 C 
BRANCH  22  23
ATOM     23  O   UNL     1      26.070  36.455  11.644  1.00  0.00    -0.394 OA
ATOM     24  H   UNL     1      25.165  36.066  11.789  1.00  0.00     0.210 HD
ENDBRANCH  22  23
ENDBRANCH  17  22
BRANCH  19  25
ATOM     25  O   UNL     1      25.101  38.682   7.872  1.00  0.00    -0.350 OA
BRANCH  25  26
ATOM     26  C   UNL     1      23.773  38.663   7.578  1.00  0.00     0.169 C 
BRANCH  26  27
ATOM     27  C   UNL     1      22.833  38.285   8.679  1.00  0.00     0.119 C 
BRANCH  27  28
ATOM     28  N   UNL     1      22.389  36.920   8.699  1.00  0.00    -0.092 NA
ATOM     29  N   UNL     1      22.881  36.188   9.577  1.00  0.00     0.001 N 
ATOM     30  N   UNL     1      23.288  35.281  10.304  1.00  0.00    -0.003 NA
ENDBRANCH  27  28
ENDBRANCH  26  27
ENDBRANCH  25  26
ENDBRANCH  19  25
BRANCH  20  31
ATOM     31  O   UNL     1      29.361  38.123   7.242  1.00  0.00    -0.387 OA
ATOM     32  H   UNL     1      30.082  37.753   7.817  1.00  0.00     0.211 HD
ENDBRANCH  20  31
BRANCH  21  33
ATOM     33  O   UNL     1      27.155  37.128   5.514  1.00  0.00    -0.385 OA
ATOM     34  H   UNL     1      26.628  36.270   5.620  1.00  0.00     0.211 HD
ENDBRANCH  21  33
ENDBRANCH  15  16
ENDBRANCH  10  15
BRANCH  12  35
ATOM     35  O   UNL     1      28.193  41.713  10.056  1.00  0.00    -0.385 OA
ATOM     36  H   UNL     1      28.107  42.372  10.794  1.00  0.00     0.211 HD
ENDBRANCH  12  35
BRANCH  13  37
ATOM     37  O   UNL     1      27.740  41.095  12.940  1.00  0.00    -0.387 OA
ATOM     38  H   UNL     1      26.875  41.365  12.503  1.00  0.00     0.211 HD
ENDBRANCH  13  37
BRANCH  14  39
ATOM     39  O   UNL     1      28.615  38.365  12.339  1.00  0.00    -0.387 OA
ATOM     40  H   UNL     1      29.073  37.726  11.708  1.00  0.00     0.211 HD
ENDBRANCH  14  39
ENDBRANCH   8   9
ENDBRANCH   7   8
ENDBRANCH   1   7
BRANCH   1  41
ATOM     41  C   UNL     1      32.430  35.964  14.647  1.00  0.00     0.364 C 
ATOM     42  O   UNL     1      32.830  36.815  15.460  1.00  0.00    -0.246 OA
BRANCH  41  43
ATOM     43  O   UNL     1      33.005  34.684  14.810  1.00  0.00    -0.477 OA
ATOM     44  H   UNL     1      34.023  34.577  14.694  1.00  0.00     0.296 HD
ENDBRANCH  41  43
ENDBRANCH   1  41
BRANCH   3  45
ATOM     45  O   UNL     1      28.922  35.677  12.260  1.00  0.00    -0.391 OA
ATOM     46  H   UNL     1      28.021  35.370  12.001  1.00  0.00     0.211 HD
ENDBRANCH   3  45
BRANCH   5  47
ATOM     47  C   UNL     1      28.565  36.257  15.809  1.00  0.00     0.176 C 
BRANCH  47  48
ATOM     48  O   UNL     1      28.409  35.542  17.059  1.00  0.00    -0.388 OA
ATOM     49  H   UNL     1      28.745  36.180  17.759  1.00  0.00     0.211 HD
ENDBRANCH  47  48
BRANCH  47  50
ATOM     50  C   UNL     1      27.265  35.969  15.121  1.00  0.00     0.165 C 
BRANCH  50  51
ATOM     51  O   UNL     1      27.014  36.988  14.164  1.00  0.00    -0.388 OA
ATOM     52  H   UNL     1      26.185  36.799  13.657  1.00  0.00     0.211 HD
ENDBRANCH  50  51
BRANCH  50  53
ATOM     53  C   UNL     1      26.055  35.790  15.935  1.00  0.00     0.154 C 
BRANCH  53  54
ATOM     54  N   UNL     1      25.854  34.461  16.481  1.00  0.00    -0.319 N 
ATOM     55  C   UNL     1      24.650  33.761  16.167  1.00  0.00     0.407 C 
ATOM     56  H   UNL     1      26.535  33.975  17.097  1.00  0.00     0.167 HD
ATOM     57  O   UNL     1      23.782  34.325  15.423  1.00  0.00    -0.225 OA
BRANCH  55  58
ATOM     58  O   UNL     1      24.335  32.493  16.609  1.00  0.00    -0.443 OA
BRANCH  58  59
ATOM     59  C   UNL     1      24.951  31.345  16.043  1.00  0.00     0.294 C 
BRANCH  59  60
ATOM     60  C   UNL     1      24.177  30.969  14.805  1.00  0.00     0.121 A 
ATOM     61  C   UNL     1      22.821  30.779  14.675  1.00  0.00     0.144 A 
ATOM     62  N   UNL     1      24.708  30.746  13.590  1.00  0.00    -0.131 NA
ATOM     63  N   UNL     1      22.619  30.452  13.384  1.00  0.00    -0.219 N 
ATOM     64  N   UNL     1      23.765  30.434  12.732  1.00  0.00    -0.062 NA
BRANCH  63  65
ATOM     65  C   UNL     1      21.370  30.152  12.771  1.00  0.00     0.080 A 
ATOM     66  C   UNL     1      21.002  28.837  12.512  1.00  0.00     0.029 A 
ATOM     67  C   UNL     1      20.498  31.153  12.412  1.00  0.00     0.039 A 
ATOM     68  C   UNL     1      19.767  28.590  11.901  1.00  0.00     0.002 A 
ATOM     69  C   UNL     1      19.265  30.887  11.801  1.00  0.00     0.017 A 
ATOM     70  I   UNL     1      21.030  33.164  12.791  1.00  0.00    -0.042 I 
ATOM     71  C   UNL     1      18.896  29.592  11.543  1.00  0.00     0.001 A 
ENDBRANCH  63  65
ENDBRANCH  59  60
ENDBRANCH  58  59
ENDBRANCH  55  58
ENDBRANCH  53  54
ENDBRANCH  50  53
ENDBRANCH  47  50
ENDBRANCH   5  47
BRANCH   4  72
ATOM     72  N   UNL     1      29.768  33.131  14.625  1.00  0.00    -0.348 N 
ATOM     73  C   UNL     1      29.179  32.294  15.639  1.00  0.00     0.217 C 
ATOM     74  H   UNL     1      30.597  32.716  14.164  1.00  0.00     0.163 HD
ATOM     75  C   UNL     1      29.707  30.964  15.997  1.00  0.00     0.114 C 
ATOM     76  O   UNL     1      28.167  32.762  16.225  1.00  0.00    -0.275 OA
ENDBRANCH   4  72
TORSDOF 30
BEGIN_RES LYS A 131
REMARK  4 active torsions:
REMARK  status: ('A' for Active; 'I' for Inactive)
REMARK    1  A    between atoms: CA   and  CB  
REMARK    2  A    between atoms: CB   and  CG  
REMARK    3  A    between atoms: CG   and  CD  
REMARK    4  A    between atoms: CD   and  CE  
ROOT
ATOM      1  CA  LYS A 131      29.867  25.555  16.977  1.00 20.52     0.186 C 
ENDROOT
BRANCH   1   2
ATOM      2  CB  LYS A 131      28.345  25.722  17.026  1.00 20.94     0.034 C 
BRANCH   2   3
ATOM      3  CG  LYS A 131      27.602  24.400  16.913  1.00 22.96     0.005 C 
BRANCH   3   4
ATOM      4  CD  LYS A 131      26.152  24.531  17.290  1.00 24.33     0.041 C 
BRANCH   4   5
ATOM      5  CE  LYS A 131      25.952  24.045  18.722  1.00 26.91     0.338 C 
ATOM      6  NZ  LYS A 131      25.558  25.170  19.602  1.00 27.40     0.618 N 
ENDBRANCH   4   5
ENDBRANCH   3   4
ENDBRANCH   2   3
ENDBRANCH   1   2
END_RES LYS A 131
BEGIN_RES LYS A 135
REMARK  4 active torsions:
REMARK  status: ('A' for Active; 'I' for Inactive)
REMARK    5  A    between atoms: CA   and  CB  
REMARK    6  A    between atoms: CB   and  CG  
REMARK    7  A    between atoms: CG   and  CD  
REMARK    8  A    between atoms: CD   and  CE  
ROOT
ATOM      7  CA  LYS A 135      33.193  34.663   9.290  1.00 25.02     0.186 C 
ENDROOT
BRANCH   7   8
ATOM      8  CB  LYS A 135      32.060  35.360  10.034  1.00 26.63     0.034 C 
BRANCH   8   9
ATOM      9  CG  LYS A 135      30.777  35.433   9.247  1.00 29.45     0.005 C 
BRANCH   9  10
ATOM     10  CD  LYS A 135      30.159  34.051   9.099  1.00 32.00     0.041 C 
BRANCH  10  11
ATOM     11  CE  LYS A 135      28.718  34.158   8.639  1.00 34.25     0.338 C 
ATOM     12  NZ  LYS A 135      27.784  33.642   9.678  1.00 35.99     0.618 N 
ENDBRANCH  10  11
ENDBRANCH   9  10
ENDBRANCH   8   9
ENDBRANCH   7   8
END_RES LYS A 135
