REMARK VINA RESULT:    -4.360      5.272      9.925
REMARK INTER + INTRA:         -21.677
REMARK INTER:                 -12.322
REMARK INTRA:                  -9.356
REMARK UNBOUND:               -10.944
REMARK SMILES CC(=O)N[C@@H]1[C@@H](O)C[C@](OC[C@H]2O[C@@H](O[C@H]3[C@H](O)[C@@H](O)[C@H](OCCN=[N+]=[N-])O[C@@H]3CO)[C@H](O)[C@@H](O)[C@H]2O)(C(=O)O)O[C@H]1C(O)[C@H](O)CNC(=O)OCc1cn(-c2cccnc2)nn1
REMARK SMILES IDX 9 1 8 2 6 3 5 4 42 5 41 6 10 7 11 8 12 9 14 10 13 11 32 12
REMARK SMILES IDX 34 13 36 14 15 15 16 16 29 17 28 18 21 19 17 20 19 21 30 22
REMARK SMILES IDX 31 23 22 25 23 26 24 27 25 28 26 29 27 30 18 31 20 33 33 35
REMARK SMILES IDX 35 37 37 39 38 41 39 42 40 43 7 45 43 47 44 48 45 50 46 51
REMARK SMILES IDX 47 53 48 54 49 55 50 57 51 58 52 59 53 60 54 61 63 62 55 63
REMARK SMILES IDX 62 64 56 65 57 66 61 67 58 68 60 69 59 70 4 71 2 72 1 74
REMARK SMILES IDX 3 75
REMARK H PARENT 31 24 18 32 20 34 33 36 35 38 37 40 40 44 7 46 44 49 46 52
REMARK H PARENT 48 56 4 73
REMARK Flexibility Score: inf
ROOT
ATOM      1  C   UNL     1      24.543  35.507  11.100  1.00  0.00     0.272 C 
ATOM      2  C   UNL     1      24.765  36.964  11.110  1.00  0.00     0.113 C 
ATOM      3  C   UNL     1      24.223  37.610  12.337  1.00  0.00     0.145 C 
ATOM      4  C   UNL     1      24.442  36.816  13.600  1.00  0.00     0.142 C 
ATOM      5  C   UNL     1      25.168  35.538  13.378  1.00  0.00     0.178 C 
ATOM      6  O   UNL     1      24.688  34.820  12.292  1.00  0.00    -0.332 OA
ENDROOT
BRANCH   1   7
ATOM      7  O   UNL     1      25.394  34.847  10.216  1.00  0.00    -0.338 OA
BRANCH   7   8
ATOM      8  C   UNL     1      26.470  35.540   9.762  1.00  0.00     0.199 C 
BRANCH   8   9
ATOM      9  C   UNL     1      27.197  34.631   8.752  1.00  0.00     0.179 C 
ATOM     10  C   UNL     1      28.537  36.311   7.820  1.00  0.00     0.282 C 
ATOM     11  O   UNL     1      27.574  35.336   7.675  1.00  0.00    -0.341 OA
ATOM     12  C   UNL     1      29.637  35.827   8.700  1.00  0.00     0.202 C 
ATOM     13  C   UNL     1      29.589  34.292   8.700  1.00  0.00     0.179 C 
ATOM     14  C   UNL     1      28.321  33.857   9.418  1.00  0.00     0.177 C 
BRANCH  10  15
ATOM     15  O   UNL     1      27.880  37.446   8.290  1.00  0.00    -0.341 OA
BRANCH  15  16
ATOM     16  C   UNL     1      27.775  38.453   7.388  1.00  0.00     0.184 C 
ATOM     17  C   UNL     1      26.411  38.681   6.813  1.00  0.00     0.178 C 
ATOM     18  O   UNL     1      26.351  40.013   6.401  1.00  0.00    -0.341 OA
ATOM     19  C   UNL     1      27.485  40.436   5.714  1.00  0.00     0.281 C 
ATOM     20  C   UNL     1      28.674  38.270   6.169  1.00  0.00     0.180 C 
ATOM     21  C   UNL     1      28.267  39.297   5.102  1.00  0.00     0.202 C 
BRANCH  17  22
ATOM     22  C   UNL     1      25.258  38.387   7.699  1.00  0.00     0.191 C 
BRANCH  22  23
ATOM     23  O   UNL     1      24.780  37.112   7.543  1.00  0.00    -0.394 OA
ATOM     24  H   UNL     1      25.362  36.650   6.887  1.00  0.00     0.210 HD
ENDBRANCH  22  23
ENDBRANCH  17  22
BRANCH  19  25
ATOM     25  O   UNL     1      28.327  41.202   6.467  1.00  0.00    -0.350 OA
BRANCH  25  26
ATOM     26  C   UNL     1      27.832  41.989   7.443  1.00  0.00     0.169 C 
BRANCH  26  27
ATOM     27  C   UNL     1      28.260  41.738   8.846  1.00  0.00     0.119 C 
BRANCH  27  28
ATOM     28  N   UNL     1      27.253  41.342   9.768  1.00  0.00    -0.092 NA
ATOM     29  N   UNL     1      27.451  40.489  10.659  1.00  0.00     0.001 N 
ATOM     30  N   UNL     1      27.558  39.332  11.100  1.00  0.00    -0.003 NA
ENDBRANCH  27  28
ENDBRANCH  26  27
ENDBRANCH  25  26
ENDBRANCH  19  25
BRANCH  20  31
ATOM     31  O   UNL     1      29.987  38.550   6.520  1.00  0.00    -0.387 OA
ATOM     32  H   UNL     1      30.489  39.009   5.798  1.00  0.00     0.211 HD
ENDBRANCH  20  31
BRANCH  21  33
ATOM     33  O   UNL     1      27.544  38.705   4.069  1.00  0.00    -0.385 OA
ATOM     34  H   UNL     1      27.384  37.759   4.307  1.00  0.00     0.211 HD
ENDBRANCH  21  33
ENDBRANCH  15  16
ENDBRANCH  10  15
BRANCH  12  35
ATOM     35  O   UNL     1      30.879  36.121   8.105  1.00  0.00    -0.385 OA
ATOM     36  H   UNL     1      31.172  37.027   8.429  1.00  0.00     0.211 HD
ENDBRANCH  12  35
BRANCH  13  37
ATOM     37  O   UNL     1      30.719  33.723   9.227  1.00  0.00    -0.387 OA
ATOM     38  H   UNL     1      31.407  34.418   9.379  1.00  0.00     0.211 HD
ENDBRANCH  13  37
BRANCH  14  39
ATOM     39  O   UNL     1      28.407  34.087  10.776  1.00  0.00    -0.387 OA
ATOM     40  H   UNL     1      29.341  34.362  10.975  1.00  0.00     0.211 HD
ENDBRANCH  14  39
ENDBRANCH   8   9
ENDBRANCH   7   8
ENDBRANCH   1   7
BRANCH   1  41
ATOM     41  C   UNL     1      23.133  35.282  10.591  1.00  0.00     0.364 C 
ATOM     42  O   UNL     1      22.222  35.123  11.421  1.00  0.00    -0.246 OA
BRANCH  41  43
ATOM     43  O   UNL     1      22.819  35.244   9.255  1.00  0.00    -0.477 OA
ATOM     44  H   UNL     1      22.464  36.024   8.716  1.00  0.00     0.296 HD
ENDBRANCH  41  43
ENDBRANCH   1  41
BRANCH   3  45
ATOM     45  O   UNL     1      24.860  38.869  12.438  1.00  0.00    -0.391 OA
ATOM     46  H   UNL     1      24.982  39.148  13.364  1.00  0.00     0.211 HD
ENDBRANCH   3  45
BRANCH   5  47
ATOM     47  C   UNL     1      26.657  35.628  13.380  1.00  0.00     0.176 C 
BRANCH  47  48
ATOM     48  O   UNL     1      27.166  34.313  13.532  1.00  0.00    -0.388 OA
ATOM     49  H   UNL     1      27.651  34.064  12.697  1.00  0.00     0.211 HD
ENDBRANCH  47  48
BRANCH  47  50
ATOM     50  C   UNL     1      27.284  36.438  14.470  1.00  0.00     0.165 C 
BRANCH  50  51
ATOM     51  O   UNL     1      27.508  37.716  13.800  1.00  0.00    -0.388 OA
ATOM     52  H   UNL     1      28.428  37.971  14.057  1.00  0.00     0.211 HD
ENDBRANCH  50  51
BRANCH  50  53
ATOM     53  C   UNL     1      28.671  36.040  14.860  1.00  0.00     0.154 C 
BRANCH  53  54
ATOM     54  N   UNL     1      28.801  35.072  15.901  1.00  0.00    -0.319 N 
ATOM     55  C   UNL     1      29.406  33.803  15.568  1.00  0.00     0.407 C 
ATOM     56  H   UNL     1      28.526  35.182  16.872  1.00  0.00     0.167 HD
ATOM     57  O   UNL     1      29.785  33.625  14.392  1.00  0.00    -0.225 OA
BRANCH  55  58
ATOM     58  O   UNL     1      29.566  32.814  16.505  1.00  0.00    -0.443 OA
BRANCH  58  59
ATOM     59  C   UNL     1      28.516  32.504  17.388  1.00  0.00     0.294 C 
BRANCH  59  60
ATOM     60  C   UNL     1      27.281  32.289  16.604  1.00  0.00     0.121 A 
ATOM     61  C   UNL     1      26.790  31.129  16.051  1.00  0.00     0.144 A 
ATOM     62  N   UNL     1      26.366  33.251  16.277  1.00  0.00    -0.131 NA
ATOM     63  N   UNL     1      25.632  31.393  15.424  1.00  0.00    -0.219 N 
ATOM     64  N   UNL     1      25.404  32.685  15.579  1.00  0.00    -0.062 NA
BRANCH  63  65
ATOM     65  C   UNL     1      24.743  30.541  14.709  1.00  0.00     0.085 A 
ATOM     66  C   UNL     1      24.489  30.694  13.362  1.00  0.00     0.031 A 
ATOM     67  C   UNL     1      24.081  29.510  15.346  1.00  0.00     0.139 A 
ATOM     68  C   UNL     1      23.619  29.862  12.693  1.00  0.00     0.022 A 
ATOM     69  N   UNL     1      23.226  28.697  14.676  1.00  0.00    -0.262 NA
ATOM     70  C   UNL     1      22.977  28.846  13.363  1.00  0.00     0.111 A 
ENDBRANCH  63  65
ENDBRANCH  59  60
ENDBRANCH  58  59
ENDBRANCH  55  58
ENDBRANCH  53  54
ENDBRANCH  50  53
ENDBRANCH  47  50
ENDBRANCH   5  47
BRANCH   4  71
ATOM     71  N   UNL     1      23.171  36.553  14.270  1.00  0.00    -0.348 N 
ATOM     72  C   UNL     1      22.852  37.014  15.570  1.00  0.00     0.217 C 
ATOM     73  H   UNL     1      22.421  35.989  13.785  1.00  0.00     0.163 HD
ATOM     74  C   UNL     1      21.536  36.714  16.218  1.00  0.00     0.114 C 
ATOM     75  O   UNL     1      23.685  37.700  16.222  1.00  0.00    -0.275 OA
ENDBRANCH   4  71
TORSDOF 30
BEGIN_RES LYS A 131
REMARK  4 active torsions:
REMARK  status: ('A' for Active; 'I' for Inactive)
REMARK    1  A    between atoms: CA   and  CB  
REMARK    2  A    between atoms: CB   and  CG  
REMARK    3  A    between atoms: CG   and  CD  
REMARK    4  A    between atoms: CD   and  CE  
ROOT
ATOM      1  CA  LYS A 131      29.867  25.555  16.977  1.00 20.52     0.186 C 
ENDROOT
BRANCH   1   2
ATOM      2  CB  LYS A 131      28.345  25.722  17.026  1.00 20.94     0.034 C 
BRANCH   2   3
ATOM      3  CG  LYS A 131      27.599  24.435  16.708  1.00 22.96     0.005 C 
BRANCH   3   4
ATOM      4  CD  LYS A 131      27.003  23.808  17.938  1.00 24.33     0.041 C 
BRANCH   4   5
ATOM      5  CE  LYS A 131      25.614  23.269  17.612  1.00 26.91     0.338 C 
ATOM      6  NZ  LYS A 131      24.799  24.308  16.939  1.00 27.40     0.618 N 
ENDBRANCH   4   5
ENDBRANCH   3   4
ENDBRANCH   2   3
ENDBRANCH   1   2
END_RES LYS A 131
BEGIN_RES LYS A 135
REMARK  4 active torsions:
REMARK  status: ('A' for Active; 'I' for Inactive)
REMARK    5  A    between atoms: CA   and  CB  
REMARK    6  A    between atoms: CB   and  CG  
REMARK    7  A    between atoms: CG   and  CD  
REMARK    8  A    between atoms: CD   and  CE  
ROOT
ATOM      7  CA  LYS A 135      33.193  34.663   9.290  1.00 25.02     0.186 C 
ENDROOT
BRANCH   7   8
ATOM      8  CB  LYS A 135      32.060  35.360  10.034  1.00 26.63     0.034 C 
BRANCH   8   9
ATOM      9  CG  LYS A 135      32.512  36.091  11.272  1.00 29.45     0.005 C 
BRANCH   9  10
ATOM     10  CD  LYS A 135      31.562  37.233  11.598  1.00 32.00     0.041 C 
BRANCH  10  11
ATOM     11  CE  LYS A 135      31.569  37.523  13.087  1.00 34.25     0.338 C 
ATOM     12  NZ  LYS A 135      32.169  36.394  13.851  1.00 35.99     0.618 N 
ENDBRANCH  10  11
ENDBRANCH   9  10
ENDBRANCH   8   9
ENDBRANCH   7   8
END_RES LYS A 135
