REMARK VINA RESULT:    -4.623      3.690      7.589
REMARK INTER + INTRA:         -22.541
REMARK INTER:                 -11.878
REMARK INTRA:                 -10.664
REMARK UNBOUND:               -10.485
REMARK SMILES CC(=O)N[C@@H]1[C@@H](O)C[C@](OC[C@H]2O[C@@H](O[C@H]3[C@H](O)[C@@H](O)[C@H](OCCN=[N+]=[N-])O[C@@H]3CO)[C@H](O)[C@@H](O)[C@H]2O)(C(=O)O)O[C@H]1C(O)[C@H](O)CNC(=O)OCc1cn(CC(O)c2ccccc2)nn1
REMARK SMILES IDX 9 1 8 2 6 3 5 4 42 5 41 6 10 7 11 8 12 9 14 10 13 11 32 12
REMARK SMILES IDX 34 13 36 14 15 15 16 16 29 17 28 18 21 19 17 20 19 21 30 22
REMARK SMILES IDX 31 23 22 25 23 26 24 27 25 28 26 29 27 30 18 31 20 33 33 35
REMARK SMILES IDX 35 37 37 39 38 41 39 42 40 43 7 45 43 47 44 48 45 50 46 51
REMARK SMILES IDX 47 53 48 54 49 55 50 57 51 58 52 59 53 60 54 61 66 62 55 63
REMARK SMILES IDX 65 64 56 65 57 66 58 67 59 69 60 70 64 71 61 72 63 73 62 74
REMARK SMILES IDX 4 75 2 76 1 78 3 79
REMARK H PARENT 31 24 18 32 20 34 33 36 35 38 37 40 40 44 7 46 44 49 46 52
REMARK H PARENT 48 56 58 68 4 77
REMARK Flexibility Score: inf
ROOT
ATOM      1  C   UNL     1      22.590  35.604  11.340  1.00  0.00     0.272 C 
ATOM      2  C   UNL     1      22.126  36.415  12.491  1.00  0.00     0.113 C 
ATOM      3  C   UNL     1      20.765  36.121  13.016  1.00  0.00     0.145 C 
ATOM      4  C   UNL     1      20.023  35.288  12.019  1.00  0.00     0.142 C 
ATOM      5  C   UNL     1      20.373  35.810  10.637  1.00  0.00     0.178 C 
ATOM      6  O   UNL     1      21.679  35.672  10.281  1.00  0.00    -0.332 OA
ENDROOT
BRANCH   1   7
ATOM      7  O   UNL     1      22.845  34.283  11.558  1.00  0.00    -0.338 OA
BRANCH   7   8
ATOM      8  C   UNL     1      23.528  33.936  12.682  1.00  0.00     0.199 C 
BRANCH   8   9
ATOM      9  C   UNL     1      23.744  32.441  12.755  1.00  0.00     0.179 C 
ATOM     10  C   UNL     1      24.687  30.920  14.200  1.00  0.00     0.282 C 
ATOM     11  O   UNL     1      24.800  32.141  13.593  1.00  0.00    -0.341 OA
ATOM     12  C   UNL     1      23.514  30.783  15.144  1.00  0.00     0.202 C 
ATOM     13  C   UNL     1      22.374  31.612  14.594  1.00  0.00     0.179 C 
ATOM     14  C   UNL     1      22.531  31.639  13.087  1.00  0.00     0.177 C 
BRANCH  10  15
ATOM     15  O   UNL     1      25.810  30.610  14.961  1.00  0.00    -0.341 OA
BRANCH  15  16
ATOM     16  C   UNL     1      25.924  31.284  16.146  1.00  0.00     0.184 C 
ATOM     17  C   UNL     1      26.531  32.643  15.818  1.00  0.00     0.178 C 
ATOM     18  O   UNL     1      27.885  32.663  16.084  1.00  0.00    -0.341 OA
ATOM     19  C   UNL     1      28.460  31.537  15.468  1.00  0.00     0.281 C 
ATOM     20  C   UNL     1      26.850  30.461  17.033  1.00  0.00     0.180 C 
ATOM     21  C   UNL     1      28.233  30.361  16.412  1.00  0.00     0.202 C 
BRANCH  17  22
ATOM     22  C   UNL     1      25.796  33.753  16.549  1.00  0.00     0.191 C 
BRANCH  22  23
ATOM     23  O   UNL     1      24.892  34.400  15.711  1.00  0.00    -0.394 OA
ATOM     24  H   UNL     1      24.995  34.119  14.764  1.00  0.00     0.210 HD
ENDBRANCH  22  23
ENDBRANCH  17  22
BRANCH  19  25
ATOM     25  O   UNL     1      29.790  31.823  15.279  1.00  0.00    -0.350 OA
BRANCH  25  26
ATOM     26  C   UNL     1      30.577  31.746  16.403  1.00  0.00     0.169 C 
BRANCH  26  27
ATOM     27  C   UNL     1      31.227  33.044  16.795  1.00  0.00     0.119 C 
BRANCH  27  28
ATOM     28  N   UNL     1      31.101  33.247  18.242  1.00  0.00    -0.092 NA
ATOM     29  N   UNL     1      29.938  33.184  18.673  1.00  0.00     0.001 N 
ATOM     30  N   UNL     1      28.920  33.007  19.341  1.00  0.00    -0.003 NA
ENDBRANCH  27  28
ENDBRANCH  26  27
ENDBRANCH  25  26
ENDBRANCH  19  25
BRANCH  20  31
ATOM     31  O   UNL     1      26.927  31.024  18.299  1.00  0.00    -0.387 OA
ATOM     32  H   UNL     1      27.823  30.836  18.696  1.00  0.00     0.211 HD
ENDBRANCH  20  31
BRANCH  21  33
ATOM     33  O   UNL     1      28.412  29.139  15.791  1.00  0.00    -0.385 OA
ATOM     34  H   UNL     1      28.933  28.562  16.402  1.00  0.00     0.211 HD
ENDBRANCH  21  33
ENDBRANCH  15  16
ENDBRANCH  10  15
BRANCH  12  35
ATOM     35  O   UNL     1      23.128  29.439  15.183  1.00  0.00    -0.385 OA
ATOM     36  H   UNL     1      23.180  29.092  14.251  1.00  0.00     0.211 HD
ENDBRANCH  12  35
BRANCH  13  37
ATOM     37  O   UNL     1      22.523  32.886  15.136  1.00  0.00    -0.387 OA
ATOM     38  H   UNL     1      23.400  33.055  15.523  1.00  0.00     0.211 HD
ENDBRANCH  13  37
BRANCH  14  39
ATOM     39  O   UNL     1      21.398  32.026  12.412  1.00  0.00    -0.387 OA
ATOM     40  H   UNL     1      20.569  31.589  12.736  1.00  0.00     0.211 HD
ENDBRANCH  14  39
ENDBRANCH   8   9
ENDBRANCH   7   8
ENDBRANCH   1   7
BRANCH   1  41
ATOM     41  C   UNL     1      23.817  36.325  10.804  1.00  0.00     0.364 C 
ATOM     42  O   UNL     1      24.083  37.449  11.196  1.00  0.00    -0.246 OA
BRANCH  41  43
ATOM     43  O   UNL     1      24.572  35.630   9.876  1.00  0.00    -0.477 OA
ATOM     44  H   UNL     1      24.347  35.775   8.914  1.00  0.00     0.296 HD
ENDBRANCH  41  43
ENDBRANCH   1  41
BRANCH   3  45
ATOM     45  O   UNL     1      20.807  35.557  14.292  1.00  0.00    -0.391 OA
ATOM     46  H   UNL     1      21.505  36.066  14.792  1.00  0.00     0.211 HD
ENDBRANCH   3  45
BRANCH   5  47
ATOM     47  C   UNL     1      19.386  35.171   9.693  1.00  0.00     0.176 C 
BRANCH  47  48
ATOM     48  O   UNL     1      19.335  33.796   9.965  1.00  0.00    -0.388 OA
ATOM     49  H   UNL     1      18.516  33.647  10.514  1.00  0.00     0.211 HD
ENDBRANCH  47  48
BRANCH  47  50
ATOM     50  C   UNL     1      19.699  35.453   8.261  1.00  0.00     0.165 C 
BRANCH  50  51
ATOM     51  O   UNL     1      20.751  34.713   7.791  1.00  0.00    -0.388 OA
ATOM     52  H   UNL     1      21.185  34.146   8.447  1.00  0.00     0.211 HD
ENDBRANCH  50  51
BRANCH  50  53
ATOM     53  C   UNL     1      19.718  36.915   7.898  1.00  0.00     0.154 C 
BRANCH  53  54
ATOM     54  N   UNL     1      21.011  37.532   7.868  1.00  0.00    -0.319 N 
ATOM     55  C   UNL     1      21.395  38.649   8.665  1.00  0.00     0.407 C 
ATOM     56  H   UNL     1      21.761  37.139   7.213  1.00  0.00     0.167 HD
ATOM     57  O   UNL     1      20.597  39.161   9.469  1.00  0.00    -0.225 OA
BRANCH  55  58
ATOM     58  O   UNL     1      22.658  39.192   8.571  1.00  0.00    -0.443 OA
BRANCH  58  59
ATOM     59  C   UNL     1      23.488  39.051   7.418  1.00  0.00     0.294 C 
BRANCH  59  60
ATOM     60  C   UNL     1      24.806  38.467   7.822  1.00  0.00     0.120 A 
ATOM     61  C   UNL     1      25.834  39.027   8.535  1.00  0.00     0.138 A 
ATOM     62  N   UNL     1      25.186  37.205   7.528  1.00  0.00    -0.132 NA
ATOM     63  N   UNL     1      26.828  38.099   8.669  1.00  0.00    -0.249 N 
ATOM     64  N   UNL     1      26.377  37.035   8.046  1.00  0.00    -0.067 NA
BRANCH  63  65
ATOM     65  C   UNL     1      28.090  38.299   9.364  1.00  0.00     0.182 C 
BRANCH  65  66
ATOM     66  C   UNL     1      27.929  37.963  10.836  1.00  0.00     0.166 C 
BRANCH  66  67
ATOM     67  O   UNL     1      27.097  36.819  10.854  1.00  0.00    -0.386 OA
ATOM     68  H   UNL     1      27.606  36.040  11.211  1.00  0.00     0.211 HD
ENDBRANCH  66  67
BRANCH  66  69
ATOM     69  C   UNL     1      29.189  37.685  11.531  1.00  0.00    -0.018 A 
ATOM     70  C   UNL     1      30.294  38.471  11.413  1.00  0.00     0.006 A 
ATOM     71  C   UNL     1      29.197  36.530  12.327  1.00  0.00     0.006 A 
ATOM     72  C   UNL     1      31.440  38.107  12.101  1.00  0.00     0.000 A 
ATOM     73  C   UNL     1      30.342  36.191  12.996  1.00  0.00     0.000 A 
ATOM     74  C   UNL     1      31.471  36.978  12.886  1.00  0.00     0.000 A 
ENDBRANCH  66  69
ENDBRANCH  65  66
ENDBRANCH  63  65
ENDBRANCH  59  60
ENDBRANCH  58  59
ENDBRANCH  55  58
ENDBRANCH  53  54
ENDBRANCH  50  53
ENDBRANCH  47  50
ENDBRANCH   5  47
BRANCH   4  75
ATOM     75  N   UNL     1      18.575  35.512  12.150  1.00  0.00    -0.348 N 
ATOM     76  C   UNL     1      17.756  34.713  12.987  1.00  0.00     0.217 C 
ATOM     77  H   UNL     1      18.114  36.279  11.616  1.00  0.00     0.163 HD
ATOM     78  C   UNL     1      16.292  34.908  13.144  1.00  0.00     0.114 C 
ATOM     79  O   UNL     1      18.308  33.782  13.637  1.00  0.00    -0.275 OA
ENDBRANCH   4  75
TORSDOF 33
BEGIN_RES LYS A 131
REMARK  4 active torsions:
REMARK  status: ('A' for Active; 'I' for Inactive)
REMARK    1  A    between atoms: CA   and  CB  
REMARK    2  A    between atoms: CB   and  CG  
REMARK    3  A    between atoms: CG   and  CD  
REMARK    4  A    between atoms: CD   and  CE  
ROOT
ATOM      1  CA  LYS A 131      29.867  25.555  16.977  1.00 20.52     0.186 C 
ENDROOT
BRANCH   1   2
ATOM      2  CB  LYS A 131      28.345  25.722  17.026  1.00 20.94     0.034 C 
BRANCH   2   3
ATOM      3  CG  LYS A 131      27.602  24.400  16.917  1.00 22.96     0.005 C 
BRANCH   3   4
ATOM      4  CD  LYS A 131      26.158  24.527  17.316  1.00 24.33     0.041 C 
BRANCH   4   5
ATOM      5  CE  LYS A 131      25.917  23.756  18.610  1.00 26.91     0.338 C 
ATOM      6  NZ  LYS A 131      24.578  24.070  19.160  1.00 27.40     0.618 N 
ENDBRANCH   4   5
ENDBRANCH   3   4
ENDBRANCH   2   3
ENDBRANCH   1   2
END_RES LYS A 131
BEGIN_RES LYS A 135
REMARK  4 active torsions:
REMARK  status: ('A' for Active; 'I' for Inactive)
REMARK    5  A    between atoms: CA   and  CB  
REMARK    6  A    between atoms: CB   and  CG  
REMARK    7  A    between atoms: CG   and  CD  
REMARK    8  A    between atoms: CD   and  CE  
ROOT
ATOM      7  CA  LYS A 135      33.193  34.663   9.290  1.00 25.02     0.186 C 
ENDROOT
BRANCH   7   8
ATOM      8  CB  LYS A 135      32.060  35.360  10.034  1.00 26.63     0.034 C 
BRANCH   8   9
ATOM      9  CG  LYS A 135      30.793  35.480   9.227  1.00 29.45     0.005 C 
BRANCH   9  10
ATOM     10  CD  LYS A 135      30.055  34.151   9.187  1.00 32.00     0.041 C 
BRANCH  10  11
ATOM     11  CE  LYS A 135      28.618  34.353   8.743  1.00 34.25     0.338 C 
ATOM     12  NZ  LYS A 135      27.671  33.670   9.667  1.00 35.99     0.618 N 
ENDBRANCH  10  11
ENDBRANCH   9  10
ENDBRANCH   8   9
ENDBRANCH   7   8
END_RES LYS A 135
