REMARK VINA RESULT:    -5.022      2.460      4.584
REMARK INTER + INTRA:         -24.753
REMARK INTER:                 -14.246
REMARK INTRA:                 -10.507
REMARK UNBOUND:               -11.071
REMARK SMILES CC(=O)N[C@@H]1[C@@H](O)C[C@](OC[C@H]2O[C@@H](O[C@H]3[C@H](O)[C@@H](O)[C@H](OCCN=[N+]=[N-])O[C@@H]3CO)[C@H](O)[C@@H](O)[C@H]2O)(C(=O)O)O[C@H]1C(O)[C@H](O)CNC(=O)OCc1cn(CC(O)CCc2ccccc2)nn1
REMARK SMILES IDX 43 1 42 2 9 3 8 4 41 5 6 6 5 7 10 8 11 9 12 10 14 11 13 12
REMARK SMILES IDX 32 13 34 14 36 15 15 16 16 17 29 18 28 19 21 20 17 21 19 22
REMARK SMILES IDX 30 23 31 24 22 26 23 27 24 28 25 29 26 30 27 31 18 32 20 34
REMARK SMILES IDX 33 36 35 38 37 40 38 42 39 43 40 44 7 46 4 48 2 49 1 51 3 52
REMARK SMILES IDX 44 53 45 55 46 56 47 58 48 59 49 60 50 62 51 63 52 64 53 65
REMARK SMILES IDX 54 66 68 67 55 68 67 69 56 70 57 71 58 72 59 74 60 75 61 76
REMARK SMILES IDX 62 77 66 78 63 79 65 80 64 81
REMARK H PARENT 31 25 18 33 20 35 33 37 35 39 37 41 40 45 7 47 4 50 44 54
REMARK H PARENT 46 57 48 61 58 73
REMARK Flexibility Score: inf
ROOT
ATOM      1  C   UNL     1      28.286  37.762   5.269  1.00  0.00     0.176 C 
ENDROOT
BRANCH   1   2
ATOM      2  C   UNL     1      28.618  38.684   6.457  1.00  0.00     0.178 C 
ATOM      3  C   UNL     1      27.164  40.231   7.513  1.00  0.00     0.272 C 
ATOM      4  C   UNL     1      27.556  41.202   6.449  1.00  0.00     0.113 C 
ATOM      5  O   UNL     1      27.490  38.964   7.110  1.00  0.00    -0.332 OA
ATOM      6  C   UNL     1      29.017  41.146   6.179  1.00  0.00     0.145 C 
ATOM      7  C   UNL     1      29.529  39.750   5.980  1.00  0.00     0.142 C 
BRANCH   3   8
ATOM      8  O   UNL     1      25.792  40.348   7.812  1.00  0.00    -0.338 OA
BRANCH   8   9
ATOM      9  C   UNL     1      24.945  39.583   7.093  1.00  0.00     0.199 C 
BRANCH   9  10
ATOM     10  C   UNL     1      23.930  38.858   8.007  1.00  0.00     0.179 C 
ATOM     11  C   UNL     1      22.368  37.217   8.134  1.00  0.00     0.282 C 
ATOM     12  O   UNL     1      23.138  38.009   7.321  1.00  0.00    -0.341 OA
ATOM     13  C   UNL     1      23.390  36.375   8.948  1.00  0.00     0.202 C 
ATOM     14  C   UNL     1      23.883  37.387   9.987  1.00  0.00     0.179 C 
ATOM     15  C   UNL     1      24.690  38.372   9.186  1.00  0.00     0.177 C 
BRANCH  11  16
ATOM     16  O   UNL     1      21.614  36.355   7.419  1.00  0.00    -0.341 OA
BRANCH  16  17
ATOM     17  C   UNL     1      20.250  36.344   7.589  1.00  0.00     0.184 C 
ATOM     18  C   UNL     1      19.763  37.322   8.605  1.00  0.00     0.178 C 
ATOM     19  O   UNL     1      19.029  36.836   9.640  1.00  0.00    -0.341 OA
ATOM     20  C   UNL     1      18.252  35.738   9.424  1.00  0.00     0.281 C 
ATOM     21  C   UNL     1      19.843  34.912   7.793  1.00  0.00     0.180 C 
ATOM     22  C   UNL     1      19.169  34.590   9.077  1.00  0.00     0.202 C 
BRANCH  18  23
ATOM     23  C   UNL     1      18.934  38.384   7.917  1.00  0.00     0.191 C 
BRANCH  23  24
ATOM     24  O   UNL     1      18.338  37.893   6.756  1.00  0.00    -0.394 OA
ATOM     25  H   UNL     1      17.835  37.070   7.036  1.00  0.00     0.210 HD
ENDBRANCH  23  24
ENDBRANCH  18  23
BRANCH  20  26
ATOM     26  O   UNL     1      17.252  35.925   8.484  1.00  0.00    -0.350 OA
BRANCH  26  27
ATOM     27  C   UNL     1      16.134  35.165   8.834  1.00  0.00     0.169 C 
BRANCH  27  28
ATOM     28  C   UNL     1      14.990  35.626   7.932  1.00  0.00     0.119 C 
BRANCH  28  29
ATOM     29  N   UNL     1      15.357  36.795   7.179  1.00  0.00    -0.092 NA
ATOM     30  N   UNL     1      14.752  37.867   7.387  1.00  0.00     0.001 N 
ATOM     31  N   UNL     1      13.967  38.834   7.392  1.00  0.00    -0.003 NA
ENDBRANCH  28  29
ENDBRANCH  27  28
ENDBRANCH  26  27
ENDBRANCH  20  26
BRANCH  21  32
ATOM     32  O   UNL     1      18.954  34.483   6.771  1.00  0.00    -0.387 OA
ATOM     33  H   UNL     1      18.041  34.345   7.111  1.00  0.00     0.211 HD
ENDBRANCH  21  32
BRANCH  22  34
ATOM     34  O   UNL     1      20.098  34.462  10.114  1.00  0.00    -0.385 OA
ATOM     35  H   UNL     1      20.711  33.711   9.975  1.00  0.00     0.211 HD
ENDBRANCH  22  34
ENDBRANCH  16  17
ENDBRANCH  11  16
BRANCH  13  36
ATOM     36  O   UNL     1      22.862  35.249   9.488  1.00  0.00    -0.385 OA
ATOM     37  H   UNL     1      22.461  35.309  10.371  1.00  0.00     0.211 HD
ENDBRANCH  13  36
BRANCH  14  38
ATOM     38  O   UNL     1      24.638  36.762  10.975  1.00  0.00    -0.387 OA
ATOM     39  H   UNL     1      24.650  37.307  11.794  1.00  0.00     0.211 HD
ENDBRANCH  14  38
BRANCH  15  40
ATOM     40  O   UNL     1      25.838  37.691   8.769  1.00  0.00    -0.387 OA
ATOM     41  H   UNL     1      26.538  38.318   8.471  1.00  0.00     0.211 HD
ENDBRANCH  15  40
ENDBRANCH   9  10
ENDBRANCH   8   9
ENDBRANCH   3   8
BRANCH   3  42
ATOM     42  C   UNL     1      27.823  40.617   8.785  1.00  0.00     0.364 C 
ATOM     43  O   UNL     1      27.966  41.845   9.049  1.00  0.00    -0.246 OA
BRANCH  42  44
ATOM     44  O   UNL     1      28.290  39.713   9.698  1.00  0.00    -0.477 OA
ATOM     45  H   UNL     1      29.224  39.342   9.603  1.00  0.00     0.296 HD
ENDBRANCH  42  44
ENDBRANCH   3  42
BRANCH   6  46
ATOM     46  O   UNL     1      29.223  41.946   5.021  1.00  0.00    -0.391 OA
ATOM     47  H   UNL     1      29.223  42.901   5.232  1.00  0.00     0.211 HD
ENDBRANCH   6  46
BRANCH   7  48
ATOM     48  N   UNL     1      30.880  39.571   6.448  1.00  0.00    -0.348 N 
ATOM     49  C   UNL     1      32.029  40.005   5.732  1.00  0.00     0.217 C 
ATOM     50  H   UNL     1      31.068  39.086   7.376  1.00  0.00     0.163 HD
ATOM     51  C   UNL     1      33.363  39.767   6.322  1.00  0.00     0.114 C 
ATOM     52  O   UNL     1      31.917  40.571   4.639  1.00  0.00    -0.275 OA
ENDBRANCH   7  48
ENDBRANCH   1   2
BRANCH   1  53
ATOM     53  O   UNL     1      27.520  38.442   4.343  1.00  0.00    -0.388 OA
ATOM     54  H   UNL     1      27.683  39.417   4.347  1.00  0.00     0.211 HD
ENDBRANCH   1  53
BRANCH   1  55
ATOM     55  C   UNL     1      27.816  36.406   5.640  1.00  0.00     0.165 C 
BRANCH  55  56
ATOM     56  O   UNL     1      26.687  36.491   6.415  1.00  0.00    -0.388 OA
ATOM     57  H   UNL     1      25.868  36.638   5.901  1.00  0.00     0.211 HD
ENDBRANCH  55  56
BRANCH  55  58
ATOM     58  C   UNL     1      28.944  35.726   6.381  1.00  0.00     0.154 C 
BRANCH  58  59
ATOM     59  N   UNL     1      28.619  35.100   7.607  1.00  0.00    -0.319 N 
ATOM     60  C   UNL     1      29.497  34.430   8.500  1.00  0.00     0.407 C 
ATOM     61  H   UNL     1      27.597  35.106   7.953  1.00  0.00     0.167 HD
ATOM     62  O   UNL     1      30.706  34.357   8.252  1.00  0.00    -0.225 OA
BRANCH  60  63
ATOM     63  O   UNL     1      29.021  33.844   9.663  1.00  0.00    -0.443 OA
BRANCH  63  64
ATOM     64  C   UNL     1      27.897  34.186  10.386  1.00  0.00     0.294 C 
BRANCH  64  65
ATOM     65  C   UNL     1      27.908  35.486  11.075  1.00  0.00     0.120 A 
ATOM     66  C   UNL     1      28.114  35.717  12.429  1.00  0.00     0.138 A 
ATOM     67  N   UNL     1      27.682  36.690  10.510  1.00  0.00    -0.132 NA
ATOM     68  N   UNL     1      28.000  37.030  12.610  1.00  0.00    -0.250 N 
ATOM     69  N   UNL     1      27.745  37.600  11.459  1.00  0.00    -0.067 NA
BRANCH  68  70
ATOM     70  C   UNL     1      28.134  37.681  13.941  1.00  0.00     0.177 C 
BRANCH  70  71
ATOM     71  C   UNL     1      29.543  37.459  14.374  1.00  0.00     0.136 C 
BRANCH  71  72
ATOM     72  O   UNL     1      29.700  37.655  15.757  1.00  0.00    -0.391 OA
ATOM     73  H   UNL     1      29.082  38.332  16.107  1.00  0.00     0.211 HD
ENDBRANCH  71  72
BRANCH  71  74
ATOM     74  C   UNL     1      30.563  38.216  13.619  1.00  0.00     0.038 C 
BRANCH  74  75
ATOM     75  C   UNL     1      30.414  39.634  13.311  1.00  0.00     0.038 C 
BRANCH  75  76
ATOM     76  C   UNL     1      30.833  40.150  12.025  1.00  0.00    -0.048 A 
ATOM     77  C   UNL     1      31.450  39.324  11.090  1.00  0.00     0.004 A 
ATOM     78  C   UNL     1      30.708  41.502  11.705  1.00  0.00     0.004 A 
ATOM     79  C   UNL     1      31.910  39.830   9.910  1.00  0.00     0.000 A 
ATOM     80  C   UNL     1      31.183  41.980  10.507  1.00  0.00     0.000 A 
ATOM     81  C   UNL     1      31.799  41.157   9.574  1.00  0.00     0.000 A 
ENDBRANCH  75  76
ENDBRANCH  74  75
ENDBRANCH  71  74
ENDBRANCH  70  71
ENDBRANCH  68  70
ENDBRANCH  64  65
ENDBRANCH  63  64
ENDBRANCH  60  63
ENDBRANCH  58  59
ENDBRANCH  55  58
ENDBRANCH   1  55
TORSDOF 35
BEGIN_RES LYS A 131
REMARK  4 active torsions:
REMARK  status: ('A' for Active; 'I' for Inactive)
REMARK    1  A    between atoms: CA   and  CB  
REMARK    2  A    between atoms: CB   and  CG  
REMARK    3  A    between atoms: CG   and  CD  
REMARK    4  A    between atoms: CD   and  CE  
ROOT
ATOM      1  CA  LYS A 131      29.867  25.555  16.977  1.00 20.52     0.186 C 
ENDROOT
BRANCH   1   2
ATOM      2  CB  LYS A 131      28.345  25.722  17.026  1.00 20.94     0.034 C 
BRANCH   2   3
ATOM      3  CG  LYS A 131      27.600  24.407  16.852  1.00 22.96     0.005 C 
BRANCH   3   4
ATOM      4  CD  LYS A 131      26.616  24.163  17.962  1.00 24.33     0.041 C 
BRANCH   4   5
ATOM      5  CE  LYS A 131      25.678  23.026  17.570  1.00 26.91     0.338 C 
ATOM      6  NZ  LYS A 131      24.612  22.859  18.585  1.00 27.40     0.618 N 
ENDBRANCH   4   5
ENDBRANCH   3   4
ENDBRANCH   2   3
ENDBRANCH   1   2
END_RES LYS A 131
BEGIN_RES LYS A 135
REMARK  4 active torsions:
REMARK  status: ('A' for Active; 'I' for Inactive)
REMARK    5  A    between atoms: CA   and  CB  
REMARK    6  A    between atoms: CB   and  CG  
REMARK    7  A    between atoms: CG   and  CD  
REMARK    8  A    between atoms: CD   and  CE  
ROOT
ATOM      7  CA  LYS A 135      33.193  34.663   9.290  1.00 25.02     0.186 C 
ENDROOT
BRANCH   7   8
ATOM      8  CB  LYS A 135      32.060  35.360  10.034  1.00 26.63     0.034 C 
BRANCH   8   9
ATOM      9  CG  LYS A 135      32.491  35.993  11.332  1.00 29.45     0.005 C 
BRANCH   9  10
ATOM     10  CD  LYS A 135      31.893  35.250  12.516  1.00 32.00     0.041 C 
BRANCH  10  11
ATOM     11  CE  LYS A 135      32.864  35.235  13.681  1.00 34.25     0.338 C 
ATOM     12  NZ  LYS A 135      32.299  34.490  14.841  1.00 35.99     0.618 N 
ENDBRANCH  10  11
ENDBRANCH   9  10
ENDBRANCH   8   9
ENDBRANCH   7   8
END_RES LYS A 135
