REMARK VINA RESULT:    -4.399      2.352      7.119
REMARK INTER + INTRA:         -22.579
REMARK INTER:                 -11.090
REMARK INTRA:                 -11.489
REMARK UNBOUND:               -11.494
REMARK SMILES CC(=O)N[C@@H]1[C@@H](O)C[C@](OC[C@H]2O[C@@H](O[C@H]3[C@H](O)[C@@H](O)[C@H](OCCN=[N+]=[N-])O[C@@H]3CO)[C@H](O)[C@@H](O)[C@H]2O)(C(=O)O)O[C@H]1C(O)[C@H](O)CNC(=O)OCc1cn(-c2ccccc2C(C)=O)nn1
REMARK SMILES IDX 9 1 8 2 6 3 5 4 42 5 41 6 10 7 11 8 12 9 14 10 13 11 32 12
REMARK SMILES IDX 34 13 36 14 15 15 16 16 29 17 28 18 21 19 17 20 19 21 30 22
REMARK SMILES IDX 31 23 22 25 23 26 24 27 25 28 26 29 27 30 18 31 20 33 33 35
REMARK SMILES IDX 35 37 37 39 38 41 39 42 40 43 7 45 43 47 44 48 45 50 46 51
REMARK SMILES IDX 47 53 48 54 49 55 50 57 51 58 52 59 53 60 54 61 66 62 55 63
REMARK SMILES IDX 65 64 56 65 61 66 57 67 60 68 58 69 59 70 62 71 64 72 63 73
REMARK SMILES IDX 4 74 2 75 1 77 3 78
REMARK H PARENT 31 24 18 32 20 34 33 36 35 38 37 40 40 44 7 46 44 49 46 52
REMARK H PARENT 48 56 4 76
REMARK Flexibility Score: inf
ROOT
ATOM      1  C   UNL     1      21.590  35.804  13.751  1.00  0.00     0.272 C 
ATOM      2  C   UNL     1      22.383  36.781  14.570  1.00  0.00     0.113 C 
ATOM      3  C   UNL     1      23.238  35.999  15.532  1.00  0.00     0.145 C 
ATOM      4  C   UNL     1      24.240  35.273  14.649  1.00  0.00     0.142 C 
ATOM      5  C   UNL     1      23.424  34.293  13.850  1.00  0.00     0.178 C 
ATOM      6  O   UNL     1      22.094  34.485  13.803  1.00  0.00    -0.332 OA
ENDROOT
BRANCH   1   7
ATOM      7  O   UNL     1      21.392  36.078  12.486  1.00  0.00    -0.338 OA
BRANCH   7   8
ATOM      8  C   UNL     1      20.582  36.848  11.831  1.00  0.00     0.199 C 
BRANCH   8   9
ATOM      9  C   UNL     1      20.283  36.776  10.381  1.00  0.00     0.179 C 
ATOM     10  C   UNL     1      20.998  37.683   8.376  1.00  0.00     0.282 C 
ATOM     11  O   UNL     1      21.290  37.547   9.721  1.00  0.00    -0.341 OA
ATOM     12  C   UNL     1      19.959  36.778   7.833  1.00  0.00     0.202 C 
ATOM     13  C   UNL     1      19.898  35.405   8.428  1.00  0.00     0.179 C 
ATOM     14  C   UNL     1      20.530  35.364   9.797  1.00  0.00     0.177 C 
BRANCH  10  15
ATOM     15  O   UNL     1      22.172  37.544   7.636  1.00  0.00    -0.341 OA
BRANCH  15  16
ATOM     16  C   UNL     1      23.237  38.226   8.220  1.00  0.00     0.184 C 
ATOM     17  C   UNL     1      23.468  39.490   7.427  1.00  0.00     0.178 C 
ATOM     18  O   UNL     1      24.703  39.572   6.839  1.00  0.00    -0.341 OA
ATOM     19  C   UNL     1      25.782  39.378   7.665  1.00  0.00     0.281 C 
ATOM     20  C   UNL     1      24.467  37.333   8.002  1.00  0.00     0.180 C 
ATOM     21  C   UNL     1      25.661  38.098   8.477  1.00  0.00     0.202 C 
BRANCH  17  22
ATOM     22  C   UNL     1      23.172  40.673   8.331  1.00  0.00     0.191 C 
BRANCH  22  23
ATOM     23  O   UNL     1      22.818  40.178   9.584  1.00  0.00    -0.394 OA
ATOM     24  H   UNL     1      23.541  39.736  10.065  1.00  0.00     0.210 HD
ENDBRANCH  22  23
ENDBRANCH  17  22
BRANCH  19  25
ATOM     25  O   UNL     1      26.102  40.458   8.464  1.00  0.00    -0.350 OA
BRANCH  25  26
ATOM     26  C   UNL     1      26.989  41.280   7.785  1.00  0.00     0.169 C 
BRANCH  26  27
ATOM     27  C   UNL     1      28.179  40.455   7.319  1.00  0.00     0.119 C 
BRANCH  27  28
ATOM     28  N   UNL     1      29.056  40.153   8.457  1.00  0.00    -0.092 NA
ATOM     29  N   UNL     1      29.803  39.184   8.322  1.00  0.00     0.001 N 
ATOM     30  N   UNL     1      30.509  38.193   8.379  1.00  0.00    -0.003 NA
ENDBRANCH  27  28
ENDBRANCH  26  27
ENDBRANCH  25  26
ENDBRANCH  19  25
BRANCH  20  31
ATOM     31  O   UNL     1      24.283  36.135   8.653  1.00  0.00    -0.387 OA
ATOM     32  H   UNL     1      25.070  35.518   8.533  1.00  0.00     0.211 HD
ENDBRANCH  20  31
BRANCH  21  33
ATOM     33  O   UNL     1      26.830  37.335   8.433  1.00  0.00    -0.385 OA
ATOM     34  H   UNL     1      27.425  37.608   9.197  1.00  0.00     0.211 HD
ENDBRANCH  21  33
ENDBRANCH  15  16
ENDBRANCH  10  15
BRANCH  12  35
ATOM     35  O   UNL     1      18.698  37.392   7.792  1.00  0.00    -0.385 OA
ATOM     36  H   UNL     1      18.659  38.179   8.392  1.00  0.00     0.211 HD
ENDBRANCH  12  35
BRANCH  13  37
ATOM     37  O   UNL     1      20.570  34.460   7.635  1.00  0.00    -0.387 OA
ATOM     38  H   UNL     1      20.905  33.764   8.260  1.00  0.00     0.211 HD
ENDBRANCH  13  37
BRANCH  14  39
ATOM     39  O   UNL     1      21.908  35.133   9.718  1.00  0.00    -0.387 OA
ATOM     40  H   UNL     1      22.435  35.796  10.233  1.00  0.00     0.211 HD
ENDBRANCH  14  39
ENDBRANCH   8   9
ENDBRANCH   7   8
ENDBRANCH   1   7
BRANCH   1  41
ATOM     41  C   UNL     1      20.317  35.636  14.507  1.00  0.00     0.364 C 
ATOM     42  O   UNL     1      19.762  34.485  14.587  1.00  0.00    -0.246 OA
BRANCH  41  43
ATOM     43  O   UNL     1      19.630  36.629  15.158  1.00  0.00    -0.477 OA
ATOM     44  H   UNL     1      18.628  36.610  15.286  1.00  0.00     0.296 HD
ENDBRANCH  41  43
ENDBRANCH   1  41
BRANCH   3  45
ATOM     45  O   UNL     1      23.866  36.929  16.357  1.00  0.00    -0.391 OA
ATOM     46  H   UNL     1      24.376  37.597  15.827  1.00  0.00     0.211 HD
ENDBRANCH   3  45
BRANCH   5  47
ATOM     47  C   UNL     1      24.076  34.106  12.441  1.00  0.00     0.176 C 
BRANCH  47  48
ATOM     48  O   UNL     1      25.026  33.040  12.669  1.00  0.00    -0.388 OA
ATOM     49  H   UNL     1      24.922  32.492  11.830  1.00  0.00     0.211 HD
ENDBRANCH  47  48
BRANCH  47  50
ATOM     50  C   UNL     1      24.860  35.287  12.050  1.00  0.00     0.165 C 
BRANCH  50  51
ATOM     51  O   UNL     1      24.050  36.288  11.460  1.00  0.00    -0.388 OA
ATOM     52  H   UNL     1      23.284  36.510  12.034  1.00  0.00     0.211 HD
ENDBRANCH  50  51
BRANCH  50  53
ATOM     53  C   UNL     1      26.237  35.207  11.567  1.00  0.00     0.154 C 
BRANCH  53  54
ATOM     54  N   UNL     1      27.234  35.841  12.347  1.00  0.00    -0.319 N 
ATOM     55  C   UNL     1      28.214  36.770  11.934  1.00  0.00     0.407 C 
ATOM     56  H   UNL     1      27.280  35.613  13.395  1.00  0.00     0.167 HD
ATOM     57  O   UNL     1      28.259  37.092  10.724  1.00  0.00    -0.225 OA
BRANCH  55  58
ATOM     58  O   UNL     1      29.140  37.356  12.786  1.00  0.00    -0.443 OA
BRANCH  58  59
ATOM     59  C   UNL     1      30.511  37.327  12.485  1.00  0.00     0.294 C 
BRANCH  59  60
ATOM     60  C   UNL     1      31.129  36.245  13.325  1.00  0.00     0.121 A 
ATOM     61  C   UNL     1      30.495  35.441  14.244  1.00  0.00     0.144 A 
ATOM     62  N   UNL     1      32.410  35.850  13.353  1.00  0.00    -0.131 NA
ATOM     63  N   UNL     1      31.426  34.593  14.791  1.00  0.00    -0.220 N 
ATOM     64  N   UNL     1      32.576  34.877  14.219  1.00  0.00    -0.062 NA
BRANCH  63  65
ATOM     65  C   UNL     1      31.133  33.646  15.810  1.00  0.00     0.077 A 
ATOM     66  C   UNL     1      31.205  33.858  17.140  1.00  0.00     0.043 A 
ATOM     67  C   UNL     1      30.727  32.379  15.345  1.00  0.00     0.029 A 
ATOM     68  C   UNL     1      30.867  32.790  17.997  1.00  0.00     0.014 A 
ATOM     69  C   UNL     1      30.403  31.355  16.206  1.00  0.00     0.002 A 
ATOM     70  C   UNL     1      30.471  31.558  17.562  1.00  0.00     0.001 A 
BRANCH  66  71
ATOM     71  C   UNL     1      31.616  35.121  17.706  1.00  0.00     0.161 C 
ATOM     72  O   UNL     1      32.893  35.292  17.785  1.00  0.00    -0.294 OA
ATOM     73  C   UNL     1      30.788  36.225  18.196  1.00  0.00     0.093 C 
ENDBRANCH  66  71
ENDBRANCH  63  65
ENDBRANCH  59  60
ENDBRANCH  58  59
ENDBRANCH  55  58
ENDBRANCH  53  54
ENDBRANCH  50  53
ENDBRANCH  47  50
ENDBRANCH   5  47
BRANCH   4  74
ATOM     74  N   UNL     1      25.287  34.655  15.406  1.00  0.00    -0.348 N 
ATOM     75  C   UNL     1      26.538  35.269  15.662  1.00  0.00     0.217 C 
ATOM     76  H   UNL     1      25.093  33.691  15.783  1.00  0.00     0.163 HD
ATOM     77  C   UNL     1      27.567  34.528  16.471  1.00  0.00     0.114 C 
ATOM     78  O   UNL     1      26.732  36.412  15.200  1.00  0.00    -0.275 OA
ENDBRANCH   4  74
TORSDOF 31
BEGIN_RES LYS A 131
REMARK  4 active torsions:
REMARK  status: ('A' for Active; 'I' for Inactive)
REMARK    1  A    between atoms: CA   and  CB  
REMARK    2  A    between atoms: CB   and  CG  
REMARK    3  A    between atoms: CG   and  CD  
REMARK    4  A    between atoms: CD   and  CE  
ROOT
ATOM      1  CA  LYS A 131      29.867  25.555  16.977  1.00 20.52     0.186 C 
ENDROOT
BRANCH   1   2
ATOM      2  CB  LYS A 131      28.345  25.722  17.026  1.00 20.94     0.034 C 
BRANCH   2   3
ATOM      3  CG  LYS A 131      27.600  24.408  16.847  1.00 22.96     0.005 C 
BRANCH   3   4
ATOM      4  CD  LYS A 131      26.754  24.069  18.042  1.00 24.33     0.041 C 
BRANCH   4   5
ATOM      5  CE  LYS A 131      25.564  23.223  17.600  1.00 26.91     0.338 C 
ATOM      6  NZ  LYS A 131      24.567  24.060  16.893  1.00 27.40     0.618 N 
ENDBRANCH   4   5
ENDBRANCH   3   4
ENDBRANCH   2   3
ENDBRANCH   1   2
END_RES LYS A 131
BEGIN_RES LYS A 135
REMARK  4 active torsions:
REMARK  status: ('A' for Active; 'I' for Inactive)
REMARK    5  A    between atoms: CA   and  CB  
REMARK    6  A    between atoms: CB   and  CG  
REMARK    7  A    between atoms: CG   and  CD  
REMARK    8  A    between atoms: CD   and  CE  
ROOT
ATOM      7  CA  LYS A 135      33.193  34.663   9.290  1.00 25.02     0.186 C 
ENDROOT
BRANCH   7   8
ATOM      8  CB  LYS A 135      32.060  35.360  10.034  1.00 26.63     0.034 C 
BRANCH   8   9
ATOM      9  CG  LYS A 135      30.713  34.720   9.817  1.00 29.45     0.005 C 
BRANCH   9  10
ATOM     10  CD  LYS A 135      30.484  34.438   8.340  1.00 32.00     0.041 C 
BRANCH  10  11
ATOM     11  CE  LYS A 135      29.056  34.768   7.951  1.00 34.25     0.338 C 
ATOM     12  NZ  LYS A 135      29.005  35.458   6.632  1.00 35.99     0.618 N 
ENDBRANCH  10  11
ENDBRANCH   9  10
ENDBRANCH   8   9
ENDBRANCH   7   8
END_RES LYS A 135
