REMARK VINA RESULT:    -4.406      5.194     10.420
REMARK INTER + INTRA:         -22.549
REMARK INTER:                 -12.357
REMARK INTRA:                 -10.191
REMARK UNBOUND:               -11.447
REMARK SMILES CC(=O)N[C@@H]1[C@@H](O)C[C@](OC[C@H]2O[C@@H](O[C@H]3[C@H](O)[C@@H](O)[C@H](OCCN=[N+]=[N-])O[C@@H]3CO)[C@H](O)[C@@H](O)[C@H]2O)(C(=O)O)O[C@H]1C(O)[C@H](O)CNC(=O)OCc1cn(-c2ccccc2C(C)C)nn1
REMARK SMILES IDX 9 1 8 2 6 3 5 4 42 5 41 6 10 7 11 8 12 9 14 10 13 11 32 12
REMARK SMILES IDX 34 13 36 14 15 15 16 16 29 17 28 18 21 19 17 20 19 21 30 22
REMARK SMILES IDX 31 23 22 25 23 26 24 27 25 28 26 29 27 30 18 31 20 33 33 35
REMARK SMILES IDX 35 37 37 39 38 41 39 42 40 43 7 45 43 47 44 48 45 50 46 51
REMARK SMILES IDX 47 53 48 54 49 55 50 57 51 58 52 59 53 60 54 61 66 62 55 63
REMARK SMILES IDX 65 64 56 65 61 66 57 67 60 68 58 69 59 70 62 71 63 72 64 73
REMARK SMILES IDX 4 74 2 75 1 77 3 78
REMARK H PARENT 31 24 18 32 20 34 33 36 35 38 37 40 40 44 7 46 44 49 46 52
REMARK H PARENT 48 56 4 76
REMARK Flexibility Score: inf
ROOT
ATOM      1  C   UNL     1      29.894  34.545  15.153  1.00  0.00     0.272 C 
ATOM      2  C   UNL     1      31.237  34.384  15.827  1.00  0.00     0.113 C 
ATOM      3  C   UNL     1      31.522  32.893  15.927  1.00  0.00     0.145 C 
ATOM      4  C   UNL     1      30.520  32.318  16.943  1.00  0.00     0.142 C 
ATOM      5  C   UNL     1      29.170  32.782  16.545  1.00  0.00     0.178 C 
ATOM      6  O   UNL     1      29.212  33.296  15.258  1.00  0.00    -0.332 OA
ENDROOT
BRANCH   1   7
ATOM      7  O   UNL     1      30.004  34.731  13.824  1.00  0.00    -0.338 OA
BRANCH   7   8
ATOM      8  C   UNL     1      29.534  35.637  13.038  1.00  0.00     0.199 C 
BRANCH   8   9
ATOM      9  C   UNL     1      28.252  35.526  12.278  1.00  0.00     0.179 C 
ATOM     10  C   UNL     1      26.109  34.773  12.354  1.00  0.00     0.282 C 
ATOM     11  O   UNL     1      27.352  34.655  12.840  1.00  0.00    -0.341 OA
ATOM     12  C   UNL     1      25.961  35.527  11.040  1.00  0.00     0.202 C 
ATOM     13  C   UNL     1      26.592  36.892  11.107  1.00  0.00     0.179 C 
ATOM     14  C   UNL     1      27.573  36.915  12.243  1.00  0.00     0.177 C 
BRANCH  10  15
ATOM     15  O   UNL     1      25.128  35.207  13.193  1.00  0.00    -0.341 OA
BRANCH  15  16
ATOM     16  C   UNL     1      24.346  34.291  13.850  1.00  0.00     0.184 C 
ATOM     17  C   UNL     1      25.054  33.581  14.956  1.00  0.00     0.178 C 
ATOM     18  O   UNL     1      25.080  32.237  14.816  1.00  0.00    -0.341 OA
ATOM     19  C   UNL     1      23.923  31.544  14.643  1.00  0.00     0.281 C 
ATOM     20  C   UNL     1      23.604  33.354  12.988  1.00  0.00     0.180 C 
ATOM     21  C   UNL     1      22.879  32.364  13.884  1.00  0.00     0.202 C 
BRANCH  17  22
ATOM     22  C   UNL     1      24.488  33.903  16.348  1.00  0.00     0.191 C 
BRANCH  22  23
ATOM     23  O   UNL     1      25.592  34.083  17.213  1.00  0.00    -0.394 OA
ATOM     24  H   UNL     1      26.003  33.169  17.322  1.00  0.00     0.210 HD
ENDBRANCH  22  23
ENDBRANCH  17  22
BRANCH  19  25
ATOM     25  O   UNL     1      23.380  31.195  15.851  1.00  0.00    -0.350 OA
BRANCH  25  26
ATOM     26  C   UNL     1      22.501  30.159  15.889  1.00  0.00     0.169 C 
BRANCH  26  27
ATOM     27  C   UNL     1      23.042  28.780  15.956  1.00  0.00     0.119 C 
BRANCH  27  28
ATOM     28  N   UNL     1      22.747  28.029  14.783  1.00  0.00    -0.092 NA
ATOM     29  N   UNL     1      22.985  28.338  13.632  1.00  0.00     0.001 N 
ATOM     30  N   UNL     1      23.427  28.722  12.556  1.00  0.00    -0.003 NA
ENDBRANCH  27  28
ENDBRANCH  26  27
ENDBRANCH  25  26
ENDBRANCH  19  25
BRANCH  20  31
ATOM     31  O   UNL     1      22.622  33.948  12.197  1.00  0.00    -0.387 OA
ATOM     32  H   UNL     1      23.011  34.746  11.776  1.00  0.00     0.211 HD
ENDBRANCH  20  31
BRANCH  21  33
ATOM     33  O   UNL     1      22.111  31.480  13.123  1.00  0.00    -0.385 OA
ATOM     34  H   UNL     1      22.274  30.573  13.487  1.00  0.00     0.211 HD
ENDBRANCH  21  33
ENDBRANCH  15  16
ENDBRANCH  10  15
BRANCH  12  35
ATOM     35  O   UNL     1      26.539  34.760  10.043  1.00  0.00    -0.385 OA
ATOM     36  H   UNL     1      25.819  34.361   9.459  1.00  0.00     0.211 HD
ENDBRANCH  12  35
BRANCH  13  37
ATOM     37  O   UNL     1      25.587  37.854  11.279  1.00  0.00    -0.387 OA
ATOM     38  H   UNL     1      25.236  37.731  12.196  1.00  0.00     0.211 HD
ENDBRANCH  13  37
BRANCH  14  39
ATOM     39  O   UNL     1      26.902  37.070  13.438  1.00  0.00    -0.387 OA
ATOM     40  H   UNL     1      25.976  37.351  13.233  1.00  0.00     0.211 HD
ENDBRANCH  14  39
ENDBRANCH   8   9
ENDBRANCH   7   8
ENDBRANCH   1   7
BRANCH   1  41
ATOM     41  C   UNL     1      29.069  35.562  15.816  1.00  0.00     0.364 C 
ATOM     42  O   UNL     1      29.696  36.430  16.523  1.00  0.00    -0.246 OA
BRANCH  41  43
ATOM     43  O   UNL     1      27.708  35.716  15.789  1.00  0.00    -0.477 OA
ATOM     44  H   UNL     1      27.119  35.995  16.552  1.00  0.00     0.296 HD
ENDBRANCH  41  43
ENDBRANCH   1  41
BRANCH   3  45
ATOM     45  O   UNL     1      31.202  32.270  14.716  1.00  0.00    -0.391 OA
ATOM     46  H   UNL     1      31.173  32.977  14.024  1.00  0.00     0.211 HD
ENDBRANCH   3  45
BRANCH   5  47
ATOM     47  C   UNL     1      28.069  31.765  16.527  1.00  0.00     0.176 C 
BRANCH  47  48
ATOM     48  O   UNL     1      27.527  31.844  17.858  1.00  0.00    -0.388 OA
ATOM     49  H   UNL     1      28.219  31.332  18.384  1.00  0.00     0.211 HD
ENDBRANCH  47  48
BRANCH  47  50
ATOM     50  C   UNL     1      28.472  30.336  16.351  1.00  0.00     0.165 C 
BRANCH  50  51
ATOM     51  O   UNL     1      28.877  30.019  15.082  1.00  0.00    -0.388 OA
ATOM     52  H   UNL     1      29.550  29.296  15.170  1.00  0.00     0.211 HD
ENDBRANCH  50  51
BRANCH  50  53
ATOM     53  C   UNL     1      27.601  29.372  17.065  1.00  0.00     0.154 C 
BRANCH  53  54
ATOM     54  N   UNL     1      28.156  28.815  18.284  1.00  0.00    -0.319 N 
ATOM     55  C   UNL     1      27.392  28.722  19.472  1.00  0.00     0.407 C 
ATOM     56  H   UNL     1      29.134  28.460  18.339  1.00  0.00     0.167 HD
ATOM     57  O   UNL     1      26.205  29.108  19.568  1.00  0.00    -0.225 OA
BRANCH  55  58
ATOM     58  O   UNL     1      27.909  28.176  20.672  1.00  0.00    -0.443 OA
BRANCH  58  59
ATOM     59  C   UNL     1      29.114  27.474  20.655  1.00  0.00     0.294 C 
BRANCH  59  60
ATOM     60  C   UNL     1      30.123  28.246  21.434  1.00  0.00     0.121 A 
ATOM     61  C   UNL     1      31.484  28.365  21.265  1.00  0.00     0.144 A 
ATOM     62  N   UNL     1      29.858  29.028  22.528  1.00  0.00    -0.131 NA
ATOM     63  N   UNL     1      32.019  29.170  22.198  1.00  0.00    -0.220 N 
ATOM     64  N   UNL     1      30.984  29.558  22.957  1.00  0.00    -0.062 NA
BRANCH  63  65
ATOM     65  C   UNL     1      33.373  29.568  22.386  1.00  0.00     0.070 A 
ATOM     66  C   UNL     1      34.215  28.769  23.127  1.00  0.00    -0.020 A 
ATOM     67  C   UNL     1      33.898  30.732  21.870  1.00  0.00     0.029 A 
ATOM     68  C   UNL     1      35.531  29.127  23.343  1.00  0.00     0.006 A 
ATOM     69  C   UNL     1      35.214  31.105  22.076  1.00  0.00     0.002 A 
ATOM     70  C   UNL     1      36.043  30.292  22.823  1.00  0.00     0.000 A 
BRANCH  66  71
ATOM     71  C   UNL     1      33.695  27.506  23.689  1.00  0.00     0.015 C 
ATOM     72  C   UNL     1      33.459  27.714  25.177  1.00  0.00     0.012 C 
ATOM     73  C   UNL     1      34.756  26.405  23.534  1.00  0.00     0.012 C 
ENDBRANCH  66  71
ENDBRANCH  63  65
ENDBRANCH  59  60
ENDBRANCH  58  59
ENDBRANCH  55  58
ENDBRANCH  53  54
ENDBRANCH  50  53
ENDBRANCH  47  50
ENDBRANCH   5  47
BRANCH   4  74
ATOM     74  N   UNL     1      30.923  32.795  18.246  1.00  0.00    -0.348 N 
ATOM     75  C   UNL     1      30.642  32.155  19.464  1.00  0.00     0.217 C 
ATOM     76  H   UNL     1      31.470  33.706  18.289  1.00  0.00     0.163 HD
ATOM     77  C   UNL     1      31.128  32.784  20.738  1.00  0.00     0.114 C 
ATOM     78  O   UNL     1      30.006  31.093  19.493  1.00  0.00    -0.275 OA
ENDBRANCH   4  74
TORSDOF 31
BEGIN_RES LYS A 131
REMARK  4 active torsions:
REMARK  status: ('A' for Active; 'I' for Inactive)
REMARK    1  A    between atoms: CA   and  CB  
REMARK    2  A    between atoms: CB   and  CG  
REMARK    3  A    between atoms: CG   and  CD  
REMARK    4  A    between atoms: CD   and  CE  
ROOT
ATOM      1  CA  LYS A 131      29.867  25.555  16.977  1.00 20.52     0.186 C 
ENDROOT
BRANCH   1   2
ATOM      2  CB  LYS A 131      28.345  25.722  17.026  1.00 20.94     0.034 C 
BRANCH   2   3
ATOM      3  CG  LYS A 131      27.599  24.456  16.633  1.00 22.96     0.005 C 
BRANCH   3   4
ATOM      4  CD  LYS A 131      27.117  23.687  17.831  1.00 24.33     0.041 C 
BRANCH   4   5
ATOM      5  CE  LYS A 131      25.669  23.259  17.613  1.00 26.91     0.338 C 
ATOM      6  NZ  LYS A 131      24.900  24.344  16.960  1.00 27.40     0.618 N 
ENDBRANCH   4   5
ENDBRANCH   3   4
ENDBRANCH   2   3
ENDBRANCH   1   2
END_RES LYS A 131
BEGIN_RES LYS A 135
REMARK  4 active torsions:
REMARK  status: ('A' for Active; 'I' for Inactive)
REMARK    5  A    between atoms: CA   and  CB  
REMARK    6  A    between atoms: CB   and  CG  
REMARK    7  A    between atoms: CG   and  CD  
REMARK    8  A    between atoms: CD   and  CE  
ROOT
ATOM      7  CA  LYS A 135      33.193  34.663   9.290  1.00 25.02     0.186 C 
ENDROOT
BRANCH   7   8
ATOM      8  CB  LYS A 135      32.060  35.360  10.034  1.00 26.63     0.034 C 
BRANCH   8   9
ATOM      9  CG  LYS A 135      30.706  34.748   9.781  1.00 29.45     0.005 C 
BRANCH   9  10
ATOM     10  CD  LYS A 135      30.544  34.395   8.310  1.00 32.00     0.041 C 
BRANCH  10  11
ATOM     11  CE  LYS A 135      29.617  35.380   7.625  1.00 34.25     0.338 C 
ATOM     12  NZ  LYS A 135      29.063  36.361   8.599  1.00 35.99     0.618 N 
ENDBRANCH  10  11
ENDBRANCH   9  10
ENDBRANCH   8   9
ENDBRANCH   7   8
END_RES LYS A 135
