REMARK VINA RESULT:    -5.680      2.953      8.131
REMARK INTER + INTRA:         -23.607
REMARK INTER:                 -11.486
REMARK INTRA:                 -12.120
REMARK UNBOUND:                -8.960
REMARK SMILES CC(=O)N[C@@H]1[C@@H](O)C[C@](OC[C@H]2O[C@@H](O[C@H]3[C@H](O)[C@@H](O)[C@H](OCCN=[N+]=[N-])O[C@@H]3CO)[C@H](O)[C@@H](O)[C@H]2O)(C(=O)O)O[C@H]1C(O)[C@H](O)CNC(=O)OCc1cn(Cc2cccc(C#N)c2)nn1
REMARK SMILES IDX 9 1 8 2 6 3 5 4 42 5 41 6 10 7 11 8 12 9 14 10 13 11 32 12
REMARK SMILES IDX 34 13 36 14 15 15 16 16 29 17 28 18 21 19 17 20 19 21 30 22
REMARK SMILES IDX 31 23 22 25 23 26 24 27 25 28 26 29 27 30 18 31 20 33 33 35
REMARK SMILES IDX 35 37 37 39 38 41 39 42 40 43 7 45 43 47 44 48 45 50 46 51
REMARK SMILES IDX 47 53 48 54 49 55 50 57 51 58 52 59 53 60 54 61 66 62 55 63
REMARK SMILES IDX 65 64 56 65 57 66 58 67 64 68 59 69 61 70 60 71 62 72 63 73
REMARK SMILES IDX 4 74 2 75 1 77 3 78
REMARK H PARENT 31 24 18 32 20 34 33 36 35 38 37 40 40 44 7 46 44 49 46 52
REMARK H PARENT 48 56 4 76
REMARK Flexibility Score: inf
ROOT
ATOM      1  C   UNL     1      29.954  28.399  22.353  1.00  0.00     0.272 C 
ATOM      2  C   UNL     1      30.495  28.067  23.724  1.00  0.00     0.113 C 
ATOM      3  C   UNL     1      31.433  29.023  24.331  1.00  0.00     0.145 C 
ATOM      4  C   UNL     1      32.281  29.744  23.278  1.00  0.00     0.142 C 
ATOM      5  C   UNL     1      31.496  30.235  22.146  1.00  0.00     0.178 C 
ATOM      6  O   UNL     1      30.371  29.563  21.794  1.00  0.00    -0.332 OA
ENDROOT
BRANCH   1   7
ATOM      7  O   UNL     1      28.635  28.412  22.411  1.00  0.00    -0.338 OA
BRANCH   7   8
ATOM      8  C   UNL     1      27.557  28.988  22.174  1.00  0.00     0.199 C 
BRANCH   8   9
ATOM      9  C   UNL     1      26.636  28.790  21.003  1.00  0.00     0.179 C 
ATOM     10  C   UNL     1      26.588  28.880  18.752  1.00  0.00     0.282 C 
ATOM     11  O   UNL     1      27.458  28.638  19.823  1.00  0.00    -0.341 OA
ATOM     12  C   UNL     1      25.596  27.779  18.587  1.00  0.00     0.202 C 
ATOM     13  C   UNL     1      25.032  27.302  19.913  1.00  0.00     0.179 C 
ATOM     14  C   UNL     1      25.994  27.390  21.047  1.00  0.00     0.177 C 
BRANCH  10  15
ATOM     15  O   UNL     1      27.335  29.024  17.585  1.00  0.00    -0.341 OA
BRANCH  15  16
ATOM     16  C   UNL     1      27.581  30.335  17.270  1.00  0.00     0.184 C 
ATOM     17  C   UNL     1      27.322  30.646  15.842  1.00  0.00     0.178 C 
ATOM     18  O   UNL     1      27.643  31.936  15.486  1.00  0.00    -0.341 OA
ATOM     19  C   UNL     1      28.903  32.364  15.839  1.00  0.00     0.281 C 
ATOM     20  C   UNL     1      29.128  30.500  17.424  1.00  0.00     0.180 C 
ATOM     21  C   UNL     1      29.351  31.983  17.214  1.00  0.00     0.202 C 
BRANCH  17  22
ATOM     22  C   UNL     1      25.860  30.454  15.512  1.00  0.00     0.191 C 
BRANCH  22  23
ATOM     23  O   UNL     1      25.071  30.932  16.563  1.00  0.00    -0.394 OA
ATOM     24  H   UNL     1      24.888  30.261  17.242  1.00  0.00     0.210 HD
ENDBRANCH  22  23
ENDBRANCH  17  22
BRANCH  19  25
ATOM     25  O   UNL     1      28.865  33.774  15.817  1.00  0.00    -0.350 OA
BRANCH  25  26
ATOM     26  C   UNL     1      27.742  34.221  16.462  1.00  0.00     0.169 C 
BRANCH  26  27
ATOM     27  C   UNL     1      27.974  35.500  17.216  1.00  0.00     0.119 C 
BRANCH  27  28
ATOM     28  N   UNL     1      29.242  35.532  17.906  1.00  0.00    -0.092 NA
ATOM     29  N   UNL     1      29.553  36.557  18.529  1.00  0.00     0.001 N 
ATOM     30  N   UNL     1      30.022  37.559  19.115  1.00  0.00    -0.003 NA
ENDBRANCH  27  28
ENDBRANCH  26  27
ENDBRANCH  25  26
ENDBRANCH  19  25
BRANCH  20  31
ATOM     31  O   UNL     1      29.469  30.055  18.673  1.00  0.00    -0.387 OA
ATOM     32  H   UNL     1      28.674  29.734  19.188  1.00  0.00     0.211 HD
ENDBRANCH  20  31
BRANCH  21  33
ATOM     33  O   UNL     1      30.719  32.218  17.320  1.00  0.00    -0.385 OA
ATOM     34  H   UNL     1      30.954  32.108  18.287  1.00  0.00     0.211 HD
ENDBRANCH  21  33
ENDBRANCH  15  16
ENDBRANCH  10  15
BRANCH  12  35
ATOM     35  O   UNL     1      24.482  28.300  17.891  1.00  0.00    -0.385 OA
ATOM     36  H   UNL     1      24.056  27.527  17.446  1.00  0.00     0.211 HD
ENDBRANCH  12  35
BRANCH  13  37
ATOM     37  O   UNL     1      24.724  25.945  19.731  1.00  0.00    -0.387 OA
ATOM     38  H   UNL     1      23.801  25.792  19.452  1.00  0.00     0.211 HD
ENDBRANCH  13  37
BRANCH  14  39
ATOM     39  O   UNL     1      27.013  26.457  20.794  1.00  0.00    -0.387 OA
ATOM     40  H   UNL     1      27.888  26.881  20.700  1.00  0.00     0.211 HD
ENDBRANCH  14  39
ENDBRANCH   8   9
ENDBRANCH   7   8
ENDBRANCH   1   7
BRANCH   1  41
ATOM     41  C   UNL     1      30.472  27.320  21.438  1.00  0.00     0.364 C 
ATOM     42  O   UNL     1      31.561  26.707  21.704  1.00  0.00    -0.246 OA
BRANCH  41  43
ATOM     43  O   UNL     1      29.806  26.958  20.299  1.00  0.00    -0.477 OA
ATOM     44  H   UNL     1      28.791  27.150  20.268  1.00  0.00     0.296 HD
ENDBRANCH  41  43
ENDBRANCH   1  41
BRANCH   3  45
ATOM     45  O   UNL     1      30.741  29.969  25.073  1.00  0.00    -0.391 OA
ATOM     46  H   UNL     1      31.192  30.211  25.916  1.00  0.00     0.211 HD
ENDBRANCH   3  45
BRANCH   5  47
ATOM     47  C   UNL     1      31.011  31.665  22.269  1.00  0.00     0.176 C 
BRANCH  47  48
ATOM     48  O   UNL     1      32.207  32.411  22.536  1.00  0.00    -0.388 OA
ATOM     49  H   UNL     1      32.731  32.414  21.702  1.00  0.00     0.211 HD
ENDBRANCH  47  48
BRANCH  47  50
ATOM     50  C   UNL     1      30.409  32.316  21.094  1.00  0.00     0.165 C 
BRANCH  50  51
ATOM     51  O   UNL     1      31.157  31.713  19.992  1.00  0.00    -0.388 OA
ATOM     52  H   UNL     1      32.126  31.919  20.156  1.00  0.00     0.211 HD
ENDBRANCH  50  51
BRANCH  50  53
ATOM     53  C   UNL     1      30.630  33.770  20.894  1.00  0.00     0.154 C 
BRANCH  53  54
ATOM     54  N   UNL     1      31.521  34.155  19.848  1.00  0.00    -0.319 N 
ATOM     55  C   UNL     1      32.725  34.870  20.165  1.00  0.00     0.407 C 
ATOM     56  H   UNL     1      31.357  33.946  18.856  1.00  0.00     0.167 HD
ATOM     57  O   UNL     1      32.936  35.122  21.373  1.00  0.00    -0.225 OA
BRANCH  55  58
ATOM     58  O   UNL     1      33.628  35.272  19.224  1.00  0.00    -0.443 OA
BRANCH  58  59
ATOM     59  C   UNL     1      33.306  36.278  18.242  1.00  0.00     0.294 C 
BRANCH  59  60
ATOM     60  C   UNL     1      32.978  35.607  16.953  1.00  0.00     0.120 A 
ATOM     61  C   UNL     1      33.209  36.090  15.685  1.00  0.00     0.138 A 
ATOM     62  N   UNL     1      32.396  34.414  16.788  1.00  0.00    -0.132 NA
ATOM     63  N   UNL     1      32.764  35.183  14.770  1.00  0.00    -0.248 N 
ATOM     64  N   UNL     1      32.275  34.175  15.475  1.00  0.00    -0.067 NA
BRANCH  63  65
ATOM     65  C   UNL     1      32.814  35.323  13.343  1.00  0.00     0.181 C 
BRANCH  65  66
ATOM     66  C   UNL     1      31.605  36.039  12.877  1.00  0.00    -0.025 A 
ATOM     67  C   UNL     1      31.630  37.324  12.401  1.00  0.00     0.006 A 
ATOM     68  C   UNL     1      30.375  35.392  12.921  1.00  0.00     0.025 A 
ATOM     69  C   UNL     1      30.505  37.981  11.977  1.00  0.00     0.002 A 
ATOM     70  C   UNL     1      29.248  36.051  12.496  1.00  0.00     0.052 A 
ATOM     71  C   UNL     1      29.265  37.359  12.011  1.00  0.00     0.019 A 
BRANCH  70  72
ATOM     72  C   UNL     1      27.979  35.372  12.540  1.00  0.00     0.099 C 
ATOM     73  N   UNL     1      26.947  34.822  12.561  1.00  0.00    -0.192 NA
ENDBRANCH  70  72
ENDBRANCH  65  66
ENDBRANCH  63  65
ENDBRANCH  59  60
ENDBRANCH  58  59
ENDBRANCH  55  58
ENDBRANCH  53  54
ENDBRANCH  50  53
ENDBRANCH  47  50
ENDBRANCH   5  47
BRANCH   4  74
ATOM     74  N   UNL     1      33.428  28.900  22.951  1.00  0.00    -0.348 N 
ATOM     75  C   UNL     1      34.695  29.218  23.485  1.00  0.00     0.217 C 
ATOM     76  H   UNL     1      33.384  28.059  22.342  1.00  0.00     0.163 HD
ATOM     77  C   UNL     1      35.918  28.416  23.204  1.00  0.00     0.114 C 
ATOM     78  O   UNL     1      34.798  30.213  24.221  1.00  0.00    -0.275 OA
ENDBRANCH   4  74
TORSDOF 32
BEGIN_RES LYS A 131
REMARK  4 active torsions:
REMARK  status: ('A' for Active; 'I' for Inactive)
REMARK    1  A    between atoms: CA   and  CB  
REMARK    2  A    between atoms: CB   and  CG  
REMARK    3  A    between atoms: CG   and  CD  
REMARK    4  A    between atoms: CD   and  CE  
ROOT
ATOM      1  CA  LYS A 131      29.867  25.555  16.977  1.00 20.52     0.186 C 
ENDROOT
BRANCH   1   2
ATOM      2  CB  LYS A 131      28.345  25.722  17.026  1.00 20.94     0.034 C 
BRANCH   2   3
ATOM      3  CG  LYS A 131      27.599  24.476  16.575  1.00 22.96     0.005 C 
BRANCH   3   4
ATOM      4  CD  LYS A 131      27.214  23.596  17.732  1.00 24.33     0.041 C 
BRANCH   4   5
ATOM      5  CE  LYS A 131      25.723  23.282  17.658  1.00 26.91     0.338 C 
ATOM      6  NZ  LYS A 131      25.015  24.310  16.859  1.00 27.40     0.618 N 
ENDBRANCH   4   5
ENDBRANCH   3   4
ENDBRANCH   2   3
ENDBRANCH   1   2
END_RES LYS A 131
BEGIN_RES LYS A 135
REMARK  4 active torsions:
REMARK  status: ('A' for Active; 'I' for Inactive)
REMARK    5  A    between atoms: CA   and  CB  
REMARK    6  A    between atoms: CB   and  CG  
REMARK    7  A    between atoms: CG   and  CD  
REMARK    8  A    between atoms: CD   and  CE  
ROOT
ATOM      7  CA  LYS A 135      33.193  34.663   9.290  1.00 25.02     0.186 C 
ENDROOT
BRANCH   7   8
ATOM      8  CB  LYS A 135      32.060  35.360  10.034  1.00 26.63     0.034 C 
BRANCH   8   9
ATOM      9  CG  LYS A 135      30.786  35.459   9.235  1.00 29.45     0.005 C 
BRANCH   9  10
ATOM     10  CD  LYS A 135      30.148  34.088   9.070  1.00 32.00     0.041 C 
BRANCH  10  11
ATOM     11  CE  LYS A 135      28.636  34.204   9.042  1.00 34.25     0.338 C 
ATOM     12  NZ  LYS A 135      28.210  35.624   8.904  1.00 35.99     0.618 N 
ENDBRANCH  10  11
ENDBRANCH   9  10
ENDBRANCH   8   9
ENDBRANCH   7   8
END_RES LYS A 135
