REMARK VINA RESULT:    -5.120      3.581      6.616
REMARK INTER + INTRA:         -22.348
REMARK INTER:                 -11.075
REMARK INTRA:                 -11.273
REMARK UNBOUND:                -9.445
REMARK SMILES CC(=O)N[C@@H]1[C@@H](O)C[C@](OC[C@H]2O[C@@H](O[C@H]3[C@H](O)[C@@H](O)[C@H](OCCN=[N+]=[N-])O[C@@H]3CO)[C@H](O)[C@@H](O)[C@H]2O)(C(=O)O)O[C@H]1C(O)[C@H](O)CNC(=O)OCc1cn(Cc2cccc(Br)c2)nn1
REMARK SMILES IDX 9 1 8 2 6 3 5 4 42 5 41 6 10 7 11 8 12 9 14 10 13 11 32 12
REMARK SMILES IDX 34 13 36 14 15 15 16 16 29 17 28 18 21 19 17 20 19 21 30 22
REMARK SMILES IDX 31 23 22 25 23 26 24 27 25 28 26 29 27 30 18 31 20 33 33 35
REMARK SMILES IDX 35 37 37 39 38 41 39 42 40 43 7 45 43 47 44 48 45 50 46 51
REMARK SMILES IDX 47 53 48 54 49 55 50 57 51 58 52 59 53 60 54 61 65 62 55 63
REMARK SMILES IDX 64 64 56 65 57 66 58 67 63 68 59 69 61 70 60 71 62 72 4 73
REMARK SMILES IDX 2 74 1 76 3 77
REMARK H PARENT 31 24 18 32 20 34 33 36 35 38 37 40 40 44 7 46 44 49 46 52
REMARK H PARENT 48 56 4 75
REMARK Flexibility Score: inf
ROOT
ATOM      1  C   UNL     1      28.915  33.159  17.433  1.00  0.00     0.272 C 
ATOM      2  C   UNL     1      29.857  32.020  17.332  1.00  0.00     0.113 C 
ATOM      3  C   UNL     1      29.273  30.763  16.771  1.00  0.00     0.145 C 
ATOM      4  C   UNL     1      27.813  30.584  17.121  1.00  0.00     0.142 C 
ATOM      5  C   UNL     1      27.070  31.830  17.311  1.00  0.00     0.178 C 
ATOM      6  O   UNL     1      27.669  32.979  16.900  1.00  0.00    -0.332 OA
ENDROOT
BRANCH   1   7
ATOM      7  O   UNL     1      29.522  34.310  16.839  1.00  0.00    -0.338 OA
BRANCH   7   8
ATOM      8  C   UNL     1      30.882  34.213  16.776  1.00  0.00     0.199 C 
BRANCH   8   9
ATOM      9  C   UNL     1      31.399  34.731  15.417  1.00  0.00     0.179 C 
ATOM     10  C   UNL     1      30.493  35.170  13.303  1.00  0.00     0.282 C 
ATOM     11  O   UNL     1      30.422  34.452  14.519  1.00  0.00    -0.341 OA
ATOM     12  C   UNL     1      31.796  35.843  13.124  1.00  0.00     0.202 C 
ATOM     13  C   UNL     1      32.168  36.742  14.289  1.00  0.00     0.179 C 
ATOM     14  C   UNL     1      31.537  36.230  15.572  1.00  0.00     0.177 C 
BRANCH  10  15
ATOM     15  O   UNL     1      29.364  35.953  13.314  1.00  0.00    -0.341 OA
BRANCH  15  16
ATOM     16  C   UNL     1      28.301  35.519  12.608  1.00  0.00     0.184 C 
ATOM     17  C   UNL     1      27.686  36.683  11.873  1.00  0.00     0.178 C 
ATOM     18  O   UNL     1      26.703  36.200  11.014  1.00  0.00    -0.341 OA
ATOM     19  C   UNL     1      25.618  35.628  11.680  1.00  0.00     0.281 C 
ATOM     20  C   UNL     1      27.163  34.980  13.467  1.00  0.00     0.180 C 
ATOM     21  C   UNL     1      26.143  34.442  12.453  1.00  0.00     0.202 C 
BRANCH  17  22
ATOM     22  C   UNL     1      28.730  37.352  11.044  1.00  0.00     0.191 C 
BRANCH  22  23
ATOM     23  O   UNL     1      29.500  38.207  11.812  1.00  0.00    -0.394 OA
ATOM     24  H   UNL     1      29.945  38.847  11.197  1.00  0.00     0.210 HD
ENDBRANCH  22  23
ENDBRANCH  17  22
BRANCH  19  25
ATOM     25  O   UNL     1      24.708  35.280  10.704  1.00  0.00    -0.350 OA
BRANCH  25  26
ATOM     26  C   UNL     1      24.857  35.923   9.506  1.00  0.00     0.169 C 
BRANCH  26  27
ATOM     27  C   UNL     1      23.853  37.025   9.259  1.00  0.00     0.119 C 
BRANCH  27  28
ATOM     28  N   UNL     1      24.141  37.580   7.955  1.00  0.00    -0.092 NA
ATOM     29  N   UNL     1      23.685  38.635   7.540  1.00  0.00     0.001 N 
ATOM     30  N   UNL     1      23.287  39.766   7.270  1.00  0.00    -0.003 NA
ENDBRANCH  27  28
ENDBRANCH  26  27
ENDBRANCH  25  26
ENDBRANCH  19  25
BRANCH  20  31
ATOM     31  O   UNL     1      27.522  33.943  14.280  1.00  0.00    -0.387 OA
ATOM     32  H   UNL     1      26.787  33.529  14.784  1.00  0.00     0.211 HD
ENDBRANCH  20  31
BRANCH  21  33
ATOM     33  O   UNL     1      25.190  33.762  13.164  1.00  0.00    -0.385 OA
ATOM     34  H   UNL     1      24.690  33.089  12.599  1.00  0.00     0.211 HD
ENDBRANCH  21  33
ENDBRANCH  15  16
ENDBRANCH  10  15
BRANCH  12  35
ATOM     35  O   UNL     1      32.783  34.828  13.027  1.00  0.00    -0.385 OA
ATOM     36  H   UNL     1      32.406  33.975  13.363  1.00  0.00     0.211 HD
ENDBRANCH  12  35
BRANCH  13  37
ATOM     37  O   UNL     1      31.877  38.080  14.043  1.00  0.00    -0.387 OA
ATOM     38  H   UNL     1      32.741  38.605  14.085  1.00  0.00     0.211 HD
ENDBRANCH  13  37
BRANCH  14  39
ATOM     39  O   UNL     1      30.292  36.757  15.827  1.00  0.00    -0.387 OA
ATOM     40  H   UNL     1      29.596  36.306  15.258  1.00  0.00     0.211 HD
ENDBRANCH  14  39
ENDBRANCH   8   9
ENDBRANCH   7   8
ENDBRANCH   1   7
BRANCH   1  41
ATOM     41  C   UNL     1      28.771  33.545  18.868  1.00  0.00     0.364 C 
ATOM     42  O   UNL     1      29.336  32.823  19.764  1.00  0.00    -0.246 OA
BRANCH  41  43
ATOM     43  O   UNL     1      28.074  34.621  19.345  1.00  0.00    -0.477 OA
ATOM     44  H   UNL     1      28.334  34.987  20.270  1.00  0.00     0.296 HD
ENDBRANCH  41  43
ENDBRANCH   1  41
BRANCH   3  45
ATOM     45  O   UNL     1      29.524  30.642  15.412  1.00  0.00    -0.391 OA
ATOM     46  H   UNL     1      29.024  31.278  14.855  1.00  0.00     0.211 HD
ENDBRANCH   3  45
BRANCH   5  47
ATOM     47  C   UNL     1      25.649  31.768  16.727  1.00  0.00     0.176 C 
BRANCH  47  48
ATOM     48  O   UNL     1      25.507  32.997  15.965  1.00  0.00    -0.388 OA
ATOM     49  H   UNL     1      26.339  33.512  16.125  1.00  0.00     0.211 HD
ENDBRANCH  47  48
BRANCH  47  50
ATOM     50  C   UNL     1      25.409  30.658  15.771  1.00  0.00     0.165 C 
BRANCH  50  51
ATOM     51  O   UNL     1      24.920  31.311  14.578  1.00  0.00    -0.388 OA
ATOM     52  H   UNL     1      24.699  30.589  13.915  1.00  0.00     0.211 HD
ENDBRANCH  50  51
BRANCH  50  53
ATOM     53  C   UNL     1      24.332  29.678  16.094  1.00  0.00     0.154 C 
BRANCH  53  54
ATOM     54  N   UNL     1      24.003  29.609  17.509  1.00  0.00    -0.319 N 
ATOM     55  C   UNL     1      23.856  28.338  18.120  1.00  0.00     0.407 C 
ATOM     56  H   UNL     1      23.875  30.461  18.082  1.00  0.00     0.167 HD
ATOM     57  O   UNL     1      24.004  27.286  17.438  1.00  0.00    -0.225 OA
BRANCH  55  58
ATOM     58  O   UNL     1      23.549  28.219  19.475  1.00  0.00    -0.443 OA
BRANCH  58  59
ATOM     59  C   UNL     1      23.372  29.421  20.238  1.00  0.00     0.294 C 
BRANCH  59  60
ATOM     60  C   UNL     1      24.679  29.794  20.826  1.00  0.00     0.120 A 
ATOM     61  C   UNL     1      25.263  29.327  21.978  1.00  0.00     0.138 A 
ATOM     62  N   UNL     1      25.525  30.684  20.291  1.00  0.00    -0.132 NA
ATOM     63  N   UNL     1      26.448  29.954  22.103  1.00  0.00    -0.248 N 
ATOM     64  N   UNL     1      26.584  30.772  21.070  1.00  0.00    -0.067 NA
BRANCH  63  65
ATOM     65  C   UNL     1      27.393  29.746  23.196  1.00  0.00     0.181 C 
BRANCH  65  66
ATOM     66  C   UNL     1      28.795  29.729  22.702  1.00  0.00    -0.025 A 
ATOM     67  C   UNL     1      29.564  30.874  22.731  1.00  0.00     0.006 A 
ATOM     68  C   UNL     1      29.391  28.601  22.194  1.00  0.00     0.021 A 
ATOM     69  C   UNL     1      30.865  30.925  22.285  1.00  0.00     0.002 A 
ATOM     70  C   UNL     1      30.690  28.616  21.741  1.00  0.00     0.018 A 
ATOM     71  C   UNL     1      31.449  29.757  21.773  1.00  0.00     0.016 A 
ATOM     72  Br  UNL     1      31.526  27.046  21.035  1.00  0.00    -0.051 Br
ENDBRANCH  65  66
ENDBRANCH  63  65
ENDBRANCH  59  60
ENDBRANCH  58  59
ENDBRANCH  55  58
ENDBRANCH  53  54
ENDBRANCH  50  53
ENDBRANCH  47  50
ENDBRANCH   5  47
BRANCH   4  73
ATOM     73  N   UNL     1      27.706  29.728  18.331  1.00  0.00    -0.348 N 
ATOM     74  C   UNL     1      27.420  28.346  18.211  1.00  0.00     0.217 C 
ATOM     75  H   UNL     1      27.841  30.131  19.293  1.00  0.00     0.163 HD
ATOM     76  C   UNL     1      27.307  27.459  19.422  1.00  0.00     0.114 C 
ATOM     77  O   UNL     1      27.259  27.861  17.060  1.00  0.00    -0.275 OA
ENDBRANCH   4  73
TORSDOF 31
BEGIN_RES LYS A 131
REMARK  4 active torsions:
REMARK  status: ('A' for Active; 'I' for Inactive)
REMARK    1  A    between atoms: CA   and  CB  
REMARK    2  A    between atoms: CB   and  CG  
REMARK    3  A    between atoms: CG   and  CD  
REMARK    4  A    between atoms: CD   and  CE  
ROOT
ATOM      1  CA  LYS A 131      29.867  25.555  16.977  1.00 20.52     0.186 C 
ENDROOT
BRANCH   1   2
ATOM      2  CB  LYS A 131      28.345  25.722  17.026  1.00 20.94     0.034 C 
BRANCH   2   3
ATOM      3  CG  LYS A 131      27.602  24.399  16.924  1.00 22.96     0.005 C 
BRANCH   3   4
ATOM      4  CD  LYS A 131      26.173  24.515  17.378  1.00 24.33     0.041 C 
BRANCH   4   5
ATOM      5  CE  LYS A 131      25.929  23.556  18.539  1.00 26.91     0.338 C 
ATOM      6  NZ  LYS A 131      25.298  24.267  19.676  1.00 27.40     0.618 N 
ENDBRANCH   4   5
ENDBRANCH   3   4
ENDBRANCH   2   3
ENDBRANCH   1   2
END_RES LYS A 131
BEGIN_RES LYS A 135
REMARK  4 active torsions:
REMARK  status: ('A' for Active; 'I' for Inactive)
REMARK    5  A    between atoms: CA   and  CB  
REMARK    6  A    between atoms: CB   and  CG  
REMARK    7  A    between atoms: CG   and  CD  
REMARK    8  A    between atoms: CD   and  CE  
ROOT
ATOM      7  CA  LYS A 135      33.193  34.663   9.290  1.00 25.02     0.186 C 
ENDROOT
BRANCH   7   8
ATOM      8  CB  LYS A 135      32.060  35.360  10.034  1.00 26.63     0.034 C 
BRANCH   8   9
ATOM      9  CG  LYS A 135      30.720  34.697   9.849  1.00 29.45     0.005 C 
BRANCH   9  10
ATOM     10  CD  LYS A 135      30.264  34.802   8.402  1.00 32.00     0.041 C 
BRANCH  10  11
ATOM     11  CE  LYS A 135      28.766  34.591   8.298  1.00 34.25     0.338 C 
ATOM     12  NZ  LYS A 135      28.261  33.766   9.430  1.00 35.99     0.618 N 
ENDBRANCH  10  11
ENDBRANCH   9  10
ENDBRANCH   8   9
ENDBRANCH   7   8
END_RES LYS A 135
