REMARK VINA RESULT:    -3.856      6.554     13.765
REMARK INTER + INTRA:         -22.094
REMARK INTER:                 -11.197
REMARK INTRA:                 -10.897
REMARK UNBOUND:               -11.702
REMARK SMILES CC(=O)N[C@@H]1[C@@H](O)C[C@](OC[C@H]2O[C@@H](O[C@H]3[C@H](O)[C@@H](O)[C@H](OCCN=[N+]=[N-])O[C@@H]3CO)[C@H](O)[C@@H](O)[C@H]2O)(C(=O)O)O[C@H]1C(O)[C@H](O)CNC(=O)OCc1cn([C@@H](CC(=O)O)C(=O)O)nn1
REMARK SMILES IDX 43 1 42 2 9 3 8 4 41 5 6 6 5 7 10 8 11 9 12 10 14 11 13 12
REMARK SMILES IDX 32 13 34 14 36 15 15 16 16 17 29 18 28 19 21 20 17 21 19 22
REMARK SMILES IDX 30 23 31 24 22 26 23 27 24 28 25 29 26 30 27 31 18 32 20 34
REMARK SMILES IDX 33 36 35 38 37 40 38 42 39 43 40 44 7 46 4 48 2 49 1 51 3 52
REMARK SMILES IDX 44 53 45 55 46 56 47 58 48 59 49 60 50 62 51 63 52 64 53 65
REMARK SMILES IDX 54 66 65 67 55 68 64 69 56 70 57 71 58 72 59 73 60 74 61 76
REMARK SMILES IDX 62 77 63 78
REMARK H PARENT 31 25 18 33 20 35 33 37 35 39 37 41 40 45 7 47 4 50 44 54
REMARK H PARENT 46 57 48 61 60 75 63 79
REMARK Flexibility Score: inf
ROOT
ATOM      1  C   UNL     1      28.945  28.434  21.882  1.00  0.00     0.176 C 
ENDROOT
BRANCH   1   2
ATOM      2  C   UNL     1      27.437  28.441  21.703  1.00  0.00     0.178 C 
ATOM      3  C   UNL     1      25.805  28.304  20.016  1.00  0.00     0.272 C 
ATOM      4  C   UNL     1      25.038  28.889  21.210  1.00  0.00     0.113 C 
ATOM      5  O   UNL     1      27.171  28.388  20.369  1.00  0.00    -0.332 OA
ATOM      6  C   UNL     1      25.770  30.174  21.569  1.00  0.00     0.145 C 
ATOM      7  C   UNL     1      26.944  29.679  22.430  1.00  0.00     0.142 C 
BRANCH   3   8
ATOM      8  O   UNL     1      25.551  28.921  18.957  1.00  0.00    -0.338 OA
BRANCH   8   9
ATOM      9  C   UNL     1      25.300  29.545  17.910  1.00  0.00     0.199 C 
BRANCH   9  10
ATOM     10  C   UNL     1      26.199  29.291  16.699  1.00  0.00     0.179 C 
ATOM     11  C   UNL     1      26.166  31.320  15.613  1.00  0.00     0.282 C 
ATOM     12  O   UNL     1      25.886  29.985  15.580  1.00  0.00    -0.341 OA
ATOM     13  C   UNL     1      27.582  31.604  15.935  1.00  0.00     0.202 C 
ATOM     14  C   UNL     1      28.305  30.248  15.910  1.00  0.00     0.179 C 
ATOM     15  C   UNL     1      27.665  29.448  17.029  1.00  0.00     0.177 C 
BRANCH  11  16
ATOM     16  O   UNL     1      25.218  32.125  16.224  1.00  0.00    -0.341 OA
BRANCH  16  17
ATOM     17  C   UNL     1      24.102  32.350  15.452  1.00  0.00     0.184 C 
ATOM     18  C   UNL     1      23.836  33.799  15.257  1.00  0.00     0.178 C 
ATOM     19  O   UNL     1      22.741  34.007  14.429  1.00  0.00    -0.341 OA
ATOM     20  C   UNL     1      21.704  33.088  14.617  1.00  0.00     0.281 C 
ATOM     21  C   UNL     1      22.936  31.714  16.205  1.00  0.00     0.180 C 
ATOM     22  C   UNL     1      21.723  32.574  16.053  1.00  0.00     0.202 C 
BRANCH  18  23
ATOM     23  C   UNL     1      25.032  34.388  14.511  1.00  0.00     0.191 C 
BRANCH  23  24
ATOM     24  O   UNL     1      26.012  34.756  15.457  1.00  0.00    -0.394 OA
ATOM     25  H   UNL     1      25.547  34.682  16.342  1.00  0.00     0.210 HD
ENDBRANCH  23  24
ENDBRANCH  18  23
BRANCH  20  26
ATOM     26  O   UNL     1      21.949  32.010  13.786  1.00  0.00    -0.350 OA
BRANCH  26  27
ATOM     27  C   UNL     1      21.030  31.761  12.815  1.00  0.00     0.169 C 
BRANCH  27  28
ATOM     28  C   UNL     1      20.270  30.503  13.104  1.00  0.00     0.119 C 
BRANCH  28  29
ATOM     29  N   UNL     1      20.615  29.518  12.077  1.00  0.00    -0.092 NA
ATOM     30  N   UNL     1      19.714  28.744  11.693  1.00  0.00     0.001 N 
ATOM     31  N   UNL     1      19.206  27.641  11.416  1.00  0.00    -0.003 NA
ENDBRANCH  28  29
ENDBRANCH  27  28
ENDBRANCH  26  27
ENDBRANCH  20  26
BRANCH  21  32
ATOM     32  O   UNL     1      22.682  30.447  15.694  1.00  0.00    -0.387 OA
ATOM     33  H   UNL     1      23.406  30.178  15.059  1.00  0.00     0.211 HD
ENDBRANCH  21  32
BRANCH  22  34
ATOM     34  O   UNL     1      21.663  33.636  16.957  1.00  0.00    -0.385 OA
ATOM     35  H   UNL     1      21.422  34.435  16.390  1.00  0.00     0.211 HD
ENDBRANCH  22  34
ENDBRANCH  16  17
ENDBRANCH  11  16
BRANCH  13  36
ATOM     36  O   UNL     1      28.231  32.387  14.977  1.00  0.00    -0.385 OA
ATOM     37  H   UNL     1      27.523  32.848  14.441  1.00  0.00     0.211 HD
ENDBRANCH  13  36
BRANCH  14  38
ATOM     38  O   UNL     1      29.663  30.363  16.074  1.00  0.00    -0.387 OA
ATOM     39  H   UNL     1      30.070  30.994  15.416  1.00  0.00     0.211 HD
ENDBRANCH  14  38
BRANCH  15  40
ATOM     40  O   UNL     1      27.868  30.098  18.226  1.00  0.00    -0.387 OA
ATOM     41  H   UNL     1      27.826  29.523  19.010  1.00  0.00     0.211 HD
ENDBRANCH  15  40
ENDBRANCH   9  10
ENDBRANCH   8   9
ENDBRANCH   3   8
BRANCH   3  42
ATOM     42  C   UNL     1      25.428  26.825  20.040  1.00  0.00     0.364 C 
ATOM     43  O   UNL     1      24.295  26.471  19.685  1.00  0.00    -0.246 OA
BRANCH  42  44
ATOM     44  O   UNL     1      26.332  25.864  20.452  1.00  0.00    -0.477 OA
ATOM     45  H   UNL     1      26.455  24.973  19.954  1.00  0.00     0.296 HD
ENDBRANCH  42  44
ENDBRANCH   3  42
BRANCH   6  46
ATOM     46  O   UNL     1      26.412  30.694  20.423  1.00  0.00    -0.391 OA
ATOM     47  H   UNL     1      26.298  31.655  20.333  1.00  0.00     0.211 HD
ENDBRANCH   6  46
BRANCH   7  48
ATOM     48  N   UNL     1      26.390  29.397  23.733  1.00  0.00    -0.348 N 
ATOM     49  C   UNL     1      26.890  30.075  24.887  1.00  0.00     0.217 C 
ATOM     50  H   UNL     1      25.623  28.703  23.887  1.00  0.00     0.163 HD
ATOM     51  C   UNL     1      26.274  29.735  26.214  1.00  0.00     0.114 C 
ATOM     52  O   UNL     1      27.813  30.929  24.809  1.00  0.00    -0.275 OA
ENDBRANCH   7  48
ENDBRANCH   1   2
BRANCH   1  53
ATOM     53  O   UNL     1      29.373  29.494  22.672  1.00  0.00    -0.388 OA
ATOM     54  H   UNL     1      28.971  29.462  23.586  1.00  0.00     0.211 HD
ENDBRANCH   1  53
BRANCH   1  55
ATOM     55  C   UNL     1      29.743  28.350  20.636  1.00  0.00     0.165 C 
BRANCH  55  56
ATOM     56  O   UNL     1      30.191  27.096  20.282  1.00  0.00    -0.388 OA
ATOM     57  H   UNL     1      31.158  26.943  20.451  1.00  0.00     0.211 HD
ENDBRANCH  55  56
BRANCH  55  58
ATOM     58  C   UNL     1      30.788  29.411  20.582  1.00  0.00     0.154 C 
BRANCH  58  59
ATOM     59  N   UNL     1      30.739  30.294  19.458  1.00  0.00    -0.319 N 
ATOM     60  C   UNL     1      29.972  31.480  19.537  1.00  0.00     0.407 C 
ATOM     61  H   UNL     1      31.253  30.089  18.591  1.00  0.00     0.167 HD
ATOM     62  O   UNL     1      29.357  31.723  20.633  1.00  0.00    -0.225 OA
BRANCH  60  63
ATOM     63  O   UNL     1      29.813  32.417  18.531  1.00  0.00    -0.443 OA
BRANCH  63  64
ATOM     64  C   UNL     1      30.879  33.336  18.243  1.00  0.00     0.294 C 
BRANCH  64  65
ATOM     65  C   UNL     1      31.056  33.410  16.774  1.00  0.00     0.120 A 
ATOM     66  C   UNL     1      30.858  34.462  15.908  1.00  0.00     0.139 A 
ATOM     67  N   UNL     1      31.452  32.369  15.968  1.00  0.00    -0.132 NA
ATOM     68  N   UNL     1      31.131  34.046  14.637  1.00  0.00    -0.237 N 
ATOM     69  N   UNL     1      31.479  32.796  14.734  1.00  0.00    -0.066 NA
BRANCH  68  70
ATOM     70  C   UNL     1      31.032  34.841  13.435  1.00  0.00     0.229 C 
BRANCH  70  71
ATOM     71  C   UNL     1      30.196  36.070  13.749  1.00  0.00     0.161 C 
BRANCH  71  72
ATOM     72  C   UNL     1      28.868  36.000  13.111  1.00  0.00     0.306 C 
ATOM     73  O   UNL     1      28.090  35.037  13.333  1.00  0.00    -0.252 OA
BRANCH  72  74
ATOM     74  O   UNL     1      28.452  36.995  12.254  1.00  0.00    -0.481 OA
ATOM     75  H   UNL     1      28.873  37.046  11.319  1.00  0.00     0.296 HD
ENDBRANCH  72  74
ENDBRANCH  71  72
ENDBRANCH  70  71
BRANCH  70  76
ATOM     76  C   UNL     1      32.383  35.258  13.022  1.00  0.00     0.329 C 
ATOM     77  O   UNL     1      32.520  36.327  12.383  1.00  0.00    -0.250 OA
BRANCH  76  78
ATOM     78  O   UNL     1      33.524  34.521  13.307  1.00  0.00    -0.480 OA
ATOM     79  H   UNL     1      34.425  34.902  13.033  1.00  0.00     0.296 HD
ENDBRANCH  76  78
ENDBRANCH  70  76
ENDBRANCH  68  70
ENDBRANCH  64  65
ENDBRANCH  63  64
ENDBRANCH  60  63
ENDBRANCH  58  59
ENDBRANCH  55  58
ENDBRANCH   1  55
TORSDOF 35
BEGIN_RES LYS A 131
REMARK  4 active torsions:
REMARK  status: ('A' for Active; 'I' for Inactive)
REMARK    1  A    between atoms: CA   and  CB  
REMARK    2  A    between atoms: CB   and  CG  
REMARK    3  A    between atoms: CG   and  CD  
REMARK    4  A    between atoms: CD   and  CE  
ROOT
ATOM      1  CA  LYS A 131      29.867  25.555  16.977  1.00 20.52     0.186 C 
ENDROOT
BRANCH   1   2
ATOM      2  CB  LYS A 131      28.345  25.722  17.026  1.00 20.94     0.034 C 
BRANCH   2   3
ATOM      3  CG  LYS A 131      27.601  24.401  16.902  1.00 22.96     0.005 C 
BRANCH   3   4
ATOM      4  CD  LYS A 131      26.148  24.533  17.263  1.00 24.33     0.041 C 
BRANCH   4   5
ATOM      5  CE  LYS A 131      25.565  23.151  17.541  1.00 26.91     0.338 C 
ATOM      6  NZ  LYS A 131      25.281  22.989  18.986  1.00 27.40     0.618 N 
ENDBRANCH   4   5
ENDBRANCH   3   4
ENDBRANCH   2   3
ENDBRANCH   1   2
END_RES LYS A 131
BEGIN_RES LYS A 135
REMARK  4 active torsions:
REMARK  status: ('A' for Active; 'I' for Inactive)
REMARK    5  A    between atoms: CA   and  CB  
REMARK    6  A    between atoms: CB   and  CG  
REMARK    7  A    between atoms: CG   and  CD  
REMARK    8  A    between atoms: CD   and  CE  
ROOT
ATOM      7  CA  LYS A 135      33.193  34.663   9.290  1.00 25.02     0.186 C 
ENDROOT
BRANCH   7   8
ATOM      8  CB  LYS A 135      32.060  35.360  10.034  1.00 26.63     0.034 C 
BRANCH   8   9
ATOM      9  CG  LYS A 135      30.747  35.331   9.296  1.00 29.45     0.005 C 
BRANCH   9  10
ATOM     10  CD  LYS A 135      29.755  34.418  10.001  1.00 32.00     0.041 C 
BRANCH  10  11
ATOM     11  CE  LYS A 135      28.612  34.055   9.073  1.00 34.25     0.338 C 
ATOM     12  NZ  LYS A 135      27.328  33.946   9.819  1.00 35.99     0.618 N 
ENDBRANCH  10  11
ENDBRANCH   9  10
ENDBRANCH   8   9
ENDBRANCH   7   8
END_RES LYS A 135
