REMARK VINA RESULT:    -4.211      1.792      2.608
REMARK INTER + INTRA:         -20.982
REMARK INTER:                  -9.736
REMARK INTRA:                 -11.247
REMARK UNBOUND:               -10.616
REMARK SMILES CC(=O)N[C@@H]1[C@@H](O)C[C@](OC[C@H]2O[C@@H](O[C@H]3[C@H](O)[C@@H](O)[C@H](OCCN=[N+]=[N-])O[C@@H]3CO)[C@H](O)[C@@H](O)[C@H]2O)(C(=O)O)O[C@H]1C(O)[C@H](O)CNC(=O)OCc1cn(C2CCCC2)nn1
REMARK SMILES IDX 9 1 8 2 6 3 5 4 42 5 41 6 10 7 11 8 12 9 14 10 13 11 32 12
REMARK SMILES IDX 34 13 36 14 15 15 16 16 29 17 28 18 21 19 17 20 19 21 30 22
REMARK SMILES IDX 31 23 22 25 23 26 24 27 25 28 26 29 27 30 18 31 20 33 33 35
REMARK SMILES IDX 35 37 37 39 38 41 39 42 40 43 7 45 43 47 44 48 45 50 46 51
REMARK SMILES IDX 47 53 48 54 49 55 50 57 51 58 52 59 53 60 54 61 62 62 55 63
REMARK SMILES IDX 61 64 56 65 57 66 60 67 58 68 59 69 4 70 2 71 1 73 3 74
REMARK H PARENT 31 24 18 32 20 34 33 36 35 38 37 40 40 44 7 46 44 49 46 52
REMARK H PARENT 48 56 4 72
REMARK Flexibility Score: inf
ROOT
ATOM      1  C   UNL     1      27.476  38.364   6.911  1.00  0.00     0.272 C 
ATOM      2  C   UNL     1      26.913  39.236   5.851  1.00  0.00     0.113 C 
ATOM      3  C   UNL     1      26.062  40.351   6.352  1.00  0.00     0.145 C 
ATOM      4  C   UNL     1      25.019  39.815   7.362  1.00  0.00     0.142 C 
ATOM      5  C   UNL     1      25.216  38.344   7.470  1.00  0.00     0.178 C 
ATOM      6  O   UNL     1      26.556  38.216   7.974  1.00  0.00    -0.332 OA
ENDROOT
BRANCH   1   7
ATOM      7  O   UNL     1      28.636  38.812   7.434  1.00  0.00    -0.338 OA
BRANCH   7   8
ATOM      8  C   UNL     1      29.721  39.001   6.618  1.00  0.00     0.199 C 
BRANCH   8   9
ATOM      9  C   UNL     1      30.052  40.491   6.643  1.00  0.00     0.179 C 
ATOM     10  C   UNL     1      30.619  40.863   8.870  1.00  0.00     0.282 C 
ATOM     11  O   UNL     1      29.748  41.104   7.815  1.00  0.00    -0.341 OA
ATOM     12  C   UNL     1      32.032  40.656   8.449  1.00  0.00     0.202 C 
ATOM     13  C   UNL     1      32.377  41.260   7.124  1.00  0.00     0.179 C 
ATOM     14  C   UNL     1      31.414  40.712   6.101  1.00  0.00     0.177 C 
BRANCH  10  15
ATOM     15  O   UNL     1      30.137  39.870   9.721  1.00  0.00    -0.341 OA
BRANCH  15  16
ATOM     16  C   UNL     1      29.409  40.399  10.787  1.00  0.00     0.184 C 
ATOM     17  C   UNL     1      29.908  39.997  12.134  1.00  0.00     0.178 C 
ATOM     18  O   UNL     1      29.051  40.518  13.101  1.00  0.00    -0.341 OA
ATOM     19  C   UNL     1      27.887  39.772  13.148  1.00  0.00     0.281 C 
ATOM     20  C   UNL     1      28.002  39.831  10.649  1.00  0.00     0.180 C 
ATOM     21  C   UNL     1      27.147  40.058  11.854  1.00  0.00     0.202 C 
BRANCH  17  22
ATOM     22  C   UNL     1      31.280  40.570  12.473  1.00  0.00     0.191 C 
BRANCH  22  23
ATOM     23  O   UNL     1      31.430  40.385  13.857  1.00  0.00    -0.394 OA
ATOM     24  H   UNL     1      31.089  41.148  14.353  1.00  0.00     0.210 HD
ENDBRANCH  22  23
ENDBRANCH  17  22
BRANCH  19  25
ATOM     25  O   UNL     1      27.091  40.243  14.188  1.00  0.00    -0.350 OA
BRANCH  25  26
ATOM     26  C   UNL     1      27.008  39.270  15.199  1.00  0.00     0.169 C 
BRANCH  26  27
ATOM     27  C   UNL     1      27.852  38.059  14.843  1.00  0.00     0.119 C 
BRANCH  27  28
ATOM     28  N   UNL     1      28.830  37.795  15.857  1.00  0.00    -0.092 NA
ATOM     29  N   UNL     1      29.513  38.706  16.370  1.00  0.00     0.001 N 
ATOM     30  N   UNL     1      30.431  39.516  16.466  1.00  0.00    -0.003 NA
ENDBRANCH  27  28
ENDBRANCH  26  27
ENDBRANCH  25  26
ENDBRANCH  19  25
BRANCH  20  31
ATOM     31  O   UNL     1      27.423  40.489   9.566  1.00  0.00    -0.387 OA
ATOM     32  H   UNL     1      26.626  41.018   9.817  1.00  0.00     0.211 HD
ENDBRANCH  20  31
BRANCH  21  33
ATOM     33  O   UNL     1      26.070  39.159  11.798  1.00  0.00    -0.385 OA
ATOM     34  H   UNL     1      26.447  38.278  12.054  1.00  0.00     0.211 HD
ENDBRANCH  21  33
ENDBRANCH  15  16
ENDBRANCH  10  15
BRANCH  12  35
ATOM     35  O   UNL     1      32.932  41.229   9.380  1.00  0.00    -0.385 OA
ATOM     36  H   UNL     1      33.146  42.125   9.059  1.00  0.00     0.211 HD
ENDBRANCH  12  35
BRANCH  13  37
ATOM     37  O   UNL     1      33.658  40.883   6.765  1.00  0.00    -0.387 OA
ATOM     38  H   UNL     1      33.752  41.012   5.796  1.00  0.00     0.211 HD
ENDBRANCH  13  37
BRANCH  14  39
ATOM     39  O   UNL     1      31.986  39.587   5.522  1.00  0.00    -0.387 OA
ATOM     40  H   UNL     1      32.830  39.340   5.926  1.00  0.00     0.211 HD
ENDBRANCH  14  39
ENDBRANCH   8   9
ENDBRANCH   7   8
ENDBRANCH   1   7
BRANCH   1  41
ATOM     41  C   UNL     1      27.596  36.961   6.361  1.00  0.00     0.364 C 
ATOM     42  O   UNL     1      27.888  35.987   7.073  1.00  0.00    -0.246 OA
BRANCH  41  43
ATOM     43  O   UNL     1      27.359  36.824   4.990  1.00  0.00    -0.477 OA
ATOM     44  H   UNL     1      26.501  36.348   4.682  1.00  0.00     0.296 HD
ENDBRANCH  41  43
ENDBRANCH   1  41
BRANCH   3  45
ATOM     45  O   UNL     1      26.733  41.442   6.844  1.00  0.00    -0.391 OA
ATOM     46  H   UNL     1      27.508  41.154   7.378  1.00  0.00     0.211 HD
ENDBRANCH   3  45
BRANCH   5  47
ATOM     47  C   UNL     1      24.375  37.656   8.515  1.00  0.00     0.176 C 
BRANCH  47  48
ATOM     48  O   UNL     1      24.160  38.653   9.556  1.00  0.00    -0.388 OA
ATOM     49  H   UNL     1      23.343  39.107   9.247  1.00  0.00     0.211 HD
ENDBRANCH  47  48
BRANCH  47  50
ATOM     50  C   UNL     1      25.052  36.554   9.282  1.00  0.00     0.165 C 
BRANCH  50  51
ATOM     51  O   UNL     1      25.422  35.444   8.609  1.00  0.00    -0.388 OA
ATOM     52  H   UNL     1      25.654  35.575   7.664  1.00  0.00     0.211 HD
ENDBRANCH  50  51
BRANCH  50  53
ATOM     53  C   UNL     1      24.116  36.131  10.408  1.00  0.00     0.154 C 
BRANCH  53  54
ATOM     54  N   UNL     1      24.816  36.333  11.684  1.00  0.00    -0.319 N 
ATOM     55  C   UNL     1      25.324  35.233  12.421  1.00  0.00     0.407 C 
ATOM     56  H   UNL     1      24.959  37.296  12.084  1.00  0.00     0.167 HD
ATOM     57  O   UNL     1      25.168  34.070  11.967  1.00  0.00    -0.225 OA
BRANCH  55  58
ATOM     58  O   UNL     1      25.981  35.407  13.617  1.00  0.00    -0.443 OA
BRANCH  58  59
ATOM     59  C   UNL     1      26.445  34.319  14.393  1.00  0.00     0.294 C 
BRANCH  59  60
ATOM     60  C   UNL     1      27.904  34.362  14.640  1.00  0.00     0.120 A 
ATOM     61  C   UNL     1      28.957  34.538  13.771  1.00  0.00     0.138 A 
ATOM     62  N   UNL     1      28.479  34.223  15.855  1.00  0.00    -0.132 NA
ATOM     63  N   UNL     1      30.100  34.501  14.461  1.00  0.00    -0.249 N 
ATOM     64  N   UNL     1      29.771  34.309  15.727  1.00  0.00    -0.067 NA
BRANCH  63  65
ATOM     65  C   UNL     1      31.464  34.642  13.965  1.00  0.00     0.109 C 
ATOM     66  C   UNL     1      31.544  35.427  12.698  1.00  0.00     0.027 C 
ATOM     67  C   UNL     1      32.255  35.457  14.966  1.00  0.00     0.027 C 
ATOM     68  C   UNL     1      31.810  36.864  13.065  1.00  0.00     0.002 C 
ATOM     69  C   UNL     1      32.153  36.887  14.533  1.00  0.00     0.002 C 
ENDBRANCH  63  65
ENDBRANCH  59  60
ENDBRANCH  58  59
ENDBRANCH  55  58
ENDBRANCH  53  54
ENDBRANCH  50  53
ENDBRANCH  47  50
ENDBRANCH   5  47
BRANCH   4  70
ATOM     70  N   UNL     1      23.710  40.264   6.946  1.00  0.00    -0.348 N 
ATOM     71  C   UNL     1      22.967  41.191   7.774  1.00  0.00     0.217 C 
ATOM     72  H   UNL     1      23.255  39.973   6.056  1.00  0.00     0.163 HD
ATOM     73  C   UNL     1      21.621  41.664   7.367  1.00  0.00     0.114 C 
ATOM     74  O   UNL     1      23.450  41.614   8.860  1.00  0.00    -0.275 OA
ENDBRANCH   4  70
TORSDOF 30
BEGIN_RES LYS A 131
REMARK  4 active torsions:
REMARK  status: ('A' for Active; 'I' for Inactive)
REMARK    1  A    between atoms: CA   and  CB  
REMARK    2  A    between atoms: CB   and  CG  
REMARK    3  A    between atoms: CG   and  CD  
REMARK    4  A    between atoms: CD   and  CE  
ROOT
ATOM      1  CA  LYS A 131      29.867  25.555  16.977  1.00 20.52     0.186 C 
ENDROOT
BRANCH   1   2
ATOM      2  CB  LYS A 131      28.345  25.722  17.026  1.00 20.94     0.034 C 
BRANCH   2   3
ATOM      3  CG  LYS A 131      27.601  24.403  16.883  1.00 22.96     0.005 C 
BRANCH   3   4
ATOM      4  CD  LYS A 131      26.153  24.525  17.269  1.00 24.33     0.041 C 
BRANCH   4   5
ATOM      5  CE  LYS A 131      25.637  23.171  17.743  1.00 26.91     0.338 C 
ATOM      6  NZ  LYS A 131      25.522  23.147  19.221  1.00 27.40     0.618 N 
ENDBRANCH   4   5
ENDBRANCH   3   4
ENDBRANCH   2   3
ENDBRANCH   1   2
END_RES LYS A 131
BEGIN_RES LYS A 135
REMARK  4 active torsions:
REMARK  status: ('A' for Active; 'I' for Inactive)
REMARK    5  A    between atoms: CA   and  CB  
REMARK    6  A    between atoms: CB   and  CG  
REMARK    7  A    between atoms: CG   and  CD  
REMARK    8  A    between atoms: CD   and  CE  
ROOT
ATOM      7  CA  LYS A 135      33.193  34.663   9.290  1.00 25.02     0.186 C 
ENDROOT
BRANCH   7   8
ATOM      8  CB  LYS A 135      32.060  35.360  10.034  1.00 26.63     0.034 C 
BRANCH   8   9
ATOM      9  CG  LYS A 135      30.820  35.552   9.200  1.00 29.45     0.005 C 
BRANCH   9  10
ATOM     10  CD  LYS A 135      29.960  34.297   9.220  1.00 32.00     0.041 C 
BRANCH  10  11
ATOM     11  CE  LYS A 135      28.718  34.517  10.063  1.00 34.25     0.338 C 
ATOM     12  NZ  LYS A 135      27.662  33.520   9.732  1.00 35.99     0.618 N 
ENDBRANCH  10  11
ENDBRANCH   9  10
ENDBRANCH   8   9
ENDBRANCH   7   8
END_RES LYS A 135
