REMARK VINA RESULT:    -5.181      1.747      2.593
REMARK INTER + INTRA:         -23.910
REMARK INTER:                 -13.672
REMARK INTRA:                 -10.238
REMARK UNBOUND:               -10.853
REMARK SMILES CC(=O)N[C@@H]1[C@@H](O)C[C@](OC[C@H]2O[C@@H](O[C@H]3[C@H](O)[C@@H](O)[C@H](OCCN=[N+]=[N-])O[C@@H]3CO)[C@H](O)[C@@H](O)[C@H]2O)(C(=O)O)O[C@H]1C(O)[C@H](O)CNC(=O)OCc1cn(-c2ncn3c2c(=O)n(C(C)C)c2ccccc23)nn1
REMARK SMILES IDX 9 1 8 2 6 3 5 4 42 5 41 6 10 7 11 8 12 9 14 10 13 11 32 12
REMARK SMILES IDX 34 13 36 14 15 15 16 16 29 17 28 18 21 19 17 20 19 21 30 22
REMARK SMILES IDX 31 23 22 25 23 26 24 27 25 28 26 29 27 30 18 31 20 33 33 35
REMARK SMILES IDX 35 37 37 39 38 41 39 42 40 43 7 45 43 47 44 48 45 50 46 51
REMARK SMILES IDX 47 53 48 54 49 55 50 57 51 58 52 59 53 60 54 61 74 62 55 63
REMARK SMILES IDX 73 64 56 65 57 66 60 67 58 68 59 69 61 70 72 71 63 72 62 73
REMARK SMILES IDX 71 74 67 75 70 76 68 77 69 78 64 79 65 80 66 81 4 82 2 83
REMARK SMILES IDX 1 85 3 86
REMARK H PARENT 31 24 18 32 20 34 33 36 35 38 37 40 40 44 7 46 44 49 46 52
REMARK H PARENT 48 56 4 84
REMARK Flexibility Score: inf
ROOT
ATOM      1  C   UNL     1      23.952  36.182   9.832  1.00  0.00     0.272 C 
ATOM      2  C   UNL     1      23.055  35.291   9.016  1.00  0.00     0.113 C 
ATOM      3  C   UNL     1      21.659  35.752   8.987  1.00  0.00     0.145 C 
ATOM      4  C   UNL     1      21.486  37.227   8.766  1.00  0.00     0.142 C 
ATOM      5  C   UNL     1      22.626  38.045   9.257  1.00  0.00     0.178 C 
ATOM      6  O   UNL     1      23.838  37.496   9.278  1.00  0.00    -0.332 OA
ENDROOT
BRANCH   1   7
ATOM      7  O   UNL     1      25.233  35.853   9.485  1.00  0.00    -0.338 OA
BRANCH   7   8
ATOM      8  C   UNL     1      25.657  34.721   9.000  1.00  0.00     0.199 C 
BRANCH   8   9
ATOM      9  C   UNL     1      27.009  34.449   8.436  1.00  0.00     0.179 C 
ATOM     10  C   UNL     1      28.697  35.681   7.408  1.00  0.00     0.282 C 
ATOM     11  O   UNL     1      27.447  35.731   7.967  1.00  0.00    -0.341 OA
ATOM     12  C   UNL     1      29.765  35.294   8.415  1.00  0.00     0.202 C 
ATOM     13  C   UNL     1      29.381  34.016   9.139  1.00  0.00     0.179 C 
ATOM     14  C   UNL     1      27.954  34.140   9.598  1.00  0.00     0.177 C 
BRANCH  10  15
ATOM     15  O   UNL     1      28.989  36.961   6.951  1.00  0.00    -0.341 OA
BRANCH  15  16
ATOM     16  C   UNL     1      29.301  37.799   7.989  1.00  0.00     0.184 C 
ATOM     17  C   UNL     1      28.140  38.660   8.333  1.00  0.00     0.178 C 
ATOM     18  O   UNL     1      28.148  39.928   7.809  1.00  0.00    -0.341 OA
ATOM     19  C   UNL     1      28.857  40.100   6.650  1.00  0.00     0.281 C 
ATOM     20  C   UNL     1      30.565  38.597   7.743  1.00  0.00     0.180 C 
ATOM     21  C   UNL     1      30.304  39.691   6.773  1.00  0.00     0.202 C 
BRANCH  17  22
ATOM     22  C   UNL     1      27.956  38.732   9.834  1.00  0.00     0.191 C 
BRANCH  22  23
ATOM     23  O   UNL     1      26.776  37.999  10.103  1.00  0.00    -0.394 OA
ATOM     24  H   UNL     1      26.536  38.201  11.036  1.00  0.00     0.210 HD
ENDBRANCH  22  23
ENDBRANCH  17  22
BRANCH  19  25
ATOM     25  O   UNL     1      28.875  41.479   6.375  1.00  0.00    -0.350 OA
BRANCH  25  26
ATOM     26  C   UNL     1      28.159  41.837   5.265  1.00  0.00     0.169 C 
BRANCH  26  27
ATOM     27  C   UNL     1      27.871  40.740   4.290  1.00  0.00     0.119 C 
BRANCH  27  28
ATOM     28  N   UNL     1      26.413  40.751   4.089  1.00  0.00    -0.092 NA
ATOM     29  N   UNL     1      25.618  41.076   4.944  1.00  0.00     0.001 N 
ATOM     30  N   UNL     1      24.735  41.112   5.807  1.00  0.00    -0.003 NA
ENDBRANCH  27  28
ENDBRANCH  26  27
ENDBRANCH  25  26
ENDBRANCH  19  25
BRANCH  20  31
ATOM     31  O   UNL     1      31.061  39.044   8.973  1.00  0.00    -0.387 OA
ATOM     32  H   UNL     1      31.167  40.035   8.863  1.00  0.00     0.211 HD
ENDBRANCH  20  31
BRANCH  21  33
ATOM     33  O   UNL     1      30.733  39.242   5.510  1.00  0.00    -0.385 OA
ATOM     34  H   UNL     1      29.979  38.883   4.974  1.00  0.00     0.211 HD
ENDBRANCH  21  33
ENDBRANCH  15  16
ENDBRANCH  10  15
BRANCH  12  35
ATOM     35  O   UNL     1      30.923  35.001   7.700  1.00  0.00    -0.385 OA
ATOM     36  H   UNL     1      31.492  35.795   7.565  1.00  0.00     0.211 HD
ENDBRANCH  12  35
BRANCH  13  37
ATOM     37  O   UNL     1      30.170  33.969  10.304  1.00  0.00    -0.387 OA
ATOM     38  H   UNL     1      29.871  33.219  10.889  1.00  0.00     0.211 HD
ENDBRANCH  13  37
BRANCH  14  39
ATOM     39  O   UNL     1      27.926  35.255  10.476  1.00  0.00    -0.387 OA
ATOM     40  H   UNL     1      28.452  35.999  10.097  1.00  0.00     0.211 HD
ENDBRANCH  14  39
ENDBRANCH   8   9
ENDBRANCH   7   8
ENDBRANCH   1   7
BRANCH   1  41
ATOM     41  C   UNL     1      23.603  36.277  11.243  1.00  0.00     0.364 C 
ATOM     42  O   UNL     1      23.464  37.331  11.862  1.00  0.00    -0.246 OA
BRANCH  41  43
ATOM     43  O   UNL     1      23.399  35.110  12.004  1.00  0.00    -0.477 OA
ATOM     44  H   UNL     1      24.170  34.718  12.530  1.00  0.00     0.296 HD
ENDBRANCH  41  43
ENDBRANCH   1  41
BRANCH   3  45
ATOM     45  O   UNL     1      21.019  35.048   7.933  1.00  0.00    -0.391 OA
ATOM     46  H   UNL     1      20.093  34.821   8.178  1.00  0.00     0.211 HD
ENDBRANCH   3  45
BRANCH   5  47
ATOM     47  C   UNL     1      22.706  39.393   8.563  1.00  0.00     0.176 C 
BRANCH  47  48
ATOM     48  O   UNL     1      22.887  39.212   7.210  1.00  0.00    -0.388 OA
ATOM     49  H   UNL     1      22.058  39.327   6.680  1.00  0.00     0.211 HD
ENDBRANCH  47  48
BRANCH  47  50
ATOM     50  C   UNL     1      23.735  40.315   9.117  1.00  0.00     0.165 C 
BRANCH  50  51
ATOM     51  O   UNL     1      25.027  40.100   8.719  1.00  0.00    -0.388 OA
ATOM     52  H   UNL     1      25.680  40.736   9.092  1.00  0.00     0.211 HD
ENDBRANCH  50  51
BRANCH  50  53
ATOM     53  C   UNL     1      23.668  40.472  10.606  1.00  0.00     0.154 C 
BRANCH  53  54
ATOM     54  N   UNL     1      24.806  39.805  11.248  1.00  0.00    -0.319 N 
ATOM     55  C   UNL     1      25.304  40.193  12.502  1.00  0.00     0.407 C 
ATOM     56  H   UNL     1      25.281  38.991  10.752  1.00  0.00     0.167 HD
ATOM     57  O   UNL     1      24.796  41.154  13.135  1.00  0.00    -0.225 OA
BRANCH  55  58
ATOM     58  O   UNL     1      26.387  39.478  13.035  1.00  0.00    -0.443 OA
BRANCH  58  59
ATOM     59  C   UNL     1      26.222  38.677  14.170  1.00  0.00     0.294 C 
BRANCH  59  60
ATOM     60  C   UNL     1      26.258  37.201  13.845  1.00  0.00     0.121 A 
ATOM     61  C   UNL     1      25.761  36.182  14.625  1.00  0.00     0.146 A 
ATOM     62  N   UNL     1      26.763  36.605  12.752  1.00  0.00    -0.131 NA
ATOM     63  N   UNL     1      25.972  34.988  13.997  1.00  0.00    -0.200 N 
ATOM     64  N   UNL     1      26.581  35.292  12.867  1.00  0.00    -0.060 NA
BRANCH  63  65
ATOM     65  C   UNL     1      25.590  33.707  14.496  1.00  0.00     0.186 A 
ATOM     66  N   UNL     1      24.402  33.119  14.274  1.00  0.00    -0.216 NA
ATOM     67  C   UNL     1      26.280  32.819  15.283  1.00  0.00     0.158 A 
ATOM     68  C   UNL     1      24.361  31.924  14.896  1.00  0.00     0.207 A 
ATOM     69  N   UNL     1      25.531  31.717  15.537  1.00  0.00    -0.291 N 
ATOM     70  C   UNL     1      27.545  32.912  15.806  1.00  0.00     0.279 A 
ATOM     71  C   UNL     1      25.999  30.707  16.291  1.00  0.00     0.071 A 
ATOM     72  N   UNL     1      28.044  31.908  16.572  1.00  0.00    -0.302 N 
ATOM     73  O   UNL     1      28.269  33.932  15.585  1.00  0.00    -0.267 OA
ATOM     74  C   UNL     1      25.242  29.597  16.553  1.00  0.00     0.029 A 
ATOM     75  C   UNL     1      27.271  30.825  16.806  1.00  0.00     0.068 A 
ATOM     76  C   UNL     1      25.728  28.546  17.346  1.00  0.00     0.002 A 
ATOM     77  C   UNL     1      27.746  29.787  17.586  1.00  0.00     0.028 A 
ATOM     78  C   UNL     1      26.997  28.650  17.866  1.00  0.00     0.002 A 
BRANCH  72  79
ATOM     79  C   UNL     1      29.397  32.002  17.123  1.00  0.00     0.085 C 
ATOM     80  C   UNL     1      29.448  31.854  18.609  1.00  0.00     0.031 C 
ATOM     81  C   UNL     1      30.380  31.140  16.374  1.00  0.00     0.031 C 
ENDBRANCH  72  79
ENDBRANCH  63  65
ENDBRANCH  59  60
ENDBRANCH  58  59
ENDBRANCH  55  58
ENDBRANCH  53  54
ENDBRANCH  50  53
ENDBRANCH  47  50
ENDBRANCH   5  47
BRANCH   4  82
ATOM     82  N   UNL     1      20.218  37.629   9.339  1.00  0.00    -0.348 N 
ATOM     83  C   UNL     1      19.002  37.621   8.619  1.00  0.00     0.217 C 
ATOM     84  H   UNL     1      20.177  37.946  10.338  1.00  0.00     0.163 HD
ATOM     85  C   UNL     1      17.702  38.039   9.222  1.00  0.00     0.114 C 
ATOM     86  O   UNL     1      19.035  37.242   7.412  1.00  0.00    -0.275 OA
ENDBRANCH   4  82
TORSDOF 31
BEGIN_RES LYS A 131
REMARK  4 active torsions:
REMARK  status: ('A' for Active; 'I' for Inactive)
REMARK    1  A    between atoms: CA   and  CB  
REMARK    2  A    between atoms: CB   and  CG  
REMARK    3  A    between atoms: CG   and  CD  
REMARK    4  A    between atoms: CD   and  CE  
ROOT
ATOM      1  CA  LYS A 131      29.867  25.555  16.977  1.00 20.52     0.186 C 
ENDROOT
BRANCH   1   2
ATOM      2  CB  LYS A 131      28.345  25.722  17.026  1.00 20.94     0.034 C 
BRANCH   2   3
ATOM      3  CG  LYS A 131      27.600  24.407  16.851  1.00 22.96     0.005 C 
BRANCH   3   4
ATOM      4  CD  LYS A 131      26.807  24.039  18.073  1.00 24.33     0.041 C 
BRANCH   4   5
ATOM      5  CE  LYS A 131      25.531  24.874  18.123  1.00 26.91     0.338 C 
ATOM      6  NZ  LYS A 131      24.689  24.606  16.934  1.00 27.40     0.618 N 
ENDBRANCH   4   5
ENDBRANCH   3   4
ENDBRANCH   2   3
ENDBRANCH   1   2
END_RES LYS A 131
BEGIN_RES LYS A 135
REMARK  4 active torsions:
REMARK  status: ('A' for Active; 'I' for Inactive)
REMARK    5  A    between atoms: CA   and  CB  
REMARK    6  A    between atoms: CB   and  CG  
REMARK    7  A    between atoms: CG   and  CD  
REMARK    8  A    between atoms: CD   and  CE  
ROOT
ATOM      7  CA  LYS A 135      33.193  34.663   9.290  1.00 25.02     0.186 C 
ENDROOT
BRANCH   7   8
ATOM      8  CB  LYS A 135      32.060  35.360  10.034  1.00 26.63     0.034 C 
BRANCH   8   9
ATOM      9  CG  LYS A 135      32.525  36.175  11.213  1.00 29.45     0.005 C 
BRANCH   9  10
ATOM     10  CD  LYS A 135      31.408  37.076  11.717  1.00 32.00     0.041 C 
BRANCH  10  11
ATOM     11  CE  LYS A 135      31.113  36.792  13.177  1.00 34.25     0.338 C 
ATOM     12  NZ  LYS A 135      30.194  35.629  13.323  1.00 35.99     0.618 N 
ENDBRANCH  10  11
ENDBRANCH   9  10
ENDBRANCH   8   9
ENDBRANCH   7   8
END_RES LYS A 135
