REMARK VINA RESULT:    -5.172      1.452      1.703
REMARK INTER + INTRA:         -23.887
REMARK INTER:                 -15.291
REMARK INTRA:                  -8.596
REMARK UNBOUND:               -10.853
REMARK SMILES CC(=O)N[C@@H]1[C@@H](O)C[C@](OC[C@H]2O[C@@H](O[C@H]3[C@H](O)[C@@H](O)[C@H](OCCN=[N+]=[N-])O[C@@H]3CO)[C@H](O)[C@@H](O)[C@H]2O)(C(=O)O)O[C@H]1C(O)[C@H](O)CNC(=O)OCc1cn(-c2ncn3c2c(=O)n(C(C)C)c2ccccc23)nn1
REMARK SMILES IDX 9 1 8 2 6 3 5 4 42 5 41 6 10 7 11 8 12 9 14 10 13 11 32 12
REMARK SMILES IDX 34 13 36 14 15 15 16 16 29 17 28 18 21 19 17 20 19 21 30 22
REMARK SMILES IDX 31 23 22 25 23 26 24 27 25 28 26 29 27 30 18 31 20 33 33 35
REMARK SMILES IDX 35 37 37 39 38 41 39 42 40 43 7 45 43 47 44 48 45 50 46 51
REMARK SMILES IDX 47 53 48 54 49 55 50 57 51 58 52 59 53 60 54 61 74 62 55 63
REMARK SMILES IDX 73 64 56 65 57 66 60 67 58 68 59 69 61 70 72 71 63 72 62 73
REMARK SMILES IDX 71 74 67 75 70 76 68 77 69 78 64 79 65 80 66 81 4 82 2 83
REMARK SMILES IDX 1 85 3 86
REMARK H PARENT 31 24 18 32 20 34 33 36 35 38 37 40 40 44 7 46 44 49 46 52
REMARK H PARENT 48 56 4 84
REMARK Flexibility Score: inf
ROOT
ATOM      1  C   UNL     1      24.344  36.252   9.792  1.00  0.00     0.272 C 
ATOM      2  C   UNL     1      23.413  35.312   9.076  1.00  0.00     0.113 C 
ATOM      3  C   UNL     1      22.025  35.799   9.033  1.00  0.00     0.145 C 
ATOM      4  C   UNL     1      21.878  37.253   8.684  1.00  0.00     0.142 C 
ATOM      5  C   UNL     1      23.044  38.085   9.078  1.00  0.00     0.178 C 
ATOM      6  O   UNL     1      24.246  37.514   9.125  1.00  0.00    -0.332 OA
ENDROOT
BRANCH   1   7
ATOM      7  O   UNL     1      25.611  35.865   9.450  1.00  0.00    -0.338 OA
BRANCH   7   8
ATOM      8  C   UNL     1      26.057  34.650   9.308  1.00  0.00     0.199 C 
BRANCH   8   9
ATOM      9  C   UNL     1      27.355  34.249   8.696  1.00  0.00     0.179 C 
ATOM     10  C   UNL     1      28.962  35.235   7.329  1.00  0.00     0.282 C 
ATOM     11  O   UNL     1      27.764  35.415   7.968  1.00  0.00    -0.341 OA
ATOM     12  C   UNL     1      30.107  35.009   8.300  1.00  0.00     0.202 C 
ATOM     13  C   UNL     1      29.773  33.891   9.272  1.00  0.00     0.179 C 
ATOM     14  C   UNL     1      28.391  34.130   9.815  1.00  0.00     0.177 C 
BRANCH  10  15
ATOM     15  O   UNL     1      29.227  36.405   6.626  1.00  0.00    -0.341 OA
BRANCH  15  16
ATOM     16  C   UNL     1      28.516  37.460   7.134  1.00  0.00     0.184 C 
ATOM     17  C   UNL     1      28.095  38.379   6.045  1.00  0.00     0.178 C 
ATOM     18  O   UNL     1      28.874  39.491   5.852  1.00  0.00    -0.341 OA
ATOM     19  C   UNL     1      30.183  39.389   6.246  1.00  0.00     0.281 C 
ATOM     20  C   UNL     1      29.244  38.178   8.251  1.00  0.00     0.180 C 
ATOM     21  C   UNL     1      30.338  39.017   7.700  1.00  0.00     0.202 C 
BRANCH  17  22
ATOM     22  C   UNL     1      26.651  38.796   6.229  1.00  0.00     0.191 C 
BRANCH  22  23
ATOM     23  O   UNL     1      26.074  37.799   7.052  1.00  0.00    -0.394 OA
ATOM     24  H   UNL     1      25.147  37.690   6.738  1.00  0.00     0.210 HD
ENDBRANCH  22  23
ENDBRANCH  17  22
BRANCH  19  25
ATOM     25  O   UNL     1      30.756  40.666   6.117  1.00  0.00    -0.350 OA
BRANCH  25  26
ATOM     26  C   UNL     1      31.547  40.816   5.011  1.00  0.00     0.169 C 
BRANCH  26  27
ATOM     27  C   UNL     1      32.808  40.011   4.995  1.00  0.00     0.119 C 
BRANCH  27  28
ATOM     28  N   UNL     1      33.473  40.277   6.281  1.00  0.00    -0.092 NA
ATOM     29  N   UNL     1      34.597  39.911   6.546  1.00  0.00     0.001 N 
ATOM     30  N   UNL     1      35.598  39.356   7.011  1.00  0.00    -0.003 NA
ENDBRANCH  27  28
ENDBRANCH  26  27
ENDBRANCH  25  26
ENDBRANCH  19  25
BRANCH  20  31
ATOM     31  O   UNL     1      28.310  38.897   9.007  1.00  0.00    -0.387 OA
ATOM     32  H   UNL     1      27.545  38.264   9.139  1.00  0.00     0.211 HD
ENDBRANCH  20  31
BRANCH  21  33
ATOM     33  O   UNL     1      31.533  38.288   7.832  1.00  0.00    -0.385 OA
ATOM     34  H   UNL     1      31.593  37.559   7.162  1.00  0.00     0.211 HD
ENDBRANCH  21  33
ENDBRANCH  15  16
ENDBRANCH  10  15
BRANCH  12  35
ATOM     35  O   UNL     1      31.199  34.564   7.559  1.00  0.00    -0.385 OA
ATOM     36  H   UNL     1      32.059  34.794   7.984  1.00  0.00     0.211 HD
ENDBRANCH  12  35
BRANCH  13  37
ATOM     37  O   UNL     1      30.656  34.035  10.359  1.00  0.00    -0.387 OA
ATOM     38  H   UNL     1      31.585  34.182  10.027  1.00  0.00     0.211 HD
ENDBRANCH  13  37
BRANCH  14  39
ATOM     39  O   UNL     1      28.447  35.385  10.476  1.00  0.00    -0.387 OA
ATOM     40  H   UNL     1      27.615  35.537  10.986  1.00  0.00     0.211 HD
ENDBRANCH  14  39
ENDBRANCH   8   9
ENDBRANCH   7   8
ENDBRANCH   1   7
BRANCH   1  41
ATOM     41  C   UNL     1      24.027  36.479  11.195  1.00  0.00     0.364 C 
ATOM     42  O   UNL     1      23.591  35.623  11.963  1.00  0.00    -0.246 OA
BRANCH  41  43
ATOM     43  O   UNL     1      24.212  37.752  11.767  1.00  0.00    -0.477 OA
ATOM     44  H   UNL     1      23.588  38.507  11.513  1.00  0.00     0.296 HD
ENDBRANCH  41  43
ENDBRANCH   1  41
BRANCH   3  45
ATOM     45  O   UNL     1      21.349  35.019   8.059  1.00  0.00    -0.391 OA
ATOM     46  H   UNL     1      21.929  34.297   7.726  1.00  0.00     0.211 HD
ENDBRANCH   3  45
BRANCH   5  47
ATOM     47  C   UNL     1      23.137  39.364   8.265  1.00  0.00     0.176 C 
BRANCH  47  48
ATOM     48  O   UNL     1      23.429  39.064   6.953  1.00  0.00    -0.388 OA
ATOM     49  H   UNL     1      24.309  38.624   6.834  1.00  0.00     0.211 HD
ENDBRANCH  47  48
BRANCH  47  50
ATOM     50  C   UNL     1      24.091  40.373   8.803  1.00  0.00     0.165 C 
BRANCH  50  51
ATOM     51  O   UNL     1      25.358  39.933   9.074  1.00  0.00    -0.388 OA
ATOM     52  H   UNL     1      25.404  39.197   9.727  1.00  0.00     0.211 HD
ENDBRANCH  50  51
BRANCH  50  53
ATOM     53  C   UNL     1      23.553  41.156   9.961  1.00  0.00     0.154 C 
BRANCH  53  54
ATOM     54  N   UNL     1      24.251  40.793  11.200  1.00  0.00    -0.319 N 
ATOM     55  C   UNL     1      24.545  41.727  12.207  1.00  0.00     0.407 C 
ATOM     56  H   UNL     1      24.551  39.784  11.353  1.00  0.00     0.167 HD
ATOM     57  O   UNL     1      24.230  42.939  12.082  1.00  0.00    -0.225 OA
BRANCH  55  58
ATOM     58  O   UNL     1      25.203  41.273  13.359  1.00  0.00    -0.443 OA
BRANCH  58  59
ATOM     59  C   UNL     1      26.575  40.996  13.334  1.00  0.00     0.294 C 
BRANCH  59  60
ATOM     60  C   UNL     1      26.867  39.567  12.938  1.00  0.00     0.121 A 
ATOM     61  C   UNL     1      26.936  38.485  13.786  1.00  0.00     0.146 A 
ATOM     62  N   UNL     1      27.104  39.079  11.710  1.00  0.00    -0.131 NA
ATOM     63  N   UNL     1      27.213  37.361  13.061  1.00  0.00    -0.200 N 
ATOM     64  N   UNL     1      27.306  37.768  11.810  1.00  0.00    -0.060 NA
BRANCH  63  65
ATOM     65  C   UNL     1      27.357  36.043  13.592  1.00  0.00     0.186 A 
ATOM     66  N   UNL     1      26.371  35.133  13.665  1.00  0.00    -0.216 NA
ATOM     67  C   UNL     1      28.452  35.421  14.136  1.00  0.00     0.158 A 
ATOM     68  C   UNL     1      26.836  34.001  14.228  1.00  0.00     0.207 A 
ATOM     69  N   UNL     1      28.142  34.161  14.533  1.00  0.00    -0.291 N 
ATOM     70  C   UNL     1      29.728  35.890  14.315  1.00  0.00     0.279 A 
ATOM     71  C   UNL     1      29.058  33.356  15.099  1.00  0.00     0.071 A 
ATOM     72  N   UNL     1      30.675  35.101  14.884  1.00  0.00    -0.302 N 
ATOM     73  O   UNL     1      30.047  37.065  13.953  1.00  0.00    -0.267 OA
ATOM     74  C   UNL     1      28.745  32.087  15.505  1.00  0.00     0.029 A 
ATOM     75  C   UNL     1      30.332  33.852  15.268  1.00  0.00     0.068 A 
ATOM     76  C   UNL     1      29.700  31.249  16.102  1.00  0.00     0.002 A 
ATOM     77  C   UNL     1      31.269  33.023  15.856  1.00  0.00     0.028 A 
ATOM     78  C   UNL     1      30.976  31.732  16.277  1.00  0.00     0.002 A 
BRANCH  72  79
ATOM     79  C   UNL     1      32.039  35.598  15.067  1.00  0.00     0.085 C 
ATOM     80  C   UNL     1      32.442  35.725  16.500  1.00  0.00     0.031 C 
ATOM     81  C   UNL     1      33.034  34.870  14.199  1.00  0.00     0.031 C 
ENDBRANCH  72  79
ENDBRANCH  63  65
ENDBRANCH  59  60
ENDBRANCH  58  59
ENDBRANCH  55  58
ENDBRANCH  53  54
ENDBRANCH  50  53
ENDBRANCH  47  50
ENDBRANCH   5  47
BRANCH   4  82
ATOM     82  N   UNL     1      20.631  37.731   9.243  1.00  0.00    -0.348 N 
ATOM     83  C   UNL     1      19.389  37.629   8.576  1.00  0.00     0.217 C 
ATOM     84  H   UNL     1      20.626  38.181  10.190  1.00  0.00     0.163 HD
ATOM     85  C   UNL     1      18.111  38.128   9.163  1.00  0.00     0.114 C 
ATOM     86  O   UNL     1      19.379  37.089   7.431  1.00  0.00    -0.275 OA
ENDBRANCH   4  82
TORSDOF 31
BEGIN_RES LYS A 131
REMARK  4 active torsions:
REMARK  status: ('A' for Active; 'I' for Inactive)
REMARK    1  A    between atoms: CA   and  CB  
REMARK    2  A    between atoms: CB   and  CG  
REMARK    3  A    between atoms: CG   and  CD  
REMARK    4  A    between atoms: CD   and  CE  
ROOT
ATOM      1  CA  LYS A 131      29.867  25.555  16.977  1.00 20.52     0.186 C 
ENDROOT
BRANCH   1   2
ATOM      2  CB  LYS A 131      28.345  25.722  17.026  1.00 20.94     0.034 C 
BRANCH   2   3
ATOM      3  CG  LYS A 131      27.849  26.225  18.373  1.00 22.96     0.005 C 
BRANCH   3   4
ATOM      4  CD  LYS A 131      26.354  26.383  18.403  1.00 24.33     0.041 C 
BRANCH   4   5
ATOM      5  CE  LYS A 131      25.901  26.674  19.830  1.00 26.91     0.338 C 
ATOM      6  NZ  LYS A 131      25.763  28.134  20.043  1.00 27.40     0.618 N 
ENDBRANCH   4   5
ENDBRANCH   3   4
ENDBRANCH   2   3
ENDBRANCH   1   2
END_RES LYS A 131
BEGIN_RES LYS A 135
REMARK  4 active torsions:
REMARK  status: ('A' for Active; 'I' for Inactive)
REMARK    5  A    between atoms: CA   and  CB  
REMARK    6  A    between atoms: CB   and  CG  
REMARK    7  A    between atoms: CG   and  CD  
REMARK    8  A    between atoms: CD   and  CE  
ROOT
ATOM      7  CA  LYS A 135      33.193  34.663   9.290  1.00 25.02     0.186 C 
ENDROOT
BRANCH   7   8
ATOM      8  CB  LYS A 135      32.060  35.360  10.034  1.00 26.63     0.034 C 
BRANCH   8   9
ATOM      9  CG  LYS A 135      32.517  36.525  10.874  1.00 29.45     0.005 C 
BRANCH   9  10
ATOM     10  CD  LYS A 135      31.337  37.401  11.264  1.00 32.00     0.041 C 
BRANCH  10  11
ATOM     11  CE  LYS A 135      31.724  38.867  11.215  1.00 34.25     0.338 C 
ATOM     12  NZ  LYS A 135      30.545  39.741  11.468  1.00 35.99     0.618 N 
ENDBRANCH  10  11
ENDBRANCH   9  10
ENDBRANCH   8   9
ENDBRANCH   7   8
END_RES LYS A 135
