REMARK VINA RESULT:    -4.128      3.750      8.442
REMARK INTER + INTRA:         -22.235
REMARK INTER:                 -12.792
REMARK INTRA:                  -9.443
REMARK UNBOUND:               -11.833
REMARK SMILES CC(=O)N[C@@H]1[C@@H](O)C[C@](OC[C@H]2O[C@@H](O[C@H]3[C@H](O)[C@@H](O)[C@H](OCCN=[N+]=[N-])O[C@@H]3CO)[C@H](O)[C@@H](O)[C@H]2O)(C(=O)O)O[C@H]1C(O)[C@H](O)CNC(=O)OCc1cn(-c2ccccc2C(N)=O)nn1
REMARK SMILES IDX 9 1 8 2 6 3 5 4 42 5 41 6 10 7 11 8 12 9 14 10 13 11 32 12
REMARK SMILES IDX 34 13 36 14 15 15 16 16 29 17 28 18 21 19 17 20 19 21 30 22
REMARK SMILES IDX 31 23 22 25 23 26 24 27 25 28 26 29 27 30 18 31 20 33 33 35
REMARK SMILES IDX 35 37 37 39 38 41 39 42 40 43 7 45 43 47 44 48 45 50 46 51
REMARK SMILES IDX 47 53 48 54 49 55 50 57 51 58 52 59 53 60 54 61 66 62 55 63
REMARK SMILES IDX 65 64 56 65 61 66 57 67 60 68 58 69 59 70 62 71 64 72 63 73
REMARK SMILES IDX 4 76 2 77 1 79 3 80
REMARK H PARENT 31 24 18 32 20 34 33 36 35 38 37 40 40 44 7 46 44 49 46 52
REMARK H PARENT 48 56 63 74 63 75 4 78
REMARK Flexibility Score: inf
ROOT
ATOM      1  C   UNL     1      27.409  40.507   6.083  1.00  0.00     0.272 C 
ATOM      2  C   UNL     1      26.540  41.679   5.547  1.00  0.00     0.113 C 
ATOM      3  C   UNL     1      25.858  42.251   6.758  1.00  0.00     0.145 C 
ATOM      4  C   UNL     1      24.824  41.312   7.236  1.00  0.00     0.142 C 
ATOM      5  C   UNL     1      25.352  39.896   6.943  1.00  0.00     0.178 C 
ATOM      6  O   UNL     1      26.725  39.853   7.094  1.00  0.00    -0.332 OA
ENDROOT
BRANCH   1   7
ATOM      7  O   UNL     1      28.529  41.138   6.591  1.00  0.00    -0.338 OA
BRANCH   7   8
ATOM      8  C   UNL     1      29.452  41.509   5.659  1.00  0.00     0.199 C 
BRANCH   8   9
ATOM      9  C   UNL     1      30.880  41.346   6.147  1.00  0.00     0.179 C 
ATOM     10  C   UNL     1      32.030  41.226   8.171  1.00  0.00     0.282 C 
ATOM     11  O   UNL     1      30.798  41.273   7.536  1.00  0.00    -0.341 OA
ATOM     12  C   UNL     1      33.209  41.102   7.279  1.00  0.00     0.202 C 
ATOM     13  C   UNL     1      33.025  40.232   6.071  1.00  0.00     0.179 C 
ATOM     14  C   UNL     1      31.550  40.101   5.664  1.00  0.00     0.177 C 
BRANCH  10  15
ATOM     15  O   UNL     1      31.987  40.166   9.058  1.00  0.00    -0.341 OA
BRANCH  15  16
ATOM     16  C   UNL     1      30.946  40.251   9.967  1.00  0.00     0.184 C 
ATOM     17  C   UNL     1      31.536  40.242  11.360  1.00  0.00     0.178 C 
ATOM     18  O   UNL     1      31.530  39.015  11.928  1.00  0.00    -0.341 OA
ATOM     19  C   UNL     1      30.303  38.514  12.167  1.00  0.00     0.281 C 
ATOM     20  C   UNL     1      30.099  38.999   9.768  1.00  0.00     0.180 C 
ATOM     21  C   UNL     1      29.386  38.613  11.014  1.00  0.00     0.202 C 
BRANCH  17  22
ATOM     22  C   UNL     1      30.817  41.238  12.228  1.00  0.00     0.191 C 
BRANCH  22  23
ATOM     23  O   UNL     1      30.697  42.481  11.598  1.00  0.00    -0.394 OA
ATOM     24  H   UNL     1      29.753  42.781  11.767  1.00  0.00     0.210 HD
ENDBRANCH  22  23
ENDBRANCH  17  22
BRANCH  19  25
ATOM     25  O   UNL     1      29.728  38.962  13.366  1.00  0.00    -0.350 OA
BRANCH  25  26
ATOM     26  C   UNL     1      29.320  37.953  14.201  1.00  0.00     0.169 C 
BRANCH  26  27
ATOM     27  C   UNL     1      30.389  37.634  15.191  1.00  0.00     0.119 C 
BRANCH  27  28
ATOM     28  N   UNL     1      31.088  36.442  14.780  1.00  0.00    -0.092 NA
ATOM     29  N   UNL     1      30.518  35.491  14.231  1.00  0.00     0.001 N 
ATOM     30  N   UNL     1      29.794  34.775  13.535  1.00  0.00    -0.003 NA
ENDBRANCH  27  28
ENDBRANCH  26  27
ENDBRANCH  25  26
ENDBRANCH  19  25
BRANCH  20  31
ATOM     31  O   UNL     1      29.167  39.211   8.756  1.00  0.00    -0.387 OA
ATOM     32  H   UNL     1      28.906  40.184   8.719  1.00  0.00     0.211 HD
ENDBRANCH  20  31
BRANCH  21  33
ATOM     33  O   UNL     1      28.798  37.344  10.790  1.00  0.00    -0.385 OA
ATOM     34  H   UNL     1      29.524  36.657  10.833  1.00  0.00     0.211 HD
ENDBRANCH  21  33
ENDBRANCH  15  16
ENDBRANCH  10  15
BRANCH  12  35
ATOM     35  O   UNL     1      33.751  42.357   6.928  1.00  0.00    -0.385 OA
ATOM     36  H   UNL     1      33.032  42.859   6.487  1.00  0.00     0.211 HD
ENDBRANCH  12  35
BRANCH  13  37
ATOM     37  O   UNL     1      33.488  38.939   6.318  1.00  0.00    -0.387 OA
ATOM     38  H   UNL     1      34.301  38.727   5.765  1.00  0.00     0.211 HD
ENDBRANCH  13  37
BRANCH  14  39
ATOM     39  O   UNL     1      30.992  39.009   6.353  1.00  0.00    -0.387 OA
ATOM     40  H   UNL     1      30.097  38.775   6.062  1.00  0.00     0.211 HD
ENDBRANCH  14  39
ENDBRANCH   8   9
ENDBRANCH   7   8
ENDBRANCH   1   7
BRANCH   1  41
ATOM     41  C   UNL     1      27.696  39.578   4.987  1.00  0.00     0.364 C 
ATOM     42  O   UNL     1      27.356  39.863   3.787  1.00  0.00    -0.246 OA
BRANCH  41  43
ATOM     43  O   UNL     1      28.346  38.367   5.242  1.00  0.00    -0.477 OA
ATOM     44  H   UNL     1      27.976  37.812   6.010  1.00  0.00     0.296 HD
ENDBRANCH  41  43
ENDBRANCH   1  41
BRANCH   3  45
ATOM     45  O   UNL     1      26.849  42.308   7.771  1.00  0.00    -0.391 OA
ATOM     46  H   UNL     1      27.117  43.254   7.901  1.00  0.00     0.211 HD
ENDBRANCH   3  45
BRANCH   5  47
ATOM     47  C   UNL     1      24.592  38.879   7.746  1.00  0.00     0.176 C 
BRANCH  47  48
ATOM     48  O   UNL     1      23.573  38.388   6.906  1.00  0.00    -0.388 OA
ATOM     49  H   UNL     1      22.902  37.889   7.448  1.00  0.00     0.211 HD
ENDBRANCH  47  48
BRANCH  47  50
ATOM     50  C   UNL     1      25.463  37.657   8.055  1.00  0.00     0.165 C 
BRANCH  50  51
ATOM     51  O   UNL     1      25.879  37.088   6.841  1.00  0.00    -0.388 OA
ATOM     52  H   UNL     1      25.120  37.213   6.212  1.00  0.00     0.211 HD
ENDBRANCH  50  51
BRANCH  50  53
ATOM     53  C   UNL     1      24.733  36.628   8.848  1.00  0.00     0.154 C 
BRANCH  53  54
ATOM     54  N   UNL     1      25.432  36.303  10.062  1.00  0.00    -0.319 N 
ATOM     55  C   UNL     1      26.351  35.233  10.187  1.00  0.00     0.407 C 
ATOM     56  H   UNL     1      25.237  36.910  10.910  1.00  0.00     0.167 HD
ATOM     57  O   UNL     1      26.686  34.459   9.289  1.00  0.00    -0.225 OA
BRANCH  55  58
ATOM     58  O   UNL     1      26.963  34.999  11.442  1.00  0.00    -0.443 OA
BRANCH  58  59
ATOM     59  C   UNL     1      26.267  35.350  12.640  1.00  0.00     0.294 C 
BRANCH  59  60
ATOM     60  C   UNL     1      25.481  34.208  13.144  1.00  0.00     0.121 A 
ATOM     61  C   UNL     1      24.818  33.241  12.428  1.00  0.00     0.144 A 
ATOM     62  N   UNL     1      25.263  33.902  14.435  1.00  0.00    -0.131 NA
ATOM     63  N   UNL     1      24.219  32.380  13.280  1.00  0.00    -0.220 N 
ATOM     64  N   UNL     1      24.516  32.820  14.506  1.00  0.00    -0.062 NA
BRANCH  63  65
ATOM     65  C   UNL     1      23.429  31.241  12.989  1.00  0.00     0.079 A 
ATOM     66  C   UNL     1      22.073  31.398  12.853  1.00  0.00     0.065 A 
ATOM     67  C   UNL     1      23.996  29.991  12.845  1.00  0.00     0.029 A 
ATOM     68  C   UNL     1      21.248  30.314  12.570  1.00  0.00     0.016 A 
ATOM     69  C   UNL     1      23.185  28.890  12.561  1.00  0.00     0.002 A 
ATOM     70  C   UNL     1      21.826  29.069  12.428  1.00  0.00     0.001 A 
BRANCH  66  71
ATOM     71  C   UNL     1      21.485  32.712  13.007  1.00  0.00     0.250 C 
ATOM     72  O   UNL     1      21.193  33.369  11.975  1.00  0.00    -0.269 OA
ATOM     73  N   UNL     1      21.215  33.313  14.253  1.00  0.00    -0.366 N 
ATOM     74  H   UNL     1      20.250  33.589  14.492  1.00  0.00     0.159 HD
ATOM     75  H   UNL     1      21.983  33.475  14.921  1.00  0.00     0.159 HD
ENDBRANCH  66  71
ENDBRANCH  63  65
ENDBRANCH  59  60
ENDBRANCH  58  59
ENDBRANCH  55  58
ENDBRANCH  53  54
ENDBRANCH  50  53
ENDBRANCH  47  50
ENDBRANCH   5  47
BRANCH   4  76
ATOM     76  N   UNL     1      23.537  41.412   6.667  1.00  0.00    -0.348 N 
ATOM     77  C   UNL     1      22.398  41.842   7.394  1.00  0.00     0.217 C 
ATOM     78  H   UNL     1      23.409  41.160   5.659  1.00  0.00     0.163 HD
ATOM     79  C   UNL     1      21.035  41.960   6.833  1.00  0.00     0.114 C 
ATOM     80  O   UNL     1      22.629  42.134   8.612  1.00  0.00    -0.275 OA
ENDBRANCH   4  76
TORSDOF 31
BEGIN_RES LYS A 131
REMARK  4 active torsions:
REMARK  status: ('A' for Active; 'I' for Inactive)
REMARK    1  A    between atoms: CA   and  CB  
REMARK    2  A    between atoms: CB   and  CG  
REMARK    3  A    between atoms: CG   and  CD  
REMARK    4  A    between atoms: CD   and  CE  
ROOT
ATOM      1  CA  LYS A 131      29.867  25.555  16.977  1.00 20.52     0.186 C 
ENDROOT
BRANCH   1   2
ATOM      2  CB  LYS A 131      28.345  25.722  17.026  1.00 20.94     0.034 C 
BRANCH   2   3
ATOM      3  CG  LYS A 131      27.602  24.400  16.910  1.00 22.96     0.005 C 
BRANCH   3   4
ATOM      4  CD  LYS A 131      26.127  24.556  17.162  1.00 24.33     0.041 C 
BRANCH   4   5
ATOM      5  CE  LYS A 131      25.565  23.250  17.716  1.00 26.91     0.338 C 
ATOM      6  NZ  LYS A 131      25.600  23.258  19.197  1.00 27.40     0.618 N 
ENDBRANCH   4   5
ENDBRANCH   3   4
ENDBRANCH   2   3
ENDBRANCH   1   2
END_RES LYS A 131
BEGIN_RES LYS A 135
REMARK  4 active torsions:
REMARK  status: ('A' for Active; 'I' for Inactive)
REMARK    5  A    between atoms: CA   and  CB  
REMARK    6  A    between atoms: CB   and  CG  
REMARK    7  A    between atoms: CG   and  CD  
REMARK    8  A    between atoms: CD   and  CE  
ROOT
ATOM      7  CA  LYS A 135      33.193  34.663   9.290  1.00 25.02     0.186 C 
ENDROOT
BRANCH   7   8
ATOM      8  CB  LYS A 135      32.060  35.360  10.034  1.00 26.63     0.034 C 
BRANCH   8   9
ATOM      9  CG  LYS A 135      30.723  34.687   9.862  1.00 29.45     0.005 C 
BRANCH   9  10
ATOM     10  CD  LYS A 135      30.388  34.527   8.387  1.00 32.00     0.041 C 
BRANCH  10  11
ATOM     11  CE  LYS A 135      29.633  35.740   7.878  1.00 34.25     0.338 C 
ATOM     12  NZ  LYS A 135      28.801  35.394   6.692  1.00 35.99     0.618 N 
ENDBRANCH  10  11
ENDBRANCH   9  10
ENDBRANCH   8   9
ENDBRANCH   7   8
END_RES LYS A 135
