REMARK VINA RESULT:    -5.031      2.863      6.792
REMARK INTER + INTRA:         -21.812
REMARK INTER:                 -12.121
REMARK INTRA:                  -9.691
REMARK UNBOUND:                -9.428
REMARK SMILES CC(=O)N[C@@H]1[C@@H](O)C[C@](OC[C@H]2O[C@@H](O[C@H]3[C@H](O)[C@@H](O)[C@H](OCCN=[N+]=[N-])O[C@@H]3CO)[C@H](O)[C@@H](O)[C@H]2O)(C(=O)O)O[C@H]1C(O)[C@H](O)CNC(=O)OCc1cn(-c2ccc(C)cc2)nn1
REMARK SMILES IDX 9 1 8 2 6 3 5 4 42 5 41 6 10 7 11 8 12 9 14 10 13 11 32 12
REMARK SMILES IDX 34 13 36 14 15 15 16 16 29 17 28 18 21 19 17 20 19 21 30 22
REMARK SMILES IDX 31 23 22 25 23 26 24 27 25 28 26 29 27 30 18 31 20 33 33 35
REMARK SMILES IDX 35 37 37 39 38 41 39 42 40 43 7 45 43 47 44 48 45 50 46 51
REMARK SMILES IDX 47 53 48 54 49 55 50 57 51 58 52 59 53 60 54 61 64 62 55 63
REMARK SMILES IDX 63 64 56 65 57 66 62 67 58 68 61 69 59 70 60 71 4 72 2 73
REMARK SMILES IDX 1 75 3 76
REMARK H PARENT 31 24 18 32 20 34 33 36 35 38 37 40 40 44 7 46 44 49 46 52
REMARK H PARENT 48 56 4 74
REMARK Flexibility Score: inf
ROOT
ATOM      1  C   UNL     1      23.583  37.448   8.512  1.00  0.00     0.272 C 
ATOM      2  C   UNL     1      23.595  38.199   9.839  1.00  0.00     0.113 C 
ATOM      3  C   UNL     1      23.303  37.305  10.983  1.00  0.00     0.145 C 
ATOM      4  C   UNL     1      23.776  35.902  10.840  1.00  0.00     0.142 C 
ATOM      5  C   UNL     1      24.633  35.607   9.614  1.00  0.00     0.178 C 
ATOM      6  O   UNL     1      24.207  36.294   8.528  1.00  0.00    -0.332 OA
ENDROOT
BRANCH   1   7
ATOM      7  O   UNL     1      24.304  38.313   7.631  1.00  0.00    -0.338 OA
BRANCH   7   8
ATOM      8  C   UNL     1      24.483  39.539   8.276  1.00  0.00     0.199 C 
BRANCH   8   9
ATOM      9  C   UNL     1      25.790  40.161   7.963  1.00  0.00     0.179 C 
ATOM     10  C   UNL     1      28.063  39.915   8.132  1.00  0.00     0.282 C 
ATOM     11  O   UNL     1      26.835  39.265   8.200  1.00  0.00    -0.341 OA
ATOM     12  C   UNL     1      28.364  40.300   6.733  1.00  0.00     0.202 C 
ATOM     13  C   UNL     1      27.129  40.204   5.881  1.00  0.00     0.179 C 
ATOM     14  C   UNL     1      25.883  40.720   6.569  1.00  0.00     0.177 C 
BRANCH  10  15
ATOM     15  O   UNL     1      29.059  39.064   8.604  1.00  0.00    -0.341 OA
BRANCH  15  16
ATOM     16  C   UNL     1      30.236  39.760   8.883  1.00  0.00     0.184 C 
ATOM     17  C   UNL     1      31.495  38.999   8.578  1.00  0.00     0.178 C 
ATOM     18  O   UNL     1      32.227  38.780   9.751  1.00  0.00    -0.341 OA
ATOM     19  C   UNL     1      31.498  37.960  10.593  1.00  0.00     0.281 C 
ATOM     20  C   UNL     1      30.208  40.031  10.372  1.00  0.00     0.180 C 
ATOM     21  C   UNL     1      30.224  38.649  11.041  1.00  0.00     0.202 C 
BRANCH  17  22
ATOM     22  C   UNL     1      32.430  39.850   7.702  1.00  0.00     0.191 C 
BRANCH  22  23
ATOM     23  O   UNL     1      31.792  41.021   7.303  1.00  0.00    -0.394 OA
ATOM     24  H   UNL     1      31.037  40.746   6.701  1.00  0.00     0.210 HD
ENDBRANCH  22  23
ENDBRANCH  17  22
BRANCH  19  25
ATOM     25  O   UNL     1      32.226  37.545  11.698  1.00  0.00    -0.350 OA
BRANCH  25  26
ATOM     26  C   UNL     1      31.483  36.855  12.623  1.00  0.00     0.169 C 
BRANCH  26  27
ATOM     27  C   UNL     1      31.823  37.139  14.058  1.00  0.00     0.119 C 
BRANCH  27  28
ATOM     28  N   UNL     1      30.672  37.017  14.919  1.00  0.00    -0.092 NA
ATOM     29  N   UNL     1      29.586  37.428  14.551  1.00  0.00     0.001 N 
ATOM     30  N   UNL     1      28.465  37.755  14.158  1.00  0.00    -0.003 NA
ENDBRANCH  27  28
ENDBRANCH  26  27
ENDBRANCH  25  26
ENDBRANCH  19  25
BRANCH  20  31
ATOM     31  O   UNL     1      31.293  40.778  10.807  1.00  0.00    -0.387 OA
ATOM     32  H   UNL     1      31.737  41.140  10.001  1.00  0.00     0.211 HD
ENDBRANCH  20  31
BRANCH  21  33
ATOM     33  O   UNL     1      29.153  37.951  10.447  1.00  0.00    -0.385 OA
ATOM     34  H   UNL     1      29.457  37.231   9.849  1.00  0.00     0.211 HD
ENDBRANCH  21  33
ENDBRANCH  15  16
ENDBRANCH  10  15
BRANCH  12  35
ATOM     35  O   UNL     1      28.926  41.588   6.647  1.00  0.00    -0.385 OA
ATOM     36  H   UNL     1      29.163  41.689   5.668  1.00  0.00     0.211 HD
ENDBRANCH  12  35
BRANCH  13  37
ATOM     37  O   UNL     1      27.013  38.927   5.389  1.00  0.00    -0.387 OA
ATOM     38  H   UNL     1      26.794  38.234   6.090  1.00  0.00     0.211 HD
ENDBRANCH  13  37
BRANCH  14  39
ATOM     39  O   UNL     1      24.773  40.298   5.862  1.00  0.00    -0.387 OA
ATOM     40  H   UNL     1      24.611  39.333   5.884  1.00  0.00     0.211 HD
ENDBRANCH  14  39
ENDBRANCH   8   9
ENDBRANCH   7   8
ENDBRANCH   1   7
BRANCH   1  41
ATOM     41  C   UNL     1      22.163  37.394   8.112  1.00  0.00     0.364 C 
ATOM     42  O   UNL     1      21.267  38.091   8.640  1.00  0.00    -0.246 OA
BRANCH  41  43
ATOM     43  O   UNL     1      21.813  36.509   7.075  1.00  0.00    -0.477 OA
ATOM     44  H   UNL     1      21.080  36.790   6.422  1.00  0.00     0.296 HD
ENDBRANCH  41  43
ENDBRANCH   1  41
BRANCH   3  45
ATOM     45  O   UNL     1      23.717  37.898  12.198  1.00  0.00    -0.391 OA
ATOM     46  H   UNL     1      22.929  37.785  12.820  1.00  0.00     0.211 HD
ENDBRANCH   3  45
BRANCH   5  47
ATOM     47  C   UNL     1      26.086  35.861   9.963  1.00  0.00     0.176 C 
BRANCH  47  48
ATOM     48  O   UNL     1      26.698  36.822   9.173  1.00  0.00    -0.388 OA
ATOM     49  H   UNL     1      26.257  36.763   8.285  1.00  0.00     0.211 HD
ENDBRANCH  47  48
BRANCH  47  50
ATOM     50  C   UNL     1      26.505  35.912  11.355  1.00  0.00     0.165 C 
BRANCH  50  51
ATOM     51  O   UNL     1      26.634  37.198  11.920  1.00  0.00    -0.388 OA
ATOM     52  H   UNL     1      27.319  37.719  11.424  1.00  0.00     0.211 HD
ENDBRANCH  50  51
BRANCH  50  53
ATOM     53  C   UNL     1      27.637  35.092  11.867  1.00  0.00     0.154 C 
BRANCH  53  54
ATOM     54  N   UNL     1      27.505  34.677  13.239  1.00  0.00    -0.319 N 
ATOM     55  C   UNL     1      28.615  34.142  13.958  1.00  0.00     0.407 C 
ATOM     56  H   UNL     1      26.586  34.763  13.730  1.00  0.00     0.167 HD
ATOM     57  O   UNL     1      29.725  34.051  13.379  1.00  0.00    -0.225 OA
BRANCH  55  58
ATOM     58  O   UNL     1      28.452  33.732  15.263  1.00  0.00    -0.443 OA
BRANCH  58  59
ATOM     59  C   UNL     1      27.273  33.877  15.977  1.00  0.00     0.294 C 
BRANCH  59  60
ATOM     60  C   UNL     1      26.448  32.669  15.909  1.00  0.00     0.121 A 
ATOM     61  C   UNL     1      25.456  32.392  14.950  1.00  0.00     0.144 A 
ATOM     62  N   UNL     1      26.449  31.610  16.706  1.00  0.00    -0.131 NA
ATOM     63  N   UNL     1      24.930  31.200  15.227  1.00  0.00    -0.220 N 
ATOM     64  N   UNL     1      25.545  30.742  16.296  1.00  0.00    -0.062 NA
BRANCH  63  65
ATOM     65  C   UNL     1      23.878  30.587  14.459  1.00  0.00     0.066 A 
ATOM     66  C   UNL     1      22.616  30.461  14.997  1.00  0.00     0.029 A 
ATOM     67  C   UNL     1      24.082  30.126  13.175  1.00  0.00     0.029 A 
ATOM     68  C   UNL     1      21.584  29.882  14.254  1.00  0.00     0.005 A 
ATOM     69  C   UNL     1      23.049  29.546  12.430  1.00  0.00     0.005 A 
ATOM     70  C   UNL     1      21.791  29.423  12.972  1.00  0.00    -0.051 A 
ATOM     71  C   UNL     1      20.682  28.813  12.171  1.00  0.00     0.044 C 
ENDBRANCH  63  65
ENDBRANCH  59  60
ENDBRANCH  58  59
ENDBRANCH  55  58
ENDBRANCH  53  54
ENDBRANCH  50  53
ENDBRANCH  47  50
ENDBRANCH   5  47
BRANCH   4  72
ATOM     72  N   UNL     1      22.715  34.930  11.020  1.00  0.00    -0.348 N 
ATOM     73  C   UNL     1      22.585  34.105  12.179  1.00  0.00     0.217 C 
ATOM     74  H   UNL     1      21.992  34.788  10.287  1.00  0.00     0.163 HD
ATOM     75  C   UNL     1      21.476  33.109  12.309  1.00  0.00     0.114 C 
ATOM     76  O   UNL     1      23.459  34.278  13.064  1.00  0.00    -0.275 OA
ENDBRANCH   4  72
TORSDOF 30
BEGIN_RES LYS A 131
REMARK  4 active torsions:
REMARK  status: ('A' for Active; 'I' for Inactive)
REMARK    1  A    between atoms: CA   and  CB  
REMARK    2  A    between atoms: CB   and  CG  
REMARK    3  A    between atoms: CG   and  CD  
REMARK    4  A    between atoms: CD   and  CE  
ROOT
ATOM      1  CA  LYS A 131      29.867  25.555  16.977  1.00 20.52     0.186 C 
ENDROOT
BRANCH   1   2
ATOM      2  CB  LYS A 131      28.345  25.722  17.026  1.00 20.94     0.034 C 
BRANCH   2   3
ATOM      3  CG  LYS A 131      27.599  24.428  16.740  1.00 22.96     0.005 C 
BRANCH   3   4
ATOM      4  CD  LYS A 131      26.979  23.845  17.979  1.00 24.33     0.041 C 
BRANCH   4   5
ATOM      5  CE  LYS A 131      25.574  24.410  18.160  1.00 26.91     0.338 C 
ATOM      6  NZ  LYS A 131      24.845  24.411  16.870  1.00 27.40     0.618 N 
ENDBRANCH   4   5
ENDBRANCH   3   4
ENDBRANCH   2   3
ENDBRANCH   1   2
END_RES LYS A 131
BEGIN_RES LYS A 135
REMARK  4 active torsions:
REMARK  status: ('A' for Active; 'I' for Inactive)
REMARK    5  A    between atoms: CA   and  CB  
REMARK    6  A    between atoms: CB   and  CG  
REMARK    7  A    between atoms: CG   and  CD  
REMARK    8  A    between atoms: CD   and  CE  
ROOT
ATOM      7  CA  LYS A 135      33.193  34.663   9.290  1.00 25.02     0.186 C 
ENDROOT
BRANCH   7   8
ATOM      8  CB  LYS A 135      32.060  35.360  10.034  1.00 26.63     0.034 C 
BRANCH   8   9
ATOM      9  CG  LYS A 135      30.716  34.709   9.831  1.00 29.45     0.005 C 
BRANCH   9  10
ATOM     10  CD  LYS A 135      30.420  34.538   8.349  1.00 32.00     0.041 C 
BRANCH  10  11
ATOM     11  CE  LYS A 135      29.683  35.749   7.810  1.00 34.25     0.338 C 
ATOM     12  NZ  LYS A 135      28.594  35.343   6.880  1.00 35.99     0.618 N 
ENDBRANCH  10  11
ENDBRANCH   9  10
ENDBRANCH   8   9
ENDBRANCH   7   8
END_RES LYS A 135
