REMARK VINA RESULT:    -5.114      3.206      9.147
REMARK INTER + INTRA:         -21.248
REMARK INTER:                 -13.036
REMARK INTRA:                  -8.212
REMARK UNBOUND:                -8.212
REMARK SMILES CC(=O)N[C@@H]1[C@@H](O)C[C@](OC[C@H]2O[C@@H](O[C@H]3[C@H](O)[C@@H](O)[C@H](OCCN=[N+]=[N-])O[C@@H]3CO)[C@H](O)[C@@H](O)[C@H]2O)(C(=O)O)O[C@H]1C(O)[C@H](O)CNC(=O)OCc1cn(-c2ccc(CO)cn2)nn1
REMARK SMILES IDX 9 1 8 2 6 3 5 4 42 5 41 6 10 7 11 8 12 9 14 10 13 11 32 12
REMARK SMILES IDX 34 13 36 14 15 15 16 16 29 17 28 18 21 19 17 20 19 21 30 22
REMARK SMILES IDX 31 23 22 25 23 26 24 27 25 28 26 29 27 30 18 31 20 33 33 35
REMARK SMILES IDX 35 37 37 39 38 41 39 42 40 43 7 45 43 47 44 48 45 50 46 51
REMARK SMILES IDX 47 53 48 54 49 55 50 57 51 58 52 59 53 60 54 61 65 62 55 63
REMARK SMILES IDX 64 64 56 65 57 66 63 67 58 68 62 69 59 70 60 71 61 72 4 74
REMARK SMILES IDX 2 75 1 77 3 78
REMARK H PARENT 31 24 18 32 20 34 33 36 35 38 37 40 40 44 7 46 44 49 46 52
REMARK H PARENT 48 56 61 73 4 76
REMARK Flexibility Score: inf
ROOT
ATOM      1  C   UNL     1      29.246  34.976  13.857  1.00  0.00     0.272 C 
ATOM      2  C   UNL     1      30.153  35.605  12.867  1.00  0.00     0.113 C 
ATOM      3  C   UNL     1      31.517  35.885  13.433  1.00  0.00     0.145 C 
ATOM      4  C   UNL     1      32.040  34.660  14.157  1.00  0.00     0.142 C 
ATOM      5  C   UNL     1      31.038  34.154  15.111  1.00  0.00     0.178 C 
ATOM      6  O   UNL     1      29.816  33.952  14.570  1.00  0.00    -0.332 OA
ENDROOT
BRANCH   1   7
ATOM      7  O   UNL     1      28.074  34.484  13.309  1.00  0.00    -0.338 OA
BRANCH   7   8
ATOM      8  C   UNL     1      27.731  35.093  12.120  1.00  0.00     0.199 C 
BRANCH   8   9
ATOM      9  C   UNL     1      26.297  35.525  12.170  1.00  0.00     0.179 C 
ATOM     10  C   UNL     1      24.616  36.314  10.880  1.00  0.00     0.282 C 
ATOM     11  O   UNL     1      25.654  35.348  10.929  1.00  0.00    -0.341 OA
ATOM     12  C   UNL     1      23.799  36.243  12.103  1.00  0.00     0.202 C 
ATOM     13  C   UNL     1      24.011  35.014  12.971  1.00  0.00     0.179 C 
ATOM     14  C   UNL     1      25.501  34.754  13.171  1.00  0.00     0.177 C 
BRANCH  10  15
ATOM     15  O   UNL     1      23.908  36.167   9.682  1.00  0.00    -0.341 OA
BRANCH  15  16
ATOM     16  C   UNL     1      23.653  37.371   9.063  1.00  0.00     0.184 C 
ATOM     17  C   UNL     1      22.640  38.245   9.733  1.00  0.00     0.178 C 
ATOM     18  O   UNL     1      21.459  38.386   9.009  1.00  0.00    -0.341 OA
ATOM     19  C   UNL     1      20.850  37.191   8.722  1.00  0.00     0.281 C 
ATOM     20  C   UNL     1      23.090  37.023   7.673  1.00  0.00     0.180 C 
ATOM     21  C   UNL     1      21.802  36.243   7.977  1.00  0.00     0.202 C 
BRANCH  17  22
ATOM     22  C   UNL     1      23.239  39.663   9.784  1.00  0.00     0.191 C 
BRANCH  22  23
ATOM     23  O   UNL     1      24.034  39.798  10.932  1.00  0.00    -0.394 OA
ATOM     24  H   UNL     1      24.976  39.505  10.743  1.00  0.00     0.210 HD
ENDBRANCH  22  23
ENDBRANCH  17  22
BRANCH  19  25
ATOM     25  O   UNL     1      19.746  37.443   7.913  1.00  0.00    -0.350 OA
BRANCH  25  26
ATOM     26  C   UNL     1      18.549  37.187   8.530  1.00  0.00     0.169 C 
BRANCH  26  27
ATOM     27  C   UNL     1      18.151  35.752   8.210  1.00  0.00     0.119 C 
BRANCH  27  28
ATOM     28  N   UNL     1      18.057  34.969   9.434  1.00  0.00    -0.092 NA
ATOM     29  N   UNL     1      19.023  34.516  10.025  1.00  0.00     0.001 N 
ATOM     30  N   UNL     1      19.908  34.369  10.867  1.00  0.00    -0.003 NA
ENDBRANCH  27  28
ENDBRANCH  26  27
ENDBRANCH  25  26
ENDBRANCH  19  25
BRANCH  20  31
ATOM     31  O   UNL     1      22.882  38.124   6.889  1.00  0.00    -0.387 OA
ATOM     32  H   UNL     1      22.225  37.921   6.207  1.00  0.00     0.211 HD
ENDBRANCH  20  31
BRANCH  21  33
ATOM     33  O   UNL     1      22.175  35.192   8.811  1.00  0.00    -0.385 OA
ATOM     34  H   UNL     1      22.992  35.474   9.295  1.00  0.00     0.211 HD
ENDBRANCH  21  33
ENDBRANCH  15  16
ENDBRANCH  10  15
BRANCH  12  35
ATOM     35  O   UNL     1      24.065  37.382  12.899  1.00  0.00    -0.385 OA
ATOM     36  H   UNL     1      24.956  37.322  13.331  1.00  0.00     0.211 HD
ENDBRANCH  12  35
BRANCH  13  37
ATOM     37  O   UNL     1      23.332  33.909  12.488  1.00  0.00    -0.387 OA
ATOM     38  H   UNL     1      23.605  33.630  11.600  1.00  0.00     0.211 HD
ENDBRANCH  13  37
BRANCH  14  39
ATOM     39  O   UNL     1      25.702  33.396  13.054  1.00  0.00    -0.387 OA
ATOM     40  H   UNL     1      25.426  33.100  12.165  1.00  0.00     0.211 HD
ENDBRANCH  14  39
ENDBRANCH   8   9
ENDBRANCH   7   8
ENDBRANCH   1   7
BRANCH   1  41
ATOM     41  C   UNL     1      28.795  35.973  14.904  1.00  0.00     0.364 C 
ATOM     42  O   UNL     1      28.921  37.213  14.765  1.00  0.00    -0.246 OA
BRANCH  41  43
ATOM     43  O   UNL     1      28.215  35.538  16.079  1.00  0.00    -0.477 OA
ATOM     44  H   UNL     1      28.205  36.156  16.900  1.00  0.00     0.296 HD
ENDBRANCH  41  43
ENDBRANCH   1  41
BRANCH   3  45
ATOM     45  O   UNL     1      32.372  36.071  12.329  1.00  0.00    -0.391 OA
ATOM     46  H   UNL     1      32.017  35.709  11.498  1.00  0.00     0.211 HD
ENDBRANCH   3  45
BRANCH   5  47
ATOM     47  C   UNL     1      31.491  32.921  15.871  1.00  0.00     0.176 C 
BRANCH  47  48
ATOM     48  O   UNL     1      31.475  31.817  15.020  1.00  0.00    -0.388 OA
ATOM     49  H   UNL     1      32.222  31.861  14.379  1.00  0.00     0.211 HD
ENDBRANCH  47  48
BRANCH  47  50
ATOM     50  C   UNL     1      30.703  32.589  17.080  1.00  0.00     0.165 C 
BRANCH  50  51
ATOM     51  O   UNL     1      31.151  33.258  18.228  1.00  0.00    -0.388 OA
ATOM     52  H   UNL     1      31.052  34.221  18.180  1.00  0.00     0.211 HD
ENDBRANCH  50  51
BRANCH  50  53
ATOM     53  C   UNL     1      30.498  31.128  17.359  1.00  0.00     0.154 C 
BRANCH  53  54
ATOM     54  N   UNL     1      29.242  30.672  16.827  1.00  0.00    -0.319 N 
ATOM     55  C   UNL     1      28.109  30.570  17.669  1.00  0.00     0.407 C 
ATOM     56  H   UNL     1      29.165  30.409  15.790  1.00  0.00     0.167 HD
ATOM     57  O   UNL     1      28.137  30.864  18.885  1.00  0.00    -0.225 OA
BRANCH  55  58
ATOM     58  O   UNL     1      26.879  30.127  17.172  1.00  0.00    -0.443 OA
BRANCH  58  59
ATOM     59  C   UNL     1      26.665  30.110  15.790  1.00  0.00     0.294 C 
BRANCH  59  60
ATOM     60  C   UNL     1      25.413  30.698  15.330  1.00  0.00     0.121 A 
ATOM     61  C   UNL     1      24.446  30.090  14.568  1.00  0.00     0.146 A 
ATOM     62  N   UNL     1      24.970  31.945  15.562  1.00  0.00    -0.131 NA
ATOM     63  N   UNL     1      23.451  30.974  14.356  1.00  0.00    -0.202 N 
ATOM     64  N   UNL     1      23.808  32.085  14.975  1.00  0.00    -0.061 NA
BRANCH  63  65
ATOM     65  C   UNL     1      22.278  30.707  13.604  1.00  0.00     0.155 A 
ATOM     66  C   UNL     1      22.121  29.525  12.888  1.00  0.00     0.049 A 
ATOM     67  N   UNL     1      21.271  31.595  13.548  1.00  0.00    -0.237 NA
ATOM     68  C   UNL     1      20.969  29.285  12.151  1.00  0.00     0.011 A 
ATOM     69  C   UNL     1      20.139  31.382  12.836  1.00  0.00     0.119 A 
ATOM     70  C   UNL     1      19.954  30.215  12.112  1.00  0.00    -0.004 A 
BRANCH  70  71
ATOM     71  C   UNL     1      18.724  29.953  11.318  1.00  0.00     0.193 C 
BRANCH  71  72
ATOM     72  O   UNL     1      18.468  28.584  11.236  1.00  0.00    -0.392 OA
ATOM     73  H   UNL     1      18.304  28.180  12.113  1.00  0.00     0.211 HD
ENDBRANCH  71  72
ENDBRANCH  70  71
ENDBRANCH  63  65
ENDBRANCH  59  60
ENDBRANCH  58  59
ENDBRANCH  55  58
ENDBRANCH  53  54
ENDBRANCH  50  53
ENDBRANCH  47  50
ENDBRANCH   5  47
BRANCH   4  74
ATOM     74  N   UNL     1      33.311  34.988  14.805  1.00  0.00    -0.348 N 
ATOM     75  C   UNL     1      33.398  35.859  15.889  1.00  0.00     0.217 C 
ATOM     76  H   UNL     1      34.173  34.540  14.435  1.00  0.00     0.163 HD
ATOM     77  C   UNL     1      34.775  36.116  16.458  1.00  0.00     0.114 C 
ATOM     78  O   UNL     1      32.425  36.426  16.406  1.00  0.00    -0.275 OA
ENDBRANCH   4  74
TORSDOF 32
BEGIN_RES LYS A 131
REMARK  4 active torsions:
REMARK  status: ('A' for Active; 'I' for Inactive)
REMARK    1  A    between atoms: CA   and  CB  
REMARK    2  A    between atoms: CB   and  CG  
REMARK    3  A    between atoms: CG   and  CD  
REMARK    4  A    between atoms: CD   and  CE  
ROOT
ATOM      1  CA  LYS A 131      29.867  25.555  16.977  1.00 20.52     0.186 C 
ENDROOT
BRANCH   1   2
ATOM      2  CB  LYS A 131      28.345  25.722  17.026  1.00 20.94     0.034 C 
BRANCH   2   3
ATOM      3  CG  LYS A 131      27.601  24.402  16.893  1.00 22.96     0.005 C 
BRANCH   3   4
ATOM      4  CD  LYS A 131      26.150  24.529  17.267  1.00 24.33     0.041 C 
BRANCH   4   5
ATOM      5  CE  LYS A 131      25.996  24.360  18.775  1.00 26.91     0.338 C 
ATOM      6  NZ  LYS A 131      25.490  25.610  19.389  1.00 27.40     0.618 N 
ENDBRANCH   4   5
ENDBRANCH   3   4
ENDBRANCH   2   3
ENDBRANCH   1   2
END_RES LYS A 131
BEGIN_RES LYS A 135
REMARK  4 active torsions:
REMARK  status: ('A' for Active; 'I' for Inactive)
REMARK    5  A    between atoms: CA   and  CB  
REMARK    6  A    between atoms: CB   and  CG  
REMARK    7  A    between atoms: CG   and  CD  
REMARK    8  A    between atoms: CD   and  CE  
ROOT
ATOM      7  CA  LYS A 135      33.193  34.663   9.290  1.00 25.02     0.186 C 
ENDROOT
BRANCH   7   8
ATOM      8  CB  LYS A 135      32.060  35.360  10.034  1.00 26.63     0.034 C 
BRANCH   8   9
ATOM      9  CG  LYS A 135      30.808  35.522   9.211  1.00 29.45     0.005 C 
BRANCH   9  10
ATOM     10  CD  LYS A 135      30.052  34.205   9.120  1.00 32.00     0.041 C 
BRANCH  10  11
ATOM     11  CE  LYS A 135      28.689  34.416   8.488  1.00 34.25     0.338 C 
ATOM     12  NZ  LYS A 135      28.374  35.866   8.365  1.00 35.99     0.618 N 
ENDBRANCH  10  11
ENDBRANCH   9  10
ENDBRANCH   8   9
ENDBRANCH   7   8
END_RES LYS A 135
