REMARK VINA RESULT:    -4.051      7.681     13.492
REMARK INTER + INTRA:         -22.620
REMARK INTER:                 -11.070
REMARK INTRA:                 -11.550
REMARK UNBOUND:               -11.702
REMARK SMILES CC(=O)N[C@@H]1[C@@H](O)C[C@](OC[C@H]2O[C@@H](O[C@H]3[C@H](O)[C@@H](O)[C@H](OCCN=[N+]=[N-])O[C@@H]3CO)[C@H](O)[C@@H](O)[C@H]2O)(C(=O)O)O[C@H]1C(O)[C@H](O)CNC(=O)OCc1cn([C@@H](CC(=O)O)C(=O)O)nn1
REMARK SMILES IDX 43 1 42 2 9 3 8 4 41 5 6 6 5 7 10 8 11 9 12 10 14 11 13 12
REMARK SMILES IDX 32 13 34 14 36 15 15 16 16 17 29 18 28 19 21 20 17 21 19 22
REMARK SMILES IDX 30 23 31 24 22 26 23 27 24 28 25 29 26 30 27 31 18 32 20 34
REMARK SMILES IDX 33 36 35 38 37 40 38 42 39 43 40 44 7 46 4 48 2 49 1 51 3 52
REMARK SMILES IDX 44 53 45 55 46 56 47 58 48 59 49 60 50 62 51 63 52 64 53 65
REMARK SMILES IDX 54 66 65 67 55 68 64 69 56 70 57 71 58 72 59 73 60 74 61 76
REMARK SMILES IDX 62 77 63 78
REMARK H PARENT 31 25 18 33 20 35 33 37 35 39 37 41 40 45 7 47 4 50 44 54
REMARK H PARENT 46 57 48 61 60 75 63 79
REMARK Flexibility Score: inf
ROOT
ATOM      1  C   UNL     1      32.250  28.055  22.423  1.00  0.00     0.176 C 
ENDROOT
BRANCH   1   2
ATOM      2  C   UNL     1      31.713  29.426  22.795  1.00  0.00     0.178 C 
ATOM      3  C   UNL     1      30.403  31.168  21.912  1.00  0.00     0.272 C 
ATOM      4  C   UNL     1      31.149  31.836  23.075  1.00  0.00     0.113 C 
ATOM      5  O   UNL     1      31.045  29.924  21.719  1.00  0.00    -0.332 OA
ATOM      6  C   UNL     1      32.628  31.654  22.763  1.00  0.00     0.145 C 
ATOM      7  C   UNL     1      32.917  30.227  23.257  1.00  0.00     0.142 C 
BRANCH   3   8
ATOM      8  O   UNL     1      30.426  31.878  20.881  1.00  0.00    -0.338 OA
BRANCH   8   9
ATOM      9  C   UNL     1      30.448  32.574  19.850  1.00  0.00     0.199 C 
BRANCH   9  10
ATOM     10  C   UNL     1      29.314  32.386  18.841  1.00  0.00     0.179 C 
ATOM     11  C   UNL     1      30.282  33.055  16.864  1.00  0.00     0.282 C 
ATOM     12  O   UNL     1      29.307  33.248  17.799  1.00  0.00    -0.341 OA
ATOM     13  C   UNL     1      30.287  31.684  16.310  1.00  0.00     0.202 C 
ATOM     14  C   UNL     1      29.018  31.002  16.849  1.00  0.00     0.179 C 
ATOM     15  C   UNL     1      29.211  30.960  18.353  1.00  0.00     0.177 C 
BRANCH  11  16
ATOM     16  O   UNL     1      31.518  33.612  17.152  1.00  0.00    -0.341 OA
BRANCH  16  17
ATOM     17  C   UNL     1      31.659  34.907  16.709  1.00  0.00     0.184 C 
ATOM     18  C   UNL     1      32.934  35.114  15.975  1.00  0.00     0.178 C 
ATOM     19  O   UNL     1      33.033  36.411  15.485  1.00  0.00    -0.341 OA
ATOM     20  C   UNL     1      32.513  37.384  16.345  1.00  0.00     0.281 C 
ATOM     21  C   UNL     1      31.642  35.783  17.959  1.00  0.00     0.180 C 
ATOM     22  C   UNL     1      32.615  36.905  17.790  1.00  0.00     0.202 C 
BRANCH  18  23
ATOM     23  C   UNL     1      32.906  34.212  14.742  1.00  0.00     0.191 C 
BRANCH  23  24
ATOM     24  O   UNL     1      31.631  34.307  14.147  1.00  0.00    -0.394 OA
ATOM     25  H   UNL     1      31.691  35.112  13.553  1.00  0.00     0.210 HD
ENDBRANCH  23  24
ENDBRANCH  18  23
BRANCH  20  26
ATOM     26  O   UNL     1      31.170  37.525  16.047  1.00  0.00    -0.350 OA
BRANCH  26  27
ATOM     27  C   UNL     1      30.860  37.963  14.797  1.00  0.00     0.169 C 
BRANCH  27  28
ATOM     28  C   UNL     1      29.376  37.991  14.591  1.00  0.00     0.119 C 
BRANCH  28  29
ATOM     29  N   UNL     1      28.748  37.302  15.721  1.00  0.00    -0.092 NA
ATOM     30  N   UNL     1      27.556  36.957  15.595  1.00  0.00     0.001 N 
ATOM     31  N   UNL     1      26.360  36.860  15.930  1.00  0.00    -0.003 NA
ENDBRANCH  28  29
ENDBRANCH  27  28
ENDBRANCH  26  27
ENDBRANCH  20  26
BRANCH  21  32
ATOM     32  O   UNL     1      30.365  36.293  18.158  1.00  0.00    -0.387 OA
ATOM     33  H   UNL     1      29.985  36.622  17.293  1.00  0.00     0.211 HD
ENDBRANCH  21  32
BRANCH  22  34
ATOM     34  O   UNL     1      33.932  36.566  18.105  1.00  0.00    -0.385 OA
ATOM     35  H   UNL     1      34.422  37.448  18.118  1.00  0.00     0.211 HD
ENDBRANCH  22  34
ENDBRANCH  16  17
ENDBRANCH  11  16
BRANCH  13  36
ATOM     36  O   UNL     1      30.170  31.637  14.919  1.00  0.00    -0.385 OA
ATOM     37  H   UNL     1      29.203  31.776  14.698  1.00  0.00     0.211 HD
ENDBRANCH  13  36
BRANCH  14  38
ATOM     38  O   UNL     1      28.820  29.750  16.321  1.00  0.00    -0.387 OA
ATOM     39  H   UNL     1      28.008  29.710  15.742  1.00  0.00     0.211 HD
ENDBRANCH  14  38
BRANCH  15  40
ATOM     40  O   UNL     1      30.335  30.220  18.647  1.00  0.00    -0.387 OA
ATOM     41  H   UNL     1      30.178  29.468  19.242  1.00  0.00     0.211 HD
ENDBRANCH  15  40
ENDBRANCH   9  10
ENDBRANCH   8   9
ENDBRANCH   3   8
BRANCH   3  42
ATOM     42  C   UNL     1      29.024  30.873  22.495  1.00  0.00     0.364 C 
ATOM     43  O   UNL     1      28.794  31.113  23.689  1.00  0.00    -0.246 OA
BRANCH  42  44
ATOM     44  O   UNL     1      28.017  30.337  21.714  1.00  0.00    -0.477 OA
ATOM     45  H   UNL     1      27.826  29.327  21.678  1.00  0.00     0.296 HD
ENDBRANCH  42  44
ENDBRANCH   3  42
BRANCH   6  46
ATOM     46  O   UNL     1      32.812  31.552  21.367  1.00  0.00    -0.391 OA
ATOM     47  H   UNL     1      32.987  32.410  20.947  1.00  0.00     0.211 HD
ENDBRANCH   6  46
BRANCH   7  48
ATOM     48  N   UNL     1      33.029  30.318  24.694  1.00  0.00    -0.348 N 
ATOM     49  C   UNL     1      34.185  29.806  25.357  1.00  0.00     0.217 C 
ATOM     50  H   UNL     1      32.290  30.749  25.296  1.00  0.00     0.163 HD
ATOM     51  C   UNL     1      34.240  29.928  26.853  1.00  0.00     0.114 C 
ATOM     52  O   UNL     1      35.132  29.268  24.725  1.00  0.00    -0.275 OA
ENDBRANCH   7  48
ENDBRANCH   1   2
BRANCH   1  53
ATOM     53  O   UNL     1      33.639  28.019  22.465  1.00  0.00    -0.388 OA
ATOM     54  H   UNL     1      34.032  28.933  22.559  1.00  0.00     0.211 HD
ENDBRANCH   1  53
BRANCH   1  55
ATOM     55  C   UNL     1      31.747  27.489  21.150  1.00  0.00     0.165 C 
BRANCH  55  56
ATOM     56  O   UNL     1      32.151  28.125  19.998  1.00  0.00    -0.388 OA
ATOM     57  H   UNL     1      32.760  27.589  19.424  1.00  0.00     0.211 HD
ENDBRANCH  55  56
BRANCH  55  58
ATOM     58  C   UNL     1      30.284  27.211  21.214  1.00  0.00     0.154 C 
BRANCH  58  59
ATOM     59  N   UNL     1      29.536  27.465  20.022  1.00  0.00    -0.319 N 
ATOM     60  C   UNL     1      28.123  27.510  20.083  1.00  0.00     0.407 C 
ATOM     61  H   UNL     1      30.002  27.620  19.118  1.00  0.00     0.167 HD
ATOM     62  O   UNL     1      27.567  27.332  21.222  1.00  0.00    -0.225 OA
BRANCH  60  63
ATOM     63  O   UNL     1      27.268  27.725  19.016  1.00  0.00    -0.443 OA
BRANCH  63  64
ATOM     64  C   UNL     1      26.058  28.473  19.217  1.00  0.00     0.294 C 
BRANCH  64  65
ATOM     65  C   UNL     1      25.797  29.284  18.005  1.00  0.00     0.120 A 
ATOM     66  C   UNL     1      25.251  30.542  17.880  1.00  0.00     0.139 A 
ATOM     67  N   UNL     1      26.051  28.888  16.713  1.00  0.00    -0.132 NA
ATOM     68  N   UNL     1      25.189  30.867  16.556  1.00  0.00    -0.237 N 
ATOM     69  N   UNL     1      25.678  29.848  15.911  1.00  0.00    -0.066 NA
BRANCH  68  70
ATOM     70  C   UNL     1      24.668  32.094  15.998  1.00  0.00     0.229 C 
BRANCH  70  71
ATOM     71  C   UNL     1      25.598  32.538  14.883  1.00  0.00     0.161 C 
BRANCH  71  72
ATOM     72  C   UNL     1      26.718  33.348  15.399  1.00  0.00     0.306 C 
ATOM     73  O   UNL     1      27.721  33.600  14.685  1.00  0.00    -0.252 OA
BRANCH  72  74
ATOM     74  O   UNL     1      26.685  33.845  16.684  1.00  0.00    -0.481 OA
ATOM     75  H   UNL     1      26.886  34.841  16.831  1.00  0.00     0.296 HD
ENDBRANCH  72  74
ENDBRANCH  71  72
ENDBRANCH  70  71
BRANCH  70  76
ATOM     76  C   UNL     1      23.326  31.839  15.447  1.00  0.00     0.329 C 
ATOM     77  O   UNL     1      23.210  31.574  14.228  1.00  0.00    -0.250 OA
BRANCH  76  78
ATOM     78  O   UNL     1      22.171  31.879  16.216  1.00  0.00    -0.480 OA
ATOM     79  H   UNL     1      22.020  31.138  16.896  1.00  0.00     0.296 HD
ENDBRANCH  76  78
ENDBRANCH  70  76
ENDBRANCH  68  70
ENDBRANCH  64  65
ENDBRANCH  63  64
ENDBRANCH  60  63
ENDBRANCH  58  59
ENDBRANCH  55  58
ENDBRANCH   1  55
TORSDOF 35
BEGIN_RES LYS A 131
REMARK  4 active torsions:
REMARK  status: ('A' for Active; 'I' for Inactive)
REMARK    1  A    between atoms: CA   and  CB  
REMARK    2  A    between atoms: CB   and  CG  
REMARK    3  A    between atoms: CG   and  CD  
REMARK    4  A    between atoms: CD   and  CE  
ROOT
ATOM      1  CA  LYS A 131      29.867  25.555  16.977  1.00 20.52     0.186 C 
ENDROOT
BRANCH   1   2
ATOM      2  CB  LYS A 131      28.345  25.722  17.026  1.00 20.94     0.034 C 
BRANCH   2   3
ATOM      3  CG  LYS A 131      27.601  24.400  16.907  1.00 22.96     0.005 C 
BRANCH   3   4
ATOM      4  CD  LYS A 131      26.533  24.255  17.956  1.00 24.33     0.041 C 
BRANCH   4   5
ATOM      5  CE  LYS A 131      25.275  24.990  17.505  1.00 26.91     0.338 C 
ATOM      6  NZ  LYS A 131      24.344  24.057  16.828  1.00 27.40     0.618 N 
ENDBRANCH   4   5
ENDBRANCH   3   4
ENDBRANCH   2   3
ENDBRANCH   1   2
END_RES LYS A 131
BEGIN_RES LYS A 135
REMARK  4 active torsions:
REMARK  status: ('A' for Active; 'I' for Inactive)
REMARK    5  A    between atoms: CA   and  CB  
REMARK    6  A    between atoms: CB   and  CG  
REMARK    7  A    between atoms: CG   and  CD  
REMARK    8  A    between atoms: CD   and  CE  
ROOT
ATOM      7  CA  LYS A 135      33.193  34.663   9.290  1.00 25.02     0.186 C 
ENDROOT
BRANCH   7   8
ATOM      8  CB  LYS A 135      32.060  35.360  10.034  1.00 26.63     0.034 C 
BRANCH   8   9
ATOM      9  CG  LYS A 135      30.689  34.971   9.544  1.00 29.45     0.005 C 
BRANCH   9  10
ATOM     10  CD  LYS A 135      29.611  35.573  10.433  1.00 32.00     0.041 C 
BRANCH  10  11
ATOM     11  CE  LYS A 135      28.529  34.551  10.723  1.00 34.25     0.338 C 
ATOM     12  NZ  LYS A 135      28.206  33.751   9.509  1.00 35.99     0.618 N 
ENDBRANCH  10  11
ENDBRANCH   9  10
ENDBRANCH   8   9
ENDBRANCH   7   8
END_RES LYS A 135
