REMARK VINA RESULT:    -7.136      5.693     12.265
REMARK INTER + INTRA:         -21.089
REMARK INTER:                 -10.444
REMARK INTRA:                 -10.645
REMARK UNBOUND:                -1.022
REMARK SMILES CC(=O)N[C@@H]1[C@@H](O)C[C@](OC[C@H]2O[C@@H](O[C@H]3[C@H](O)[C@@H](O)[C@H](OCCN=[N+]=[N-])O[C@@H]3CO)[C@H](O)[C@@H](O)[C@H]2O)(C(=O)O)O[C@H]1C(O)[C@H](O)CNC(=O)OCc1cn(C2CC(O)C=C[C@@H](O)C2)nn1
REMARK SMILES IDX 43 1 42 2 9 3 8 4 41 5 6 6 5 7 10 8 11 9 12 10 14 11 13 12
REMARK SMILES IDX 32 13 34 14 36 15 15 16 16 17 29 18 28 19 21 20 17 21 19 22
REMARK SMILES IDX 30 23 31 24 22 26 23 27 24 28 25 29 26 30 27 31 18 32 20 34
REMARK SMILES IDX 33 36 35 38 37 40 38 42 39 43 40 44 7 46 4 48 2 49 1 51 3 52
REMARK SMILES IDX 44 53 45 55 46 56 47 58 48 59 49 60 50 62 51 63 52 64 53 65
REMARK SMILES IDX 54 66 66 67 55 68 65 69 56 70 57 71 58 72 59 74 64 76 62 77
REMARK SMILES IDX 61 78 60 79 63 81
REMARK H PARENT 31 25 18 33 20 35 33 37 35 39 37 41 40 45 7 47 4 50 44 54
REMARK H PARENT 46 57 48 61 59 75 63 82
REMARK Flexibility Score: 90.00
ROOT
ATOM      1  C   UNL     1      28.667  30.096  23.941  1.00  0.00     0.176 C 
ENDROOT
BRANCH   1   2
ATOM      2  C   UNL     1      29.540  29.357  22.941  1.00  0.00     0.178 C 
ATOM      3  C   UNL     1      31.047  29.949  21.234  1.00  0.00     0.272 C 
ATOM      4  C   UNL     1      30.952  28.598  20.624  1.00  0.00     0.113 C 
ATOM      5  O   UNL     1      30.096  30.356  22.091  1.00  0.00    -0.332 OA
ATOM      6  C   UNL     1      30.083  27.641  21.356  1.00  0.00     0.145 C 
ATOM      7  C   UNL     1      28.899  28.398  22.035  1.00  0.00     0.142 C 
BRANCH   3   8
ATOM      8  O   UNL     1      31.244  30.881  20.195  1.00  0.00    -0.338 OA
BRANCH   8   9
ATOM      9  C   UNL     1      30.876  32.160  20.494  1.00  0.00     0.199 C 
BRANCH   9  10
ATOM     10  C   UNL     1      30.193  32.826  19.299  1.00  0.00     0.179 C 
ATOM     11  C   UNL     1      30.545  32.666  17.022  1.00  0.00     0.282 C 
ATOM     12  O   UNL     1      31.095  32.893  18.285  1.00  0.00    -0.341 OA
ATOM     13  C   UNL     1      30.099  31.217  17.059  1.00  0.00     0.202 C 
ATOM     14  C   UNL     1      28.859  31.185  17.924  1.00  0.00     0.179 C 
ATOM     15  C   UNL     1      28.864  32.221  19.001  1.00  0.00     0.177 C 
BRANCH  11  16
ATOM     16  O   UNL     1      31.495  32.932  16.065  1.00  0.00    -0.341 OA
BRANCH  16  17
ATOM     17  C   UNL     1      31.879  34.274  16.144  1.00  0.00     0.184 C 
ATOM     18  C   UNL     1      30.662  35.161  16.204  1.00  0.00     0.178 C 
ATOM     19  O   UNL     1      30.012  35.324  15.007  1.00  0.00    -0.341 OA
ATOM     20  C   UNL     1      30.673  34.761  13.918  1.00  0.00     0.281 C 
ATOM     21  C   UNL     1      32.832  34.671  15.049  1.00  0.00     0.180 C 
ATOM     22  C   UNL     1      32.111  35.267  13.870  1.00  0.00     0.202 C 
BRANCH  18  23
ATOM     23  C   UNL     1      31.014  36.520  16.792  1.00  0.00     0.191 C 
BRANCH  23  24
ATOM     24  O   UNL     1      31.968  36.427  17.789  1.00  0.00    -0.394 OA
ATOM     25  H   UNL     1      32.057  37.240  18.311  1.00  0.00     0.210 HD
ENDBRANCH  23  24
ENDBRANCH  18  23
BRANCH  20  26
ATOM     26  O   UNL     1      29.979  35.180  12.787  1.00  0.00    -0.350 OA
BRANCH  26  27
ATOM     27  C   UNL     1      28.678  34.696  12.862  1.00  0.00     0.169 C 
BRANCH  27  28
ATOM     28  C   UNL     1      27.679  35.715  12.341  1.00  0.00     0.119 C 
BRANCH  28  29
ATOM     29  N   UNL     1      26.453  35.069  11.922  1.00  0.00    -0.092 NA
ATOM     30  N   UNL     1      25.767  34.476  12.771  1.00  0.00     0.001 N 
ATOM     31  N   UNL     1      25.232  33.838  13.688  1.00  0.00    -0.003 NA
ENDBRANCH  28  29
ENDBRANCH  27  28
ENDBRANCH  26  27
ENDBRANCH  20  26
BRANCH  21  32
ATOM     32  O   UNL     1      33.774  35.578  15.534  1.00  0.00    -0.387 OA
ATOM     33  H   UNL     1      33.600  36.497  15.217  1.00  0.00     0.211 HD
ENDBRANCH  21  32
BRANCH  22  34
ATOM     34  O   UNL     1      32.700  34.877  12.674  1.00  0.00    -0.385 OA
ATOM     35  H   UNL     1      32.523  33.918  12.489  1.00  0.00     0.211 HD
ENDBRANCH  22  34
ENDBRANCH  16  17
ENDBRANCH  11  16
BRANCH  13  36
ATOM     36  O   UNL     1      29.838  30.673  15.830  1.00  0.00    -0.385 OA
ATOM     37  H   UNL     1      28.953  30.853  15.474  1.00  0.00     0.211 HD
ENDBRANCH  13  36
BRANCH  14  38
ATOM     38  O   UNL     1      28.751  29.886  18.421  1.00  0.00    -0.387 OA
ATOM     39  H   UNL     1      27.804  29.669  18.647  1.00  0.00     0.211 HD
ENDBRANCH  14  38
BRANCH  15  40
ATOM     40  O   UNL     1      28.387  31.666  20.205  1.00  0.00    -0.387 OA
ATOM     41  H   UNL     1      28.192  32.325  20.886  1.00  0.00     0.211 HD
ENDBRANCH  15  40
ENDBRANCH   9  10
ENDBRANCH   8   9
ENDBRANCH   3   8
BRANCH   3  42
ATOM     42  C   UNL     1      32.347  29.958  22.010  1.00  0.00     0.364 C 
ATOM     43  O   UNL     1      32.489  30.604  23.081  1.00  0.00    -0.246 OA
BRANCH  42  44
ATOM     44  O   UNL     1      33.402  29.220  21.500  1.00  0.00    -0.477 OA
ATOM     45  H   UNL     1      33.254  28.290  21.107  1.00  0.00     0.296 HD
ENDBRANCH  42  44
ENDBRANCH   3  42
BRANCH   6  46
ATOM     46  O   UNL     1      29.600  26.656  20.531  1.00  0.00    -0.391 OA
ATOM     47  H   UNL     1      28.969  26.084  21.019  1.00  0.00     0.211 HD
ENDBRANCH   6  46
BRANCH   7  48
ATOM     48  N   UNL     1      27.965  27.448  22.502  1.00  0.00    -0.348 N 
ATOM     49  C   UNL     1      26.591  27.577  22.178  1.00  0.00     0.217 C 
ATOM     50  H   UNL     1      28.266  26.628  23.060  1.00  0.00     0.163 HD
ATOM     51  C   UNL     1      25.590  26.589  22.658  1.00  0.00     0.114 C 
ATOM     52  O   UNL     1      26.209  28.542  21.473  1.00  0.00    -0.275 OA
ENDBRANCH   7  48
ENDBRANCH   1   2
BRANCH   1  53
ATOM     53  O   UNL     1      27.717  30.741  23.032  1.00  0.00    -0.388 OA
ATOM     54  H   UNL     1      28.249  31.102  22.256  1.00  0.00     0.211 HD
ENDBRANCH   1  53
BRANCH   1  55
ATOM     55  C   UNL     1      29.326  31.291  24.569  1.00  0.00     0.165 C 
BRANCH  55  56
ATOM     56  O   UNL     1      29.587  31.100  25.905  1.00  0.00    -0.388 OA
ATOM     57  H   UNL     1      28.878  30.620  26.387  1.00  0.00     0.211 HD
ENDBRANCH  55  56
BRANCH  55  58
ATOM     58  C   UNL     1      28.425  32.517  24.475  1.00  0.00     0.154 C 
BRANCH  58  59
ATOM     59  N   UNL     1      29.007  33.618  23.777  1.00  0.00    -0.319 N 
ATOM     60  C   UNL     1      28.476  34.134  22.562  1.00  0.00     0.407 C 
ATOM     61  H   UNL     1      29.879  34.087  24.168  1.00  0.00     0.167 HD
ATOM     62  O   UNL     1      27.443  33.566  22.106  1.00  0.00    -0.225 OA
BRANCH  60  63
ATOM     63  O   UNL     1      29.080  35.200  21.935  1.00  0.00    -0.443 OA
BRANCH  63  64
ATOM     64  C   UNL     1      30.124  35.924  22.579  1.00  0.00     0.294 C 
BRANCH  64  65
ATOM     65  C   UNL     1      31.392  35.603  21.887  1.00  0.00     0.120 A 
ATOM     66  C   UNL     1      32.501  34.974  22.391  1.00  0.00     0.138 A 
ATOM     67  N   UNL     1      31.673  35.894  20.605  1.00  0.00    -0.132 NA
ATOM     68  N   UNL     1      33.420  34.907  21.395  1.00  0.00    -0.249 N 
ATOM     69  N   UNL     1      32.888  35.471  20.331  1.00  0.00    -0.067 NA
BRANCH  68  70
ATOM     70  C   UNL     1      34.764  34.319  21.484  1.00  0.00     0.115 C 
BRANCH  70  71
ATOM     71  C   UNL     1      34.634  32.833  21.481  1.00  0.00     0.063 C 
BRANCH  71  72
ATOM     72  C   UNL     1      35.849  32.227  22.189  1.00  0.00     0.139 CG0
ATOM     73  G   UNL     1      37.014  32.302  21.293  1.00  0.00     0.000 G0
BRANCH  72  74
ATOM     74  O   UNL     1      35.576  30.911  22.558  1.00  0.00    -0.389 OA
ATOM     75  H   UNL     1      36.163  30.684  23.334  1.00  0.00     0.211 HD
ENDBRANCH  72  74
ENDBRANCH  71  72
ENDBRANCH  70  71
BRANCH  70  76
ATOM     76  C   UNL     1      35.569  34.799  20.317  1.00  0.00     0.063 C 
BRANCH  76  77
ATOM     77  C   UNL     1      37.039  34.744  20.748  1.00  0.00     0.139 C 
BRANCH  77  78
ATOM     78  C   UNL     1      37.532  33.343  20.660  1.00  0.00     0.002 C 
ATOM     79  C   UNL     1      37.010  32.292  21.275  1.00  0.00     0.002 CG0
ATOM     80  G   UNL     1      35.850  32.209  22.178  1.00  0.00     0.000 G0
ENDBRANCH  77  78
BRANCH  77  81
ATOM     81  O   UNL     1      37.825  35.607  20.000  1.00  0.00    -0.389 OA
ATOM     82  H   UNL     1      38.753  35.241  19.999  1.00  0.00     0.211 HD
ENDBRANCH  77  81
ENDBRANCH  76  77
ENDBRANCH  70  76
ENDBRANCH  68  70
ENDBRANCH  64  65
ENDBRANCH  63  64
ENDBRANCH  60  63
ENDBRANCH  58  59
ENDBRANCH  55  58
ENDBRANCH   1  55
TORSDOF 32
BEGIN_RES LYS A 131
REMARK  4 active torsions:
REMARK  status: ('A' for Active; 'I' for Inactive)
REMARK    1  A    between atoms: CA   and  CB  
REMARK    2  A    between atoms: CB   and  CG  
REMARK    3  A    between atoms: CG   and  CD  
REMARK    4  A    between atoms: CD   and  CE  
ROOT
ATOM      1  CA  LYS A 131      29.867  25.555  16.977  1.00 20.52     0.186 C 
ENDROOT
BRANCH   1   2
ATOM      2  CB  LYS A 131      28.345  25.722  17.026  1.00 20.94     0.034 C 
BRANCH   2   3
ATOM      3  CG  LYS A 131      27.599  24.485  16.549  1.00 22.96     0.005 C 
BRANCH   3   4
ATOM      4  CD  LYS A 131      26.360  24.224  17.359  1.00 24.33     0.041 C 
BRANCH   4   5
ATOM      5  CE  LYS A 131      26.519  24.837  18.746  1.00 26.91     0.338 C 
ATOM      6  NZ  LYS A 131      25.223  25.365  19.233  1.00 27.40     0.618 N 
ENDBRANCH   4   5
ENDBRANCH   3   4
ENDBRANCH   2   3
ENDBRANCH   1   2
END_RES LYS A 131
BEGIN_RES LYS A 135
REMARK  4 active torsions:
REMARK  status: ('A' for Active; 'I' for Inactive)
REMARK    5  A    between atoms: CA   and  CB  
REMARK    6  A    between atoms: CB   and  CG  
REMARK    7  A    between atoms: CG   and  CD  
REMARK    8  A    between atoms: CD   and  CE  
ROOT
ATOM      7  CA  LYS A 135      33.193  34.663   9.290  1.00 25.02     0.186 C 
ENDROOT
BRANCH   7   8
ATOM      8  CB  LYS A 135      32.060  35.360  10.034  1.00 26.63     0.034 C 
BRANCH   8   9
ATOM      9  CG  LYS A 135      30.697  34.803   9.714  1.00 29.45     0.005 C 
BRANCH   9  10
ATOM     10  CD  LYS A 135      30.386  34.961   8.234  1.00 32.00     0.041 C 
BRANCH  10  11
ATOM     11  CE  LYS A 135      28.892  34.876   7.991  1.00 34.25     0.338 C 
ATOM     12  NZ  LYS A 135      28.213  34.125   9.083  1.00 35.99     0.618 N 
ENDBRANCH  10  11
ENDBRANCH   9  10
ENDBRANCH   8   9
ENDBRANCH   7   8
END_RES LYS A 135
