REMARK VINA RESULT:    -3.738      4.577     10.197
REMARK INTER + INTRA:         -21.270
REMARK INTER:                 -12.226
REMARK INTRA:                  -9.044
REMARK UNBOUND:               -12.070
REMARK SMILES CC(=O)N[C@@H]1[C@@H](O)C[C@](OC[C@H]2O[C@@H](O[C@H]3[C@H](O)[C@@H](O)[C@H](OCCN=[N+]=[N-])O[C@@H]3CO)[C@H](O)[C@@H](O)[C@H]2O)(C(=O)O)O[C@H]1C(O)[C@H](O)CNC(=O)OCc1cn(-c2ccccc2I)nn1
REMARK SMILES IDX 9 1 8 2 6 3 5 4 42 5 41 6 10 7 11 8 12 9 14 10 13 11 32 12
REMARK SMILES IDX 34 13 36 14 15 15 16 16 29 17 28 18 21 19 17 20 19 21 30 22
REMARK SMILES IDX 31 23 22 25 23 26 24 27 25 28 26 29 27 30 18 31 20 33 33 35
REMARK SMILES IDX 35 37 37 39 38 41 39 42 40 43 7 45 43 47 44 48 45 50 46 51
REMARK SMILES IDX 47 53 48 54 49 55 50 57 51 58 52 59 53 60 54 61 64 62 55 63
REMARK SMILES IDX 63 64 56 65 57 66 61 67 58 68 60 69 62 70 59 71 4 72 2 73
REMARK SMILES IDX 1 75 3 76
REMARK H PARENT 31 24 18 32 20 34 33 36 35 38 37 40 40 44 7 46 44 49 46 52
REMARK H PARENT 48 56 4 74
REMARK Flexibility Score: inf
ROOT
ATOM      1  C   UNL     1      29.889  36.726  12.926  1.00  0.00     0.272 C 
ATOM      2  C   UNL     1      31.361  36.898  12.677  1.00  0.00     0.113 C 
ATOM      3  C   UNL     1      32.153  35.665  13.145  1.00  0.00     0.145 C 
ATOM      4  C   UNL     1      31.947  35.625  14.686  1.00  0.00     0.142 C 
ATOM      5  C   UNL     1      30.473  35.711  14.971  1.00  0.00     0.178 C 
ATOM      6  O   UNL     1      29.791  35.560  13.758  1.00  0.00    -0.332 OA
ENDROOT
BRANCH   1   7
ATOM      7  O   UNL     1      29.093  36.413  11.870  1.00  0.00    -0.338 OA
BRANCH   7   8
ATOM      8  C   UNL     1      28.292  35.400  11.725  1.00  0.00     0.199 C 
BRANCH   8   9
ATOM      9  C   UNL     1      27.321  35.325  10.616  1.00  0.00     0.179 C 
ATOM     10  C   UNL     1      25.225  34.855  11.392  1.00  0.00     0.282 C 
ATOM     11  O   UNL     1      26.318  34.418  10.695  1.00  0.00    -0.341 OA
ATOM     12  C   UNL     1      24.406  35.830  10.556  1.00  0.00     0.202 C 
ATOM     13  C   UNL     1      25.381  36.584   9.622  1.00  0.00     0.179 C 
ATOM     14  C   UNL     1      26.697  36.731  10.360  1.00  0.00     0.177 C 
BRANCH  10  15
ATOM     15  O   UNL     1      25.379  35.178  12.702  1.00  0.00    -0.341 OA
BRANCH  15  16
ATOM     16  C   UNL     1      24.832  34.301  13.611  1.00  0.00     0.184 C 
ATOM     17  C   UNL     1      23.525  34.725  14.226  1.00  0.00     0.178 C 
ATOM     18  O   UNL     1      23.341  34.095  15.454  1.00  0.00    -0.341 OA
ATOM     19  C   UNL     1      23.968  32.847  15.546  1.00  0.00     0.281 C 
ATOM     20  C   UNL     1      25.796  34.277  14.817  1.00  0.00     0.180 C 
ATOM     21  C   UNL     1      25.469  32.976  15.538  1.00  0.00     0.202 C 
BRANCH  17  22
ATOM     22  C   UNL     1      22.333  34.603  13.333  1.00  0.00     0.191 C 
BRANCH  22  23
ATOM     23  O   UNL     1      22.593  33.549  12.449  1.00  0.00    -0.394 OA
ATOM     24  H   UNL     1      21.721  33.238  12.083  1.00  0.00     0.210 HD
ENDBRANCH  22  23
ENDBRANCH  17  22
BRANCH  19  25
ATOM     25  O   UNL     1      23.479  31.940  14.657  1.00  0.00    -0.350 OA
BRANCH  25  26
ATOM     26  C   UNL     1      24.294  30.863  14.493  1.00  0.00     0.169 C 
BRANCH  26  27
ATOM     27  C   UNL     1      24.062  30.008  13.288  1.00  0.00     0.119 C 
BRANCH  27  28
ATOM     28  N   UNL     1      22.963  30.379  12.443  1.00  0.00    -0.092 NA
ATOM     29  N   UNL     1      22.009  29.583  12.389  1.00  0.00     0.001 N 
ATOM     30  N   UNL     1      21.005  28.916  12.131  1.00  0.00    -0.003 NA
ENDBRANCH  27  28
ENDBRANCH  26  27
ENDBRANCH  25  26
ENDBRANCH  19  25
BRANCH  20  31
ATOM     31  O   UNL     1      27.111  34.305  14.393  1.00  0.00    -0.387 OA
ATOM     32  H   UNL     1      27.101  34.138  13.413  1.00  0.00     0.211 HD
ENDBRANCH  20  31
BRANCH  21  33
ATOM     33  O   UNL     1      26.031  32.956  16.813  1.00  0.00    -0.385 OA
ATOM     34  H   UNL     1      26.401  33.878  17.003  1.00  0.00     0.211 HD
ENDBRANCH  21  33
ENDBRANCH  15  16
ENDBRANCH  10  15
BRANCH  12  35
ATOM     35  O   UNL     1      23.506  35.194   9.712  1.00  0.00    -0.385 OA
ATOM     36  H   UNL     1      22.981  34.567  10.275  1.00  0.00     0.211 HD
ENDBRANCH  12  35
BRANCH  13  37
ATOM     37  O   UNL     1      24.904  37.777   9.180  1.00  0.00    -0.387 OA
ATOM     38  H   UNL     1      25.330  38.594   9.582  1.00  0.00     0.211 HD
ENDBRANCH  13  37
BRANCH  14  39
ATOM     39  O   UNL     1      26.453  37.268  11.613  1.00  0.00    -0.387 OA
ATOM     40  H   UNL     1      25.965  36.592  12.180  1.00  0.00     0.211 HD
ENDBRANCH  14  39
ENDBRANCH   8   9
ENDBRANCH   7   8
ENDBRANCH   1   7
BRANCH   1  41
ATOM     41  C   UNL     1      29.371  37.869  13.700  1.00  0.00     0.364 C 
ATOM     42  O   UNL     1      30.040  38.856  14.052  1.00  0.00    -0.246 OA
BRANCH  41  43
ATOM     43  O   UNL     1      28.019  37.904  14.108  1.00  0.00    -0.477 OA
ATOM     44  H   UNL     1      27.799  38.152  15.083  1.00  0.00     0.296 HD
ENDBRANCH  41  43
ENDBRANCH   1  41
BRANCH   3  45
ATOM     45  O   UNL     1      31.703  34.500  12.562  1.00  0.00    -0.391 OA
ATOM     46  H   UNL     1      30.818  34.254  12.922  1.00  0.00     0.211 HD
ENDBRANCH   3  45
BRANCH   5  47
ATOM     47  C   UNL     1      30.032  34.453  15.767  1.00  0.00     0.176 C 
BRANCH  47  48
ATOM     48  O   UNL     1      30.394  34.734  17.140  1.00  0.00    -0.388 OA
ATOM     49  H   UNL     1      29.571  35.153  17.537  1.00  0.00     0.211 HD
ENDBRANCH  47  48
BRANCH  47  50
ATOM     50  C   UNL     1      30.892  33.265  15.455  1.00  0.00     0.165 C 
BRANCH  50  51
ATOM     51  O   UNL     1      30.428  32.662  14.256  1.00  0.00    -0.388 OA
ATOM     52  H   UNL     1      30.244  31.699  14.394  1.00  0.00     0.211 HD
ENDBRANCH  50  51
BRANCH  50  53
ATOM     53  C   UNL     1      31.047  32.216  16.471  1.00  0.00     0.154 C 
BRANCH  53  54
ATOM     54  N   UNL     1      29.875  31.946  17.283  1.00  0.00    -0.319 N 
ATOM     55  C   UNL     1      28.928  30.980  16.828  1.00  0.00     0.407 C 
ATOM     56  H   UNL     1      29.673  32.415  18.188  1.00  0.00     0.167 HD
ATOM     57  O   UNL     1      29.132  30.388  15.718  1.00  0.00    -0.225 OA
BRANCH  55  58
ATOM     58  O   UNL     1      27.780  30.620  17.503  1.00  0.00    -0.443 OA
BRANCH  58  59
ATOM     59  C   UNL     1      27.655  30.830  18.903  1.00  0.00     0.294 C 
BRANCH  59  60
ATOM     60  C   UNL     1      27.846  29.501  19.587  1.00  0.00     0.121 A 
ATOM     61  C   UNL     1      28.207  29.260  20.893  1.00  0.00     0.144 A 
ATOM     62  N   UNL     1      27.695  28.296  19.010  1.00  0.00    -0.131 NA
ATOM     63  N   UNL     1      28.251  27.920  21.020  1.00  0.00    -0.219 N 
ATOM     64  N   UNL     1      27.939  27.342  19.877  1.00  0.00    -0.062 NA
BRANCH  63  65
ATOM     65  C   UNL     1      28.588  27.191  22.195  1.00  0.00     0.080 A 
ATOM     66  C   UNL     1      27.601  26.767  23.077  1.00  0.00     0.029 A 
ATOM     67  C   UNL     1      29.897  26.893  22.493  1.00  0.00     0.039 A 
ATOM     68  C   UNL     1      27.980  26.058  24.223  1.00  0.00     0.002 A 
ATOM     69  C   UNL     1      30.258  26.182  23.645  1.00  0.00     0.017 A 
ATOM     70  I   UNL     1      31.421  27.527  21.171  1.00  0.00    -0.042 I 
ATOM     71  C   UNL     1      29.289  25.760  24.519  1.00  0.00     0.001 A 
ENDBRANCH  63  65
ENDBRANCH  59  60
ENDBRANCH  58  59
ENDBRANCH  55  58
ENDBRANCH  53  54
ENDBRANCH  50  53
ENDBRANCH  47  50
ENDBRANCH   5  47
BRANCH   4  72
ATOM     72  N   UNL     1      32.750  36.671  15.205  1.00  0.00    -0.348 N 
ATOM     73  C   UNL     1      33.433  36.578  16.469  1.00  0.00     0.217 C 
ATOM     74  H   UNL     1      32.898  37.568  14.709  1.00  0.00     0.163 HD
ATOM     75  C   UNL     1      34.271  37.661  17.018  1.00  0.00     0.114 C 
ATOM     76  O   UNL     1      33.278  35.501  17.104  1.00  0.00    -0.275 OA
ENDBRANCH   4  72
TORSDOF 30
BEGIN_RES LYS A 131
REMARK  4 active torsions:
REMARK  status: ('A' for Active; 'I' for Inactive)
REMARK    1  A    between atoms: CA   and  CB  
REMARK    2  A    between atoms: CB   and  CG  
REMARK    3  A    between atoms: CG   and  CD  
REMARK    4  A    between atoms: CD   and  CE  
ROOT
ATOM      1  CA  LYS A 131      29.867  25.555  16.977  1.00 20.52     0.186 C 
ENDROOT
BRANCH   1   2
ATOM      2  CB  LYS A 131      28.345  25.722  17.026  1.00 20.94     0.034 C 
BRANCH   2   3
ATOM      3  CG  LYS A 131      27.601  24.402  16.890  1.00 22.96     0.005 C 
BRANCH   3   4
ATOM      4  CD  LYS A 131      26.516  24.255  17.920  1.00 24.33     0.041 C 
BRANCH   4   5
ATOM      5  CE  LYS A 131      25.167  24.583  17.288  1.00 26.91     0.338 C 
ATOM      6  NZ  LYS A 131      24.743  25.955  17.653  1.00 27.40     0.618 N 
ENDBRANCH   4   5
ENDBRANCH   3   4
ENDBRANCH   2   3
ENDBRANCH   1   2
END_RES LYS A 131
BEGIN_RES LYS A 135
REMARK  4 active torsions:
REMARK  status: ('A' for Active; 'I' for Inactive)
REMARK    5  A    between atoms: CA   and  CB  
REMARK    6  A    between atoms: CB   and  CG  
REMARK    7  A    between atoms: CG   and  CD  
REMARK    8  A    between atoms: CD   and  CE  
ROOT
ATOM      7  CA  LYS A 135      33.193  34.663   9.290  1.00 25.02     0.186 C 
ENDROOT
BRANCH   7   8
ATOM      8  CB  LYS A 135      32.060  35.360  10.034  1.00 26.63     0.034 C 
BRANCH   8   9
ATOM      9  CG  LYS A 135      30.943  35.821   9.134  1.00 29.45     0.005 C 
BRANCH   9  10
ATOM     10  CD  LYS A 135      30.292  34.637   8.436  1.00 32.00     0.041 C 
BRANCH  10  11
ATOM     11  CE  LYS A 135      29.594  35.086   7.166  1.00 34.25     0.338 C 
ATOM     12  NZ  LYS A 135      28.122  35.185   7.370  1.00 35.99     0.618 N 
ENDBRANCH  10  11
ENDBRANCH   9  10
ENDBRANCH   8   9
ENDBRANCH   7   8
END_RES LYS A 135
