REMARK VINA RESULT:    -4.219      2.723      8.411
REMARK INTER + INTRA:         -22.466
REMARK INTER:                 -12.340
REMARK INTRA:                 -10.126
REMARK UNBOUND:               -11.833
REMARK SMILES CC(=O)N[C@@H]1[C@@H](O)C[C@](OC[C@H]2O[C@@H](O[C@H]3[C@H](O)[C@@H](O)[C@H](OCCN=[N+]=[N-])O[C@@H]3CO)[C@H](O)[C@@H](O)[C@H]2O)(C(=O)O)O[C@H]1C(O)[C@H](O)CNC(=O)OCc1cn(-c2ccccc2C(N)=O)nn1
REMARK SMILES IDX 9 1 8 2 6 3 5 4 42 5 41 6 10 7 11 8 12 9 14 10 13 11 32 12
REMARK SMILES IDX 34 13 36 14 15 15 16 16 29 17 28 18 21 19 17 20 19 21 30 22
REMARK SMILES IDX 31 23 22 25 23 26 24 27 25 28 26 29 27 30 18 31 20 33 33 35
REMARK SMILES IDX 35 37 37 39 38 41 39 42 40 43 7 45 43 47 44 48 45 50 46 51
REMARK SMILES IDX 47 53 48 54 49 55 50 57 51 58 52 59 53 60 54 61 66 62 55 63
REMARK SMILES IDX 65 64 56 65 61 66 57 67 60 68 58 69 59 70 62 71 64 72 63 73
REMARK SMILES IDX 4 76 2 77 1 79 3 80
REMARK H PARENT 31 24 18 32 20 34 33 36 35 38 37 40 40 44 7 46 44 49 46 52
REMARK H PARENT 48 56 63 74 63 75 4 78
REMARK Flexibility Score: inf
ROOT
ATOM      1  C   UNL     1      21.649  36.653   9.258  1.00  0.00     0.272 C 
ATOM      2  C   UNL     1      21.481  35.746   8.006  1.00  0.00     0.113 C 
ATOM      3  C   UNL     1      20.113  36.060   7.471  1.00  0.00     0.145 C 
ATOM      4  C   UNL     1      19.086  35.506   8.375  1.00  0.00     0.142 C 
ATOM      5  C   UNL     1      19.663  35.597   9.799  1.00  0.00     0.178 C 
ATOM      6  O   UNL     1      20.441  36.732   9.932  1.00  0.00    -0.332 OA
ENDROOT
BRANCH   1   7
ATOM      7  O   UNL     1      21.984  37.884   8.726  1.00  0.00    -0.338 OA
BRANCH   7   8
ATOM      8  C   UNL     1      22.634  38.722   9.582  1.00  0.00     0.199 C 
BRANCH   8   9
ATOM      9  C   UNL     1      23.910  39.294   8.989  1.00  0.00     0.179 C 
ATOM     10  C   UNL     1      26.208  39.184   9.358  1.00  0.00     0.282 C 
ATOM     11  O   UNL     1      24.953  38.699   9.695  1.00  0.00    -0.341 OA
ATOM     12  C   UNL     1      26.248  40.124   8.212  1.00  0.00     0.202 C 
ATOM     13  C   UNL     1      25.304  39.821   7.086  1.00  0.00     0.179 C 
ATOM     14  C   UNL     1      24.102  38.982   7.541  1.00  0.00     0.177 C 
BRANCH  10  15
ATOM     15  O   UNL     1      27.011  38.086   9.106  1.00  0.00    -0.341 OA
BRANCH  15  16
ATOM     16  C   UNL     1      26.766  37.019   9.953  1.00  0.00     0.184 C 
ATOM     17  C   UNL     1      27.585  37.219  11.210  1.00  0.00     0.178 C 
ATOM     18  O   UNL     1      28.757  36.543  11.189  1.00  0.00    -0.341 OA
ATOM     19  C   UNL     1      28.629  35.201  11.178  1.00  0.00     0.281 C 
ATOM     20  C   UNL     1      27.253  35.771   9.225  1.00  0.00     0.180 C 
ATOM     21  C   UNL     1      27.666  34.705  10.175  1.00  0.00     0.202 C 
BRANCH  17  22
ATOM     22  C   UNL     1      26.772  36.845  12.418  1.00  0.00     0.191 C 
BRANCH  22  23
ATOM     23  O   UNL     1      25.410  36.750  12.114  1.00  0.00    -0.394 OA
ATOM     24  H   UNL     1      25.156  37.641  11.725  1.00  0.00     0.210 HD
ENDBRANCH  22  23
ENDBRANCH  17  22
BRANCH  19  25
ATOM     25  O   UNL     1      28.439  34.636  12.448  1.00  0.00    -0.350 OA
BRANCH  25  26
ATOM     26  C   UNL     1      29.602  34.433  13.147  1.00  0.00     0.169 C 
BRANCH  26  27
ATOM     27  C   UNL     1      29.335  33.627  14.374  1.00  0.00     0.119 C 
BRANCH  27  28
ATOM     28  N   UNL     1      30.568  33.053  14.852  1.00  0.00    -0.092 NA
ATOM     29  N   UNL     1      30.599  32.125  15.670  1.00  0.00     0.001 N 
ATOM     30  N   UNL     1      30.384  31.095  16.314  1.00  0.00    -0.003 NA
ENDBRANCH  27  28
ENDBRANCH  26  27
ENDBRANCH  25  26
ENDBRANCH  19  25
BRANCH  20  31
ATOM     31  O   UNL     1      26.247  35.281   8.398  1.00  0.00    -0.387 OA
ATOM     32  H   UNL     1      25.583  34.744   8.934  1.00  0.00     0.211 HD
ENDBRANCH  20  31
BRANCH  21  33
ATOM     33  O   UNL     1      28.285  33.680   9.418  1.00  0.00    -0.385 OA
ATOM     34  H   UNL     1      27.652  32.906   9.375  1.00  0.00     0.211 HD
ENDBRANCH  21  33
ENDBRANCH  15  16
ENDBRANCH  10  15
BRANCH  12  35
ATOM     35  O   UNL     1      26.145  41.471   8.619  1.00  0.00    -0.385 OA
ATOM     36  H   UNL     1      26.569  41.530   9.502  1.00  0.00     0.211 HD
ENDBRANCH  12  35
BRANCH  13  37
ATOM     37  O   UNL     1      25.946  39.091   6.085  1.00  0.00    -0.387 OA
ATOM     38  H   UNL     1      25.696  38.118   6.120  1.00  0.00     0.211 HD
ENDBRANCH  13  37
BRANCH  14  39
ATOM     39  O   UNL     1      24.439  37.621   7.429  1.00  0.00    -0.387 OA
ATOM     40  H   UNL     1      25.339  37.412   7.725  1.00  0.00     0.211 HD
ENDBRANCH  14  39
ENDBRANCH   8   9
ENDBRANCH   7   8
ENDBRANCH   1   7
BRANCH   1  41
ATOM     41  C   UNL     1      22.676  36.083  10.134  1.00  0.00     0.364 C 
ATOM     42  O   UNL     1      23.713  35.522   9.639  1.00  0.00    -0.246 OA
BRANCH  41  43
ATOM     43  O   UNL     1      22.532  36.148  11.523  1.00  0.00    -0.477 OA
ATOM     44  H   UNL     1      22.888  35.354  12.048  1.00  0.00     0.296 HD
ENDBRANCH  41  43
ENDBRANCH   1  41
BRANCH   3  45
ATOM     45  O   UNL     1      19.985  37.471   7.534  1.00  0.00    -0.391 OA
ATOM     46  H   UNL     1      19.847  37.819   6.616  1.00  0.00     0.211 HD
ENDBRANCH   3  45
BRANCH   5  47
ATOM     47  C   UNL     1      18.568  35.455  10.817  1.00  0.00     0.176 C 
BRANCH  47  48
ATOM     48  O   UNL     1      18.577  34.107  11.227  1.00  0.00    -0.388 OA
ATOM     49  H   UNL     1      18.760  33.519  10.444  1.00  0.00     0.211 HD
ENDBRANCH  47  48
BRANCH  47  50
ATOM     50  C   UNL     1      18.889  36.248  12.088  1.00  0.00     0.165 C 
BRANCH  50  51
ATOM     51  O   UNL     1      19.982  35.642  12.728  1.00  0.00    -0.388 OA
ATOM     52  H   UNL     1      19.671  34.736  12.989  1.00  0.00     0.211 HD
ENDBRANCH  50  51
BRANCH  50  53
ATOM     53  C   UNL     1      17.737  36.293  13.033  1.00  0.00     0.154 C 
BRANCH  53  54
ATOM     54  N   UNL     1      17.691  35.120  13.864  1.00  0.00    -0.319 N 
ATOM     55  C   UNL     1      16.725  34.092  13.734  1.00  0.00     0.407 C 
ATOM     56  H   UNL     1      18.432  35.032  14.619  1.00  0.00     0.167 HD
ATOM     57  O   UNL     1      15.821  34.052  12.898  1.00  0.00    -0.225 OA
BRANCH  55  58
ATOM     58  O   UNL     1      16.770  32.994  14.626  1.00  0.00    -0.443 OA
BRANCH  58  59
ATOM     59  C   UNL     1      16.709  31.664  14.107  1.00  0.00     0.294 C 
BRANCH  59  60
ATOM     60  C   UNL     1      17.936  31.335  13.359  1.00  0.00     0.121 A 
ATOM     61  C   UNL     1      19.171  30.982  13.850  1.00  0.00     0.144 A 
ATOM     62  N   UNL     1      18.073  31.324  12.022  1.00  0.00    -0.131 NA
ATOM     63  N   UNL     1      20.021  30.767  12.822  1.00  0.00    -0.220 N 
ATOM     64  N   UNL     1      19.309  30.988  11.713  1.00  0.00    -0.062 NA
BRANCH  63  65
ATOM     65  C   UNL     1      21.386  30.393  12.855  1.00  0.00     0.079 A 
ATOM     66  C   UNL     1      22.338  31.379  12.896  1.00  0.00     0.065 A 
ATOM     67  C   UNL     1      21.768  29.066  12.845  1.00  0.00     0.029 A 
ATOM     68  C   UNL     1      23.695  31.070  12.929  1.00  0.00     0.016 A 
ATOM     69  C   UNL     1      23.125  28.736  12.877  1.00  0.00     0.002 A 
ATOM     70  C   UNL     1      24.065  29.741  12.918  1.00  0.00     0.001 A 
BRANCH  66  71
ATOM     71  C   UNL     1      21.930  32.769  12.906  1.00  0.00     0.250 C 
ATOM     72  O   UNL     1      21.966  33.403  13.990  1.00  0.00    -0.269 OA
ATOM     73  N   UNL     1      21.489  33.468  11.763  1.00  0.00    -0.366 N 
ATOM     74  H   UNL     1      21.991  34.313  11.452  1.00  0.00     0.159 HD
ATOM     75  H   UNL     1      20.665  33.132  11.244  1.00  0.00     0.159 HD
ENDBRANCH  66  71
ENDBRANCH  63  65
ENDBRANCH  59  60
ENDBRANCH  58  59
ENDBRANCH  55  58
ENDBRANCH  53  54
ENDBRANCH  50  53
ENDBRANCH  47  50
ENDBRANCH   5  47
BRANCH   4  76
ATOM     76  N   UNL     1      18.682  34.171   8.165  1.00  0.00    -0.348 N 
ATOM     77  C   UNL     1      17.349  33.802   7.854  1.00  0.00     0.217 C 
ATOM     78  H   UNL     1      19.396  33.408   8.240  1.00  0.00     0.163 HD
ATOM     79  C   UNL     1      16.888  32.416   7.628  1.00  0.00     0.114 C 
ATOM     80  O   UNL     1      16.536  34.780   7.778  1.00  0.00    -0.275 OA
ENDBRANCH   4  76
TORSDOF 31
BEGIN_RES LYS A 131
REMARK  4 active torsions:
REMARK  status: ('A' for Active; 'I' for Inactive)
REMARK    1  A    between atoms: CA   and  CB  
REMARK    2  A    between atoms: CB   and  CG  
REMARK    3  A    between atoms: CG   and  CD  
REMARK    4  A    between atoms: CD   and  CE  
ROOT
ATOM      1  CA  LYS A 131      29.867  25.555  16.977  1.00 20.52     0.186 C 
ENDROOT
BRANCH   1   2
ATOM      2  CB  LYS A 131      28.345  25.722  17.026  1.00 20.94     0.034 C 
BRANCH   2   3
ATOM      3  CG  LYS A 131      27.601  24.402  16.891  1.00 22.96     0.005 C 
BRANCH   3   4
ATOM      4  CD  LYS A 131      26.622  24.187  18.012  1.00 24.33     0.041 C 
BRANCH   4   5
ATOM      5  CE  LYS A 131      25.600  23.133  17.599  1.00 26.91     0.338 C 
ATOM      6  NZ  LYS A 131      24.230  23.698  17.627  1.00 27.40     0.618 N 
ENDBRANCH   4   5
ENDBRANCH   3   4
ENDBRANCH   2   3
ENDBRANCH   1   2
END_RES LYS A 131
BEGIN_RES LYS A 135
REMARK  4 active torsions:
REMARK  status: ('A' for Active; 'I' for Inactive)
REMARK    5  A    between atoms: CA   and  CB  
REMARK    6  A    between atoms: CB   and  CG  
REMARK    7  A    between atoms: CG   and  CD  
REMARK    8  A    between atoms: CD   and  CE  
ROOT
ATOM      7  CA  LYS A 135      33.193  34.663   9.290  1.00 25.02     0.186 C 
ENDROOT
BRANCH   7   8
ATOM      8  CB  LYS A 135      32.060  35.360  10.034  1.00 26.63     0.034 C 
BRANCH   8   9
ATOM      9  CG  LYS A 135      32.522  36.500  10.904  1.00 29.45     0.005 C 
BRANCH   9  10
ATOM     10  CD  LYS A 135      32.623  36.060  12.357  1.00 32.00     0.041 C 
BRANCH  10  11
ATOM     11  CE  LYS A 135      31.910  37.045  13.263  1.00 34.25     0.338 C 
ATOM     12  NZ  LYS A 135      32.260  36.811  14.691  1.00 35.99     0.618 N 
ENDBRANCH  10  11
ENDBRANCH   9  10
ENDBRANCH   8   9
ENDBRANCH   7   8
END_RES LYS A 135
