REMARK VINA RESULT:    -4.376      4.113      8.703
REMARK INTER + INTRA:         -21.387
REMARK INTER:                 -14.708
REMARK INTRA:                  -6.680
REMARK UNBOUND:               -10.616
REMARK SMILES CC(=O)N[C@@H]1[C@@H](O)C[C@](OC[C@H]2O[C@@H](O[C@H]3[C@H](O)[C@@H](O)[C@H](OCCN=[N+]=[N-])O[C@@H]3CO)[C@H](O)[C@@H](O)[C@H]2O)(C(=O)O)O[C@H]1C(O)[C@H](O)CNC(=O)OCc1cn(C2CCCC2)nn1
REMARK SMILES IDX 9 1 8 2 6 3 5 4 42 5 41 6 10 7 11 8 12 9 14 10 13 11 32 12
REMARK SMILES IDX 34 13 36 14 15 15 16 16 29 17 28 18 21 19 17 20 19 21 30 22
REMARK SMILES IDX 31 23 22 25 23 26 24 27 25 28 26 29 27 30 18 31 20 33 33 35
REMARK SMILES IDX 35 37 37 39 38 41 39 42 40 43 7 45 43 47 44 48 45 50 46 51
REMARK SMILES IDX 47 53 48 54 49 55 50 57 51 58 52 59 53 60 54 61 62 62 55 63
REMARK SMILES IDX 61 64 56 65 57 66 60 67 58 68 59 69 4 70 2 71 1 73 3 74
REMARK H PARENT 31 24 18 32 20 34 33 36 35 38 37 40 40 44 7 46 44 49 46 52
REMARK H PARENT 48 56 4 72
REMARK Flexibility Score: inf
ROOT
ATOM      1  C   UNL     1      26.947  36.241   7.565  1.00  0.00     0.272 C 
ATOM      2  C   UNL     1      27.049  34.855   8.084  1.00  0.00     0.113 C 
ATOM      3  C   UNL     1      27.048  34.747   9.569  1.00  0.00     0.145 C 
ATOM      4  C   UNL     1      28.072  35.736  10.177  1.00  0.00     0.142 C 
ATOM      5  C   UNL     1      28.729  36.450   9.048  1.00  0.00     0.178 C 
ATOM      6  O   UNL     1      27.644  37.140   8.404  1.00  0.00    -0.332 OA
ENDROOT
BRANCH   1   7
ATOM      7  O   UNL     1      25.682  36.692   7.445  1.00  0.00    -0.338 OA
BRANCH   7   8
ATOM      8  C   UNL     1      25.210  37.635   8.320  1.00  0.00     0.199 C 
BRANCH   8   9
ATOM      9  C   UNL     1      24.786  38.848   7.495  1.00  0.00     0.179 C 
ATOM     10  C   UNL     1      22.682  39.354   8.354  1.00  0.00     0.282 C 
ATOM     11  O   UNL     1      23.448  38.926   7.277  1.00  0.00    -0.341 OA
ATOM     12  C   UNL     1      23.379  40.325   9.241  1.00  0.00     0.202 C 
ATOM     13  C   UNL     1      24.494  41.075   8.582  1.00  0.00     0.179 C 
ATOM     14  C   UNL     1      25.457  40.065   8.010  1.00  0.00     0.177 C 
BRANCH  10  15
ATOM     15  O   UNL     1      22.107  38.283   9.036  1.00  0.00    -0.341 OA
BRANCH  15  16
ATOM     16  C   UNL     1      20.890  37.896   8.476  1.00  0.00     0.184 C 
ATOM     17  C   UNL     1      19.766  37.800   9.452  1.00  0.00     0.178 C 
ATOM     18  O   UNL     1      18.637  37.326   8.787  1.00  0.00    -0.341 OA
ATOM     19  C   UNL     1      18.756  35.965   8.570  1.00  0.00     0.281 C 
ATOM     20  C   UNL     1      21.116  36.494   7.925  1.00  0.00     0.180 C 
ATOM     21  C   UNL     1      19.853  35.796   7.534  1.00  0.00     0.202 C 
BRANCH  17  22
ATOM     22  C   UNL     1      19.345  39.146  10.032  1.00  0.00     0.191 C 
BRANCH  22  23
ATOM     23  O   UNL     1      20.358  39.493  10.941  1.00  0.00    -0.394 OA
ATOM     24  H   UNL     1      20.315  38.945  11.742  1.00  0.00     0.210 HD
ENDBRANCH  22  23
ENDBRANCH  17  22
BRANCH  19  25
ATOM     25  O   UNL     1      17.578  35.493   8.000  1.00  0.00    -0.350 OA
BRANCH  25  26
ATOM     26  C   UNL     1      16.942  34.610   8.889  1.00  0.00     0.169 C 
BRANCH  26  27
ATOM     27  C   UNL     1      16.956  33.196   8.334  1.00  0.00     0.119 C 
BRANCH  27  28
ATOM     28  N   UNL     1      15.653  32.809   7.877  1.00  0.00    -0.092 NA
ATOM     29  N   UNL     1      15.215  33.153   6.760  1.00  0.00     0.001 N 
ATOM     30  N   UNL     1      14.689  33.887   5.927  1.00  0.00    -0.003 NA
ENDBRANCH  27  28
ENDBRANCH  26  27
ENDBRANCH  25  26
ENDBRANCH  19  25
BRANCH  20  31
ATOM     31  O   UNL     1      21.906  36.648   6.788  1.00  0.00    -0.387 OA
ATOM     32  H   UNL     1      21.388  36.930   5.994  1.00  0.00     0.211 HD
ENDBRANCH  20  31
BRANCH  21  33
ATOM     33  O   UNL     1      20.123  34.421   7.454  1.00  0.00    -0.385 OA
ATOM     34  H   UNL     1      20.935  34.278   8.005  1.00  0.00     0.211 HD
ENDBRANCH  21  33
ENDBRANCH  15  16
ENDBRANCH  10  15
BRANCH  12  35
ATOM     35  O   UNL     1      22.484  41.309   9.724  1.00  0.00    -0.385 OA
ATOM     36  H   UNL     1      21.762  41.387   9.073  1.00  0.00     0.211 HD
ENDBRANCH  12  35
BRANCH  13  37
ATOM     37  O   UNL     1      25.162  41.831   9.527  1.00  0.00    -0.387 OA
ATOM     38  H   UNL     1      25.904  42.292   9.077  1.00  0.00     0.211 HD
ENDBRANCH  13  37
BRANCH  14  39
ATOM     39  O   UNL     1      26.441  39.815   8.958  1.00  0.00    -0.387 OA
ATOM     40  H   UNL     1      27.307  39.633   8.567  1.00  0.00     0.211 HD
ENDBRANCH  14  39
ENDBRANCH   8   9
ENDBRANCH   7   8
ENDBRANCH   1   7
BRANCH   1  41
ATOM     41  C   UNL     1      27.712  36.321   6.263  1.00  0.00     0.364 C 
ATOM     42  O   UNL     1      28.734  35.652   6.046  1.00  0.00    -0.246 OA
BRANCH  41  43
ATOM     43  O   UNL     1      27.195  37.204   5.310  1.00  0.00    -0.477 OA
ATOM     44  H   UNL     1      27.831  37.879   4.866  1.00  0.00     0.296 HD
ENDBRANCH  41  43
ENDBRANCH   1  41
BRANCH   3  45
ATOM     45  O   UNL     1      25.823  34.847  10.177  1.00  0.00    -0.391 OA
ATOM     46  H   UNL     1      25.256  35.494   9.698  1.00  0.00     0.211 HD
ENDBRANCH   3  45
BRANCH   5  47
ATOM     47  C   UNL     1      29.669  37.560   9.446  1.00  0.00     0.176 C 
BRANCH  47  48
ATOM     48  O   UNL     1      28.814  38.628   9.950  1.00  0.00    -0.388 OA
ATOM     49  H   UNL     1      28.077  38.128  10.369  1.00  0.00     0.211 HD
ENDBRANCH  47  48
BRANCH  47  50
ATOM     50  C   UNL     1      30.387  38.248   8.320  1.00  0.00     0.165 C 
BRANCH  50  51
ATOM     51  O   UNL     1      31.737  38.270   8.344  1.00  0.00    -0.388 OA
ATOM     52  H   UNL     1      32.142  38.865   9.011  1.00  0.00     0.211 HD
ENDBRANCH  50  51
BRANCH  50  53
ATOM     53  C   UNL     1      29.896  39.690   8.269  1.00  0.00     0.154 C 
BRANCH  53  54
ATOM     54  N   UNL     1      30.516  40.342   7.108  1.00  0.00    -0.319 N 
ATOM     55  C   UNL     1      29.921  40.264   5.823  1.00  0.00     0.407 C 
ATOM     56  H   UNL     1      31.415  40.882   7.197  1.00  0.00     0.167 HD
ATOM     57  O   UNL     1      28.845  39.626   5.685  1.00  0.00    -0.225 OA
BRANCH  55  58
ATOM     58  O   UNL     1      30.490  40.869   4.726  1.00  0.00    -0.443 OA
BRANCH  58  59
ATOM     59  C   UNL     1      31.750  41.509   4.781  1.00  0.00     0.294 C 
BRANCH  59  60
ATOM     60  C   UNL     1      32.885  40.575   4.601  1.00  0.00     0.120 A 
ATOM     61  C   UNL     1      33.649  39.903   5.528  1.00  0.00     0.138 A 
ATOM     62  N   UNL     1      33.391  40.207   3.404  1.00  0.00    -0.132 NA
ATOM     63  N   UNL     1      34.565  39.172   4.888  1.00  0.00    -0.249 N 
ATOM     64  N   UNL     1      34.378  39.381   3.595  1.00  0.00    -0.067 NA
BRANCH  63  65
ATOM     65  C   UNL     1      35.588  38.300   5.453  1.00  0.00     0.109 C 
ATOM     66  C   UNL     1      36.645  37.929   4.466  1.00  0.00     0.027 C 
ATOM     67  C   UNL     1      36.326  39.065   6.531  1.00  0.00     0.027 C 
ATOM     68  C   UNL     1      37.777  38.913   4.616  1.00  0.00     0.002 C 
ATOM     69  C   UNL     1      37.509  39.705   5.870  1.00  0.00     0.002 C 
ENDBRANCH  63  65
ENDBRANCH  59  60
ENDBRANCH  58  59
ENDBRANCH  55  58
ENDBRANCH  53  54
ENDBRANCH  50  53
ENDBRANCH  47  50
ENDBRANCH   5  47
BRANCH   4  70
ATOM     70  N   UNL     1      28.939  35.004  11.071  1.00  0.00    -0.348 N 
ATOM     71  C   UNL     1      28.696  35.032  12.498  1.00  0.00     0.217 C 
ATOM     72  H   UNL     1      29.741  34.423  10.750  1.00  0.00     0.163 HD
ATOM     73  C   UNL     1      29.573  34.287  13.434  1.00  0.00     0.114 C 
ATOM     74  O   UNL     1      27.733  35.691  12.975  1.00  0.00    -0.275 OA
ENDBRANCH   4  70
TORSDOF 30
BEGIN_RES LYS A 131
REMARK  4 active torsions:
REMARK  status: ('A' for Active; 'I' for Inactive)
REMARK    1  A    between atoms: CA   and  CB  
REMARK    2  A    between atoms: CB   and  CG  
REMARK    3  A    between atoms: CG   and  CD  
REMARK    4  A    between atoms: CD   and  CE  
ROOT
ATOM      1  CA  LYS A 131      29.867  25.555  16.977  1.00 20.52     0.186 C 
ENDROOT
BRANCH   1   2
ATOM      2  CB  LYS A 131      28.345  25.722  17.026  1.00 20.94     0.034 C 
BRANCH   2   3
ATOM      3  CG  LYS A 131      27.601  24.401  16.898  1.00 22.96     0.005 C 
BRANCH   3   4
ATOM      4  CD  LYS A 131      26.147  24.533  17.257  1.00 24.33     0.041 C 
BRANCH   4   5
ATOM      5  CE  LYS A 131      25.564  23.151  17.535  1.00 26.91     0.338 C 
ATOM      6  NZ  LYS A 131      24.087  23.180  17.428  1.00 27.40     0.618 N 
ENDBRANCH   4   5
ENDBRANCH   3   4
ENDBRANCH   2   3
ENDBRANCH   1   2
END_RES LYS A 131
BEGIN_RES LYS A 135
REMARK  4 active torsions:
REMARK  status: ('A' for Active; 'I' for Inactive)
REMARK    5  A    between atoms: CA   and  CB  
REMARK    6  A    between atoms: CB   and  CG  
REMARK    7  A    between atoms: CG   and  CD  
REMARK    8  A    between atoms: CD   and  CE  
ROOT
ATOM      7  CA  LYS A 135      33.193  34.663   9.290  1.00 25.02     0.186 C 
ENDROOT
BRANCH   7   8
ATOM      8  CB  LYS A 135      32.060  35.360  10.034  1.00 26.63     0.034 C 
BRANCH   8   9
ATOM      9  CG  LYS A 135      32.382  35.663  11.475  1.00 29.45     0.005 C 
BRANCH   9  10
ATOM     10  CD  LYS A 135      32.230  37.149  11.757  1.00 32.00     0.041 C 
BRANCH  10  11
ATOM     11  CE  LYS A 135      31.574  37.371  13.107  1.00 34.25     0.338 C 
ATOM     12  NZ  LYS A 135      30.415  38.299  12.994  1.00 35.99     0.618 N 
ENDBRANCH  10  11
ENDBRANCH   9  10
ENDBRANCH   8   9
ENDBRANCH   7   8
END_RES LYS A 135
