REMARK VINA RESULT:    -4.950      0.000      0.000
REMARK INTER + INTRA:         -23.968
REMARK INTER:                 -13.473
REMARK INTRA:                 -10.495
REMARK UNBOUND:               -11.494
REMARK SMILES CC(=O)N[C@@H]1[C@@H](O)C[C@](OC[C@H]2O[C@@H](O[C@H]3[C@H](O)[C@@H](O)[C@H](OCCN=[N+]=[N-])O[C@@H]3CO)[C@H](O)[C@@H](O)[C@H]2O)(C(=O)O)O[C@H]1C(O)[C@H](O)CNC(=O)OCc1cn(-c2ccccc2C(C)=O)nn1
REMARK SMILES IDX 9 1 8 2 6 3 5 4 42 5 41 6 10 7 11 8 12 9 14 10 13 11 32 12
REMARK SMILES IDX 34 13 36 14 15 15 16 16 29 17 28 18 21 19 17 20 19 21 30 22
REMARK SMILES IDX 31 23 22 25 23 26 24 27 25 28 26 29 27 30 18 31 20 33 33 35
REMARK SMILES IDX 35 37 37 39 38 41 39 42 40 43 7 45 43 47 44 48 45 50 46 51
REMARK SMILES IDX 47 53 48 54 49 55 50 57 51 58 52 59 53 60 54 61 66 62 55 63
REMARK SMILES IDX 65 64 56 65 61 66 57 67 60 68 58 69 59 70 62 71 64 72 63 73
REMARK SMILES IDX 4 74 2 75 1 77 3 78
REMARK H PARENT 31 24 18 32 20 34 33 36 35 38 37 40 40 44 7 46 44 49 46 52
REMARK H PARENT 48 56 4 76
REMARK Flexibility Score: inf
ROOT
ATOM      1  C   UNL     1      27.670  38.781   6.887  1.00  0.00     0.272 C 
ATOM      2  C   UNL     1      29.043  38.194   7.040  1.00  0.00     0.113 C 
ATOM      3  C   UNL     1      30.032  39.329   7.099  1.00  0.00     0.145 C 
ATOM      4  C   UNL     1      29.724  40.037   8.407  1.00  0.00     0.142 C 
ATOM      5  C   UNL     1      28.351  40.626   8.225  1.00  0.00     0.178 C 
ATOM      6  O   UNL     1      27.603  40.155   7.210  1.00  0.00    -0.332 OA
ENDROOT
BRANCH   1   7
ATOM      7  O   UNL     1      26.678  38.202   7.516  1.00  0.00    -0.338 OA
BRANCH   7   8
ATOM      8  C   UNL     1      25.965  37.138   7.322  1.00  0.00     0.199 C 
BRANCH   8   9
ATOM      9  C   UNL     1      24.743  36.752   8.067  1.00  0.00     0.179 C 
ATOM     10  C   UNL     1      24.122  35.637   9.997  1.00  0.00     0.282 C 
ATOM     11  O   UNL     1      25.186  36.187   9.303  1.00  0.00    -0.341 OA
ATOM     12  C   UNL     1      22.767  36.016   9.533  1.00  0.00     0.202 C 
ATOM     13  C   UNL     1      22.613  37.407   9.001  1.00  0.00     0.179 C 
ATOM     14  C   UNL     1      23.934  37.979   8.548  1.00  0.00     0.177 C 
BRANCH  10  15
ATOM     15  O   UNL     1      24.254  35.940  11.352  1.00  0.00    -0.341 OA
BRANCH  15  16
ATOM     16  C   UNL     1      24.899  34.922  12.050  1.00  0.00     0.184 C 
ATOM     17  C   UNL     1      23.977  34.456  13.150  1.00  0.00     0.178 C 
ATOM     18  O   UNL     1      24.471  34.628  14.417  1.00  0.00    -0.341 OA
ATOM     19  C   UNL     1      25.721  34.111  14.654  1.00  0.00     0.281 C 
ATOM     20  C   UNL     1      26.103  35.588  12.731  1.00  0.00     0.180 C 
ATOM     21  C   UNL     1      26.737  34.563  13.617  1.00  0.00     0.202 C 
BRANCH  17  22
ATOM     22  C   UNL     1      23.592  33.016  12.865  1.00  0.00     0.191 C 
BRANCH  22  23
ATOM     23  O   UNL     1      22.345  33.020  12.243  1.00  0.00    -0.394 OA
ATOM     24  H   UNL     1      22.257  33.661  11.514  1.00  0.00     0.210 HD
ENDBRANCH  22  23
ENDBRANCH  17  22
BRANCH  19  25
ATOM     25  O   UNL     1      25.756  32.743  14.838  1.00  0.00    -0.350 OA
BRANCH  25  26
ATOM     26  C   UNL     1      25.460  32.453  16.161  1.00  0.00     0.169 C 
BRANCH  26  27
ATOM     27  C   UNL     1      26.505  31.494  16.709  1.00  0.00     0.119 C 
BRANCH  27  28
ATOM     28  N   UNL     1      25.884  30.202  17.026  1.00  0.00    -0.092 NA
ATOM     29  N   UNL     1      26.646  29.240  17.103  1.00  0.00     0.001 N 
ATOM     30  N   UNL     1      27.256  28.184  17.098  1.00  0.00    -0.003 NA
ENDBRANCH  27  28
ENDBRANCH  26  27
ENDBRANCH  25  26
ENDBRANCH  19  25
BRANCH  20  31
ATOM     31  O   UNL     1      26.951  36.091  11.772  1.00  0.00    -0.387 OA
ATOM     32  H   UNL     1      26.479  36.724  11.147  1.00  0.00     0.211 HD
ENDBRANCH  20  31
BRANCH  21  33
ATOM     33  O   UNL     1      27.916  35.027  14.204  1.00  0.00    -0.385 OA
ATOM     34  H   UNL     1      27.786  35.985  14.481  1.00  0.00     0.211 HD
ENDBRANCH  21  33
ENDBRANCH  15  16
ENDBRANCH  10  15
BRANCH  12  35
ATOM     35  O   UNL     1      22.222  35.055   8.668  1.00  0.00    -0.385 OA
ATOM     36  H   UNL     1      22.005  35.446   7.784  1.00  0.00     0.211 HD
ENDBRANCH  12  35
BRANCH  13  37
ATOM     37  O   UNL     1      22.093  38.284   9.968  1.00  0.00    -0.387 OA
ATOM     38  H   UNL     1      22.874  38.761  10.356  1.00  0.00     0.211 HD
ENDBRANCH  13  37
BRANCH  14  39
ATOM     39  O   UNL     1      24.614  38.593   9.606  1.00  0.00    -0.387 OA
ATOM     40  H   UNL     1      24.975  37.939  10.258  1.00  0.00     0.211 HD
ENDBRANCH  14  39
ENDBRANCH   8   9
ENDBRANCH   7   8
ENDBRANCH   1   7
BRANCH   1  41
ATOM     41  C   UNL     1      27.455  38.841   5.413  1.00  0.00     0.364 C 
ATOM     42  O   UNL     1      27.006  39.909   4.870  1.00  0.00    -0.246 OA
BRANCH  41  43
ATOM     43  O   UNL     1      27.692  37.824   4.524  1.00  0.00    -0.477 OA
ATOM     44  H   UNL     1      28.034  37.984   3.586  1.00  0.00     0.296 HD
ENDBRANCH  41  43
ENDBRANCH   1  41
BRANCH   3  45
ATOM     45  O   UNL     1      31.300  38.754   7.117  1.00  0.00    -0.391 OA
ATOM     46  H   UNL     1      31.291  37.873   7.576  1.00  0.00     0.211 HD
ENDBRANCH   3  45
BRANCH   5  47
ATOM     47  C   UNL     1      27.603  40.632   9.598  1.00  0.00     0.176 C 
BRANCH  47  48
ATOM     48  O   UNL     1      28.021  41.887  10.182  1.00  0.00    -0.388 OA
ATOM     49  H   UNL     1      27.692  41.791  11.128  1.00  0.00     0.211 HD
ENDBRANCH  47  48
BRANCH  47  50
ATOM     50  C   UNL     1      28.102  39.572  10.486  1.00  0.00     0.165 C 
BRANCH  50  51
ATOM     51  O   UNL     1      27.435  38.341  10.267  1.00  0.00    -0.388 OA
ATOM     52  H   UNL     1      27.514  37.750  11.047  1.00  0.00     0.211 HD
ENDBRANCH  50  51
BRANCH  50  53
ATOM     53  C   UNL     1      28.555  39.823  11.852  1.00  0.00     0.154 C 
BRANCH  53  54
ATOM     54  N   UNL     1      29.844  39.351  12.203  1.00  0.00    -0.319 N 
ATOM     55  C   UNL     1      30.241  38.032  12.516  1.00  0.00     0.407 C 
ATOM     56  H   UNL     1      30.649  40.058  12.244  1.00  0.00     0.167 HD
ATOM     57  O   UNL     1      29.371  37.131  12.515  1.00  0.00    -0.225 OA
BRANCH  55  58
ATOM     58  O   UNL     1      31.542  37.665  12.828  1.00  0.00    -0.443 OA
BRANCH  58  59
ATOM     59  C   UNL     1      32.121  36.521  12.256  1.00  0.00     0.294 C 
BRANCH  59  60
ATOM     60  C   UNL     1      32.399  35.555  13.374  1.00  0.00     0.121 A 
ATOM     61  C   UNL     1      31.475  34.885  14.142  1.00  0.00     0.144 A 
ATOM     62  N   UNL     1      33.588  35.159  13.848  1.00  0.00    -0.131 NA
ATOM     63  N   UNL     1      32.151  34.110  15.052  1.00  0.00    -0.220 N 
ATOM     64  N   UNL     1      33.434  34.308  14.836  1.00  0.00    -0.062 NA
BRANCH  63  65
ATOM     65  C   UNL     1      31.514  33.308  16.038  1.00  0.00     0.077 A 
ATOM     66  C   UNL     1      31.291  33.652  17.323  1.00  0.00     0.043 A 
ATOM     67  C   UNL     1      31.084  32.044  15.589  1.00  0.00     0.029 A 
ATOM     68  C   UNL     1      30.635  32.718  18.152  1.00  0.00     0.014 A 
ATOM     69  C   UNL     1      30.445  31.151  16.421  1.00  0.00     0.002 A 
ATOM     70  C   UNL     1      30.212  31.490  17.731  1.00  0.00     0.001 A 
BRANCH  66  71
ATOM     71  C   UNL     1      31.702  34.923  17.871  1.00  0.00     0.161 C 
ATOM     72  O   UNL     1      30.925  35.914  17.587  1.00  0.00    -0.294 OA
ATOM     73  C   UNL     1      32.868  35.237  18.699  1.00  0.00     0.093 C 
ENDBRANCH  66  71
ENDBRANCH  63  65
ENDBRANCH  59  60
ENDBRANCH  58  59
ENDBRANCH  55  58
ENDBRANCH  53  54
ENDBRANCH  50  53
ENDBRANCH  47  50
ENDBRANCH   5  47
BRANCH   4  74
ATOM     74  N   UNL     1      30.717  41.010   8.749  1.00  0.00    -0.348 N 
ATOM     75  C   UNL     1      31.841  40.732   9.566  1.00  0.00     0.217 C 
ATOM     76  H   UNL     1      30.584  41.980   8.359  1.00  0.00     0.163 HD
ATOM     77  C   UNL     1      32.825  41.831   9.860  1.00  0.00     0.114 C 
ATOM     78  O   UNL     1      31.966  39.572  10.009  1.00  0.00    -0.275 OA
ENDBRANCH   4  74
TORSDOF 31
BEGIN_RES LYS A 131
REMARK  4 active torsions:
REMARK  status: ('A' for Active; 'I' for Inactive)
REMARK    1  A    between atoms: CA   and  CB  
REMARK    2  A    between atoms: CB   and  CG  
REMARK    3  A    between atoms: CG   and  CD  
REMARK    4  A    between atoms: CD   and  CE  
ROOT
ATOM      1  CA  LYS A 131      29.867  25.555  16.977  1.00 20.52     0.186 C 
ENDROOT
BRANCH   1   2
ATOM      2  CB  LYS A 131      28.345  25.722  17.026  1.00 20.94     0.034 C 
BRANCH   2   3
ATOM      3  CG  LYS A 131      27.602  24.400  16.913  1.00 22.96     0.005 C 
BRANCH   3   4
ATOM      4  CD  LYS A 131      26.167  24.518  17.346  1.00 24.33     0.041 C 
BRANCH   4   5
ATOM      5  CE  LYS A 131      25.969  23.776  18.664  1.00 26.91     0.338 C 
ATOM      6  NZ  LYS A 131      25.446  24.693  19.703  1.00 27.40     0.618 N 
ENDBRANCH   4   5
ENDBRANCH   3   4
ENDBRANCH   2   3
ENDBRANCH   1   2
END_RES LYS A 131
BEGIN_RES LYS A 135
REMARK  4 active torsions:
REMARK  status: ('A' for Active; 'I' for Inactive)
REMARK    5  A    between atoms: CA   and  CB  
REMARK    6  A    between atoms: CB   and  CG  
REMARK    7  A    between atoms: CG   and  CD  
REMARK    8  A    between atoms: CD   and  CE  
ROOT
ATOM      7  CA  LYS A 135      33.193  34.663   9.290  1.00 25.02     0.186 C 
ENDROOT
BRANCH   7   8
ATOM      8  CB  LYS A 135      32.060  35.360  10.034  1.00 26.63     0.034 C 
BRANCH   8   9
ATOM      9  CG  LYS A 135      30.845  35.614   9.180  1.00 29.45     0.005 C 
BRANCH   9  10
ATOM     10  CD  LYS A 135      30.182  34.303   8.786  1.00 32.00     0.041 C 
BRANCH  10  11
ATOM     11  CE  LYS A 135      28.714  34.522   8.472  1.00 34.25     0.338 C 
ATOM     12  NZ  LYS A 135      27.845  33.792   9.437  1.00 35.99     0.618 N 
ENDBRANCH  10  11
ENDBRANCH   9  10
ENDBRANCH   8   9
ENDBRANCH   7   8
END_RES LYS A 135
