REMARK VINA RESULT:    -4.517      6.760     11.750
REMARK INTER + INTRA:         -22.710
REMARK INTER:                 -12.346
REMARK INTRA:                 -10.364
REMARK UNBOUND:               -11.064
REMARK SMILES CC(=O)N[C@@H]1[C@@H](O)C[C@](OC[C@H]2O[C@@H](O[C@H]3[C@H](O)[C@@H](O)[C@H](OCCN=[N+]=[N-])O[C@@H]3CO)[C@H](O)[C@@H](O)[C@H]2O)(C(=O)O)O[C@H]1C(O)[C@H](O)CNC(=O)OCc1cn(CC(=O)Nc2ncccn2)nn1
REMARK SMILES IDX 9 1 8 2 6 3 5 4 42 5 41 6 10 7 11 8 12 9 14 10 13 11 32 12
REMARK SMILES IDX 34 13 36 14 15 15 16 16 29 17 28 18 21 19 17 20 19 21 30 22
REMARK SMILES IDX 31 23 22 25 23 26 24 27 25 28 26 29 27 30 18 31 20 33 33 35
REMARK SMILES IDX 35 37 37 39 38 41 39 42 40 43 7 45 43 47 44 48 45 50 46 51
REMARK SMILES IDX 47 53 48 54 49 55 50 57 51 58 52 59 53 60 54 61 67 62 55 63
REMARK SMILES IDX 66 64 56 65 57 66 58 67 59 68 60 70 61 71 65 72 62 73 64 74
REMARK SMILES IDX 63 75 4 76 2 77 1 79 3 80
REMARK H PARENT 31 24 18 32 20 34 33 36 35 38 37 40 40 44 7 46 44 49 46 52
REMARK H PARENT 48 56 59 69 4 78
REMARK Flexibility Score: inf
ROOT
ATOM      1  C   UNL     1      29.002  31.119  20.417  1.00  0.00     0.272 C 
ATOM      2  C   UNL     1      29.657  32.435  20.802  1.00  0.00     0.113 C 
ATOM      3  C   UNL     1      30.438  32.291  22.044  1.00  0.00     0.145 C 
ATOM      4  C   UNL     1      31.323  31.057  22.126  1.00  0.00     0.142 C 
ATOM      5  C   UNL     1      30.835  29.932  21.330  1.00  0.00     0.178 C 
ATOM      6  O   UNL     1      30.189  30.331  20.169  1.00  0.00    -0.332 OA
ENDROOT
BRANCH   1   7
ATOM      7  O   UNL     1      28.406  31.263  19.241  1.00  0.00    -0.338 OA
BRANCH   7   8
ATOM      8  C   UNL     1      27.955  32.177  18.480  1.00  0.00     0.199 C 
BRANCH   8   9
ATOM      9  C   UNL     1      28.557  32.726  17.230  1.00  0.00     0.179 C 
ATOM     10  C   UNL     1      30.639  33.497  16.505  1.00  0.00     0.282 C 
ATOM     11  O   UNL     1      29.925  33.095  17.590  1.00  0.00    -0.341 OA
ATOM     12  C   UNL     1      31.113  32.243  15.701  1.00  0.00     0.202 C 
ATOM     13  C   UNL     1      30.170  31.167  16.202  1.00  0.00     0.179 C 
ATOM     14  C   UNL     1      28.764  31.800  16.090  1.00  0.00     0.177 C 
BRANCH  10  15
ATOM     15  O   UNL     1      31.795  34.166  16.928  1.00  0.00    -0.341 OA
BRANCH  15  16
ATOM     16  C   UNL     1      31.772  35.521  16.626  1.00  0.00     0.184 C 
ATOM     17  C   UNL     1      30.395  35.840  16.029  1.00  0.00     0.178 C 
ATOM     18  O   UNL     1      30.516  36.506  14.819  1.00  0.00    -0.341 OA
ATOM     19  C   UNL     1      31.151  35.702  13.860  1.00  0.00     0.281 C 
ATOM     20  C   UNL     1      32.875  35.862  15.695  1.00  0.00     0.180 C 
ATOM     21  C   UNL     1      32.605  35.662  14.234  1.00  0.00     0.202 C 
BRANCH  17  22
ATOM     22  C   UNL     1      29.633  36.760  16.967  1.00  0.00     0.191 C 
BRANCH  22  23
ATOM     23  O   UNL     1      30.481  37.718  17.525  1.00  0.00    -0.394 OA
ATOM     24  H   UNL     1      30.357  38.615  17.110  1.00  0.00     0.210 HD
ENDBRANCH  22  23
ENDBRANCH  17  22
BRANCH  19  25
ATOM     25  O   UNL     1      30.972  36.348  12.651  1.00  0.00    -0.350 OA
BRANCH  25  26
ATOM     26  C   UNL     1      30.440  37.614  12.768  1.00  0.00     0.169 C 
BRANCH  26  27
ATOM     27  C   UNL     1      31.217  38.683  12.031  1.00  0.00     0.119 C 
BRANCH  27  28
ATOM     28  N   UNL     1      31.983  38.128  10.927  1.00  0.00    -0.092 NA
ATOM     29  N   UNL     1      32.226  38.781   9.908  1.00  0.00     0.001 N 
ATOM     30  N   UNL     1      32.249  39.527   8.934  1.00  0.00    -0.003 NA
ENDBRANCH  27  28
ENDBRANCH  26  27
ENDBRANCH  25  26
ENDBRANCH  19  25
BRANCH  20  31
ATOM     31  O   UNL     1      33.183  37.243  15.837  1.00  0.00    -0.387 OA
ATOM     32  H   UNL     1      33.299  37.649  14.930  1.00  0.00     0.211 HD
ENDBRANCH  20  31
BRANCH  21  33
ATOM     33  O   UNL     1      33.152  34.445  13.842  1.00  0.00    -0.385 OA
ATOM     34  H   UNL     1      33.036  33.781  14.563  1.00  0.00     0.211 HD
ENDBRANCH  21  33
ENDBRANCH  15  16
ENDBRANCH  10  15
BRANCH  12  35
ATOM     35  O   UNL     1      30.777  32.448  14.358  1.00  0.00    -0.385 OA
ATOM     36  H   UNL     1      30.325  31.615  14.055  1.00  0.00     0.211 HD
ENDBRANCH  12  35
BRANCH  13  37
ATOM     37  O   UNL     1      30.458  30.723  17.464  1.00  0.00    -0.387 OA
ATOM     38  H   UNL     1      30.518  29.751  17.540  1.00  0.00     0.211 HD
ENDBRANCH  13  37
BRANCH  14  39
ATOM     39  O   UNL     1      27.881  30.812  15.833  1.00  0.00    -0.387 OA
ATOM     40  H   UNL     1      28.076  30.339  14.987  1.00  0.00     0.211 HD
ENDBRANCH  14  39
ENDBRANCH   8   9
ENDBRANCH   7   8
ENDBRANCH   1   7
BRANCH   1  41
ATOM     41  C   UNL     1      28.229  30.466  21.452  1.00  0.00     0.364 C 
ATOM     42  O   UNL     1      27.479  31.159  22.221  1.00  0.00    -0.246 OA
BRANCH  41  43
ATOM     43  O   UNL     1      28.221  29.116  21.713  1.00  0.00    -0.477 OA
ATOM     44  H   UNL     1      28.251  28.393  21.036  1.00  0.00     0.296 HD
ENDBRANCH  41  43
ENDBRANCH   1  41
BRANCH   3  45
ATOM     45  O   UNL     1      31.244  33.451  22.160  1.00  0.00    -0.391 OA
ATOM     46  H   UNL     1      30.656  34.226  22.414  1.00  0.00     0.211 HD
ENDBRANCH   3  45
BRANCH   5  47
ATOM     47  C   UNL     1      31.938  28.968  20.820  1.00  0.00     0.176 C 
BRANCH  47  48
ATOM     48  O   UNL     1      33.199  29.320  21.117  1.00  0.00    -0.388 OA
ATOM     49  H   UNL     1      33.444  29.265  22.083  1.00  0.00     0.211 HD
ENDBRANCH  47  48
BRANCH  47  50
ATOM     50  C   UNL     1      31.561  27.573  20.703  1.00  0.00     0.165 C 
BRANCH  50  51
ATOM     51  O   UNL     1      30.209  27.634  20.062  1.00  0.00    -0.388 OA
ATOM     52  H   UNL     1      29.978  26.736  19.777  1.00  0.00     0.211 HD
ENDBRANCH  50  51
BRANCH  50  53
ATOM     53  C   UNL     1      31.446  26.610  21.779  1.00  0.00     0.154 C 
BRANCH  53  54
ATOM     54  N   UNL     1      31.271  26.843  23.136  1.00  0.00    -0.319 N 
ATOM     55  C   UNL     1      32.093  27.331  24.173  1.00  0.00     0.407 C 
ATOM     56  H   UNL     1      30.243  26.585  23.491  1.00  0.00     0.167 HD
ATOM     57  O   UNL     1      33.276  27.655  23.960  1.00  0.00    -0.225 OA
BRANCH  55  58
ATOM     58  O   UNL     1      31.622  27.472  25.454  1.00  0.00    -0.443 OA
BRANCH  58  59
ATOM     59  C   UNL     1      30.552  26.900  26.059  1.00  0.00     0.294 C 
BRANCH  59  60
ATOM     60  C   UNL     1      29.284  27.026  25.305  1.00  0.00     0.120 A 
ATOM     61  C   UNL     1      28.377  25.994  25.024  1.00  0.00     0.138 A 
ATOM     62  N   UNL     1      28.744  28.103  24.670  1.00  0.00    -0.132 NA
ATOM     63  N   UNL     1      27.373  26.450  24.268  1.00  0.00    -0.243 N 
ATOM     64  N   UNL     1      27.632  27.731  24.077  1.00  0.00    -0.067 NA
BRANCH  63  65
ATOM     65  C   UNL     1      26.219  25.748  23.741  1.00  0.00     0.246 C 
BRANCH  65  66
ATOM     66  C   UNL     1      25.830  26.422  22.442  1.00  0.00     0.248 C 
ATOM     67  O   UNL     1      24.806  27.142  22.351  1.00  0.00    -0.272 OA
ATOM     68  N   UNL     1      26.632  26.249  21.288  1.00  0.00    -0.293 N 
ATOM     69  H   UNL     1      27.476  25.637  21.421  1.00  0.00     0.173 HD
BRANCH  68  70
ATOM     70  C   UNL     1      26.403  26.822  20.019  1.00  0.00     0.229 A 
ATOM     71  N   UNL     1      25.258  26.704  19.324  1.00  0.00    -0.221 NA
ATOM     72  N   UNL     1      27.403  27.532  19.457  1.00  0.00    -0.221 NA
ATOM     73  C   UNL     1      25.081  27.266  18.092  1.00  0.00     0.117 A 
ATOM     74  C   UNL     1      27.283  28.104  18.258  1.00  0.00     0.117 A 
ATOM     75  C   UNL     1      26.121  27.985  17.545  1.00  0.00     0.040 A 
ENDBRANCH  68  70
ENDBRANCH  65  66
ENDBRANCH  63  65
ENDBRANCH  59  60
ENDBRANCH  58  59
ENDBRANCH  55  58
ENDBRANCH  53  54
ENDBRANCH  50  53
ENDBRANCH  47  50
ENDBRANCH   5  47
BRANCH   4  76
ATOM     76  N   UNL     1      31.554  30.834  23.521  1.00  0.00    -0.348 N 
ATOM     77  C   UNL     1      32.865  31.014  24.104  1.00  0.00     0.217 C 
ATOM     78  H   UNL     1      30.785  30.532  24.176  1.00  0.00     0.163 HD
ATOM     79  C   UNL     1      33.031  30.773  25.553  1.00  0.00     0.114 C 
ATOM     80  O   UNL     1      33.825  31.364  23.389  1.00  0.00    -0.275 OA
ENDBRANCH   4  76
TORSDOF 32
BEGIN_RES LYS A 131
REMARK  4 active torsions:
REMARK  status: ('A' for Active; 'I' for Inactive)
REMARK    1  A    between atoms: CA   and  CB  
REMARK    2  A    between atoms: CB   and  CG  
REMARK    3  A    between atoms: CG   and  CD  
REMARK    4  A    between atoms: CD   and  CE  
ROOT
ATOM      1  CA  LYS A 131      29.867  25.555  16.977  1.00 20.52     0.186 C 
ENDROOT
BRANCH   1   2
ATOM      2  CB  LYS A 131      28.345  25.722  17.026  1.00 20.94     0.034 C 
BRANCH   2   3
ATOM      3  CG  LYS A 131      27.599  24.435  16.710  1.00 22.96     0.005 C 
BRANCH   3   4
ATOM      4  CD  LYS A 131      26.964  23.833  17.933  1.00 24.33     0.041 C 
BRANCH   4   5
ATOM      5  CE  LYS A 131      25.500  23.517  17.642  1.00 26.91     0.338 C 
ATOM      6  NZ  LYS A 131      24.962  22.577  18.655  1.00 27.40     0.618 N 
ENDBRANCH   4   5
ENDBRANCH   3   4
ENDBRANCH   2   3
ENDBRANCH   1   2
END_RES LYS A 131
BEGIN_RES LYS A 135
REMARK  4 active torsions:
REMARK  status: ('A' for Active; 'I' for Inactive)
REMARK    5  A    between atoms: CA   and  CB  
REMARK    6  A    between atoms: CB   and  CG  
REMARK    7  A    between atoms: CG   and  CD  
REMARK    8  A    between atoms: CD   and  CE  
ROOT
ATOM      7  CA  LYS A 135      33.193  34.663   9.290  1.00 25.02     0.186 C 
ENDROOT
BRANCH   7   8
ATOM      8  CB  LYS A 135      32.060  35.360  10.034  1.00 26.63     0.034 C 
BRANCH   8   9
ATOM      9  CG  LYS A 135      30.793  35.478   9.228  1.00 29.45     0.005 C 
BRANCH   9  10
ATOM     10  CD  LYS A 135      30.005  34.177   9.271  1.00 32.00     0.041 C 
BRANCH  10  11
ATOM     11  CE  LYS A 135      28.763  34.335  10.126  1.00 34.25     0.338 C 
ATOM     12  NZ  LYS A 135      27.565  33.778   9.439  1.00 35.99     0.618 N 
ENDBRANCH  10  11
ENDBRANCH   9  10
ENDBRANCH   8   9
ENDBRANCH   7   8
END_RES LYS A 135
