REMARK VINA RESULT:    -4.788      2.719      6.319
REMARK INTER + INTRA:         -24.652
REMARK INTER:                 -13.798
REMARK INTRA:                 -10.854
REMARK UNBOUND:               -11.748
REMARK SMILES CC(=O)N[C@@H]1[C@@H](O)C[C@](OC[C@H]2O[C@@H](O[C@H]3[C@H](O)[C@@H](O)[C@H](OCCN=[N+]=[N-])O[C@@H]3CO)[C@H](O)[C@@H](O)[C@H]2O)(C(=O)O)O[C@H]1C(O)[C@H](O)CNC(=O)OCc1cn([C@@H](C)C(=O)OCc2ccccc2)nn1
REMARK SMILES IDX 43 1 42 2 9 3 8 4 41 5 6 6 5 7 10 8 11 9 12 10 14 11 13 12
REMARK SMILES IDX 32 13 34 14 36 15 15 16 16 17 29 18 28 19 21 20 17 21 19 22
REMARK SMILES IDX 30 23 31 24 22 26 23 27 24 28 25 29 26 30 27 31 18 32 20 34
REMARK SMILES IDX 33 36 35 38 37 40 38 42 39 43 40 44 7 46 4 48 2 49 1 51 3 52
REMARK SMILES IDX 44 53 45 55 46 56 47 58 48 59 49 60 50 62 51 63 52 64 53 65
REMARK SMILES IDX 54 66 69 67 55 68 68 69 56 70 57 71 58 72 59 73 60 74 61 75
REMARK SMILES IDX 62 76 63 77 67 78 64 79 66 80 65 81
REMARK H PARENT 31 25 18 33 20 35 33 37 35 39 37 41 40 45 7 47 4 50 44 54
REMARK H PARENT 46 57 48 61
REMARK Flexibility Score: inf
ROOT
ATOM      1  C   UNL     1      29.853  27.254  22.967  1.00  0.00     0.176 C 
ENDROOT
BRANCH   1   2
ATOM      2  C   UNL     1      31.171  27.863  23.245  1.00  0.00     0.178 C 
ATOM      3  C   UNL     1      31.080  29.862  22.044  1.00  0.00     0.272 C 
ATOM      4  C   UNL     1      32.144  29.345  21.154  1.00  0.00     0.113 C 
ATOM      5  O   UNL     1      31.203  29.229  23.332  1.00  0.00    -0.332 OA
ATOM      6  C   UNL     1      32.142  27.841  21.010  1.00  0.00     0.145 C 
ATOM      7  C   UNL     1      32.241  27.245  22.381  1.00  0.00     0.142 C 
BRANCH   3   8
ATOM      8  O   UNL     1      29.814  29.760  21.732  1.00  0.00    -0.338 OA
BRANCH   8   9
ATOM      9  C   UNL     1      28.850  30.626  21.615  1.00  0.00     0.199 C 
BRANCH   9  10
ATOM     10  C   UNL     1      27.941  30.696  20.420  1.00  0.00     0.179 C 
ATOM     11  C   UNL     1      27.632  32.024  18.534  1.00  0.00     0.282 C 
ATOM     12  O   UNL     1      28.016  31.942  19.870  1.00  0.00    -0.341 OA
ATOM     13  C   UNL     1      26.740  30.908  18.122  1.00  0.00     0.202 C 
ATOM     14  C   UNL     1      27.442  29.583  18.238  1.00  0.00     0.179 C 
ATOM     15  C   UNL     1      28.362  29.612  19.405  1.00  0.00     0.177 C 
BRANCH  11  16
ATOM     16  O   UNL     1      28.772  32.214  17.801  1.00  0.00    -0.341 OA
BRANCH  16  17
ATOM     17  C   UNL     1      28.587  32.632  16.517  1.00  0.00     0.184 C 
ATOM     18  C   UNL     1      29.863  33.250  16.005  1.00  0.00     0.178 C 
ATOM     19  O   UNL     1      29.645  33.822  14.746  1.00  0.00    -0.341 OA
ATOM     20  C   UNL     1      29.103  35.103  15.023  1.00  0.00     0.281 C 
ATOM     21  C   UNL     1      27.502  33.689  16.389  1.00  0.00     0.180 C 
ATOM     22  C   UNL     1      27.984  35.041  16.013  1.00  0.00     0.202 C 
BRANCH  18  23
ATOM     23  C   UNL     1      31.043  32.324  16.001  1.00  0.00     0.191 C 
BRANCH  23  24
ATOM     24  O   UNL     1      31.475  32.233  14.674  1.00  0.00    -0.394 OA
ATOM     25  H   UNL     1      32.194  31.570  14.548  1.00  0.00     0.210 HD
ENDBRANCH  23  24
ENDBRANCH  18  23
BRANCH  20  26
ATOM     26  O   UNL     1      28.782  35.681  13.837  1.00  0.00    -0.350 OA
BRANCH  26  27
ATOM     27  C   UNL     1      28.562  34.893  12.756  1.00  0.00     0.169 C 
BRANCH  27  28
ATOM     28  C   UNL     1      27.190  34.853  12.187  1.00  0.00     0.119 C 
BRANCH  28  29
ATOM     29  N   UNL     1      26.146  35.429  12.954  1.00  0.00    -0.092 NA
ATOM     30  N   UNL     1      25.107  34.830  13.206  1.00  0.00     0.001 N 
ATOM     31  N   UNL     1      24.111  34.220  13.637  1.00  0.00    -0.003 NA
ENDBRANCH  28  29
ENDBRANCH  27  28
ENDBRANCH  26  27
ENDBRANCH  20  26
BRANCH  21  32
ATOM     32  O   UNL     1      26.512  33.295  15.484  1.00  0.00    -0.387 OA
ATOM     33  H   UNL     1      26.602  32.359  15.197  1.00  0.00     0.211 HD
ENDBRANCH  21  32
BRANCH  22  34
ATOM     34  O   UNL     1      28.238  35.781  17.173  1.00  0.00    -0.385 OA
ATOM     35  H   UNL     1      28.619  36.651  16.876  1.00  0.00     0.211 HD
ENDBRANCH  22  34
ENDBRANCH  16  17
ENDBRANCH  11  16
BRANCH  13  36
ATOM     36  O   UNL     1      25.586  30.940  18.940  1.00  0.00    -0.385 OA
ATOM     37  H   UNL     1      25.319  31.910  18.955  1.00  0.00     0.211 HD
ENDBRANCH  13  36
BRANCH  14  38
ATOM     38  O   UNL     1      28.071  29.308  17.041  1.00  0.00    -0.387 OA
ATOM     39  H   UNL     1      28.830  28.672  17.148  1.00  0.00     0.211 HD
ENDBRANCH  14  38
BRANCH  15  40
ATOM     40  O   UNL     1      29.693  29.750  19.038  1.00  0.00    -0.387 OA
ATOM     41  H   UNL     1      29.980  28.931  18.527  1.00  0.00     0.211 HD
ENDBRANCH  15  40
ENDBRANCH   9  10
ENDBRANCH   8   9
ENDBRANCH   3   8
BRANCH   3  42
ATOM     42  C   UNL     1      31.473  31.270  22.446  1.00  0.00     0.364 C 
ATOM     43  O   UNL     1      31.948  32.070  21.628  1.00  0.00    -0.246 OA
BRANCH  42  44
ATOM     44  O   UNL     1      31.308  31.707  23.759  1.00  0.00    -0.477 OA
ATOM     45  H   UNL     1      31.222  32.683  24.023  1.00  0.00     0.296 HD
ENDBRANCH  42  44
ENDBRANCH   3  42
BRANCH   6  46
ATOM     46  O   UNL     1      31.047  27.366  20.294  1.00  0.00    -0.391 OA
ATOM     47  H   UNL     1      30.285  27.945  20.525  1.00  0.00     0.211 HD
ENDBRANCH   6  46
BRANCH   7  48
ATOM     48  N   UNL     1      33.572  27.511  22.910  1.00  0.00    -0.348 N 
ATOM     49  C   UNL     1      33.964  26.863  24.123  1.00  0.00     0.217 C 
ATOM     50  H   UNL     1      34.258  28.147  22.457  1.00  0.00     0.163 HD
ATOM     51  C   UNL     1      35.329  27.136  24.666  1.00  0.00     0.114 C 
ATOM     52  O   UNL     1      33.168  26.083  24.713  1.00  0.00    -0.275 OA
ENDBRANCH   7  48
ENDBRANCH   1   2
BRANCH   1  53
ATOM     53  O   UNL     1      30.009  25.848  22.910  1.00  0.00    -0.388 OA
ATOM     54  H   UNL     1      30.915  25.615  22.567  1.00  0.00     0.211 HD
ENDBRANCH   1  53
BRANCH   1  55
ATOM     55  C   UNL     1      28.831  27.456  24.097  1.00  0.00     0.165 C 
BRANCH  55  56
ATOM     56  O   UNL     1      29.403  27.419  25.330  1.00  0.00    -0.388 OA
ATOM     57  H   UNL     1      30.070  28.137  25.437  1.00  0.00     0.211 HD
ENDBRANCH  55  56
BRANCH  55  58
ATOM     58  C   UNL     1      27.639  26.576  23.902  1.00  0.00     0.154 C 
BRANCH  58  59
ATOM     59  N   UNL     1      27.309  26.465  22.508  1.00  0.00    -0.319 N 
ATOM     60  C   UNL     1      26.480  27.346  21.776  1.00  0.00     0.407 C 
ATOM     61  H   UNL     1      27.702  25.658  21.927  1.00  0.00     0.167 HD
ATOM     62  O   UNL     1      25.940  28.314  22.317  1.00  0.00    -0.225 OA
BRANCH  60  63
ATOM     63  O   UNL     1      26.243  27.148  20.406  1.00  0.00    -0.443 OA
BRANCH  63  64
ATOM     64  C   UNL     1      25.057  26.564  19.930  1.00  0.00     0.294 C 
BRANCH  64  65
ATOM     65  C   UNL     1      24.328  27.595  19.156  1.00  0.00     0.120 A 
ATOM     66  C   UNL     1      24.135  27.658  17.794  1.00  0.00     0.139 A 
ATOM     67  N   UNL     1      23.726  28.670  19.676  1.00  0.00    -0.132 NA
ATOM     68  N   UNL     1      23.415  28.779  17.514  1.00  0.00    -0.238 N 
ATOM     69  N   UNL     1      23.182  29.371  18.670  1.00  0.00    -0.066 NA
BRANCH  68  70
ATOM     70  C   UNL     1      23.051  29.142  16.167  1.00  0.00     0.215 C 
ATOM     71  C   UNL     1      21.635  29.684  16.106  1.00  0.00     0.046 C 
BRANCH  70  72
ATOM     72  C   UNL     1      24.006  30.173  15.623  1.00  0.00     0.331 C 
ATOM     73  O   UNL     1      24.168  31.234  16.250  1.00  0.00    -0.250 OA
BRANCH  72  74
ATOM     74  O   UNL     1      24.698  29.963  14.453  1.00  0.00    -0.459 OA
BRANCH  74  75
ATOM     75  C   UNL     1      24.385  30.548  13.213  1.00  0.00     0.268 C 
BRANCH  75  76
ATOM     76  C   UNL     1      22.970  30.381  12.818  1.00  0.00    -0.011 A 
ATOM     77  C   UNL     1      22.094  31.434  12.763  1.00  0.00     0.007 A 
ATOM     78  C   UNL     1      22.491  29.137  12.493  1.00  0.00     0.007 A 
ATOM     79  C   UNL     1      20.775  31.282  12.399  1.00  0.00     0.000 A 
ATOM     80  C   UNL     1      21.181  28.937  12.122  1.00  0.00     0.000 A 
ATOM     81  C   UNL     1      20.322  30.029  12.079  1.00  0.00     0.000 A 
ENDBRANCH  75  76
ENDBRANCH  74  75
ENDBRANCH  72  74
ENDBRANCH  70  72
ENDBRANCH  68  70
ENDBRANCH  64  65
ENDBRANCH  63  64
ENDBRANCH  60  63
ENDBRANCH  58  59
ENDBRANCH  55  58
ENDBRANCH   1  55
TORSDOF 34
BEGIN_RES LYS A 131
REMARK  4 active torsions:
REMARK  status: ('A' for Active; 'I' for Inactive)
REMARK    1  A    between atoms: CA   and  CB  
REMARK    2  A    between atoms: CB   and  CG  
REMARK    3  A    between atoms: CG   and  CD  
REMARK    4  A    between atoms: CD   and  CE  
ROOT
ATOM      1  CA  LYS A 131      29.867  25.555  16.977  1.00 20.52     0.186 C 
ENDROOT
BRANCH   1   2
ATOM      2  CB  LYS A 131      28.345  25.722  17.026  1.00 20.94     0.034 C 
BRANCH   2   3
ATOM      3  CG  LYS A 131      27.600  24.414  16.811  1.00 22.96     0.005 C 
BRANCH   3   4
ATOM      4  CD  LYS A 131      26.763  24.036  18.002  1.00 24.33     0.041 C 
BRANCH   4   5
ATOM      5  CE  LYS A 131      25.576  23.195  17.545  1.00 26.91     0.338 C 
ATOM      6  NZ  LYS A 131      24.525  24.058  16.957  1.00 27.40     0.618 N 
ENDBRANCH   4   5
ENDBRANCH   3   4
ENDBRANCH   2   3
ENDBRANCH   1   2
END_RES LYS A 131
BEGIN_RES LYS A 135
REMARK  4 active torsions:
REMARK  status: ('A' for Active; 'I' for Inactive)
REMARK    5  A    between atoms: CA   and  CB  
REMARK    6  A    between atoms: CB   and  CG  
REMARK    7  A    between atoms: CG   and  CD  
REMARK    8  A    between atoms: CD   and  CE  
ROOT
ATOM      7  CA  LYS A 135      33.193  34.663   9.290  1.00 25.02     0.186 C 
ENDROOT
BRANCH   7   8
ATOM      8  CB  LYS A 135      32.060  35.360  10.034  1.00 26.63     0.034 C 
BRANCH   8   9
ATOM      9  CG  LYS A 135      30.786  35.460   9.235  1.00 29.45     0.005 C 
BRANCH   9  10
ATOM     10  CD  LYS A 135      30.119  34.098   9.117  1.00 32.00     0.041 C 
BRANCH  10  11
ATOM     11  CE  LYS A 135      28.657  34.252   8.744  1.00 34.25     0.338 C 
ATOM     12  NZ  LYS A 135      28.495  35.155   7.571  1.00 35.99     0.618 N 
ENDBRANCH  10  11
ENDBRANCH   9  10
ENDBRANCH   8   9
ENDBRANCH   7   8
END_RES LYS A 135
