REMARK VINA RESULT:    -5.638      4.261     12.194
REMARK INTER + INTRA:         -24.188
REMARK INTER:                 -13.101
REMARK INTRA:                 -11.086
REMARK UNBOUND:                -9.487
REMARK SMILES CC(=O)N[C@@H]1[C@@H](O)C[C@](OC[C@H]2O[C@@H](O[C@H]3[C@H](O)[C@@H](O)[C@H](OCCN=[N+]=[N-])O[C@@H]3CO)[C@H](O)[C@@H](O)[C@H]2O)(C(=O)O)O[C@H]1C(O)[C@H](O)CNC(=O)OCc1cn(Cc2ccc(C(=O)O)cc2)nn1
REMARK SMILES IDX 43 1 42 2 9 3 8 4 41 5 6 6 5 7 10 8 11 9 12 10 14 11 13 12
REMARK SMILES IDX 32 13 34 14 36 15 15 16 16 17 29 18 28 19 21 20 17 21 19 22
REMARK SMILES IDX 30 23 31 24 22 26 23 27 24 28 25 29 26 30 27 31 18 32 20 34
REMARK SMILES IDX 33 36 35 38 37 40 38 42 39 43 40 44 7 46 4 48 2 49 1 51 3 52
REMARK SMILES IDX 44 53 45 55 46 56 47 58 48 59 49 60 50 62 51 63 52 64 53 65
REMARK SMILES IDX 54 66 67 67 55 68 66 69 56 70 57 71 58 72 65 73 59 74 64 75
REMARK SMILES IDX 60 76 61 77 62 78 63 79
REMARK H PARENT 31 25 18 33 20 35 33 37 35 39 37 41 40 45 7 47 4 50 44 54
REMARK H PARENT 46 57 48 61 63 80
REMARK Flexibility Score: inf
ROOT
ATOM      1  C   UNL     1      29.504  32.130  17.452  1.00  0.00     0.176 C 
ENDROOT
BRANCH   1   2
ATOM      2  C   UNL     1      30.313  31.798  18.724  1.00  0.00     0.178 C 
ATOM      3  C   UNL     1      30.104  30.030  20.284  1.00  0.00     0.272 C 
ATOM      4  C   UNL     1      29.934  31.040  21.346  1.00  0.00     0.113 C 
ATOM      5  O   UNL     1      30.028  30.517  19.004  1.00  0.00    -0.332 OA
ATOM      6  C   UNL     1      29.215  32.289  20.878  1.00  0.00     0.145 C 
ATOM      7  C   UNL     1      30.005  32.834  19.726  1.00  0.00     0.142 C 
BRANCH   3   8
ATOM      8  O   UNL     1      29.148  29.052  20.359  1.00  0.00    -0.338 OA
BRANCH   8   9
ATOM      9  C   UNL     1      28.585  28.744  21.546  1.00  0.00     0.199 C 
BRANCH   9  10
ATOM     10  C   UNL     1      27.051  28.609  21.387  1.00  0.00     0.179 C 
ATOM     11  C   UNL     1      25.314  29.288  19.991  1.00  0.00     0.282 C 
ATOM     12  O   UNL     1      26.641  29.442  20.388  1.00  0.00    -0.341 OA
ATOM     13  C   UNL     1      24.511  28.403  20.875  1.00  0.00     0.202 C 
ATOM     14  C   UNL     1      25.207  27.061  20.962  1.00  0.00     0.179 C 
ATOM     15  C   UNL     1      26.689  27.167  21.137  1.00  0.00     0.177 C 
BRANCH  11  16
ATOM     16  O   UNL     1      25.313  28.818  18.678  1.00  0.00    -0.341 OA
BRANCH  16  17
ATOM     17  C   UNL     1      25.229  29.833  17.770  1.00  0.00     0.184 C 
ATOM     18  C   UNL     1      26.550  30.229  17.222  1.00  0.00     0.178 C 
ATOM     19  O   UNL     1      26.401  31.073  16.111  1.00  0.00    -0.341 OA
ATOM     20  C   UNL     1      25.398  32.020  16.333  1.00  0.00     0.281 C 
ATOM     21  C   UNL     1      24.607  31.030  18.515  1.00  0.00     0.180 C 
ATOM     22  C   UNL     1      25.098  32.261  17.782  1.00  0.00     0.202 C 
BRANCH  18  23
ATOM     23  C   UNL     1      27.329  29.023  16.780  1.00  0.00     0.191 C 
BRANCH  23  24
ATOM     24  O   UNL     1      28.004  28.560  17.934  1.00  0.00    -0.394 OA
ATOM     25  H   UNL     1      27.456  27.905  18.407  1.00  0.00     0.210 HD
ENDBRANCH  23  24
ENDBRANCH  18  23
BRANCH  20  26
ATOM     26  O   UNL     1      24.279  31.664  15.618  1.00  0.00    -0.350 OA
BRANCH  26  27
ATOM     27  C   UNL     1      24.523  31.141  14.369  1.00  0.00     0.169 C 
BRANCH  27  28
ATOM     28  C   UNL     1      24.017  29.757  14.139  1.00  0.00     0.119 C 
BRANCH  28  29
ATOM     29  N   UNL     1      23.535  29.712  12.749  1.00  0.00    -0.092 NA
ATOM     30  N   UNL     1      22.449  30.170  12.413  1.00  0.00     0.001 N 
ATOM     31  N   UNL     1      21.292  30.572  12.349  1.00  0.00    -0.003 NA
ENDBRANCH  28  29
ENDBRANCH  27  28
ENDBRANCH  26  27
ENDBRANCH  20  26
BRANCH  21  32
ATOM     32  O   UNL     1      23.233  30.941  18.503  1.00  0.00    -0.387 OA
ATOM     33  H   UNL     1      22.802  31.804  18.806  1.00  0.00     0.211 HD
ENDBRANCH  21  32
BRANCH  22  34
ATOM     34  O   UNL     1      26.171  32.802  18.453  1.00  0.00    -0.385 OA
ATOM     35  H   UNL     1      26.029  33.732  18.705  1.00  0.00     0.211 HD
ENDBRANCH  22  34
ENDBRANCH  16  17
ENDBRANCH  11  16
BRANCH  13  36
ATOM     36  O   UNL     1      24.354  28.948  22.158  1.00  0.00    -0.385 OA
ATOM     37  H   UNL     1      24.105  29.902  22.021  1.00  0.00     0.211 HD
ENDBRANCH  13  36
BRANCH  14  38
ATOM     38  O   UNL     1      24.929  26.272  19.845  1.00  0.00    -0.387 OA
ATOM     39  H   UNL     1      25.188  25.332  20.061  1.00  0.00     0.211 HD
ENDBRANCH  14  38
BRANCH  15  40
ATOM     40  O   UNL     1      27.391  26.641  20.044  1.00  0.00    -0.387 OA
ATOM     41  H   UNL     1      27.353  27.321  19.322  1.00  0.00     0.211 HD
ENDBRANCH  15  40
ENDBRANCH   9  10
ENDBRANCH   8   9
ENDBRANCH   3   8
BRANCH   3  42
ATOM     42  C   UNL     1      31.487  29.439  20.410  1.00  0.00     0.364 C 
ATOM     43  O   UNL     1      32.396  30.057  21.019  1.00  0.00    -0.246 OA
BRANCH  42  44
ATOM     44  O   UNL     1      31.803  28.204  19.867  1.00  0.00    -0.477 OA
ATOM     45  H   UNL     1      31.123  27.794  19.209  1.00  0.00     0.296 HD
ENDBRANCH  42  44
ENDBRANCH   3  42
BRANCH   6  46
ATOM     46  O   UNL     1      27.923  31.931  20.561  1.00  0.00    -0.391 OA
ATOM     47  H   UNL     1      27.927  31.294  19.799  1.00  0.00     0.211 HD
ENDBRANCH   6  46
BRANCH   7  48
ATOM     48  N   UNL     1      31.246  33.391  20.246  1.00  0.00    -0.348 N 
ATOM     49  C   UNL     1      31.859  34.544  19.641  1.00  0.00     0.217 C 
ATOM     50  H   UNL     1      31.764  33.008  21.066  1.00  0.00     0.163 HD
ATOM     51  C   UNL     1      33.135  35.086  20.206  1.00  0.00     0.114 C 
ATOM     52  O   UNL     1      31.308  35.062  18.657  1.00  0.00    -0.275 OA
ENDBRANCH   7  48
ENDBRANCH   1   2
BRANCH   1  53
ATOM     53  O   UNL     1      29.016  33.396  17.423  1.00  0.00    -0.388 OA
ATOM     54  H   UNL     1      29.224  33.967  18.195  1.00  0.00     0.211 HD
ENDBRANCH   1  53
BRANCH   1  55
ATOM     55  C   UNL     1      30.262  31.743  16.205  1.00  0.00     0.165 C 
BRANCH  55  56
ATOM     56  O   UNL     1      30.510  30.407  16.222  1.00  0.00    -0.388 OA
ATOM     57  H   UNL     1      29.783  29.834  16.533  1.00  0.00     0.211 HD
ENDBRANCH  55  56
BRANCH  55  58
ATOM     58  C   UNL     1      31.394  32.672  15.987  1.00  0.00     0.154 C 
BRANCH  58  59
ATOM     59  N   UNL     1      31.284  33.387  14.746  1.00  0.00    -0.319 N 
ATOM     60  C   UNL     1      30.755  34.691  14.622  1.00  0.00     0.407 C 
ATOM     61  H   UNL     1      31.613  32.931  13.850  1.00  0.00     0.167 HD
ATOM     62  O   UNL     1      30.337  35.328  15.601  1.00  0.00    -0.225 OA
BRANCH  60  63
ATOM     63  O   UNL     1      30.665  35.362  13.386  1.00  0.00    -0.443 OA
BRANCH  63  64
ATOM     64  C   UNL     1      29.876  36.532  13.277  1.00  0.00     0.294 C 
BRANCH  64  65
ATOM     65  C   UNL     1      28.448  36.240  13.064  1.00  0.00     0.120 A 
ATOM     66  C   UNL     1      27.856  35.173  12.447  1.00  0.00     0.138 A 
ATOM     67  N   UNL     1      27.449  37.052  13.460  1.00  0.00    -0.132 NA
ATOM     68  N   UNL     1      26.519  35.367  12.484  1.00  0.00    -0.248 N 
ATOM     69  N   UNL     1      26.299  36.513  13.102  1.00  0.00    -0.067 NA
BRANCH  68  70
ATOM     70  C   UNL     1      25.541  34.466  11.931  1.00  0.00     0.181 C 
BRANCH  70  71
ATOM     71  C   UNL     1      24.762  35.129  10.867  1.00  0.00    -0.026 A 
ATOM     72  C   UNL     1      23.387  35.170  10.944  1.00  0.00     0.006 A 
ATOM     73  C   UNL     1      25.409  35.698   9.773  1.00  0.00     0.006 A 
ATOM     74  C   UNL     1      22.718  35.790   9.903  1.00  0.00     0.016 A 
ATOM     75  C   UNL     1      24.737  36.313   8.741  1.00  0.00     0.016 A 
ATOM     76  C   UNL     1      23.365  36.352   8.821  1.00  0.00     0.059 A 
BRANCH  76  77
ATOM     77  C   UNL     1      22.602  36.985   7.757  1.00  0.00     0.335 C 
ATOM     78  O   UNL     1      21.439  36.627   7.525  1.00  0.00    -0.246 OA
BRANCH  77  79
ATOM     79  O   UNL     1      23.177  37.984   7.005  1.00  0.00    -0.478 OA
ATOM     80  H   UNL     1      24.138  38.290   7.150  1.00  0.00     0.297 HD
ENDBRANCH  77  79
ENDBRANCH  76  77
ENDBRANCH  70  71
ENDBRANCH  68  70
ENDBRANCH  64  65
ENDBRANCH  63  64
ENDBRANCH  60  63
ENDBRANCH  58  59
ENDBRANCH  55  58
ENDBRANCH   1  55
TORSDOF 33
BEGIN_RES LYS A 131
REMARK  4 active torsions:
REMARK  status: ('A' for Active; 'I' for Inactive)
REMARK    1  A    between atoms: CA   and  CB  
REMARK    2  A    between atoms: CB   and  CG  
REMARK    3  A    between atoms: CG   and  CD  
REMARK    4  A    between atoms: CD   and  CE  
ROOT
ATOM      1  CA  LYS A 131      29.867  25.555  16.977  1.00 20.52     0.186 C 
ENDROOT
BRANCH   1   2
ATOM      2  CB  LYS A 131      28.345  25.722  17.026  1.00 20.94     0.034 C 
BRANCH   2   3
ATOM      3  CG  LYS A 131      27.599  24.434  16.712  1.00 22.96     0.005 C 
BRANCH   3   4
ATOM      4  CD  LYS A 131      26.988  23.820  17.940  1.00 24.33     0.041 C 
BRANCH   4   5
ATOM      5  CE  LYS A 131      25.586  23.315  17.613  1.00 26.91     0.338 C 
ATOM      6  NZ  LYS A 131      24.811  24.359  16.901  1.00 27.40     0.618 N 
ENDBRANCH   4   5
ENDBRANCH   3   4
ENDBRANCH   2   3
ENDBRANCH   1   2
END_RES LYS A 131
BEGIN_RES LYS A 135
REMARK  4 active torsions:
REMARK  status: ('A' for Active; 'I' for Inactive)
REMARK    5  A    between atoms: CA   and  CB  
REMARK    6  A    between atoms: CB   and  CG  
REMARK    7  A    between atoms: CG   and  CD  
REMARK    8  A    between atoms: CD   and  CE  
ROOT
ATOM      7  CA  LYS A 135      33.193  34.663   9.290  1.00 25.02     0.186 C 
ENDROOT
BRANCH   7   8
ATOM      8  CB  LYS A 135      32.060  35.360  10.034  1.00 26.63     0.034 C 
BRANCH   8   9
ATOM      9  CG  LYS A 135      30.721  34.692   9.855  1.00 29.45     0.005 C 
BRANCH   9  10
ATOM     10  CD  LYS A 135      30.323  34.673   8.388  1.00 32.00     0.041 C 
BRANCH  10  11
ATOM     11  CE  LYS A 135      28.818  34.547   8.246  1.00 34.25     0.338 C 
ATOM     12  NZ  LYS A 135      28.243  33.721   9.344  1.00 35.99     0.618 N 
ENDBRANCH  10  11
ENDBRANCH   9  10
ENDBRANCH   8   9
ENDBRANCH   7   8
END_RES LYS A 135
