REMARK VINA RESULT:    -5.898      3.556      9.861
REMARK INTER + INTRA:         -24.625
REMARK INTER:                 -12.624
REMARK INTRA:                 -12.001
REMARK UNBOUND:                -9.416
REMARK SMILES CC(=O)N[C@@H]1[C@@H](O)C[C@](OC[C@H]2O[C@@H](O[C@H]3[C@H](O)[C@@H](O)[C@H](OCCN=[N+]=[N-])O[C@@H]3CO)[C@H](O)[C@@H](O)[C@H]2O)(C(=O)O)O[C@H]1C(O)[C@H](O)CNC(=O)OCc1cn(C(C)(C)C(=O)c2c[nH]c3ccccc23)nn1
REMARK SMILES IDX 9 1 8 2 6 3 5 4 42 5 41 6 10 7 11 8 12 9 14 10 13 11 32 12
REMARK SMILES IDX 34 13 36 14 15 15 16 16 29 17 28 18 21 19 17 20 19 21 30 22
REMARK SMILES IDX 31 23 22 25 23 26 24 27 25 28 26 29 27 30 18 31 20 33 33 35
REMARK SMILES IDX 35 37 37 39 38 41 39 42 40 43 7 45 43 47 44 48 45 50 46 51
REMARK SMILES IDX 47 53 48 54 49 55 50 57 51 58 52 59 53 60 54 61 71 62 55 63
REMARK SMILES IDX 70 64 56 65 57 66 58 67 59 68 60 69 61 70 62 71 69 72 63 73
REMARK SMILES IDX 64 74 68 75 65 77 67 78 66 79 4 80 2 81 1 83 3 84
REMARK H PARENT 31 24 18 32 20 34 33 36 35 38 37 40 40 44 7 46 44 49 46 52
REMARK H PARENT 48 56 63 76 4 82
REMARK Flexibility Score: inf
ROOT
ATOM      1  C   UNL     1      29.627  33.072  16.389  1.00  0.00     0.272 C 
ATOM      2  C   UNL     1      29.560  33.923  17.647  1.00  0.00     0.113 C 
ATOM      3  C   UNL     1      28.391  34.875  17.617  1.00  0.00     0.145 C 
ATOM      4  C   UNL     1      28.657  35.945  16.502  1.00  0.00     0.142 C 
ATOM      5  C   UNL     1      29.346  35.197  15.407  1.00  0.00     0.178 C 
ATOM      6  O   UNL     1      28.997  33.863  15.424  1.00  0.00    -0.332 OA
ENDROOT
BRANCH   1   7
ATOM      7  O   UNL     1      29.114  31.841  16.453  1.00  0.00    -0.338 OA
BRANCH   7   8
ATOM      8  C   UNL     1      27.984  31.295  16.148  1.00  0.00     0.199 C 
BRANCH   8   9
ATOM      9  C   UNL     1      27.042  31.052  17.329  1.00  0.00     0.179 C 
ATOM     10  C   UNL     1      24.981  30.775  16.189  1.00  0.00     0.282 C 
ATOM     11  O   UNL     1      25.781  31.450  17.042  1.00  0.00    -0.341 OA
ATOM     12  C   UNL     1      25.007  29.282  16.370  1.00  0.00     0.202 C 
ATOM     13  C   UNL     1      25.777  28.928  17.636  1.00  0.00     0.179 C 
ATOM     14  C   UNL     1      27.099  29.595  17.697  1.00  0.00     0.177 C 
BRANCH  10  15
ATOM     15  O   UNL     1      25.306  31.071  14.877  1.00  0.00    -0.341 OA
BRANCH  15  16
ATOM     16  C   UNL     1      24.436  31.934  14.276  1.00  0.00     0.184 C 
ATOM     17  C   UNL     1      23.736  31.467  13.051  1.00  0.00     0.178 C 
ATOM     18  O   UNL     1      22.612  32.302  12.890  1.00  0.00    -0.341 OA
ATOM     19  C   UNL     1      22.925  33.615  12.686  1.00  0.00     0.281 C 
ATOM     20  C   UNL     1      25.056  33.279  13.954  1.00  0.00     0.180 C 
ATOM     21  C   UNL     1      23.891  34.208  13.689  1.00  0.00     0.202 C 
BRANCH  17  22
ATOM     22  C   UNL     1      23.181  30.060  13.140  1.00  0.00     0.191 C 
BRANCH  22  23
ATOM     23  O   UNL     1      22.282  30.038  14.212  1.00  0.00    -0.394 OA
ATOM     24  H   UNL     1      22.250  30.892  14.701  1.00  0.00     0.210 HD
ENDBRANCH  22  23
ENDBRANCH  17  22
BRANCH  19  25
ATOM     25  O   UNL     1      21.746  34.357  12.810  1.00  0.00    -0.350 OA
BRANCH  25  26
ATOM     26  C   UNL     1      20.818  33.857  11.915  1.00  0.00     0.169 C 
BRANCH  26  27
ATOM     27  C   UNL     1      20.210  34.931  11.054  1.00  0.00     0.119 C 
BRANCH  27  28
ATOM     28  N   UNL     1      21.116  35.449  10.053  1.00  0.00    -0.092 NA
ATOM     29  N   UNL     1      21.937  36.345  10.332  1.00  0.00     0.001 N 
ATOM     30  N   UNL     1      22.988  36.830  10.758  1.00  0.00    -0.003 NA
ENDBRANCH  27  28
ENDBRANCH  26  27
ENDBRANCH  25  26
ENDBRANCH  19  25
BRANCH  20  31
ATOM     31  O   UNL     1      25.826  33.777  14.979  1.00  0.00    -0.387 OA
ATOM     32  H   UNL     1      25.477  33.424  15.826  1.00  0.00     0.211 HD
ENDBRANCH  20  31
BRANCH  21  33
ATOM     33  O   UNL     1      24.400  35.378  13.128  1.00  0.00    -0.385 OA
ATOM     34  H   UNL     1      25.379  35.315  12.958  1.00  0.00     0.211 HD
ENDBRANCH  21  33
ENDBRANCH  15  16
ENDBRANCH  10  15
BRANCH  12  35
ATOM     35  O   UNL     1      23.742  28.695  16.390  1.00  0.00    -0.385 OA
ATOM     36  H   UNL     1      23.104  29.311  16.807  1.00  0.00     0.211 HD
ENDBRANCH  12  35
BRANCH  13  37
ATOM     37  O   UNL     1      25.913  27.520  17.595  1.00  0.00    -0.387 OA
ATOM     38  H   UNL     1      25.309  27.129  16.918  1.00  0.00     0.211 HD
ENDBRANCH  13  37
BRANCH  14  39
ATOM     39  O   UNL     1      28.007  28.979  16.799  1.00  0.00    -0.387 OA
ATOM     40  H   UNL     1      28.170  28.044  17.091  1.00  0.00     0.211 HD
ENDBRANCH  14  39
ENDBRANCH   8   9
ENDBRANCH   7   8
ENDBRANCH   1   7
BRANCH   1  41
ATOM     41  C   UNL     1      31.054  32.918  16.032  1.00  0.00     0.364 C 
ATOM     42  O   UNL     1      31.921  33.492  16.741  1.00  0.00    -0.246 OA
BRANCH  41  43
ATOM     43  O   UNL     1      31.497  32.192  14.973  1.00  0.00    -0.477 OA
ATOM     44  H   UNL     1      32.284  32.410  14.366  1.00  0.00     0.296 HD
ENDBRANCH  41  43
ENDBRANCH   1  41
BRANCH   3  45
ATOM     45  O   UNL     1      27.185  34.326  17.250  1.00  0.00    -0.391 OA
ATOM     46  H   UNL     1      26.454  34.495  17.910  1.00  0.00     0.211 HD
ENDBRANCH   3  45
BRANCH   5  47
ATOM     47  C   UNL     1      29.140  35.673  14.017  1.00  0.00     0.176 C 
BRANCH  47  48
ATOM     48  O   UNL     1      28.557  36.917  13.938  1.00  0.00    -0.388 OA
ATOM     49  H   UNL     1      29.197  37.672  13.809  1.00  0.00     0.211 HD
ENDBRANCH  47  48
BRANCH  47  50
ATOM     50  C   UNL     1      30.281  35.461  13.046  1.00  0.00     0.165 C 
BRANCH  50  51
ATOM     51  O   UNL     1      30.626  34.158  12.889  1.00  0.00    -0.388 OA
ATOM     52  H   UNL     1      30.341  33.788  12.041  1.00  0.00     0.211 HD
ENDBRANCH  50  51
BRANCH  50  53
ATOM     53  C   UNL     1      31.373  36.422  13.387  1.00  0.00     0.154 C 
BRANCH  53  54
ATOM     54  N   UNL     1      31.759  37.353  12.395  1.00  0.00    -0.319 N 
ATOM     55  C   UNL     1      31.200  38.673  12.273  1.00  0.00     0.407 C 
ATOM     56  H   UNL     1      32.505  37.098  11.679  1.00  0.00     0.167 HD
ATOM     57  O   UNL     1      30.304  39.076  13.042  1.00  0.00    -0.225 OA
BRANCH  55  58
ATOM     58  O   UNL     1      31.642  39.540  11.292  1.00  0.00    -0.443 OA
BRANCH  58  59
ATOM     59  C   UNL     1      31.368  39.335   9.935  1.00  0.00     0.294 C 
BRANCH  59  60
ATOM     60  C   UNL     1      30.013  39.899   9.646  1.00  0.00     0.120 A 
ATOM     61  C   UNL     1      29.015  39.259   8.887  1.00  0.00     0.139 A 
ATOM     62  N   UNL     1      29.462  41.072   9.984  1.00  0.00    -0.132 NA
ATOM     63  N   UNL     1      27.938  40.051   8.801  1.00  0.00    -0.239 N 
ATOM     64  N   UNL     1      28.221  41.143   9.469  1.00  0.00    -0.066 NA
BRANCH  63  65
ATOM     65  C   UNL     1      26.717  39.720   8.097  1.00  0.00     0.122 C 
ATOM     66  C   UNL     1      27.157  38.971   6.792  1.00  0.00     0.046 C 
ATOM     67  C   UNL     1      25.976  40.926   7.573  1.00  0.00     0.046 C 
BRANCH  65  68
ATOM     68  C   UNL     1      25.883  38.795   8.841  1.00  0.00     0.192 C 
ATOM     69  O   UNL     1      24.603  38.928   8.614  1.00  0.00    -0.291 OA
BRANCH  68  70
ATOM     70  C   UNL     1      26.223  37.768   9.776  1.00  0.00     0.045 A 
ATOM     71  C   UNL     1      26.361  37.988  11.153  1.00  0.00     0.095 A 
ATOM     72  C   UNL     1      26.499  36.432   9.566  1.00  0.00     0.010 A 
ATOM     73  N   UNL     1      26.699  36.844  11.714  1.00  0.00    -0.360 N 
ATOM     74  C   UNL     1      26.799  35.869  10.810  1.00  0.00     0.046 A 
ATOM     75  C   UNL     1      26.537  35.613   8.471  1.00  0.00     0.011 A 
ATOM     76  H   UNL     1      26.865  36.743  12.756  1.00  0.00     0.166 HD
ATOM     77  C   UNL     1      27.124  34.529  10.933  1.00  0.00     0.027 A 
ATOM     78  C   UNL     1      26.866  34.264   8.600  1.00  0.00     0.001 A 
ATOM     79  C   UNL     1      27.155  33.736   9.823  1.00  0.00     0.002 A 
ENDBRANCH  68  70
ENDBRANCH  65  68
ENDBRANCH  63  65
ENDBRANCH  59  60
ENDBRANCH  58  59
ENDBRANCH  55  58
ENDBRANCH  53  54
ENDBRANCH  50  53
ENDBRANCH  47  50
ENDBRANCH   5  47
BRANCH   4  80
ATOM     80  N   UNL     1      29.580  36.865  17.162  1.00  0.00    -0.348 N 
ATOM     81  C   UNL     1      29.577  38.268  16.963  1.00  0.00     0.217 C 
ATOM     82  H   UNL     1      30.298  36.470  17.828  1.00  0.00     0.163 HD
ATOM     83  C   UNL     1      30.521  39.200  17.635  1.00  0.00     0.114 C 
ATOM     84  O   UNL     1      28.699  38.723  16.153  1.00  0.00    -0.275 OA
ENDBRANCH   4  80
TORSDOF 32
BEGIN_RES LYS A 131
REMARK  4 active torsions:
REMARK  status: ('A' for Active; 'I' for Inactive)
REMARK    1  A    between atoms: CA   and  CB  
REMARK    2  A    between atoms: CB   and  CG  
REMARK    3  A    between atoms: CG   and  CD  
REMARK    4  A    between atoms: CD   and  CE  
ROOT
ATOM      1  CA  LYS A 131      29.867  25.555  16.977  1.00 20.52     0.186 C 
ENDROOT
BRANCH   1   2
ATOM      2  CB  LYS A 131      28.345  25.722  17.026  1.00 20.94     0.034 C 
BRANCH   2   3
ATOM      3  CG  LYS A 131      27.600  24.416  16.796  1.00 22.96     0.005 C 
BRANCH   3   4
ATOM      4  CD  LYS A 131      26.789  24.008  17.995  1.00 24.33     0.041 C 
BRANCH   4   5
ATOM      5  CE  LYS A 131      25.482  23.371  17.533  1.00 26.91     0.338 C 
ATOM      6  NZ  LYS A 131      24.625  24.375  16.860  1.00 27.40     0.618 N 
ENDBRANCH   4   5
ENDBRANCH   3   4
ENDBRANCH   2   3
ENDBRANCH   1   2
END_RES LYS A 131
BEGIN_RES LYS A 135
REMARK  4 active torsions:
REMARK  status: ('A' for Active; 'I' for Inactive)
REMARK    5  A    between atoms: CA   and  CB  
REMARK    6  A    between atoms: CB   and  CG  
REMARK    7  A    between atoms: CG   and  CD  
REMARK    8  A    between atoms: CD   and  CE  
ROOT
ATOM      7  CA  LYS A 135      33.193  34.663   9.290  1.00 25.02     0.186 C 
ENDROOT
BRANCH   7   8
ATOM      8  CB  LYS A 135      32.060  35.360  10.034  1.00 26.63     0.034 C 
BRANCH   8   9
ATOM      9  CG  LYS A 135      30.690  34.881   9.630  1.00 29.45     0.005 C 
BRANCH   9  10
ATOM     10  CD  LYS A 135      30.585  34.767   8.117  1.00 32.00     0.041 C 
BRANCH  10  11
ATOM     11  CE  LYS A 135      29.828  35.950   7.545  1.00 34.25     0.338 C 
ATOM     12  NZ  LYS A 135      29.193  35.603   6.244  1.00 35.99     0.618 N 
ENDBRANCH  10  11
ENDBRANCH   9  10
ENDBRANCH   8   9
ENDBRANCH   7   8
END_RES LYS A 135
