REMARK VINA RESULT:    -4.240      3.703      7.596
REMARK INTER + INTRA:         -22.341
REMARK INTER:                 -10.549
REMARK INTRA:                 -11.791
REMARK UNBOUND:               -11.408
REMARK SMILES CC(=O)N[C@@H]1[C@@H](O)C[C@](OC[C@H]2O[C@@H](O[C@H]3[C@H](O)[C@@H](O)[C@H](OCCN=[N+]=[N-])O[C@@H]3CO)[C@H](O)[C@@H](O)[C@H]2O)(C(=O)O)O[C@H]1C(O)[C@H](O)CNC(=O)OCc1cn(CS(=O)(=O)c2ccccc2)nn1
REMARK SMILES IDX 9 1 8 2 6 3 5 4 42 5 41 6 10 7 11 8 12 9 14 10 13 11 32 12
REMARK SMILES IDX 34 13 36 14 15 15 16 16 29 17 28 18 21 19 17 20 19 21 30 22
REMARK SMILES IDX 31 23 22 25 23 26 24 27 25 28 26 29 27 30 18 31 20 33 33 35
REMARK SMILES IDX 35 37 37 39 38 41 39 42 40 43 7 45 43 47 44 48 45 50 46 51
REMARK SMILES IDX 47 53 48 54 49 55 50 57 51 58 52 59 53 60 54 61 67 62 55 63
REMARK SMILES IDX 66 64 56 65 57 66 58 67 59 68 60 69 61 70 65 71 62 72 64 73
REMARK SMILES IDX 63 74 4 75 2 76 1 78 3 79
REMARK H PARENT 31 24 18 32 20 34 33 36 35 38 37 40 40 44 7 46 44 49 46 52
REMARK H PARENT 48 56 4 77
REMARK Flexibility Score: inf
ROOT
ATOM      1  C   UNL     1      29.381  36.532  13.027  1.00  0.00     0.272 C 
ATOM      2  C   UNL     1      29.216  35.136  12.582  1.00  0.00     0.113 C 
ATOM      3  C   UNL     1      28.109  34.367  13.275  1.00  0.00     0.145 C 
ATOM      4  C   UNL     1      28.306  34.560  14.738  1.00  0.00     0.142 C 
ATOM      5  C   UNL     1      28.482  35.999  15.133  1.00  0.00     0.178 C 
ATOM      6  O   UNL     1      29.323  36.749  14.394  1.00  0.00    -0.332 OA
ENDROOT
BRANCH   1   7
ATOM      7  O   UNL     1      28.622  37.434  12.313  1.00  0.00    -0.338 OA
BRANCH   7   8
ATOM      8  C   UNL     1      28.357  37.138  11.015  1.00  0.00     0.199 C 
BRANCH   8   9
ATOM      9  C   UNL     1      28.375  38.415  10.148  1.00  0.00     0.179 C 
ATOM     10  C   UNL     1      26.410  38.840   8.900  1.00  0.00     0.282 C 
ATOM     11  O   UNL     1      27.596  38.188   9.082  1.00  0.00    -0.341 OA
ATOM     12  C   UNL     1      25.760  39.185  10.186  1.00  0.00     0.202 C 
ATOM     13  C   UNL     1      26.686  39.919  11.108  1.00  0.00     0.179 C 
ATOM     14  C   UNL     1      28.121  39.660  10.892  1.00  0.00     0.177 C 
BRANCH  10  15
ATOM     15  O   UNL     1      25.634  37.968   8.118  1.00  0.00    -0.341 OA
BRANCH  15  16
ATOM     16  C   UNL     1      24.401  37.669   8.588  1.00  0.00     0.184 C 
ATOM     17  C   UNL     1      24.190  36.195   8.771  1.00  0.00     0.178 C 
ATOM     18  O   UNL     1      23.112  36.038   9.638  1.00  0.00    -0.341 OA
ATOM     19  C   UNL     1      22.014  36.798   9.345  1.00  0.00     0.281 C 
ATOM     20  C   UNL     1      23.302  38.059   7.569  1.00  0.00     0.180 C 
ATOM     21  C   UNL     1      22.023  37.481   8.033  1.00  0.00     0.202 C 
BRANCH  17  22
ATOM     22  C   UNL     1      25.349  35.429   9.303  1.00  0.00     0.191 C 
BRANCH  22  23
ATOM     23  O   UNL     1      25.189  35.243  10.671  1.00  0.00    -0.394 OA
ATOM     24  H   UNL     1      24.870  34.328  10.851  1.00  0.00     0.210 HD
ENDBRANCH  22  23
ENDBRANCH  17  22
BRANCH  19  25
ATOM     25  O   UNL     1      21.908  37.752  10.353  1.00  0.00    -0.350 OA
BRANCH  25  26
ATOM     26  C   UNL     1      20.604  38.297  10.413  1.00  0.00     0.169 C 
BRANCH  26  27
ATOM     27  C   UNL     1      20.688  39.724  10.909  1.00  0.00     0.119 C 
BRANCH  27  28
ATOM     28  N   UNL     1      21.720  40.403  10.130  1.00  0.00    -0.092 NA
ATOM     29  N   UNL     1      21.366  41.362   9.415  1.00  0.00     0.001 N 
ATOM     30  N   UNL     1      20.916  42.123   8.539  1.00  0.00    -0.003 NA
ENDBRANCH  27  28
ENDBRANCH  26  27
ENDBRANCH  25  26
ENDBRANCH  19  25
BRANCH  20  31
ATOM     31  O   UNL     1      23.208  39.437   7.469  1.00  0.00    -0.387 OA
ATOM     32  H   UNL     1      22.305  39.658   7.126  1.00  0.00     0.211 HD
ENDBRANCH  20  31
BRANCH  21  33
ATOM     33  O   UNL     1      21.609  36.527   7.070  1.00  0.00    -0.385 OA
ATOM     34  H   UNL     1      20.639  36.388   7.074  1.00  0.00     0.211 HD
ENDBRANCH  21  33
ENDBRANCH  15  16
ENDBRANCH  10  15
BRANCH  12  35
ATOM     35  O   UNL     1      24.677  40.098   9.984  1.00  0.00    -0.385 OA
ATOM     36  H   UNL     1      25.100  40.989   9.962  1.00  0.00     0.211 HD
ENDBRANCH  12  35
BRANCH  13  37
ATOM     37  O   UNL     1      26.326  39.694  12.460  1.00  0.00    -0.387 OA
ATOM     38  H   UNL     1      26.437  40.543  12.975  1.00  0.00     0.211 HD
ENDBRANCH  13  37
BRANCH  14  39
ATOM     39  O   UNL     1      28.790  39.696  12.130  1.00  0.00    -0.387 OA
ATOM     40  H   UNL     1      28.161  39.362  12.820  1.00  0.00     0.211 HD
ENDBRANCH  14  39
ENDBRANCH   8   9
ENDBRANCH   7   8
ENDBRANCH   1   7
BRANCH   1  41
ATOM     41  C   UNL     1      30.832  36.872  12.729  1.00  0.00     0.364 C 
ATOM     42  O   UNL     1      31.626  35.933  12.554  1.00  0.00    -0.246 OA
BRANCH  41  43
ATOM     43  O   UNL     1      31.241  38.193  12.656  1.00  0.00    -0.477 OA
ATOM     44  H   UNL     1      31.122  38.818  13.468  1.00  0.00     0.296 HD
ENDBRANCH  41  43
ENDBRANCH   1  41
BRANCH   3  45
ATOM     45  O   UNL     1      26.901  34.788  12.790  1.00  0.00    -0.391 OA
ATOM     46  H   UNL     1      27.048  35.126  11.864  1.00  0.00     0.211 HD
ENDBRANCH   3  45
BRANCH   5  47
ATOM     47  C   UNL     1      27.172  36.681  15.455  1.00  0.00     0.176 C 
BRANCH  47  48
ATOM     48  O   UNL     1      26.107  35.798  15.614  1.00  0.00    -0.388 OA
ATOM     49  H   UNL     1      26.285  35.049  16.201  1.00  0.00     0.211 HD
ENDBRANCH  47  48
BRANCH  47  50
ATOM     50  C   UNL     1      27.263  37.585  16.675  1.00  0.00     0.165 C 
BRANCH  50  51
ATOM     51  O   UNL     1      26.458  37.169  17.711  1.00  0.00    -0.388 OA
ATOM     52  H   UNL     1      26.896  36.644  18.399  1.00  0.00     0.211 HD
ENDBRANCH  50  51
BRANCH  50  53
ATOM     53  C   UNL     1      27.099  39.028  16.384  1.00  0.00     0.154 C 
BRANCH  53  54
ATOM     54  N   UNL     1      26.179  39.393  15.350  1.00  0.00    -0.319 N 
ATOM     55  C   UNL     1      24.770  39.436  15.457  1.00  0.00     0.407 C 
ATOM     56  H   UNL     1      26.591  39.658  14.403  1.00  0.00     0.167 HD
ATOM     57  O   UNL     1      24.195  39.155  16.525  1.00  0.00    -0.225 OA
BRANCH  55  58
ATOM     58  O   UNL     1      24.031  39.800  14.343  1.00  0.00    -0.443 OA
BRANCH  58  59
ATOM     59  C   UNL     1      22.970  39.058  13.816  1.00  0.00     0.294 C 
BRANCH  59  60
ATOM     60  C   UNL     1      23.359  37.639  13.715  1.00  0.00     0.120 A 
ATOM     61  C   UNL     1      22.630  36.596  14.262  1.00  0.00     0.139 A 
ATOM     62  N   UNL     1      24.413  37.060  13.120  1.00  0.00    -0.132 NA
ATOM     63  N   UNL     1      23.250  35.433  13.987  1.00  0.00    -0.237 N 
ATOM     64  N   UNL     1      24.335  35.757  13.290  1.00  0.00    -0.066 NA
BRANCH  63  65
ATOM     65  C   UNL     1      22.821  34.116  14.365  1.00  0.00     0.287 C 
BRANCH  65  66
ATOM     66  S   UNL     1      22.027  33.401  12.926  1.00  0.00     0.198 S 
ATOM     67  O   UNL     1      22.420  34.123  11.695  1.00  0.00    -0.222 OA
ATOM     68  O   UNL     1      20.529  33.484  13.169  1.00  0.00    -0.222 OA
BRANCH  66  69
ATOM     69  C   UNL     1      22.506  31.726  12.848  1.00  0.00     0.069 A 
ATOM     70  C   UNL     1      23.786  31.316  13.155  1.00  0.00     0.020 A 
ATOM     71  C   UNL     1      21.611  30.748  12.473  1.00  0.00     0.020 A 
ATOM     72  C   UNL     1      24.165  30.000  13.094  1.00  0.00     0.001 A 
ATOM     73  C   UNL     1      21.974  29.428  12.405  1.00  0.00     0.001 A 
ATOM     74  C   UNL     1      23.257  29.055  12.718  1.00  0.00     0.000 A 
ENDBRANCH  66  69
ENDBRANCH  65  66
ENDBRANCH  63  65
ENDBRANCH  59  60
ENDBRANCH  58  59
ENDBRANCH  55  58
ENDBRANCH  53  54
ENDBRANCH  50  53
ENDBRANCH  47  50
ENDBRANCH   5  47
BRANCH   4  75
ATOM     75  N   UNL     1      29.519  33.857  15.138  1.00  0.00    -0.348 N 
ATOM     76  C   UNL     1      29.483  32.519  15.623  1.00  0.00     0.217 C 
ATOM     77  H   UNL     1      30.481  34.312  15.088  1.00  0.00     0.163 HD
ATOM     78  C   UNL     1      30.766  31.839  16.023  1.00  0.00     0.114 C 
ATOM     79  O   UNL     1      28.388  31.895  15.721  1.00  0.00    -0.275 OA
ENDBRANCH   4  75
TORSDOF 32
BEGIN_RES LYS A 131
REMARK  4 active torsions:
REMARK  status: ('A' for Active; 'I' for Inactive)
REMARK    1  A    between atoms: CA   and  CB  
REMARK    2  A    between atoms: CB   and  CG  
REMARK    3  A    between atoms: CG   and  CD  
REMARK    4  A    between atoms: CD   and  CE  
ROOT
ATOM      1  CA  LYS A 131      29.867  25.555  16.977  1.00 20.52     0.186 C 
ENDROOT
BRANCH   1   2
ATOM      2  CB  LYS A 131      28.345  25.722  17.026  1.00 20.94     0.034 C 
BRANCH   2   3
ATOM      3  CG  LYS A 131      27.602  24.399  16.920  1.00 22.96     0.005 C 
BRANCH   3   4
ATOM      4  CD  LYS A 131      26.155  24.530  17.307  1.00 24.33     0.041 C 
BRANCH   4   5
ATOM      5  CE  LYS A 131      25.951  25.826  18.084  1.00 26.91     0.338 C 
ATOM      6  NZ  LYS A 131      25.802  25.545  19.532  1.00 27.40     0.618 N 
ENDBRANCH   4   5
ENDBRANCH   3   4
ENDBRANCH   2   3
ENDBRANCH   1   2
END_RES LYS A 131
BEGIN_RES LYS A 135
REMARK  4 active torsions:
REMARK  status: ('A' for Active; 'I' for Inactive)
REMARK    5  A    between atoms: CA   and  CB  
REMARK    6  A    between atoms: CB   and  CG  
REMARK    7  A    between atoms: CG   and  CD  
REMARK    8  A    between atoms: CD   and  CE  
ROOT
ATOM      7  CA  LYS A 135      33.193  34.663   9.290  1.00 25.02     0.186 C 
ENDROOT
BRANCH   7   8
ATOM      8  CB  LYS A 135      32.060  35.360  10.034  1.00 26.63     0.034 C 
BRANCH   8   9
ATOM      9  CG  LYS A 135      30.829  35.576   9.192  1.00 29.45     0.005 C 
BRANCH   9  10
ATOM     10  CD  LYS A 135      30.177  34.246   8.844  1.00 32.00     0.041 C 
BRANCH  10  11
ATOM     11  CE  LYS A 135      28.752  34.459   8.372  1.00 34.25     0.338 C 
ATOM     12  NZ  LYS A 135      28.703  35.399   7.218  1.00 35.99     0.618 N 
ENDBRANCH  10  11
ENDBRANCH   9  10
ENDBRANCH   8   9
ENDBRANCH   7   8
END_RES LYS A 135
