REMARK VINA RESULT:    -5.463      4.213      9.876
REMARK INTER + INTRA:         -23.910
REMARK INTER:                 -14.847
REMARK INTRA:                  -9.063
REMARK UNBOUND:                -9.504
REMARK SMILES CC(=O)N[C@@H]1[C@@H](O)C[C@](OC[C@H]2O[C@@H](O[C@H]3[C@H](O)[C@@H](O)[C@H](OCCN=[N+]=[N-])O[C@@H]3CO)[C@H](O)[C@@H](O)[C@H]2O)(C(=O)O)O[C@H]1C(O)[C@H](O)CNC(=O)OCc1cn(COCc2ccccc2)nn1
REMARK SMILES IDX 43 1 42 2 9 3 8 4 41 5 6 6 5 7 10 8 11 9 12 10 14 11 13 12
REMARK SMILES IDX 32 13 34 14 36 15 15 16 16 17 29 18 28 19 21 20 17 21 19 22
REMARK SMILES IDX 30 23 31 24 22 26 23 27 24 28 25 29 26 30 27 31 18 32 20 34
REMARK SMILES IDX 33 36 35 38 37 40 38 42 39 43 40 44 7 46 4 48 2 49 1 51 3 52
REMARK SMILES IDX 44 53 45 55 46 56 47 58 48 59 49 60 50 62 51 63 52 64 53 65
REMARK SMILES IDX 54 66 66 67 55 68 65 69 56 70 57 71 58 72 59 73 60 74 64 75
REMARK SMILES IDX 61 76 63 77 62 78
REMARK H PARENT 31 25 18 33 20 35 33 37 35 39 37 41 40 45 7 47 4 50 44 54
REMARK H PARENT 46 57 48 61
REMARK Flexibility Score: inf
ROOT
ATOM      1  C   UNL     1      30.657  32.995  15.664  1.00  0.00     0.176 C 
ENDROOT
BRANCH   1   2
ATOM      2  C   UNL     1      30.288  34.383  15.096  1.00  0.00     0.178 C 
ATOM      3  C   UNL     1      28.715  35.233  13.610  1.00  0.00     0.272 C 
ATOM      4  C   UNL     1      29.783  36.150  13.023  1.00  0.00     0.113 C 
ATOM      5  O   UNL     1      29.379  34.136  14.065  1.00  0.00    -0.332 OA
ATOM      6  C   UNL     1      31.122  35.453  13.051  1.00  0.00     0.145 C 
ATOM      7  C   UNL     1      31.473  35.096  14.527  1.00  0.00     0.142 C 
BRANCH   3   8
ATOM      8  O   UNL     1      27.786  34.884  12.611  1.00  0.00    -0.338 OA
BRANCH   8   9
ATOM      9  C   UNL     1      26.784  35.744  12.372  1.00  0.00     0.199 C 
BRANCH   9  10
ATOM     10  C   UNL     1      26.376  35.694  10.918  1.00  0.00     0.179 C 
ATOM     11  C   UNL     1      24.695  35.438   9.421  1.00  0.00     0.282 C 
ATOM     12  O   UNL     1      24.982  35.515  10.803  1.00  0.00    -0.341 OA
ATOM     13  C   UNL     1      24.772  36.823   8.787  1.00  0.00     0.202 C 
ATOM     14  C   UNL     1      25.548  37.691   9.789  1.00  0.00     0.179 C 
ATOM     15  C   UNL     1      26.785  36.889  10.137  1.00  0.00     0.177 C 
BRANCH  11  16
ATOM     16  O   UNL     1      23.411  34.986   9.287  1.00  0.00    -0.341 OA
BRANCH  16  17
ATOM     17  C   UNL     1      22.468  35.995   9.155  1.00  0.00     0.184 C 
ATOM     18  C   UNL     1      21.642  36.201  10.375  1.00  0.00     0.178 C 
ATOM     19  O   UNL     1      20.767  35.168  10.521  1.00  0.00    -0.341 OA
ATOM     20  C   UNL     1      19.777  35.101   9.570  1.00  0.00     0.281 C 
ATOM     21  C   UNL     1      21.629  35.723   7.955  1.00  0.00     0.180 C 
ATOM     22  C   UNL     1      20.197  35.410   8.187  1.00  0.00     0.202 C 
BRANCH  18  23
ATOM     23  C   UNL     1      20.991  37.563  10.328  1.00  0.00     0.191 C 
BRANCH  23  24
ATOM     24  O   UNL     1      21.871  38.530   9.828  1.00  0.00    -0.394 OA
ATOM     25  H   UNL     1      22.680  38.085   9.471  1.00  0.00     0.210 HD
ENDBRANCH  23  24
ENDBRANCH  18  23
BRANCH  20  26
ATOM     26  O   UNL     1      18.781  36.005   9.956  1.00  0.00    -0.350 OA
BRANCH  26  27
ATOM     27  C   UNL     1      17.502  35.583   9.693  1.00  0.00     0.169 C 
BRANCH  27  28
ATOM     28  C   UNL     1      17.321  34.259  10.415  1.00  0.00     0.119 C 
BRANCH  28  29
ATOM     29  N   UNL     1      16.547  33.316   9.639  1.00  0.00    -0.092 NA
ATOM     30  N   UNL     1      17.016  32.831   8.593  1.00  0.00     0.001 N 
ATOM     31  N   UNL     1      17.256  32.818   7.371  1.00  0.00    -0.003 NA
ENDBRANCH  28  29
ENDBRANCH  27  28
ENDBRANCH  26  27
ENDBRANCH  20  26
BRANCH  21  32
ATOM     32  O   UNL     1      21.661  36.847   7.084  1.00  0.00    -0.387 OA
ATOM     33  H   UNL     1      22.409  37.434   7.274  1.00  0.00     0.211 HD
ENDBRANCH  21  32
BRANCH  22  34
ATOM     34  O   UNL     1      19.874  34.270   7.404  1.00  0.00    -0.385 OA
ATOM     35  H   UNL     1      20.639  33.647   7.511  1.00  0.00     0.211 HD
ENDBRANCH  22  34
ENDBRANCH  16  17
ENDBRANCH  11  16
BRANCH  13  36
ATOM     36  O   UNL     1      25.537  36.821   7.621  1.00  0.00    -0.385 OA
ATOM     37  H   UNL     1      26.116  37.623   7.649  1.00  0.00     0.211 HD
ENDBRANCH  13  36
BRANCH  14  38
ATOM     38  O   UNL     1      24.737  37.761  10.914  1.00  0.00    -0.387 OA
ATOM     39  H   UNL     1      23.770  37.721  10.709  1.00  0.00     0.211 HD
ENDBRANCH  14  38
BRANCH  15  40
ATOM     40  O   UNL     1      27.757  37.663  10.750  1.00  0.00    -0.387 OA
ATOM     41  H   UNL     1      27.651  37.720  11.734  1.00  0.00     0.211 HD
ENDBRANCH  15  40
ENDBRANCH   9  10
ENDBRANCH   8   9
ENDBRANCH   3   8
BRANCH   3  42
ATOM     42  C   UNL     1      27.930  35.872  14.666  1.00  0.00     0.364 C 
ATOM     43  O   UNL     1      27.043  35.345  15.387  1.00  0.00    -0.246 OA
BRANCH  42  44
ATOM     44  O   UNL     1      28.158  37.241  14.948  1.00  0.00    -0.477 OA
ATOM     45  H   UNL     1      27.626  37.965  14.466  1.00  0.00     0.296 HD
ENDBRANCH  42  44
ENDBRANCH   3  42
BRANCH   6  46
ATOM     46  O   UNL     1      31.245  34.318  12.330  1.00  0.00    -0.391 OA
ATOM     47  H   UNL     1      32.136  33.865  12.457  1.00  0.00     0.211 HD
ENDBRANCH   6  46
BRANCH   7  48
ATOM     48  N   UNL     1      31.710  36.378  15.144  1.00  0.00    -0.348 N 
ATOM     49  C   UNL     1      32.885  36.562  15.903  1.00  0.00     0.217 C 
ATOM     50  H   UNL     1      31.039  37.142  15.039  1.00  0.00     0.163 HD
ATOM     51  C   UNL     1      33.158  37.879  16.537  1.00  0.00     0.114 C 
ATOM     52  O   UNL     1      33.722  35.616  16.051  1.00  0.00    -0.275 OA
ENDBRANCH   7  48
ENDBRANCH   1   2
BRANCH   1  53
ATOM     53  O   UNL     1      31.521  32.396  14.668  1.00  0.00    -0.388 OA
ATOM     54  H   UNL     1      32.263  31.967  15.189  1.00  0.00     0.211 HD
ENDBRANCH   1  53
BRANCH   1  55
ATOM     55  C   UNL     1      29.515  32.055  15.822  1.00  0.00     0.165 C 
BRANCH  55  56
ATOM     56  O   UNL     1      28.270  32.592  15.982  1.00  0.00    -0.388 OA
ATOM     57  H   UNL     1      28.191  33.538  15.727  1.00  0.00     0.211 HD
ENDBRANCH  55  56
BRANCH  55  58
ATOM     58  C   UNL     1      29.692  30.799  16.585  1.00  0.00     0.154 C 
BRANCH  58  59
ATOM     59  N   UNL     1      28.539  29.971  16.798  1.00  0.00    -0.319 N 
ATOM     60  C   UNL     1      27.634  30.111  17.883  1.00  0.00     0.407 C 
ATOM     61  H   UNL     1      28.312  29.210  16.121  1.00  0.00     0.167 HD
ATOM     62  O   UNL     1      27.805  31.003  18.723  1.00  0.00    -0.225 OA
BRANCH  60  63
ATOM     63  O   UNL     1      26.520  29.288  18.079  1.00  0.00    -0.443 OA
BRANCH  63  64
ATOM     64  C   UNL     1      25.215  29.770  17.752  1.00  0.00     0.294 C 
BRANCH  64  65
ATOM     65  C   UNL     1      25.212  30.609  16.532  1.00  0.00     0.120 A 
ATOM     66  C   UNL     1      24.330  31.648  16.321  1.00  0.00     0.141 A 
ATOM     67  N   UNL     1      25.990  30.549  15.445  1.00  0.00    -0.132 NA
ATOM     68  N   UNL     1      24.605  32.184  15.107  1.00  0.00    -0.226 N 
ATOM     69  N   UNL     1      25.617  31.494  14.603  1.00  0.00    -0.065 NA
BRANCH  68  70
ATOM     70  C   UNL     1      23.955  33.295  14.450  1.00  0.00     0.307 C 
BRANCH  70  71
ATOM     71  O   UNL     1      23.556  32.983  13.179  1.00  0.00    -0.355 OA
BRANCH  71  72
ATOM     72  C   UNL     1      22.177  32.856  13.132  1.00  0.00     0.198 C 
BRANCH  72  73
ATOM     73  C   UNL     1      21.832  31.440  12.751  1.00  0.00    -0.022 A 
ATOM     74  C   UNL     1      20.521  31.161  12.426  1.00  0.00     0.006 A 
ATOM     75  C   UNL     1      22.795  30.464  12.732  1.00  0.00     0.006 A 
ATOM     76  C   UNL     1      20.166  29.876  12.073  1.00  0.00     0.000 A 
ATOM     77  C   UNL     1      22.420  29.200  12.380  1.00  0.00     0.000 A 
ATOM     78  C   UNL     1      21.115  28.877  12.046  1.00  0.00     0.000 A 
ENDBRANCH  72  73
ENDBRANCH  71  72
ENDBRANCH  70  71
ENDBRANCH  68  70
ENDBRANCH  64  65
ENDBRANCH  63  64
ENDBRANCH  60  63
ENDBRANCH  58  59
ENDBRANCH  55  58
ENDBRANCH   1  55
TORSDOF 33
BEGIN_RES LYS A 131
REMARK  4 active torsions:
REMARK  status: ('A' for Active; 'I' for Inactive)
REMARK    1  A    between atoms: CA   and  CB  
REMARK    2  A    between atoms: CB   and  CG  
REMARK    3  A    between atoms: CG   and  CD  
REMARK    4  A    between atoms: CD   and  CE  
ROOT
ATOM      1  CA  LYS A 131      29.867  25.555  16.977  1.00 20.52     0.186 C 
ENDROOT
BRANCH   1   2
ATOM      2  CB  LYS A 131      28.345  25.722  17.026  1.00 20.94     0.034 C 
BRANCH   2   3
ATOM      3  CG  LYS A 131      27.601  24.405  16.866  1.00 22.96     0.005 C 
BRANCH   3   4
ATOM      4  CD  LYS A 131      26.400  24.320  17.767  1.00 24.33     0.041 C 
BRANCH   4   5
ATOM      5  CE  LYS A 131      25.708  22.976  17.568  1.00 26.91     0.338 C 
ATOM      6  NZ  LYS A 131      24.257  23.168  17.336  1.00 27.40     0.618 N 
ENDBRANCH   4   5
ENDBRANCH   3   4
ENDBRANCH   2   3
ENDBRANCH   1   2
END_RES LYS A 131
BEGIN_RES LYS A 135
REMARK  4 active torsions:
REMARK  status: ('A' for Active; 'I' for Inactive)
REMARK    5  A    between atoms: CA   and  CB  
REMARK    6  A    between atoms: CB   and  CG  
REMARK    7  A    between atoms: CG   and  CD  
REMARK    8  A    between atoms: CD   and  CE  
ROOT
ATOM      7  CA  LYS A 135      33.193  34.663   9.290  1.00 25.02     0.186 C 
ENDROOT
BRANCH   7   8
ATOM      8  CB  LYS A 135      32.060  35.360  10.034  1.00 26.63     0.034 C 
BRANCH   8   9
ATOM      9  CG  LYS A 135      30.898  35.733   9.150  1.00 29.45     0.005 C 
BRANCH   9  10
ATOM     10  CD  LYS A 135      30.459  34.542   8.311  1.00 32.00     0.041 C 
BRANCH  10  11
ATOM     11  CE  LYS A 135      28.946  34.434   8.291  1.00 34.25     0.338 C 
ATOM     12  NZ  LYS A 135      28.450  33.635   9.446  1.00 35.99     0.618 N 
ENDBRANCH  10  11
ENDBRANCH   9  10
ENDBRANCH   8   9
ENDBRANCH   7   8
END_RES LYS A 135
