REMARK VINA RESULT:    -4.410      3.831      6.437
REMARK INTER + INTRA:         -21.520
REMARK INTER:                 -10.856
REMARK INTRA:                 -10.664
REMARK UNBOUND:               -10.664
REMARK SMILES CC(=O)N[C@@H]1[C@@H](O)C[C@](OC[C@H]2O[C@@H](O[C@H]3[C@H](O)[C@@H](O)[C@H](OCCN=[N+]=[N-])O[C@@H]3CO)[C@H](O)[C@@H](O)[C@H]2O)(C(=O)O)O[C@H]1C(O)[C@H](O)CNC(=O)OCc1cn(-c2ccc(Br)cc2)nn1
REMARK SMILES IDX 9 1 8 2 6 3 5 4 42 5 41 6 10 7 11 8 12 9 14 10 13 11 32 12
REMARK SMILES IDX 34 13 36 14 15 15 16 16 29 17 28 18 21 19 17 20 19 21 30 22
REMARK SMILES IDX 31 23 22 25 23 26 24 27 25 28 26 29 27 30 18 31 20 33 33 35
REMARK SMILES IDX 35 37 37 39 38 41 39 42 40 43 7 45 43 47 44 48 45 50 46 51
REMARK SMILES IDX 47 53 48 54 49 55 50 57 51 58 52 59 53 60 54 61 64 62 55 63
REMARK SMILES IDX 63 64 56 65 57 66 62 67 58 68 61 69 59 70 60 71 4 72 2 73
REMARK SMILES IDX 1 75 3 76
REMARK H PARENT 31 24 18 32 20 34 33 36 35 38 37 40 40 44 7 46 44 49 46 52
REMARK H PARENT 48 56 4 74
REMARK Flexibility Score: inf
ROOT
ATOM      1  C   UNL     1      32.001  35.247  14.542  1.00  0.00     0.272 C 
ATOM      2  C   UNL     1      33.055  35.188  15.681  1.00  0.00     0.113 C 
ATOM      3  C   UNL     1      33.642  36.542  15.830  1.00  0.00     0.145 C 
ATOM      4  C   UNL     1      32.475  37.504  16.128  1.00  0.00     0.142 C 
ATOM      5  C   UNL     1      31.673  37.539  14.848  1.00  0.00     0.178 C 
ATOM      6  O   UNL     1      31.129  36.282  14.714  1.00  0.00    -0.332 OA
ENDROOT
BRANCH   1   7
ATOM      7  O   UNL     1      31.305  34.046  14.718  1.00  0.00    -0.338 OA
BRANCH   7   8
ATOM      8  C   UNL     1      31.758  33.238  15.717  1.00  0.00     0.199 C 
BRANCH   8   9
ATOM      9  C   UNL     1      30.549  32.948  16.630  1.00  0.00     0.179 C 
ATOM     10  C   UNL     1      28.243  33.233  16.552  1.00  0.00     0.282 C 
ATOM     11  O   UNL     1      29.493  33.757  16.328  1.00  0.00    -0.341 OA
ATOM     12  C   UNL     1      28.201  32.154  17.556  1.00  0.00     0.202 C 
ATOM     13  C   UNL     1      29.208  31.060  17.394  1.00  0.00     0.179 C 
ATOM     14  C   UNL     1      30.243  31.476  16.400  1.00  0.00     0.177 C 
BRANCH  10  15
ATOM     15  O   UNL     1      27.706  32.941  15.298  1.00  0.00    -0.341 OA
BRANCH  15  16
ATOM     16  C   UNL     1      26.755  33.868  14.911  1.00  0.00     0.184 C 
ATOM     17  C   UNL     1      25.504  33.214  14.420  1.00  0.00     0.178 C 
ATOM     18  O   UNL     1      24.540  34.156  14.200  1.00  0.00    -0.341 OA
ATOM     19  C   UNL     1      24.912  35.460  14.074  1.00  0.00     0.281 C 
ATOM     20  C   UNL     1      27.265  34.691  13.717  1.00  0.00     0.180 C 
ATOM     21  C   UNL     1      26.207  35.704  13.333  1.00  0.00     0.202 C 
BRANCH  17  22
ATOM     22  C   UNL     1      24.989  32.253  15.474  1.00  0.00     0.191 C 
BRANCH  22  23
ATOM     23  O   UNL     1      25.574  31.017  15.336  1.00  0.00    -0.394 OA
ATOM     24  H   UNL     1      24.910  30.327  15.157  1.00  0.00     0.210 HD
ENDBRANCH  22  23
ENDBRANCH  17  22
BRANCH  19  25
ATOM     25  O   UNL     1      24.857  36.165  15.271  1.00  0.00    -0.350 OA
BRANCH  25  26
ATOM     26  C   UNL     1      25.462  37.406  15.227  1.00  0.00     0.169 C 
BRANCH  26  27
ATOM     27  C   UNL     1      26.227  37.767  16.457  1.00  0.00     0.119 C 
BRANCH  27  28
ATOM     28  N   UNL     1      27.457  36.996  16.517  1.00  0.00    -0.092 NA
ATOM     29  N   UNL     1      27.810  36.585  17.625  1.00  0.00     0.001 N 
ATOM     30  N   UNL     1      28.178  36.027  18.680  1.00  0.00    -0.003 NA
ENDBRANCH  27  28
ENDBRANCH  26  27
ENDBRANCH  25  26
ENDBRANCH  19  25
BRANCH  20  31
ATOM     31  O   UNL     1      28.494  35.254  14.011  1.00  0.00    -0.387 OA
ATOM     32  H   UNL     1      28.443  35.850  14.805  1.00  0.00     0.211 HD
ENDBRANCH  20  31
BRANCH  21  33
ATOM     33  O   UNL     1      25.979  35.785  11.978  1.00  0.00    -0.385 OA
ATOM     34  H   UNL     1      25.182  36.346  11.829  1.00  0.00     0.211 HD
ENDBRANCH  21  33
ENDBRANCH  15  16
ENDBRANCH  10  15
BRANCH  12  35
ATOM     35  O   UNL     1      28.334  32.776  18.828  1.00  0.00    -0.385 OA
ATOM     36  H   UNL     1      29.282  32.692  19.137  1.00  0.00     0.211 HD
ENDBRANCH  12  35
BRANCH  13  37
ATOM     37  O   UNL     1      28.586  29.877  16.928  1.00  0.00    -0.387 OA
ATOM     38  H   UNL     1      27.849  30.184  16.343  1.00  0.00     0.211 HD
ENDBRANCH  13  37
BRANCH  14  39
ATOM     39  O   UNL     1      29.850  31.231  15.087  1.00  0.00    -0.387 OA
ATOM     40  H   UNL     1      29.284  31.966  14.744  1.00  0.00     0.211 HD
ENDBRANCH  14  39
ENDBRANCH   8   9
ENDBRANCH   7   8
ENDBRANCH   1   7
BRANCH   1  41
ATOM     41  C   UNL     1      32.746  35.188  13.286  1.00  0.00     0.364 C 
ATOM     42  O   UNL     1      32.423  35.827  12.256  1.00  0.00    -0.246 OA
BRANCH  41  43
ATOM     43  O   UNL     1      33.876  34.401  13.180  1.00  0.00    -0.477 OA
ATOM     44  H   UNL     1      34.616  34.370  13.880  1.00  0.00     0.296 HD
ENDBRANCH  41  43
ENDBRANCH   1  41
BRANCH   3  45
ATOM     45  O   UNL     1      34.477  36.631  16.934  1.00  0.00    -0.391 OA
ATOM     46  H   UNL     1      33.937  36.645  17.752  1.00  0.00     0.211 HD
ENDBRANCH   3  45
BRANCH   5  47
ATOM     47  C   UNL     1      30.550  38.518  14.832  1.00  0.00     0.176 C 
BRANCH  47  48
ATOM     48  O   UNL     1      29.405  37.764  14.444  1.00  0.00    -0.388 OA
ATOM     49  H   UNL     1      29.272  37.885  13.470  1.00  0.00     0.211 HD
ENDBRANCH  47  48
BRANCH  47  50
ATOM     50  C   UNL     1      30.652  39.583  13.750  1.00  0.00     0.165 C 
BRANCH  50  51
ATOM     51  O   UNL     1      31.206  40.696  14.443  1.00  0.00    -0.388 OA
ATOM     52  H   UNL     1      32.000  41.040  13.925  1.00  0.00     0.211 HD
ENDBRANCH  50  51
BRANCH  50  53
ATOM     53  C   UNL     1      29.313  40.014  13.263  1.00  0.00     0.154 C 
BRANCH  53  54
ATOM     54  N   UNL     1      29.185  39.867  11.849  1.00  0.00    -0.319 N 
ATOM     55  C   UNL     1      28.720  38.688  11.185  1.00  0.00     0.407 C 
ATOM     56  H   UNL     1      29.444  40.674  11.196  1.00  0.00     0.167 HD
ATOM     57  O   UNL     1      28.402  37.694  11.878  1.00  0.00    -0.225 OA
BRANCH  55  58
ATOM     58  O   UNL     1      28.610  38.616   9.816  1.00  0.00    -0.443 OA
BRANCH  58  59
ATOM     59  C   UNL     1      27.795  37.639   9.222  1.00  0.00     0.294 C 
BRANCH  59  60
ATOM     60  C   UNL     1      26.474  38.237   8.923  1.00  0.00     0.121 A 
ATOM     61  C   UNL     1      25.276  37.515   8.866  1.00  0.00     0.144 A 
ATOM     62  N   UNL     1      26.127  39.503   8.649  1.00  0.00    -0.131 NA
ATOM     63  N   UNL     1      24.278  38.363   8.565  1.00  0.00    -0.220 N 
ATOM     64  N   UNL     1      24.824  39.556   8.441  1.00  0.00    -0.062 NA
BRANCH  63  65
ATOM     65  C   UNL     1      22.922  37.961   8.423  1.00  0.00     0.066 A 
ATOM     66  C   UNL     1      22.508  36.804   7.845  1.00  0.00     0.029 A 
ATOM     67  C   UNL     1      21.968  38.835   8.934  1.00  0.00     0.029 A 
ATOM     68  C   UNL     1      21.158  36.527   7.780  1.00  0.00     0.018 A 
ATOM     69  C   UNL     1      20.624  38.546   8.861  1.00  0.00     0.018 A 
ATOM     70  C   UNL     1      20.196  37.372   8.276  1.00  0.00     0.018 A 
ATOM     71  Br  UNL     1      18.338  36.950   8.168  1.00  0.00    -0.051 Br
ENDBRANCH  63  65
ENDBRANCH  59  60
ENDBRANCH  58  59
ENDBRANCH  55  58
ENDBRANCH  53  54
ENDBRANCH  50  53
ENDBRANCH  47  50
ENDBRANCH   5  47
BRANCH   4  72
ATOM     72  N   UNL     1      33.067  38.750  16.511  1.00  0.00    -0.348 N 
ATOM     73  C   UNL     1      32.610  39.496  17.631  1.00  0.00     0.217 C 
ATOM     74  H   UNL     1      33.856  39.129  15.958  1.00  0.00     0.163 HD
ATOM     75  C   UNL     1      33.202  40.789  18.049  1.00  0.00     0.114 C 
ATOM     76  O   UNL     1      31.640  39.052  18.327  1.00  0.00    -0.275 OA
ENDBRANCH   4  72
TORSDOF 30
BEGIN_RES LYS A 131
REMARK  4 active torsions:
REMARK  status: ('A' for Active; 'I' for Inactive)
REMARK    1  A    between atoms: CA   and  CB  
REMARK    2  A    between atoms: CB   and  CG  
REMARK    3  A    between atoms: CG   and  CD  
REMARK    4  A    between atoms: CD   and  CE  
ROOT
ATOM      1  CA  LYS A 131      29.867  25.555  16.977  1.00 20.52     0.186 C 
ENDROOT
BRANCH   1   2
ATOM      2  CB  LYS A 131      28.345  25.722  17.026  1.00 20.94     0.034 C 
BRANCH   2   3
ATOM      3  CG  LYS A 131      27.605  24.393  17.038  1.00 22.96     0.005 C 
BRANCH   3   4
ATOM      4  CD  LYS A 131      26.116  24.574  16.937  1.00 24.33     0.041 C 
BRANCH   4   5
ATOM      5  CE  LYS A 131      25.414  23.432  17.665  1.00 26.91     0.338 C 
ATOM      6  NZ  LYS A 131      25.894  23.336  19.064  1.00 27.40     0.618 N 
ENDBRANCH   4   5
ENDBRANCH   3   4
ENDBRANCH   2   3
ENDBRANCH   1   2
END_RES LYS A 131
BEGIN_RES LYS A 135
REMARK  4 active torsions:
REMARK  status: ('A' for Active; 'I' for Inactive)
REMARK    5  A    between atoms: CA   and  CB  
REMARK    6  A    between atoms: CB   and  CG  
REMARK    7  A    between atoms: CG   and  CD  
REMARK    8  A    between atoms: CD   and  CE  
ROOT
ATOM      7  CA  LYS A 135      33.193  34.663   9.290  1.00 25.02     0.186 C 
ENDROOT
BRANCH   7   8
ATOM      8  CB  LYS A 135      32.060  35.360  10.034  1.00 26.63     0.034 C 
BRANCH   8   9
ATOM      9  CG  LYS A 135      30.827  35.571   9.193  1.00 29.45     0.005 C 
BRANCH   9  10
ATOM     10  CD  LYS A 135      30.316  34.246   8.649  1.00 32.00     0.041 C 
BRANCH  10  11
ATOM     11  CE  LYS A 135      28.848  34.063   8.985  1.00 34.25     0.338 C 
ATOM     12  NZ  LYS A 135      28.584  34.368  10.419  1.00 35.99     0.618 N 
ENDBRANCH  10  11
ENDBRANCH   9  10
ENDBRANCH   8   9
ENDBRANCH   7   8
END_RES LYS A 135
