REMARK VINA RESULT:    -5.303      5.823     13.276
REMARK INTER + INTRA:         -23.489
REMARK INTER:                 -14.218
REMARK INTRA:                  -9.271
REMARK UNBOUND:                -9.504
REMARK SMILES CC(=O)N[C@@H]1[C@@H](O)C[C@](OC[C@H]2O[C@@H](O[C@H]3[C@H](O)[C@@H](O)[C@H](OCCN=[N+]=[N-])O[C@@H]3CO)[C@H](O)[C@@H](O)[C@H]2O)(C(=O)O)O[C@H]1C(O)[C@H](O)CNC(=O)OCc1cn(COCc2ccccc2)nn1
REMARK SMILES IDX 43 1 42 2 9 3 8 4 41 5 6 6 5 7 10 8 11 9 12 10 14 11 13 12
REMARK SMILES IDX 32 13 34 14 36 15 15 16 16 17 29 18 28 19 21 20 17 21 19 22
REMARK SMILES IDX 30 23 31 24 22 26 23 27 24 28 25 29 26 30 27 31 18 32 20 34
REMARK SMILES IDX 33 36 35 38 37 40 38 42 39 43 40 44 7 46 4 48 2 49 1 51 3 52
REMARK SMILES IDX 44 53 45 55 46 56 47 58 48 59 49 60 50 62 51 63 52 64 53 65
REMARK SMILES IDX 54 66 66 67 55 68 65 69 56 70 57 71 58 72 59 73 60 74 64 75
REMARK SMILES IDX 61 76 63 77 62 78
REMARK H PARENT 31 25 18 33 20 35 33 37 35 39 37 41 40 45 7 47 4 50 44 54
REMARK H PARENT 46 57 48 61
REMARK Flexibility Score: inf
ROOT
ATOM      1  C   UNL     1      31.403  36.768  15.976  1.00  0.00     0.176 C 
ENDROOT
BRANCH   1   2
ATOM      2  C   UNL     1      31.296  35.435  15.202  1.00  0.00     0.178 C 
ATOM      3  C   UNL     1      29.697  33.770  14.926  1.00  0.00     0.272 C 
ATOM      4  C   UNL     1      30.795  32.716  15.024  1.00  0.00     0.113 C 
ATOM      5  O   UNL     1      30.130  34.824  15.668  1.00  0.00    -0.332 OA
ATOM      6  C   UNL     1      31.859  33.179  15.990  1.00  0.00     0.145 C 
ATOM      7  C   UNL     1      32.452  34.527  15.477  1.00  0.00     0.142 C 
BRANCH   3   8
ATOM      8  O   UNL     1      28.492  33.250  15.438  1.00  0.00    -0.338 OA
BRANCH   8   9
ATOM      9  C   UNL     1      28.375  31.915  15.507  1.00  0.00     0.199 C 
BRANCH   9  10
ATOM     10  C   UNL     1      28.051  31.483  16.918  1.00  0.00     0.179 C 
ATOM     11  C   UNL     1      28.825  31.073  19.008  1.00  0.00     0.282 C 
ATOM     12  O   UNL     1      29.207  31.529  17.726  1.00  0.00    -0.341 OA
ATOM     13  C   UNL     1      28.029  32.150  19.737  1.00  0.00     0.202 C 
ATOM     14  C   UNL     1      27.578  33.135  18.649  1.00  0.00     0.179 C 
ATOM     15  C   UNL     1      26.972  32.276  17.559  1.00  0.00     0.177 C 
BRANCH  11  16
ATOM     16  O   UNL     1      29.967  30.839  19.724  1.00  0.00    -0.341 OA
BRANCH  16  17
ATOM     17  C   UNL     1      30.120  29.520  20.128  1.00  0.00     0.184 C 
ATOM     18  C   UNL     1      29.134  29.096  21.157  1.00  0.00     0.178 C 
ATOM     19  O   UNL     1      29.433  29.675  22.353  1.00  0.00    -0.341 OA
ATOM     20  C   UNL     1      30.597  29.238  22.940  1.00  0.00     0.281 C 
ATOM     21  C   UNL     1      31.523  29.310  20.582  1.00  0.00     0.180 C 
ATOM     22  C   UNL     1      31.732  29.014  22.020  1.00  0.00     0.202 C 
BRANCH  18  23
ATOM     23  C   UNL     1      29.058  27.587  21.202  1.00  0.00     0.191 C 
BRANCH  23  24
ATOM     24  O   UNL     1      29.159  27.035  19.919  1.00  0.00    -0.394 OA
ATOM     25  H   UNL     1      30.108  26.839  19.720  1.00  0.00     0.210 HD
ENDBRANCH  23  24
ENDBRANCH  18  23
BRANCH  20  26
ATOM     26  O   UNL     1      30.295  28.038  23.593  1.00  0.00    -0.350 OA
BRANCH  26  27
ATOM     27  C   UNL     1      30.275  28.130  24.962  1.00  0.00     0.169 C 
BRANCH  27  28
ATOM     28  C   UNL     1      31.702  27.913  25.436  1.00  0.00     0.119 C 
BRANCH  28  29
ATOM     29  N   UNL     1      31.869  26.639  26.098  1.00  0.00    -0.092 NA
ATOM     30  N   UNL     1      31.082  26.292  26.997  1.00  0.00     0.001 N 
ATOM     31  N   UNL     1      30.672  26.240  28.172  1.00  0.00    -0.003 NA
ENDBRANCH  28  29
ENDBRANCH  27  28
ENDBRANCH  26  27
ENDBRANCH  20  26
BRANCH  21  32
ATOM     32  O   UNL     1      32.103  28.231  19.858  1.00  0.00    -0.387 OA
ATOM     33  H   UNL     1      31.554  27.432  19.893  1.00  0.00     0.211 HD
ENDBRANCH  21  32
BRANCH  22  34
ATOM     34  O   UNL     1      32.791  29.840  22.480  1.00  0.00    -0.385 OA
ATOM     35  H   UNL     1      32.873  29.655  23.452  1.00  0.00     0.211 HD
ENDBRANCH  22  34
ENDBRANCH  16  17
ENDBRANCH  11  16
BRANCH  13  36
ATOM     36  O   UNL     1      26.854  31.642  20.292  1.00  0.00    -0.385 OA
ATOM     37  H   UNL     1      26.526  32.310  20.944  1.00  0.00     0.211 HD
ENDBRANCH  13  36
BRANCH  14  38
ATOM     38  O   UNL     1      28.750  33.701  18.164  1.00  0.00    -0.387 OA
ATOM     39  H   UNL     1      28.875  34.646  18.431  1.00  0.00     0.211 HD
ENDBRANCH  14  38
BRANCH  15  40
ATOM     40  O   UNL     1      26.209  33.017  16.670  1.00  0.00    -0.387 OA
ATOM     41  H   UNL     1      25.970  33.917  17.012  1.00  0.00     0.211 HD
ENDBRANCH  15  40
ENDBRANCH   9  10
ENDBRANCH   8   9
ENDBRANCH   3   8
BRANCH   3  42
ATOM     42  C   UNL     1      29.399  34.159  13.548  1.00  0.00     0.364 C 
ATOM     43  O   UNL     1      30.187  34.160  12.565  1.00  0.00    -0.246 OA
BRANCH  42  44
ATOM     44  O   UNL     1      28.089  34.591  13.231  1.00  0.00    -0.477 OA
ATOM     45  H   UNL     1      27.778  35.528  13.482  1.00  0.00     0.296 HD
ENDBRANCH  42  44
ENDBRANCH   3  42
BRANCH   6  46
ATOM     46  O   UNL     1      31.489  33.374  17.273  1.00  0.00    -0.391 OA
ATOM     47  H   UNL     1      31.732  32.603  17.874  1.00  0.00     0.211 HD
ENDBRANCH   6  46
BRANCH   7  48
ATOM     48  N   UNL     1      33.172  34.153  14.283  1.00  0.00    -0.348 N 
ATOM     49  C   UNL     1      34.516  34.558  14.145  1.00  0.00     0.217 C 
ATOM     50  H   UNL     1      32.718  33.609  13.547  1.00  0.00     0.163 HD
ATOM     51  C   UNL     1      35.283  34.173  12.930  1.00  0.00     0.114 C 
ATOM     52  O   UNL     1      35.088  35.245  15.050  1.00  0.00    -0.275 OA
ENDBRANCH   7  48
ENDBRANCH   1   2
BRANCH   1  53
ATOM     53  O   UNL     1      30.818  36.502  17.272  1.00  0.00    -0.388 OA
ATOM     54  H   UNL     1      30.064  35.864  17.094  1.00  0.00     0.211 HD
ENDBRANCH   1  53
BRANCH   1  55
ATOM     55  C   UNL     1      30.616  37.893  15.403  1.00  0.00     0.165 C 
BRANCH  55  56
ATOM     56  O   UNL     1      31.305  38.985  14.956  1.00  0.00    -0.388 OA
ATOM     57  H   UNL     1      31.624  38.923  14.030  1.00  0.00     0.211 HD
ENDBRANCH  55  56
BRANCH  55  58
ATOM     58  C   UNL     1      29.305  38.251  15.988  1.00  0.00     0.154 C 
BRANCH  58  59
ATOM     59  N   UNL     1      28.183  37.402  15.702  1.00  0.00    -0.319 N 
ATOM     60  C   UNL     1      27.499  36.617  16.667  1.00  0.00     0.407 C 
ATOM     61  H   UNL     1      27.810  37.342  14.729  1.00  0.00     0.167 HD
ATOM     62  O   UNL     1      27.851  36.644  17.852  1.00  0.00    -0.225 OA
BRANCH  60  63
ATOM     63  O   UNL     1      26.412  35.788  16.368  1.00  0.00    -0.443 OA
BRANCH  63  64
ATOM     64  C   UNL     1      25.338  36.287  15.568  1.00  0.00     0.294 C 
BRANCH  64  65
ATOM     65  C   UNL     1      25.257  35.619  14.249  1.00  0.00     0.120 A 
ATOM     66  C   UNL     1      25.164  36.298  13.052  1.00  0.00     0.141 A 
ATOM     67  N   UNL     1      25.248  34.316  13.944  1.00  0.00    -0.132 NA
ATOM     68  N   UNL     1      25.099  35.378  12.059  1.00  0.00    -0.226 N 
ATOM     69  N   UNL     1      25.152  34.186  12.635  1.00  0.00    -0.065 NA
BRANCH  68  70
ATOM     70  C   UNL     1      24.997  35.603  10.635  1.00  0.00     0.307 C 
BRANCH  70  71
ATOM     71  O   UNL     1      25.635  34.633   9.911  1.00  0.00    -0.355 OA
BRANCH  71  72
ATOM     72  C   UNL     1      26.060  35.149   8.697  1.00  0.00     0.198 C 
BRANCH  72  73
ATOM     73  C   UNL     1      27.538  34.895   8.553  1.00  0.00    -0.022 A 
ATOM     74  C   UNL     1      28.193  35.481   7.490  1.00  0.00     0.006 A 
ATOM     75  C   UNL     1      28.205  34.103   9.452  1.00  0.00     0.006 A 
ATOM     76  C   UNL     1      29.545  35.270   7.323  1.00  0.00     0.000 A 
ATOM     77  C   UNL     1      29.543  33.908   9.267  1.00  0.00     0.000 A 
ATOM     78  C   UNL     1      30.239  34.479   8.213  1.00  0.00     0.000 A 
ENDBRANCH  72  73
ENDBRANCH  71  72
ENDBRANCH  70  71
ENDBRANCH  68  70
ENDBRANCH  64  65
ENDBRANCH  63  64
ENDBRANCH  60  63
ENDBRANCH  58  59
ENDBRANCH  55  58
ENDBRANCH   1  55
TORSDOF 33
BEGIN_RES LYS A 131
REMARK  4 active torsions:
REMARK  status: ('A' for Active; 'I' for Inactive)
REMARK    1  A    between atoms: CA   and  CB  
REMARK    2  A    between atoms: CB   and  CG  
REMARK    3  A    between atoms: CG   and  CD  
REMARK    4  A    between atoms: CD   and  CE  
ROOT
ATOM      1  CA  LYS A 131      29.867  25.555  16.977  1.00 20.52     0.186 C 
ENDROOT
BRANCH   1   2
ATOM      2  CB  LYS A 131      28.345  25.722  17.026  1.00 20.94     0.034 C 
BRANCH   2   3
ATOM      3  CG  LYS A 131      27.602  24.399  16.919  1.00 22.96     0.005 C 
BRANCH   3   4
ATOM      4  CD  LYS A 131      26.200  24.493  17.455  1.00 24.33     0.041 C 
BRANCH   4   5
ATOM      5  CE  LYS A 131      26.204  25.286  18.757  1.00 26.91     0.338 C 
ATOM      6  NZ  LYS A 131      24.818  25.602  19.177  1.00 27.40     0.618 N 
ENDBRANCH   4   5
ENDBRANCH   3   4
ENDBRANCH   2   3
ENDBRANCH   1   2
END_RES LYS A 131
BEGIN_RES LYS A 135
REMARK  4 active torsions:
REMARK  status: ('A' for Active; 'I' for Inactive)
REMARK    5  A    between atoms: CA   and  CB  
REMARK    6  A    between atoms: CB   and  CG  
REMARK    7  A    between atoms: CG   and  CD  
REMARK    8  A    between atoms: CD   and  CE  
ROOT
ATOM      7  CA  LYS A 135      33.193  34.663   9.290  1.00 25.02     0.186 C 
ENDROOT
BRANCH   7   8
ATOM      8  CB  LYS A 135      32.060  35.360  10.034  1.00 26.63     0.034 C 
BRANCH   8   9
ATOM      9  CG  LYS A 135      32.513  36.098  11.267  1.00 29.45     0.005 C 
BRANCH   9  10
ATOM     10  CD  LYS A 135      31.573  37.252  11.579  1.00 32.00     0.041 C 
BRANCH  10  11
ATOM     11  CE  LYS A 135      30.473  37.338  10.537  1.00 34.25     0.338 C 
ATOM     12  NZ  LYS A 135      29.131  37.167  11.159  1.00 35.99     0.618 N 
ENDBRANCH  10  11
ENDBRANCH   9  10
ENDBRANCH   8   9
ENDBRANCH   7   8
END_RES LYS A 135
