REMARK VINA RESULT:    -2.902      2.975      7.589
REMARK INTER + INTRA:         -20.891
REMARK INTER:                  -7.651
REMARK INTRA:                 -13.239
REMARK UNBOUND:               -13.239
REMARK SMILES CCOC(=O)Cn1cc(COC(=O)NC[C@@H](O)C(O)[C@@H]2O[C@@](OC[C@H]3O[C@@H](O[C@H]4[C@H](O)[C@@H](O)[C@H](OCCN=[N+]=[N-])O[C@@H]4CO)[C@H](O)[C@@H](O)[C@H]3O)(C(=O)O)C[C@H](O)[C@H]2NC(C)=O)nn1
REMARK SMILES IDX 18 1 20 2 22 3 54 4 21 5 55 6 57 7 23 8 24 9 25 10 27 11
REMARK SMILES IDX 26 12 45 13 47 14 49 15 28 16 29 17 42 18 41 19 34 20 30 21
REMARK SMILES IDX 32 22 43 23 44 24 35 26 36 27 37 28 38 29 39 30 40 31 31 32
REMARK SMILES IDX 33 34 46 36 48 38 50 40 51 42 52 43 53 44 56 46 58 48 59 49
REMARK SMILES IDX 60 51 61 52 19 53 16 55 17 56 15 58 14 59 12 60 13 62 11 63
REMARK SMILES IDX 10 64 9 65 8 66 62 67 7 68 63 69 6 70 4 71 5 72 3 73 2 74
REMARK SMILES IDX 1 75
REMARK H PARENT 44 25 31 33 33 35 46 37 48 39 50 41 53 45 56 47 58 50 19 54
REMARK H PARENT 17 57 14 61
REMARK Flexibility Score: inf
ROOT
ATOM      1  C   UNL     1      30.205  32.986  15.286  1.00  0.00     0.176 C 
ENDROOT
BRANCH   1   2
ATOM      2  C   UNL     1      30.174  33.949  14.132  1.00  0.00     0.178 C 
ATOM      3  C   UNL     1      31.248  35.863  13.324  1.00  0.00     0.272 C 
ATOM      4  C   UNL     1      30.068  35.898  12.416  1.00  0.00     0.113 C 
ATOM      5  O   UNL     1      31.356  34.631  14.005  1.00  0.00    -0.332 OA
ATOM      6  C   UNL     1      28.763  35.641  13.099  1.00  0.00     0.145 C 
ATOM      7  C   UNL     1      29.047  34.928  14.411  1.00  0.00     0.142 C 
BRANCH   3   8
ATOM      8  O   UNL     1      31.320  36.884  14.247  1.00  0.00    -0.338 OA
BRANCH   8   9
ATOM      9  C   UNL     1      32.249  36.804  15.227  1.00  0.00     0.199 C 
BRANCH   9  10
ATOM     10  C   UNL     1      32.020  37.974  16.204  1.00  0.00     0.179 C 
ATOM     11  C   UNL     1      30.811  39.932  16.494  1.00  0.00     0.282 C 
ATOM     12  O   UNL     1      31.285  38.966  15.635  1.00  0.00    -0.341 OA
ATOM     13  C   UNL     1      30.089  39.385  17.687  1.00  0.00     0.202 C 
ATOM     14  C   UNL     1      31.080  38.546  18.453  1.00  0.00     0.179 C 
ATOM     15  C   UNL     1      31.547  37.467  17.533  1.00  0.00     0.177 C 
BRANCH  11  16
ATOM     16  O   UNL     1      29.985  40.853  15.871  1.00  0.00    -0.341 OA
BRANCH  16  17
ATOM     17  C   UNL     1      29.724  40.609  14.547  1.00  0.00     0.184 C 
ATOM     18  C   UNL     1      30.266  41.676  13.620  1.00  0.00     0.178 C 
ATOM     19  O   UNL     1      29.246  42.424  13.050  1.00  0.00    -0.341 OA
ATOM     20  C   UNL     1      28.442  41.648  12.183  1.00  0.00     0.281 C 
ATOM     21  C   UNL     1      28.214  40.512  14.337  1.00  0.00     0.180 C 
ATOM     22  C   UNL     1      28.000  40.378  12.837  1.00  0.00     0.202 C 
BRANCH  18  23
ATOM     23  C   UNL     1      31.204  41.061  12.614  1.00  0.00     0.191 C 
BRANCH  23  24
ATOM     24  O   UNL     1      31.412  39.697  12.891  1.00  0.00    -0.394 OA
ATOM     25  H   UNL     1      31.740  39.220  12.103  1.00  0.00     0.210 HD
ENDBRANCH  23  24
ENDBRANCH  18  23
BRANCH  20  26
ATOM     26  O   UNL     1      29.082  41.435  10.990  1.00  0.00    -0.350 OA
BRANCH  26  27
ATOM     27  C   UNL     1      28.498  40.680  10.030  1.00  0.00     0.169 C 
BRANCH  27  28
ATOM     28  C   UNL     1      29.277  39.608   9.365  1.00  0.00     0.119 C 
BRANCH  28  29
ATOM     29  N   UNL     1      28.576  38.436   8.967  1.00  0.00    -0.092 NA
ATOM     30  N   UNL     1      27.829  37.827   9.761  1.00  0.00     0.001 N 
ATOM     31  N   UNL     1      26.998  37.501  10.627  1.00  0.00    -0.003 NA
ENDBRANCH  28  29
ENDBRANCH  27  28
ENDBRANCH  26  27
ENDBRANCH  20  26
BRANCH  21  32
ATOM     32  O   UNL     1      27.732  39.373  14.988  1.00  0.00    -0.387 OA
ATOM     33  H   UNL     1      27.452  39.667  15.909  1.00  0.00     0.211 HD
ENDBRANCH  21  32
BRANCH  22  34
ATOM     34  O   UNL     1      26.660  40.071  12.588  1.00  0.00    -0.385 OA
ATOM     35  H   UNL     1      26.247  40.642  11.894  1.00  0.00     0.211 HD
ENDBRANCH  22  34
ENDBRANCH  16  17
ENDBRANCH  11  16
BRANCH  13  36
ATOM     36  O   UNL     1      29.651  40.447  18.469  1.00  0.00    -0.385 OA
ATOM     37  H   UNL     1      30.134  41.279  18.352  1.00  0.00     0.211 HD
ENDBRANCH  13  36
BRANCH  14  38
ATOM     38  O   UNL     1      30.395  37.961  19.542  1.00  0.00    -0.387 OA
ATOM     39  H   UNL     1      30.727  38.336  20.395  1.00  0.00     0.211 HD
ENDBRANCH  14  38
BRANCH  15  40
ATOM     40  O   UNL     1      30.480  36.551  17.384  1.00  0.00    -0.387 OA
ATOM     41  H   UNL     1      29.701  37.011  17.800  1.00  0.00     0.211 HD
ENDBRANCH  15  40
ENDBRANCH   9  10
ENDBRANCH   8   9
ENDBRANCH   3   8
BRANCH   3  42
ATOM     42  C   UNL     1      32.464  35.894  12.476  1.00  0.00     0.364 C 
ATOM     43  O   UNL     1      32.663  36.870  11.718  1.00  0.00    -0.246 OA
BRANCH  42  44
ATOM     44  O   UNL     1      33.367  34.869  12.508  1.00  0.00    -0.477 OA
ATOM     45  H   UNL     1      33.221  34.032  13.067  1.00  0.00     0.296 HD
ENDBRANCH  42  44
ENDBRANCH   3  42
BRANCH   6  46
ATOM     46  O   UNL     1      27.966  36.747  13.270  1.00  0.00    -0.391 OA
ATOM     47  H   UNL     1      27.117  36.463  13.713  1.00  0.00     0.211 HD
ENDBRANCH   6  46
BRANCH   7  48
ATOM     48  N   UNL     1      27.857  34.241  14.893  1.00  0.00    -0.348 N 
ATOM     49  C   UNL     1      26.772  33.928  14.041  1.00  0.00     0.217 C 
ATOM     50  H   UNL     1      27.808  33.971  15.890  1.00  0.00     0.163 HD
ATOM     51  C   UNL     1      25.545  33.225  14.522  1.00  0.00     0.114 C 
ATOM     52  O   UNL     1      26.855  34.261  12.827  1.00  0.00    -0.275 OA
ENDBRANCH   7  48
ENDBRANCH   1   2
BRANCH   1  53
ATOM     53  O   UNL     1      31.102  31.965  15.046  1.00  0.00    -0.388 OA
ATOM     54  H   UNL     1      31.419  31.930  14.098  1.00  0.00     0.211 HD
ENDBRANCH   1  53
BRANCH   1  55
ATOM     55  C   UNL     1      30.562  33.650  16.605  1.00  0.00     0.165 C 
BRANCH  55  56
ATOM     56  O   UNL     1      31.918  33.784  16.789  1.00  0.00    -0.388 OA
ATOM     57  H   UNL     1      32.419  32.938  16.723  1.00  0.00     0.211 HD
ENDBRANCH  55  56
BRANCH  55  58
ATOM     58  C   UNL     1      29.930  32.873  17.711  1.00  0.00     0.154 C 
BRANCH  58  59
ATOM     59  N   UNL     1      28.805  33.497  18.312  1.00  0.00    -0.319 N 
ATOM     60  C   UNL     1      28.858  34.504  19.312  1.00  0.00     0.407 C 
ATOM     61  H   UNL     1      27.807  33.213  18.013  1.00  0.00     0.167 HD
ATOM     62  O   UNL     1      29.935  34.939  19.753  1.00  0.00    -0.225 OA
BRANCH  60  63
ATOM     63  O   UNL     1      27.656  35.031  19.817  1.00  0.00    -0.443 OA
BRANCH  63  64
ATOM     64  C   UNL     1      27.271  36.334  19.530  1.00  0.00     0.294 C 
BRANCH  64  65
ATOM     65  C   UNL     1      26.826  36.540  18.138  1.00  0.00     0.120 A 
ATOM     66  C   UNL     1      25.529  36.449  17.670  1.00  0.00     0.139 A 
ATOM     67  N   UNL     1      27.571  36.838  17.066  1.00  0.00    -0.132 NA
ATOM     68  N   UNL     1      25.517  36.690  16.337  1.00  0.00    -0.241 N 
ATOM     69  N   UNL     1      26.770  36.923  16.008  1.00  0.00    -0.066 NA
BRANCH  68  70
ATOM     70  C   UNL     1      24.322  36.673  15.503  1.00  0.00     0.268 C 
BRANCH  70  71
ATOM     71  C   UNL     1      24.661  37.395  14.224  1.00  0.00     0.327 C 
ATOM     72  O   UNL     1      24.827  38.629  14.184  1.00  0.00    -0.250 OA
BRANCH  71  73
ATOM     73  O   UNL     1      24.802  36.707  13.032  1.00  0.00    -0.465 OA
BRANCH  73  74
ATOM     74  C   UNL     1      23.783  36.522  12.092  1.00  0.00     0.229 C 
ATOM     75  C   UNL     1      23.890  35.208  11.358  1.00  0.00     0.049 C 
ENDBRANCH  73  74
ENDBRANCH  71  73
ENDBRANCH  70  71
ENDBRANCH  68  70
ENDBRANCH  64  65
ENDBRANCH  63  64
ENDBRANCH  60  63
ENDBRANCH  58  59
ENDBRANCH  55  58
ENDBRANCH   1  55
TORSDOF 33
BEGIN_RES LYS A 131
REMARK  4 active torsions:
REMARK  status: ('A' for Active; 'I' for Inactive)
REMARK    1  A    between atoms: CA   and  CB  
REMARK    2  A    between atoms: CB   and  CG  
REMARK    3  A    between atoms: CG   and  CD  
REMARK    4  A    between atoms: CD   and  CE  
ROOT
ATOM      1  CA  LYS A 131      29.867  25.555  16.977  1.00 20.52     0.186 C 
ENDROOT
BRANCH   1   2
ATOM      2  CB  LYS A 131      28.345  25.722  17.026  1.00 20.94     0.034 C 
BRANCH   2   3
ATOM      3  CG  LYS A 131      27.599  24.477  16.570  1.00 22.96     0.005 C 
BRANCH   3   4
ATOM      4  CD  LYS A 131      27.009  23.716  17.725  1.00 24.33     0.041 C 
BRANCH   4   5
ATOM      5  CE  LYS A 131      25.525  23.471  17.468  1.00 26.91     0.338 C 
ATOM      6  NZ  LYS A 131      24.812  24.757  17.278  1.00 27.40     0.618 N 
ENDBRANCH   4   5
ENDBRANCH   3   4
ENDBRANCH   2   3
ENDBRANCH   1   2
END_RES LYS A 131
BEGIN_RES LYS A 135
REMARK  4 active torsions:
REMARK  status: ('A' for Active; 'I' for Inactive)
REMARK    5  A    between atoms: CA   and  CB  
REMARK    6  A    between atoms: CB   and  CG  
REMARK    7  A    between atoms: CG   and  CD  
REMARK    8  A    between atoms: CD   and  CE  
ROOT
ATOM      7  CA  LYS A 135      33.193  34.663   9.290  1.00 25.02     0.186 C 
ENDROOT
BRANCH   7   8
ATOM      8  CB  LYS A 135      32.060  35.360  10.034  1.00 26.63     0.034 C 
BRANCH   8   9
ATOM      9  CG  LYS A 135      30.844  35.613   9.180  1.00 29.45     0.005 C 
BRANCH   9  10
ATOM     10  CD  LYS A 135      30.237  34.301   8.710  1.00 32.00     0.041 C 
BRANCH  10  11
ATOM     11  CE  LYS A 135      28.741  34.450   8.504  1.00 34.25     0.338 C 
ATOM     12  NZ  LYS A 135      27.980  33.795   9.603  1.00 35.99     0.618 N 
ENDBRANCH  10  11
ENDBRANCH   9  10
ENDBRANCH   8   9
ENDBRANCH   7   8
END_RES LYS A 135
