REMARK VINA RESULT:    -5.364      0.000      0.000
REMARK INTER + INTRA:         -26.974
REMARK INTER:                 -12.349
REMARK INTRA:                 -14.625
REMARK UNBOUND:               -12.046
REMARK SMILES CC(=O)N[C@@H]1[C@@H](O)C[C@](OC[C@H]2O[C@@H](O[C@H]3[C@H](O)[C@@H](O)[C@H](OCCN=[N+]=[N-])O[C@@H]3CO)[C@H](O)[C@@H](O)[C@H]2O)(C(=O)O)O[C@H]1C(O)[C@H](O)CNC(=O)OCc1cn(C[C@@H](C(=O)O)C(c2ccccc2)c2ccccc2)nn1
REMARK SMILES IDX 43 1 42 2 9 3 8 4 41 5 6 6 5 7 10 8 11 9 12 10 14 11 13 12
REMARK SMILES IDX 32 13 34 14 36 15 15 16 16 17 29 18 28 19 21 20 17 21 19 22
REMARK SMILES IDX 30 23 31 24 22 26 23 27 24 28 25 29 26 30 27 31 18 32 20 34
REMARK SMILES IDX 33 36 35 38 37 40 38 42 39 43 40 44 7 46 4 48 2 49 1 51 3 52
REMARK SMILES IDX 44 53 45 55 46 56 47 58 48 59 49 60 50 62 51 63 52 64 53 65
REMARK SMILES IDX 54 66 75 67 55 68 74 69 56 70 57 71 58 72 59 73 60 74 61 76
REMARK SMILES IDX 62 77 63 78 67 79 64 80 66 81 65 82 68 83 69 84 73 85 70 86
REMARK SMILES IDX 72 87 71 88
REMARK H PARENT 31 25 18 33 20 35 33 37 35 39 37 41 40 45 7 47 4 50 44 54
REMARK H PARENT 46 57 48 61 60 75
REMARK Flexibility Score: inf
ROOT
ATOM      1  C   UNL     1      31.590  29.256  20.782  1.00  0.00     0.176 C 
ENDROOT
BRANCH   1   2
ATOM      2  C   UNL     1      31.317  29.787  22.206  1.00  0.00     0.178 C 
ATOM      3  C   UNL     1      29.806  30.140  23.919  1.00  0.00     0.272 C 
ATOM      4  C   UNL     1      31.188  30.539  24.537  1.00  0.00     0.113 C 
ATOM      5  O   UNL     1      30.027  29.737  22.589  1.00  0.00    -0.332 OA
ATOM      6  C   UNL     1      31.888  31.569  23.721  1.00  0.00     0.145 C 
ATOM      7  C   UNL     1      31.975  31.144  22.290  1.00  0.00     0.142 C 
BRANCH   3   8
ATOM      8  O   UNL     1      28.989  31.123  24.103  1.00  0.00    -0.338 OA
BRANCH   8   9
ATOM      9  C   UNL     1      27.750  31.413  24.030  1.00  0.00     0.199 C 
BRANCH   9  10
ATOM     10  C   UNL     1      27.111  32.232  22.940  1.00  0.00     0.179 C 
ATOM     11  C   UNL     1      27.984  33.493  21.131  1.00  0.00     0.282 C 
ATOM     12  O   UNL     1      28.005  33.115  22.419  1.00  0.00    -0.341 OA
ATOM     13  C   UNL     1      26.881  33.061  20.246  1.00  0.00     0.202 C 
ATOM     14  C   UNL     1      25.953  32.032  20.825  1.00  0.00     0.179 C 
ATOM     15  C   UNL     1      26.758  31.241  21.807  1.00  0.00     0.177 C 
BRANCH  11  16
ATOM     16  O   UNL     1      29.179  32.952  20.571  1.00  0.00    -0.341 OA
BRANCH  16  17
ATOM     17  C   UNL     1      30.236  33.817  20.602  1.00  0.00     0.184 C 
ATOM     18  C   UNL     1      29.752  35.184  20.209  1.00  0.00     0.178 C 
ATOM     19  O   UNL     1      29.745  35.376  18.833  1.00  0.00    -0.341 OA
ATOM     20  C   UNL     1      29.590  34.187  18.104  1.00  0.00     0.281 C 
ATOM     21  C   UNL     1      31.338  33.424  19.628  1.00  0.00     0.180 C 
ATOM     22  C   UNL     1      30.774  33.289  18.228  1.00  0.00     0.202 C 
BRANCH  18  23
ATOM     23  C   UNL     1      30.500  36.315  20.856  1.00  0.00     0.191 C 
BRANCH  23  24
ATOM     24  O   UNL     1      31.189  37.098  19.952  1.00  0.00    -0.394 OA
ATOM     25  H   UNL     1      32.165  36.998  20.167  1.00  0.00     0.210 HD
ENDBRANCH  23  24
ENDBRANCH  18  23
BRANCH  20  26
ATOM     26  O   UNL     1      29.434  34.516  16.776  1.00  0.00    -0.350 OA
BRANCH  26  27
ATOM     27  C   UNL     1      30.374  35.329  16.225  1.00  0.00     0.169 C 
BRANCH  27  28
ATOM     28  C   UNL     1      30.579  35.143  14.757  1.00  0.00     0.119 C 
BRANCH  28  29
ATOM     29  N   UNL     1      31.623  34.107  14.618  1.00  0.00    -0.092 NA
ATOM     30  N   UNL     1      32.794  34.497  14.618  1.00  0.00     0.001 N 
ATOM     31  N   UNL     1      33.952  34.878  14.471  1.00  0.00    -0.003 NA
ENDBRANCH  28  29
ENDBRANCH  27  28
ENDBRANCH  26  27
ENDBRANCH  20  26
BRANCH  21  32
ATOM     32  O   UNL     1      32.258  34.468  19.609  1.00  0.00    -0.387 OA
ATOM     33  H   UNL     1      32.750  34.535  18.759  1.00  0.00     0.211 HD
ENDBRANCH  21  32
BRANCH  22  34
ATOM     34  O   UNL     1      30.383  31.977  17.994  1.00  0.00    -0.385 OA
ATOM     35  H   UNL     1      29.377  31.986  17.912  1.00  0.00     0.211 HD
ENDBRANCH  22  34
ENDBRANCH  16  17
ENDBRANCH  11  16
BRANCH  13  36
ATOM     36  O   UNL     1      26.064  34.167  19.908  1.00  0.00    -0.385 OA
ATOM     37  H   UNL     1      26.477  34.685  19.160  1.00  0.00     0.211 HD
ENDBRANCH  13  36
BRANCH  14  38
ATOM     38  O   UNL     1      25.458  31.221  19.825  1.00  0.00    -0.387 OA
ATOM     39  H   UNL     1      24.566  30.879  20.097  1.00  0.00     0.211 HD
ENDBRANCH  14  38
BRANCH  15  40
ATOM     40  O   UNL     1      27.907  30.781  21.180  1.00  0.00    -0.387 OA
ATOM     41  H   UNL     1      27.860  31.035  20.234  1.00  0.00     0.211 HD
ENDBRANCH  15  40
ENDBRANCH   9  10
ENDBRANCH   8   9
ENDBRANCH   3   8
BRANCH   3  42
ATOM     42  C   UNL     1      29.494  28.891  24.643  1.00  0.00     0.364 C 
ATOM     43  O   UNL     1      29.939  28.578  25.766  1.00  0.00    -0.246 OA
BRANCH  42  44
ATOM     44  O   UNL     1      28.626  27.950  24.049  1.00  0.00    -0.477 OA
ATOM     45  H   UNL     1      28.499  28.005  23.061  1.00  0.00     0.296 HD
ENDBRANCH  42  44
ENDBRANCH   3  42
BRANCH   6  46
ATOM     46  O   UNL     1      31.293  32.835  23.835  1.00  0.00    -0.391 OA
ATOM     47  H   UNL     1      30.308  32.782  23.828  1.00  0.00     0.211 HD
ENDBRANCH   6  46
BRANCH   7  48
ATOM     48  N   UNL     1      33.365  30.992  21.922  1.00  0.00    -0.348 N 
ATOM     49  C   UNL     1      34.226  32.112  21.817  1.00  0.00     0.217 C 
ATOM     50  H   UNL     1      33.733  30.017  21.732  1.00  0.00     0.163 HD
ATOM     51  C   UNL     1      35.672  31.960  21.435  1.00  0.00     0.114 C 
ATOM     52  O   UNL     1      33.732  33.244  22.055  1.00  0.00    -0.275 OA
ENDBRANCH   7  48
ENDBRANCH   1   2
BRANCH   1  53
ATOM     53  O   UNL     1      30.661  29.727  19.896  1.00  0.00    -0.388 OA
ATOM     54  H   UNL     1      30.231  29.030  19.349  1.00  0.00     0.211 HD
ENDBRANCH   1  53
BRANCH   1  55
ATOM     55  C   UNL     1      31.610  27.777  20.771  1.00  0.00     0.165 C 
BRANCH  55  56
ATOM     56  O   UNL     1      32.235  27.236  19.629  1.00  0.00    -0.388 OA
ATOM     57  H   UNL     1      31.991  26.258  19.656  1.00  0.00     0.211 HD
ENDBRANCH  55  56
BRANCH  55  58
ATOM     58  C   UNL     1      30.383  27.000  21.068  1.00  0.00     0.154 C 
BRANCH  58  59
ATOM     59  N   UNL     1      29.318  27.100  20.139  1.00  0.00    -0.319 N 
ATOM     60  C   UNL     1      27.988  27.478  20.421  1.00  0.00     0.407 C 
ATOM     61  H   UNL     1      29.543  26.867  19.095  1.00  0.00     0.167 HD
ATOM     62  O   UNL     1      27.585  27.732  21.569  1.00  0.00    -0.225 OA
BRANCH  60  63
ATOM     63  O   UNL     1      27.105  27.571  19.366  1.00  0.00    -0.443 OA
BRANCH  63  64
ATOM     64  C   UNL     1      27.521  27.832  18.072  1.00  0.00     0.294 C 
BRANCH  64  65
ATOM     65  C   UNL     1      27.369  29.231  17.646  1.00  0.00     0.120 A 
ATOM     66  C   UNL     1      26.600  29.760  16.637  1.00  0.00     0.138 A 
ATOM     67  N   UNL     1      28.023  30.308  18.180  1.00  0.00    -0.132 NA
ATOM     68  N   UNL     1      26.791  31.082  16.579  1.00  0.00    -0.251 N 
ATOM     69  N   UNL     1      27.659  31.387  17.525  1.00  0.00    -0.067 NA
BRANCH  68  70
ATOM     70  C   UNL     1      26.176  32.056  15.656  1.00  0.00     0.162 C 
BRANCH  70  71
ATOM     71  C   UNL     1      24.688  31.994  15.773  1.00  0.00     0.132 C 
BRANCH  71  72
ATOM     72  C   UNL     1      24.227  32.624  17.046  1.00  0.00     0.309 C 
ATOM     73  O   UNL     1      24.620  33.738  17.430  1.00  0.00    -0.252 OA
BRANCH  72  74
ATOM     74  O   UNL     1      23.320  31.951  17.846  1.00  0.00    -0.481 OA
ATOM     75  H   UNL     1      23.598  31.661  18.788  1.00  0.00     0.296 HD
ENDBRANCH  72  74
ENDBRANCH  71  72
BRANCH  71  76
ATOM     76  C   UNL     1      23.876  32.405  14.602  1.00  0.00     0.065 C 
BRANCH  76  77
ATOM     77  C   UNL     1      24.332  33.559  13.826  1.00  0.00    -0.040 A 
ATOM     78  C   UNL     1      25.128  33.392  12.682  1.00  0.00     0.004 A 
ATOM     79  C   UNL     1      24.031  34.884  14.152  1.00  0.00     0.004 A 
ATOM     80  C   UNL     1      25.579  34.434  11.934  1.00  0.00     0.000 A 
ATOM     81  C   UNL     1      24.492  35.929  13.390  1.00  0.00     0.000 A 
ATOM     82  C   UNL     1      25.273  35.715  12.272  1.00  0.00     0.000 A 
ENDBRANCH  76  77
BRANCH  76  83
ATOM     83  C   UNL     1      23.376  31.264  13.791  1.00  0.00    -0.040 A 
ATOM     84  C   UNL     1      22.130  31.409  13.217  1.00  0.00     0.004 A 
ATOM     85  C   UNL     1      24.099  30.118  13.597  1.00  0.00     0.004 A 
ATOM     86  C   UNL     1      21.595  30.416  12.446  1.00  0.00     0.000 A 
ATOM     87  C   UNL     1      23.542  29.115  12.809  1.00  0.00     0.000 A 
ATOM     88  C   UNL     1      22.299  29.253  12.233  1.00  0.00     0.000 A 
ENDBRANCH  76  83
ENDBRANCH  71  76
ENDBRANCH  70  71
ENDBRANCH  68  70
ENDBRANCH  64  65
ENDBRANCH  63  64
ENDBRANCH  60  63
ENDBRANCH  58  59
ENDBRANCH  55  58
ENDBRANCH   1  55
TORSDOF 36
BEGIN_RES LYS A 131
REMARK  4 active torsions:
REMARK  status: ('A' for Active; 'I' for Inactive)
REMARK    1  A    between atoms: CA   and  CB  
REMARK    2  A    between atoms: CB   and  CG  
REMARK    3  A    between atoms: CG   and  CD  
REMARK    4  A    between atoms: CD   and  CE  
ROOT
ATOM      1  CA  LYS A 131      29.867  25.555  16.977  1.00 20.52     0.186 C 
ENDROOT
BRANCH   1   2
ATOM      2  CB  LYS A 131      28.345  25.722  17.026  1.00 20.94     0.034 C 
BRANCH   2   3
ATOM      3  CG  LYS A 131      27.602  24.398  16.934  1.00 22.96     0.005 C 
BRANCH   3   4
ATOM      4  CD  LYS A 131      26.488  24.303  17.939  1.00 24.33     0.041 C 
BRANCH   4   5
ATOM      5  CE  LYS A 131      25.230  24.950  17.367  1.00 26.91     0.338 C 
ATOM      6  NZ  LYS A 131      24.486  25.667  18.429  1.00 27.40     0.618 N 
ENDBRANCH   4   5
ENDBRANCH   3   4
ENDBRANCH   2   3
ENDBRANCH   1   2
END_RES LYS A 131
BEGIN_RES LYS A 135
REMARK  4 active torsions:
REMARK  status: ('A' for Active; 'I' for Inactive)
REMARK    5  A    between atoms: CA   and  CB  
REMARK    6  A    between atoms: CB   and  CG  
REMARK    7  A    between atoms: CG   and  CD  
REMARK    8  A    between atoms: CD   and  CE  
ROOT
ATOM      7  CA  LYS A 135      33.193  34.663   9.290  1.00 25.02     0.186 C 
ENDROOT
BRANCH   7   8
ATOM      8  CB  LYS A 135      32.060  35.360  10.034  1.00 26.63     0.034 C 
BRANCH   8   9
ATOM      9  CG  LYS A 135      30.912  35.760   9.144  1.00 29.45     0.005 C 
BRANCH   9  10
ATOM     10  CD  LYS A 135      30.440  34.578   8.312  1.00 32.00     0.041 C 
BRANCH  10  11
ATOM     11  CE  LYS A 135      28.925  34.500   8.308  1.00 34.25     0.338 C 
ATOM     12  NZ  LYS A 135      28.410  33.991   9.609  1.00 35.99     0.618 N 
ENDBRANCH  10  11
ENDBRANCH   9  10
ENDBRANCH   8   9
ENDBRANCH   7   8
END_RES LYS A 135
