REMARK VINA RESULT:    -4.840      5.310     10.545
REMARK INTER + INTRA:         -23.676
REMARK INTER:                 -11.647
REMARK INTRA:                 -12.029
REMARK UNBOUND:               -10.207
REMARK SMILES CC(=O)N[C@@H]1[C@@H](O)C[C@](OC[C@H]2O[C@@H](O[C@H]3[C@H](O)[C@@H](O)[C@H](OCCN=[N+]=[N-])O[C@@H]3CO)[C@H](O)[C@@H](O)[C@H]2O)(C(=O)O)O[C@H]1C(O)[C@H](O)CNC(=O)OCc1cn(C[C@H](CC(=O)O)CC(C)C)nn1
REMARK SMILES IDX 43 1 42 2 9 3 8 4 41 5 6 6 5 7 10 8 11 9 12 10 14 11 13 12
REMARK SMILES IDX 32 13 34 14 36 15 15 16 16 17 29 18 28 19 21 20 17 21 19 22
REMARK SMILES IDX 30 23 31 24 22 26 23 27 24 28 25 29 26 30 27 31 18 32 20 34
REMARK SMILES IDX 33 36 35 38 37 40 38 42 39 43 40 44 7 46 4 48 2 49 1 51 3 52
REMARK SMILES IDX 44 53 45 55 46 56 47 58 48 59 49 60 50 62 51 63 52 64 53 65
REMARK SMILES IDX 54 66 67 67 55 68 66 69 56 70 57 71 58 72 59 73 60 74 61 75
REMARK SMILES IDX 62 77 63 78 64 79 65 80
REMARK H PARENT 31 25 18 33 20 35 33 37 35 39 37 41 40 45 7 47 4 50 44 54
REMARK H PARENT 46 57 48 61 61 76
REMARK Flexibility Score: inf
ROOT
ATOM      1  C   UNL     1      23.674  36.785   8.919  1.00  0.00     0.176 C 
ENDROOT
BRANCH   1   2
ATOM      2  C   UNL     1      22.701  35.675   9.198  1.00  0.00     0.178 C 
ATOM      3  C   UNL     1      20.341  36.067   8.902  1.00  0.00     0.272 C 
ATOM      4  C   UNL     1      20.173  36.294  10.361  1.00  0.00     0.113 C 
ATOM      5  O   UNL     1      21.586  35.971   8.482  1.00  0.00    -0.332 OA
ATOM      6  C   UNL     1      21.393  36.440  11.177  1.00  0.00     0.145 C 
ATOM      7  C   UNL     1      22.544  35.566  10.675  1.00  0.00     0.142 C 
BRANCH   3   8
ATOM      8  O   UNL     1      19.701  37.117   8.188  1.00  0.00    -0.338 OA
BRANCH   8   9
ATOM      9  C   UNL     1      18.950  37.953   8.955  1.00  0.00     0.199 C 
BRANCH   9  10
ATOM     10  C   UNL     1      19.650  39.324   9.089  1.00  0.00     0.179 C 
ATOM     11  C   UNL     1      21.752  40.306   9.066  1.00  0.00     0.282 C 
ATOM     12  O   UNL     1      20.954  39.255   8.642  1.00  0.00    -0.341 OA
ATOM     13  C   UNL     1      20.851  41.550   9.108  1.00  0.00     0.202 C 
ATOM     14  C   UNL     1      19.832  41.494   7.989  1.00  0.00     0.179 C 
ATOM     15  C   UNL     1      18.921  40.330   8.187  1.00  0.00     0.177 C 
BRANCH  11  16
ATOM     16  O   UNL     1      22.683  40.573   8.093  1.00  0.00    -0.341 OA
BRANCH  16  17
ATOM     17  C   UNL     1      23.989  40.654   8.500  1.00  0.00     0.184 C 
ATOM     18  C   UNL     1      24.266  41.730   9.507  1.00  0.00     0.178 C 
ATOM     19  O   UNL     1      25.096  42.727   9.086  1.00  0.00    -0.341 OA
ATOM     20  C   UNL     1      26.329  42.316   8.618  1.00  0.00     0.281 C 
ATOM     21  C   UNL     1      24.826  40.949   7.273  1.00  0.00     0.180 C 
ATOM     22  C   UNL     1      26.280  41.121   7.732  1.00  0.00     0.202 C 
BRANCH  18  23
ATOM     23  C   UNL     1      24.739  41.058  10.784  1.00  0.00     0.191 C 
BRANCH  23  24
ATOM     24  O   UNL     1      25.057  39.721  10.565  1.00  0.00    -0.394 OA
ATOM     25  H   UNL     1      24.365  39.104  10.932  1.00  0.00     0.210 HD
ENDBRANCH  23  24
ENDBRANCH  18  23
BRANCH  20  26
ATOM     26  O   UNL     1      27.174  42.189   9.711  1.00  0.00    -0.350 OA
BRANCH  26  27
ATOM     27  C   UNL     1      28.375  42.859   9.554  1.00  0.00     0.169 C 
BRANCH  27  28
ATOM     28  C   UNL     1      28.957  43.054  10.947  1.00  0.00     0.119 C 
BRANCH  28  29
ATOM     29  N   UNL     1      30.043  42.091  11.062  1.00  0.00    -0.092 NA
ATOM     30  N   UNL     1      30.951  42.144  10.266  1.00  0.00     0.001 N 
ATOM     31  N   UNL     1      31.902  41.874   9.520  1.00  0.00    -0.003 NA
ENDBRANCH  28  29
ENDBRANCH  27  28
ENDBRANCH  26  27
ENDBRANCH  20  26
BRANCH  21  32
ATOM     32  O   UNL     1      24.698  39.928   6.349  1.00  0.00    -0.387 OA
ATOM     33  H   UNL     1      25.238  39.151   6.699  1.00  0.00     0.211 HD
ENDBRANCH  21  32
BRANCH  22  34
ATOM     34  O   UNL     1      27.014  41.295   6.540  1.00  0.00    -0.385 OA
ATOM     35  H   UNL     1      26.427  41.033   5.799  1.00  0.00     0.211 HD
ENDBRANCH  22  34
ENDBRANCH  16  17
ENDBRANCH  11  16
BRANCH  13  36
ATOM     36  O   UNL     1      20.309  41.776  10.348  1.00  0.00    -0.385 OA
ATOM     37  H   UNL     1      20.919  41.638  11.094  1.00  0.00     0.211 HD
ENDBRANCH  13  36
BRANCH  14  38
ATOM     38  O   UNL     1      20.579  41.293   6.810  1.00  0.00    -0.387 OA
ATOM     39  H   UNL     1      20.147  41.673   6.030  1.00  0.00     0.211 HD
ENDBRANCH  14  38
BRANCH  15  40
ATOM     40  O   UNL     1      18.697  39.750   6.921  1.00  0.00    -0.387 OA
ATOM     41  H   UNL     1      17.898  40.114   6.507  1.00  0.00     0.211 HD
ENDBRANCH  15  40
ENDBRANCH   9  10
ENDBRANCH   8   9
ENDBRANCH   3   8
BRANCH   3  42
ATOM     42  C   UNL     1      19.531  34.855   8.483  1.00  0.00     0.364 C 
ATOM     43  O   UNL     1      18.865  34.228   9.316  1.00  0.00    -0.246 OA
BRANCH  42  44
ATOM     44  O   UNL     1      19.528  34.441   7.182  1.00  0.00    -0.477 OA
ATOM     45  H   UNL     1      19.188  35.017   6.414  1.00  0.00     0.296 HD
ENDBRANCH  42  44
ENDBRANCH   3  42
BRANCH   6  46
ATOM     46  O   UNL     1      21.851  37.722  11.392  1.00  0.00    -0.391 OA
ATOM     47  H   UNL     1      21.930  37.837  12.371  1.00  0.00     0.211 HD
ENDBRANCH   6  46
BRANCH   7  48
ATOM     48  N   UNL     1      22.278  34.250  11.190  1.00  0.00    -0.348 N 
ATOM     49  C   UNL     1      23.014  33.813  12.355  1.00  0.00     0.217 C 
ATOM     50  H   UNL     1      21.598  33.563  10.797  1.00  0.00     0.163 HD
ATOM     51  C   UNL     1      22.730  32.438  12.894  1.00  0.00     0.114 C 
ATOM     52  O   UNL     1      23.871  34.537  12.918  1.00  0.00    -0.275 OA
ENDBRANCH   7  48
ENDBRANCH   1   2
BRANCH   1  53
ATOM     53  O   UNL     1      23.297  37.413   7.694  1.00  0.00    -0.388 OA
ATOM     54  H   UNL     1      23.530  38.376   7.739  1.00  0.00     0.211 HD
ENDBRANCH   1  53
BRANCH   1  55
ATOM     55  C   UNL     1      25.116  36.395   8.685  1.00  0.00     0.165 C 
BRANCH  55  56
ATOM     56  O   UNL     1      25.758  37.027   9.837  1.00  0.00    -0.388 OA
ATOM     57  H   UNL     1      25.964  36.221  10.413  1.00  0.00     0.211 HD
ENDBRANCH  55  56
BRANCH  55  58
ATOM     58  C   UNL     1      25.735  37.118   7.539  1.00  0.00     0.154 C 
BRANCH  58  59
ATOM     59  N   UNL     1      26.820  37.943   7.933  1.00  0.00    -0.319 N 
ATOM     60  C   UNL     1      28.085  37.689   7.284  1.00  0.00     0.407 C 
ATOM     61  H   UNL     1      26.828  38.706   8.634  1.00  0.00     0.167 HD
ATOM     62  O   UNL     1      28.169  36.774   6.416  1.00  0.00    -0.225 OA
BRANCH  60  63
ATOM     63  O   UNL     1      29.236  38.392   7.562  1.00  0.00    -0.443 OA
BRANCH  63  64
ATOM     64  C   UNL     1      29.373  39.388   8.554  1.00  0.00     0.294 C 
BRANCH  64  65
ATOM     65  C   UNL     1      28.993  38.914   9.915  1.00  0.00     0.120 A 
ATOM     66  C   UNL     1      29.769  38.264  10.847  1.00  0.00     0.138 A 
ATOM     67  N   UNL     1      27.781  39.061  10.457  1.00  0.00    -0.132 NA
ATOM     68  N   UNL     1      28.999  38.026  11.952  1.00  0.00    -0.252 N 
ATOM     69  N   UNL     1      27.819  38.524  11.664  1.00  0.00    -0.067 NA
BRANCH  68  70
ATOM     70  C   UNL     1      29.385  37.359  13.141  1.00  0.00     0.150 C 
BRANCH  70  71
ATOM     71  C   UNL     1      29.921  36.001  12.969  1.00  0.00     0.022 C 
BRANCH  71  72
ATOM     72  C   UNL     1      28.953  34.924  12.650  1.00  0.00     0.128 C 
BRANCH  72  73
ATOM     73  C   UNL     1      27.567  35.117  13.094  1.00  0.00     0.303 C 
ATOM     74  O   UNL     1      27.245  34.791  14.268  1.00  0.00    -0.252 OA
BRANCH  73  75
ATOM     75  O   UNL     1      26.567  35.646  12.289  1.00  0.00    -0.481 OA
ATOM     76  H   UNL     1      26.186  36.560  12.485  1.00  0.00     0.296 HD
ENDBRANCH  73  75
ENDBRANCH  72  73
ENDBRANCH  71  72
BRANCH  71  77
ATOM     77  C   UNL     1      30.939  35.591  13.996  1.00  0.00     0.009 C 
BRANCH  77  78
ATOM     78  C   UNL     1      32.357  35.839  13.746  1.00  0.00    -0.017 C 
ATOM     79  C   UNL     1      33.365  34.911  14.321  1.00  0.00     0.007 C 
ATOM     80  C   UNL     1      32.708  36.067  12.287  1.00  0.00     0.007 C 
ENDBRANCH  77  78
ENDBRANCH  71  77
ENDBRANCH  70  71
ENDBRANCH  68  70
ENDBRANCH  64  65
ENDBRANCH  63  64
ENDBRANCH  60  63
ENDBRANCH  58  59
ENDBRANCH  55  58
ENDBRANCH   1  55
TORSDOF 36
BEGIN_RES LYS A 131
REMARK  4 active torsions:
REMARK  status: ('A' for Active; 'I' for Inactive)
REMARK    1  A    between atoms: CA   and  CB  
REMARK    2  A    between atoms: CB   and  CG  
REMARK    3  A    between atoms: CG   and  CD  
REMARK    4  A    between atoms: CD   and  CE  
ROOT
ATOM      1  CA  LYS A 131      29.867  25.555  16.977  1.00 20.52     0.186 C 
ENDROOT
BRANCH   1   2
ATOM      2  CB  LYS A 131      28.345  25.722  17.026  1.00 20.94     0.034 C 
BRANCH   2   3
ATOM      3  CG  LYS A 131      27.601  24.401  16.905  1.00 22.96     0.005 C 
BRANCH   3   4
ATOM      4  CD  LYS A 131      26.154  24.528  17.292  1.00 24.33     0.041 C 
BRANCH   4   5
ATOM      5  CE  LYS A 131      25.793  23.427  18.284  1.00 26.91     0.338 C 
ATOM      6  NZ  LYS A 131      25.030  22.350  17.609  1.00 27.40     0.618 N 
ENDBRANCH   4   5
ENDBRANCH   3   4
ENDBRANCH   2   3
ENDBRANCH   1   2
END_RES LYS A 131
BEGIN_RES LYS A 135
REMARK  4 active torsions:
REMARK  status: ('A' for Active; 'I' for Inactive)
REMARK    5  A    between atoms: CA   and  CB  
REMARK    6  A    between atoms: CB   and  CG  
REMARK    7  A    between atoms: CG   and  CD  
REMARK    8  A    between atoms: CD   and  CE  
ROOT
ATOM      7  CA  LYS A 135      33.193  34.663   9.290  1.00 25.02     0.186 C 
ENDROOT
BRANCH   7   8
ATOM      8  CB  LYS A 135      32.060  35.360  10.034  1.00 26.63     0.034 C 
BRANCH   8   9
ATOM      9  CG  LYS A 135      30.785  35.456   9.237  1.00 29.45     0.005 C 
BRANCH   9  10
ATOM     10  CD  LYS A 135      30.080  34.110   9.188  1.00 32.00     0.041 C 
BRANCH  10  11
ATOM     11  CE  LYS A 135      28.664  34.269   8.668  1.00 34.25     0.338 C 
ATOM     12  NZ  LYS A 135      27.678  33.652   9.599  1.00 35.99     0.618 N 
ENDBRANCH  10  11
ENDBRANCH   9  10
ENDBRANCH   8   9
ENDBRANCH   7   8
END_RES LYS A 135
