REMARK VINA RESULT:    -5.646      1.840      2.360
REMARK INTER + INTRA:         -26.073
REMARK INTER:                 -13.774
REMARK INTRA:                 -12.299
REMARK UNBOUND:               -11.349
REMARK SMILES CC(=O)N[C@@H]1[C@@H](O)C[C@](OC[C@H]2O[C@@H](O[C@H]3[C@H](O)[C@@H](O)[C@H](OCCN=[N+]=[N-])O[C@@H]3CO)[C@H](O)[C@@H](O)[C@H]2O)(C(=O)O)O[C@H]1C(O)[C@H](O)CNC(=O)OCc1cn(-c2ccc(-c3c4ccc(=O)cc-4oc4cc(O)ccc34)c(C(=O)[O-])c2)nn1
REMARK SMILES IDX 9 1 8 2 6 3 5 4 42 5 41 6 10 7 11 8 12 9 14 10 13 11 32 12
REMARK SMILES IDX 34 13 36 14 15 15 16 16 29 17 28 18 21 19 17 20 19 21 30 22
REMARK SMILES IDX 31 23 22 25 23 26 24 27 25 28 26 29 27 30 18 31 20 33 33 35
REMARK SMILES IDX 35 37 37 39 38 41 39 42 40 43 7 45 43 47 44 48 45 50 46 51
REMARK SMILES IDX 47 53 48 54 49 55 50 57 51 58 52 59 53 60 54 61 82 62 55 63
REMARK SMILES IDX 81 64 56 65 80 66 57 67 76 68 58 69 59 70 77 71 78 72 79 73
REMARK SMILES IDX 60 74 75 75 61 76 74 77 69 78 67 79 62 80 73 81 70 82 68 83
REMARK SMILES IDX 66 84 63 85 71 86 64 87 65 88 72 89 4 91 2 92 1 94 3 95
REMARK H PARENT 31 24 18 32 20 34 33 36 35 38 37 40 40 44 7 46 44 49 46 52
REMARK H PARENT 48 56 72 90 4 93
REMARK Flexibility Score: inf
ROOT
ATOM      1  C   UNL     1      28.036  39.345   6.092  1.00  0.00     0.272 C 
ATOM      2  C   UNL     1      28.180  38.230   5.086  1.00  0.00     0.113 C 
ATOM      3  C   UNL     1      28.043  36.862   5.692  1.00  0.00     0.145 C 
ATOM      4  C   UNL     1      28.195  36.999   7.186  1.00  0.00     0.142 C 
ATOM      5  C   UNL     1      29.358  37.926   7.418  1.00  0.00     0.178 C 
ATOM      6  O   UNL     1      28.984  39.216   7.136  1.00  0.00    -0.332 OA
ENDROOT
BRANCH   1   7
ATOM      7  O   UNL     1      26.790  39.510   6.630  1.00  0.00    -0.338 OA
BRANCH   7   8
ATOM      8  C   UNL     1      26.177  40.665   6.296  1.00  0.00     0.199 C 
BRANCH   8   9
ATOM      9  C   UNL     1      25.263  41.171   7.423  1.00  0.00     0.179 C 
ATOM     10  C   UNL     1      23.517  40.509   8.775  1.00  0.00     0.282 C 
ATOM     11  O   UNL     1      24.146  40.433   7.563  1.00  0.00    -0.341 OA
ATOM     12  C   UNL     1      23.703  41.778   9.510  1.00  0.00     0.202 C 
ATOM     13  C   UNL     1      25.153  42.188   9.621  1.00  0.00     0.179 C 
ATOM     14  C   UNL     1      26.009  41.338   8.695  1.00  0.00     0.177 C 
BRANCH  10  15
ATOM     15  O   UNL     1      23.823  39.334   9.461  1.00  0.00    -0.341 OA
BRANCH  15  16
ATOM     16  C   UNL     1      22.891  38.359   9.321  1.00  0.00     0.184 C 
ATOM     17  C   UNL     1      22.663  37.589  10.585  1.00  0.00     0.178 C 
ATOM     18  O   UNL     1      21.434  36.916  10.527  1.00  0.00    -0.341 OA
ATOM     19  C   UNL     1      21.242  36.323   9.284  1.00  0.00     0.281 C 
ATOM     20  C   UNL     1      23.291  37.290   8.288  1.00  0.00     0.180 C 
ATOM     21  C   UNL     1      22.521  36.021   8.589  1.00  0.00     0.202 C 
BRANCH  17  22
ATOM     22  C   UNL     1      22.640  38.513  11.764  1.00  0.00     0.191 C 
BRANCH  22  23
ATOM     23  O   UNL     1      21.628  39.456  11.576  1.00  0.00    -0.394 OA
ATOM     24  H   UNL     1      21.178  39.228  10.732  1.00  0.00     0.210 HD
ENDBRANCH  22  23
ENDBRANCH  17  22
BRANCH  19  25
ATOM     25  O   UNL     1      20.391  37.070   8.498  1.00  0.00    -0.350 OA
BRANCH  25  26
ATOM     26  C   UNL     1      19.723  36.338   7.525  1.00  0.00     0.169 C 
BRANCH  26  27
ATOM     27  C   UNL     1      18.622  35.577   8.243  1.00  0.00     0.119 C 
BRANCH  27  28
ATOM     28  N   UNL     1      18.769  34.154   8.096  1.00  0.00    -0.092 NA
ATOM     29  N   UNL     1      17.751  33.461   7.969  1.00  0.00     0.001 N 
ATOM     30  N   UNL     1      16.921  32.637   7.585  1.00  0.00    -0.003 NA
ENDBRANCH  27  28
ENDBRANCH  26  27
ENDBRANCH  25  26
ENDBRANCH  19  25
BRANCH  20  31
ATOM     31  O   UNL     1      22.857  37.760   7.052  1.00  0.00    -0.387 OA
ATOM     32  H   UNL     1      23.580  37.890   6.400  1.00  0.00     0.211 HD
ENDBRANCH  20  31
BRANCH  21  33
ATOM     33  O   UNL     1      23.287  35.066   9.258  1.00  0.00    -0.385 OA
ATOM     34  H   UNL     1      23.026  34.185   8.846  1.00  0.00     0.211 HD
ENDBRANCH  21  33
ENDBRANCH  15  16
ENDBRANCH  10  15
BRANCH  12  35
ATOM     35  O   UNL     1      22.968  42.822   8.891  1.00  0.00    -0.385 OA
ATOM     36  H   UNL     1      23.055  42.719   7.896  1.00  0.00     0.211 HD
ENDBRANCH  12  35
BRANCH  13  37
ATOM     37  O   UNL     1      25.606  42.182  10.929  1.00  0.00    -0.387 OA
ATOM     38  H   UNL     1      26.235  41.429  11.028  1.00  0.00     0.211 HD
ENDBRANCH  13  37
BRANCH  14  39
ATOM     39  O   UNL     1      26.301  40.155   9.359  1.00  0.00    -0.387 OA
ATOM     40  H   UNL     1      26.712  39.555   8.669  1.00  0.00     0.211 HD
ENDBRANCH  14  39
ENDBRANCH   8   9
ENDBRANCH   7   8
ENDBRANCH   1   7
BRANCH   1  41
ATOM     41  C   UNL     1      28.521  40.583   5.361  1.00  0.00     0.364 C 
ATOM     42  O   UNL     1      29.164  41.497   5.907  1.00  0.00    -0.246 OA
BRANCH  41  43
ATOM     43  O   UNL     1      28.248  40.737   4.005  1.00  0.00    -0.477 OA
ATOM     44  H   UNL     1      28.624  41.516   3.483  1.00  0.00     0.296 HD
ENDBRANCH  41  43
ENDBRANCH   1  41
BRANCH   3  45
ATOM     45  O   UNL     1      26.847  36.298   5.291  1.00  0.00    -0.391 OA
ATOM     46  H   UNL     1      26.461  35.830   6.073  1.00  0.00     0.211 HD
ENDBRANCH   3  45
BRANCH   5  47
ATOM     47  C   UNL     1      29.768  37.916   8.894  1.00  0.00     0.176 C 
BRANCH  47  48
ATOM     48  O   UNL     1      28.781  38.629   9.616  1.00  0.00    -0.388 OA
ATOM     49  H   UNL     1      28.179  39.124   9.038  1.00  0.00     0.211 HD
ENDBRANCH  47  48
BRANCH  47  50
ATOM     50  C   UNL     1      31.044  38.663   9.100  1.00  0.00     0.165 C 
BRANCH  50  51
ATOM     51  O   UNL     1      31.799  38.651   7.926  1.00  0.00    -0.388 OA
ATOM     52  H   UNL     1      31.292  38.158   7.231  1.00  0.00     0.211 HD
ENDBRANCH  50  51
BRANCH  50  53
ATOM     53  C   UNL     1      31.861  38.237  10.268  1.00  0.00     0.154 C 
BRANCH  53  54
ATOM     54  N   UNL     1      31.152  38.393  11.517  1.00  0.00    -0.319 N 
ATOM     55  C   UNL     1      31.097  39.595  12.261  1.00  0.00     0.407 C 
ATOM     56  H   UNL     1      30.616  37.581  11.953  1.00  0.00     0.167 HD
ATOM     57  O   UNL     1      31.685  40.612  11.845  1.00  0.00    -0.225 OA
BRANCH  55  58
ATOM     58  O   UNL     1      30.406  39.707  13.461  1.00  0.00    -0.443 OA
BRANCH  58  59
ATOM     59  C   UNL     1      29.203  40.476  13.581  1.00  0.00     0.294 C 
BRANCH  59  60
ATOM     60  C   UNL     1      28.116  39.615  13.052  1.00  0.00     0.121 A 
ATOM     61  C   UNL     1      27.666  38.436  13.580  1.00  0.00     0.144 A 
ATOM     62  N   UNL     1      27.357  39.836  11.941  1.00  0.00    -0.131 NA
ATOM     63  N   UNL     1      26.666  37.959  12.810  1.00  0.00    -0.220 N 
ATOM     64  N   UNL     1      26.505  38.836  11.821  1.00  0.00    -0.062 NA
BRANCH  63  65
ATOM     65  C   UNL     1      25.945  36.758  13.036  1.00  0.00     0.067 A 
ATOM     66  C   UNL     1      25.117  36.596  14.122  1.00  0.00     0.039 A 
ATOM     67  C   UNL     1      26.077  35.729  12.138  1.00  0.00     0.029 A 
ATOM     68  C   UNL     1      24.436  35.414  14.293  1.00  0.00     0.007 A 
ATOM     69  C   UNL     1      25.393  34.545  12.313  1.00  0.00     0.012 A 
ATOM     70  C   UNL     1      24.559  34.360  13.391  1.00  0.00    -0.008 A 
BRANCH  68  71
ATOM     71  C   UNL     1      23.545  35.208  15.438  1.00  0.00     0.072 C 
ATOM     72  O   UNL     1      23.954  34.723  16.520  1.00  0.00    -0.545 OA
ATOM     73  O   UNL     1      22.221  35.555  15.329  1.00  0.00    -0.545 OA
ENDBRANCH  68  71
BRANCH  70  74
ATOM     74  C   UNL     1      23.832  33.118  13.583  1.00  0.00     0.004 A 
ATOM     75  C   UNL     1      24.418  32.111  14.309  1.00  0.00     0.026 A 
ATOM     76  C   UNL     1      22.581  32.916  13.060  1.00  0.00     0.026 A 
ATOM     77  C   UNL     1      25.668  32.225  14.870  1.00  0.00     0.016 A 
ATOM     78  C   UNL     1      23.710  30.927  14.481  1.00  0.00     0.139 A 
ATOM     79  C   UNL     1      21.867  31.638  13.270  1.00  0.00     0.139 A 
ATOM     80  C   UNL     1      21.933  33.876  12.324  1.00  0.00     0.016 A 
ATOM     81  C   UNL     1      26.248  31.204  15.600  1.00  0.00     0.047 A 
ATOM     82  C   UNL     1      24.292  29.918  15.207  1.00  0.00     0.093 A 
ATOM     83  O   UNL     1      22.507  30.741  13.974  1.00  0.00    -0.456 OA
ATOM     84  C   UNL     1      20.616  31.441  12.744  1.00  0.00     0.099 A 
ATOM     85  C   UNL     1      20.670  33.662  11.800  1.00  0.00     0.053 A 
ATOM     86  C   UNL     1      25.554  30.027  15.775  1.00  0.00     0.119 A 
ATOM     87  C   UNL     1      20.035  32.453  12.018  1.00  0.00     0.182 A 
ATOM     88  O   UNL     1      18.886  32.320  11.515  1.00  0.00    -0.290 OA
BRANCH  86  89
ATOM     89  O   UNL     1      26.143  29.009  16.509  1.00  0.00    -0.508 OA
ATOM     90  H   UNL     1      25.686  28.101  16.474  1.00  0.00     0.293 HD
ENDBRANCH  86  89
ENDBRANCH  70  74
ENDBRANCH  63  65
ENDBRANCH  59  60
ENDBRANCH  58  59
ENDBRANCH  55  58
ENDBRANCH  53  54
ENDBRANCH  50  53
ENDBRANCH  47  50
ENDBRANCH   5  47
BRANCH   4  91
ATOM     91  N   UNL     1      28.373  35.724   7.846  1.00  0.00    -0.348 N 
ATOM     92  C   UNL     1      27.253  35.109   8.441  1.00  0.00     0.217 C 
ATOM     93  H   UNL     1      29.292  35.234   7.905  1.00  0.00     0.163 HD
ATOM     94  C   UNL     1      27.320  33.804   9.144  1.00  0.00     0.114 C 
ATOM     95  O   UNL     1      26.098  35.658   8.403  1.00  0.00    -0.275 OA
ENDBRANCH   4  91
TORSDOF 33
BEGIN_RES LYS A 131
REMARK  4 active torsions:
REMARK  status: ('A' for Active; 'I' for Inactive)
REMARK    1  A    between atoms: CA   and  CB  
REMARK    2  A    between atoms: CB   and  CG  
REMARK    3  A    between atoms: CG   and  CD  
REMARK    4  A    between atoms: CD   and  CE  
ROOT
ATOM      1  CA  LYS A 131      29.867  25.555  16.977  1.00 20.52     0.186 C 
ENDROOT
BRANCH   1   2
ATOM      2  CB  LYS A 131      28.345  25.722  17.026  1.00 20.94     0.034 C 
BRANCH   2   3
ATOM      3  CG  LYS A 131      27.602  24.400  16.909  1.00 22.96     0.005 C 
BRANCH   3   4
ATOM      4  CD  LYS A 131      26.154  24.528  17.296  1.00 24.33     0.041 C 
BRANCH   4   5
ATOM      5  CE  LYS A 131      26.014  25.567  18.404  1.00 26.91     0.338 C 
ATOM      6  NZ  LYS A 131      25.523  24.934  19.651  1.00 27.40     0.618 N 
ENDBRANCH   4   5
ENDBRANCH   3   4
ENDBRANCH   2   3
ENDBRANCH   1   2
END_RES LYS A 131
BEGIN_RES LYS A 135
REMARK  4 active torsions:
REMARK  status: ('A' for Active; 'I' for Inactive)
REMARK    5  A    between atoms: CA   and  CB  
REMARK    6  A    between atoms: CB   and  CG  
REMARK    7  A    between atoms: CG   and  CD  
REMARK    8  A    between atoms: CD   and  CE  
ROOT
ATOM      7  CA  LYS A 135      33.193  34.663   9.290  1.00 25.02     0.186 C 
ENDROOT
BRANCH   7   8
ATOM      8  CB  LYS A 135      32.060  35.360  10.034  1.00 26.63     0.034 C 
BRANCH   8   9
ATOM      9  CG  LYS A 135      30.790  34.551  10.093  1.00 29.45     0.005 C 
BRANCH   9  10
ATOM     10  CD  LYS A 135      29.937  34.975  11.278  1.00 32.00     0.041 C 
BRANCH  10  11
ATOM     11  CE  LYS A 135      30.745  34.924  12.561  1.00 34.25     0.338 C 
ATOM     12  NZ  LYS A 135      29.902  35.267  13.740  1.00 35.99     0.618 N 
ENDBRANCH  10  11
ENDBRANCH   9  10
ENDBRANCH   8   9
ENDBRANCH   7   8
END_RES LYS A 135
