REMARK VINA RESULT:    -5.582      3.162      8.132
REMARK INTER + INTRA:         -24.225
REMARK INTER:                 -13.134
REMARK INTRA:                 -11.091
REMARK UNBOUND:                -9.504
REMARK SMILES CC(=O)N[C@@H]1[C@@H](O)C[C@](OC[C@H]2O[C@@H](O[C@H]3[C@H](O)[C@@H](O)[C@H](OCCN=[N+]=[N-])O[C@@H]3CO)[C@H](O)[C@@H](O)[C@H]2O)(C(=O)O)O[C@H]1C(O)[C@H](O)CNC(=O)OCc1cn(COCc2ccccc2)nn1
REMARK SMILES IDX 43 1 42 2 9 3 8 4 41 5 6 6 5 7 10 8 11 9 12 10 14 11 13 12
REMARK SMILES IDX 32 13 34 14 36 15 15 16 16 17 29 18 28 19 21 20 17 21 19 22
REMARK SMILES IDX 30 23 31 24 22 26 23 27 24 28 25 29 26 30 27 31 18 32 20 34
REMARK SMILES IDX 33 36 35 38 37 40 38 42 39 43 40 44 7 46 4 48 2 49 1 51 3 52
REMARK SMILES IDX 44 53 45 55 46 56 47 58 48 59 49 60 50 62 51 63 52 64 53 65
REMARK SMILES IDX 54 66 66 67 55 68 65 69 56 70 57 71 58 72 59 73 60 74 64 75
REMARK SMILES IDX 61 76 63 77 62 78
REMARK H PARENT 31 25 18 33 20 35 33 37 35 39 37 41 40 45 7 47 4 50 44 54
REMARK H PARENT 46 57 48 61
REMARK Flexibility Score: inf
ROOT
ATOM      1  C   UNL     1      28.655  37.734   7.018  1.00  0.00     0.176 C 
ENDROOT
BRANCH   1   2
ATOM      2  C   UNL     1      28.956  39.199   7.404  1.00  0.00     0.178 C 
ATOM      3  C   UNL     1      27.794  41.212   7.421  1.00  0.00     0.272 C 
ATOM      4  C   UNL     1      29.037  41.922   6.896  1.00  0.00     0.113 C 
ATOM      5  O   UNL     1      27.865  39.939   6.945  1.00  0.00    -0.332 OA
ATOM      6  C   UNL     1      29.790  41.003   5.963  1.00  0.00     0.145 C 
ATOM      7  C   UNL     1      30.195  39.715   6.744  1.00  0.00     0.142 C 
BRANCH   3   8
ATOM      8  O   UNL     1      26.638  41.865   6.948  1.00  0.00    -0.338 OA
BRANCH   8   9
ATOM      9  C   UNL     1      26.079  41.392   5.824  1.00  0.00     0.199 C 
BRANCH   9  10
ATOM     10  C   UNL     1      24.637  41.010   6.067  1.00  0.00     0.179 C 
ATOM     11  C   UNL     1      23.150  39.947   7.406  1.00  0.00     0.282 C 
ATOM     12  O   UNL     1      24.513  40.299   7.278  1.00  0.00    -0.341 OA
ATOM     13  C   UNL     1      22.325  41.166   7.804  1.00  0.00     0.202 C 
ATOM     14  C   UNL     1      23.210  42.382   7.491  1.00  0.00     0.179 C 
ATOM     15  C   UNL     1      23.702  42.164   6.076  1.00  0.00     0.177 C 
BRANCH  11  16
ATOM     16  O   UNL     1      23.050  39.026   8.412  1.00  0.00    -0.341 OA
BRANCH  16  17
ATOM     17  C   UNL     1      21.877  38.285   8.384  1.00  0.00     0.184 C 
ATOM     18  C   UNL     1      21.048  38.438   9.609  1.00  0.00     0.178 C 
ATOM     19  O   UNL     1      21.635  37.786  10.650  1.00  0.00    -0.341 OA
ATOM     20  C   UNL     1      21.658  36.415  10.545  1.00  0.00     0.281 C 
ATOM     21  C   UNL     1      22.209  36.859   8.111  1.00  0.00     0.180 C 
ATOM     22  C   UNL     1      21.944  35.883   9.196  1.00  0.00     0.202 C 
BRANCH  18  23
ATOM     23  C   UNL     1      19.630  37.999   9.325  1.00  0.00     0.191 C 
BRANCH  23  24
ATOM     24  O   UNL     1      19.300  38.188   7.977  1.00  0.00    -0.394 OA
ATOM     25  H   UNL     1      18.934  39.099   7.853  1.00  0.00     0.210 HD
ENDBRANCH  23  24
ENDBRANCH  18  23
BRANCH  20  26
ATOM     26  O   UNL     1      20.404  35.955  10.960  1.00  0.00    -0.350 OA
BRANCH  26  27
ATOM     27  C   UNL     1      20.240  34.597  10.862  1.00  0.00     0.169 C 
BRANCH  27  28
ATOM     28  C   UNL     1      18.744  34.338  10.813  1.00  0.00     0.119 C 
BRANCH  28  29
ATOM     29  N   UNL     1      18.322  33.816   9.533  1.00  0.00    -0.092 NA
ATOM     30  N   UNL     1      18.835  34.242   8.483  1.00  0.00     0.001 N 
ATOM     31  N   UNL     1      18.937  35.029   7.522  1.00  0.00    -0.003 NA
ENDBRANCH  28  29
ENDBRANCH  27  28
ENDBRANCH  26  27
ENDBRANCH  20  26
BRANCH  21  32
ATOM     32  O   UNL     1      21.482  36.408   6.974  1.00  0.00    -0.387 OA
ATOM     33  H   UNL     1      21.752  35.518   6.699  1.00  0.00     0.211 HD
ENDBRANCH  21  32
BRANCH  22  34
ATOM     34  O   UNL     1      23.094  35.060   9.325  1.00  0.00    -0.385 OA
ATOM     35  H   UNL     1      23.686  35.307   8.567  1.00  0.00     0.211 HD
ENDBRANCH  22  34
ENDBRANCH  16  17
ENDBRANCH  11  16
BRANCH  13  36
ATOM     36  O   UNL     1      21.192  41.312   7.004  1.00  0.00    -0.385 OA
ATOM     37  H   UNL     1      20.673  42.073   7.367  1.00  0.00     0.211 HD
ENDBRANCH  13  36
BRANCH  14  38
ATOM     38  O   UNL     1      24.291  42.276   8.355  1.00  0.00    -0.387 OA
ATOM     39  H   UNL     1      24.050  42.389   9.309  1.00  0.00     0.211 HD
ENDBRANCH  14  38
BRANCH  15  40
ATOM     40  O   UNL     1      24.222  43.320   5.516  1.00  0.00    -0.387 OA
ATOM     41  H   UNL     1      24.724  43.878   6.163  1.00  0.00     0.211 HD
ENDBRANCH  15  40
ENDBRANCH   9  10
ENDBRANCH   8   9
ENDBRANCH   3   8
BRANCH   3  42
ATOM     42  C   UNL     1      27.690  41.244   8.880  1.00  0.00     0.364 C 
ATOM     43  O   UNL     1      26.691  40.939   9.583  1.00  0.00    -0.246 OA
BRANCH  42  44
ATOM     44  O   UNL     1      28.815  41.658   9.632  1.00  0.00    -0.477 OA
ATOM     45  H   UNL     1      28.720  41.890  10.620  1.00  0.00     0.296 HD
ENDBRANCH  42  44
ENDBRANCH   3  42
BRANCH   6  46
ATOM     46  O   UNL     1      29.155  40.602   4.842  1.00  0.00    -0.391 OA
ATOM     47  H   UNL     1      28.176  40.419   4.988  1.00  0.00     0.211 HD
ENDBRANCH   6  46
BRANCH   7  48
ATOM     48  N   UNL     1      31.185  40.181   7.685  1.00  0.00    -0.348 N 
ATOM     49  C   UNL     1      32.550  39.996   7.383  1.00  0.00     0.217 C 
ATOM     50  H   UNL     1      30.905  40.633   8.558  1.00  0.00     0.163 HD
ATOM     51  C   UNL     1      33.589  40.480   8.332  1.00  0.00     0.114 C 
ATOM     52  O   UNL     1      32.910  39.424   6.306  1.00  0.00    -0.275 OA
ENDBRANCH   7  48
ENDBRANCH   1   2
BRANCH   1  53
ATOM     53  O   UNL     1      29.649  37.393   6.023  1.00  0.00    -0.388 OA
ATOM     54  H   UNL     1      30.505  37.282   6.535  1.00  0.00     0.211 HD
ENDBRANCH   1  53
BRANCH   1  55
ATOM     55  C   UNL     1      27.338  37.514   6.363  1.00  0.00     0.165 C 
BRANCH  55  56
ATOM     56  O   UNL     1      27.059  38.240   5.240  1.00  0.00    -0.388 OA
ATOM     57  H   UNL     1      26.277  37.934   4.732  1.00  0.00     0.211 HD
ENDBRANCH  55  56
BRANCH  55  58
ATOM     58  C   UNL     1      26.135  37.264   7.188  1.00  0.00     0.154 C 
BRANCH  58  59
ATOM     59  N   UNL     1      25.981  38.016   8.401  1.00  0.00    -0.319 N 
ATOM     60  C   UNL     1      25.660  37.453   9.665  1.00  0.00     0.407 C 
ATOM     61  H   UNL     1      26.119  39.051   8.394  1.00  0.00     0.167 HD
ATOM     62  O   UNL     1      25.504  36.232   9.778  1.00  0.00    -0.225 OA
BRANCH  60  63
ATOM     63  O   UNL     1      25.505  38.204  10.835  1.00  0.00    -0.443 OA
BRANCH  63  64
ATOM     64  C   UNL     1      26.188  37.809  12.027  1.00  0.00     0.294 C 
BRANCH  64  65
ATOM     65  C   UNL     1      25.380  36.894  12.865  1.00  0.00     0.120 A 
ATOM     66  C   UNL     1      25.869  35.726  13.413  1.00  0.00     0.141 A 
ATOM     67  N   UNL     1      24.098  36.978  13.241  1.00  0.00    -0.132 NA
ATOM     68  N   UNL     1      24.861  35.141  14.105  1.00  0.00    -0.226 N 
ATOM     69  N   UNL     1      23.802  35.926  13.980  1.00  0.00    -0.065 NA
BRANCH  68  70
ATOM     70  C   UNL     1      24.889  33.904  14.853  1.00  0.00     0.307 C 
BRANCH  70  71
ATOM     71  O   UNL     1      23.963  33.005  14.401  1.00  0.00    -0.355 OA
BRANCH  71  72
ATOM     72  C   UNL     1      24.534  32.172  13.452  1.00  0.00     0.198 C 
BRANCH  72  73
ATOM     73  C   UNL     1      23.518  31.141  13.036  1.00  0.00    -0.022 A 
ATOM     74  C   UNL     1      23.933  29.830  12.937  1.00  0.00     0.006 A 
ATOM     75  C   UNL     1      22.222  31.501  12.765  1.00  0.00     0.006 A 
ATOM     76  C   UNL     1      23.033  28.857  12.558  1.00  0.00     0.000 A 
ATOM     77  C   UNL     1      21.349  30.522  12.391  1.00  0.00     0.000 A 
ATOM     78  C   UNL     1      21.725  29.193  12.279  1.00  0.00     0.000 A 
ENDBRANCH  72  73
ENDBRANCH  71  72
ENDBRANCH  70  71
ENDBRANCH  68  70
ENDBRANCH  64  65
ENDBRANCH  63  64
ENDBRANCH  60  63
ENDBRANCH  58  59
ENDBRANCH  55  58
ENDBRANCH   1  55
TORSDOF 33
BEGIN_RES LYS A 131
REMARK  4 active torsions:
REMARK  status: ('A' for Active; 'I' for Inactive)
REMARK    1  A    between atoms: CA   and  CB  
REMARK    2  A    between atoms: CB   and  CG  
REMARK    3  A    between atoms: CG   and  CD  
REMARK    4  A    between atoms: CD   and  CE  
ROOT
ATOM      1  CA  LYS A 131      29.867  25.555  16.977  1.00 20.52     0.186 C 
ENDROOT
BRANCH   1   2
ATOM      2  CB  LYS A 131      28.345  25.722  17.026  1.00 20.94     0.034 C 
BRANCH   2   3
ATOM      3  CG  LYS A 131      27.602  24.400  16.913  1.00 22.96     0.005 C 
BRANCH   3   4
ATOM      4  CD  LYS A 131      26.527  24.263  17.956  1.00 24.33     0.041 C 
BRANCH   4   5
ATOM      5  CE  LYS A 131      25.160  24.253  17.281  1.00 26.91     0.338 C 
ATOM      6  NZ  LYS A 131      24.594  22.884  17.274  1.00 27.40     0.618 N 
ENDBRANCH   4   5
ENDBRANCH   3   4
ENDBRANCH   2   3
ENDBRANCH   1   2
END_RES LYS A 131
BEGIN_RES LYS A 135
REMARK  4 active torsions:
REMARK  status: ('A' for Active; 'I' for Inactive)
REMARK    5  A    between atoms: CA   and  CB  
REMARK    6  A    between atoms: CB   and  CG  
REMARK    7  A    between atoms: CG   and  CD  
REMARK    8  A    between atoms: CD   and  CE  
ROOT
ATOM      7  CA  LYS A 135      33.193  34.663   9.290  1.00 25.02     0.186 C 
ENDROOT
BRANCH   7   8
ATOM      8  CB  LYS A 135      32.060  35.360  10.034  1.00 26.63     0.034 C 
BRANCH   8   9
ATOM      9  CG  LYS A 135      30.875  35.682   9.161  1.00 29.45     0.005 C 
BRANCH   9  10
ATOM     10  CD  LYS A 135      30.357  34.428   8.474  1.00 32.00     0.041 C 
BRANCH  10  11
ATOM     11  CE  LYS A 135      28.842  34.447   8.401  1.00 34.25     0.338 C 
ATOM     12  NZ  LYS A 135      28.240  33.745   9.568  1.00 35.99     0.618 N 
ENDBRANCH  10  11
ENDBRANCH   9  10
ENDBRANCH   8   9
ENDBRANCH   7   8
END_RES LYS A 135
