REMARK VINA RESULT:    -4.161      2.894      7.715
REMARK INTER + INTRA:         -22.091
REMARK INTER:                 -10.972
REMARK INTRA:                 -11.119
REMARK UNBOUND:               -11.119
REMARK SMILES CC(=O)N[C@@H]1[C@@H](O)C[C@](OC[C@H]2O[C@@H](O[C@H]3[C@H](O)[C@@H](O)[C@H](OCCN=[N+]=[N-])O[C@@H]3CO)[C@H](O)[C@@H](O)[C@H]2O)(C(=O)O)O[C@H]1C(O)[C@H](O)CNC(=O)OCc1cn(CC(O)CO)nn1
REMARK SMILES IDX 43 1 42 2 9 3 8 4 41 5 6 6 5 7 10 8 11 9 12 10 14 11 13 12
REMARK SMILES IDX 32 13 34 14 36 15 15 16 16 17 29 18 28 19 21 20 17 21 19 22
REMARK SMILES IDX 30 23 31 24 22 26 23 27 24 28 25 29 26 30 27 31 18 32 20 34
REMARK SMILES IDX 33 36 35 38 37 40 38 42 39 43 40 44 7 46 4 48 2 49 1 51 3 52
REMARK SMILES IDX 44 53 45 55 46 56 47 58 48 59 49 60 50 62 51 63 52 64 53 65
REMARK SMILES IDX 54 66 62 67 55 68 61 69 56 70 57 71 58 72 59 74 60 75
REMARK H PARENT 31 25 18 33 20 35 33 37 35 39 37 41 40 45 7 47 4 50 44 54
REMARK H PARENT 46 57 48 61 58 73 60 76
REMARK Flexibility Score: inf
ROOT
ATOM      1  C   UNL     1      21.067  32.561  13.168  1.00  0.00     0.176 C 
ENDROOT
BRANCH   1   2
ATOM      2  C   UNL     1      20.104  33.590  13.790  1.00  0.00     0.178 C 
ATOM      3  C   UNL     1      18.480  35.213  13.235  1.00  0.00     0.272 C 
ATOM      4  C   UNL     1      19.165  36.225  14.109  1.00  0.00     0.113 C 
ATOM      5  O   UNL     1      19.410  34.234  12.855  1.00  0.00    -0.332 OA
ATOM      6  C   UNL     1      20.537  35.905  14.571  1.00  0.00     0.145 C 
ATOM      7  C   UNL     1      20.875  34.467  14.703  1.00  0.00     0.142 C 
BRANCH   3   8
ATOM      8  O   UNL     1      18.019  35.774  12.136  1.00  0.00    -0.338 OA
BRANCH   8   9
ATOM      9  C   UNL     1      18.226  36.659  11.256  1.00  0.00     0.199 C 
BRANCH   9  10
ATOM     10  C   UNL     1      19.148  36.516  10.089  1.00  0.00     0.179 C 
ATOM     11  C   UNL     1      21.372  36.586   9.559  1.00  0.00     0.282 C 
ATOM     12  O   UNL     1      20.486  36.273  10.584  1.00  0.00    -0.341 OA
ATOM     13  C   UNL     1      20.816  36.476   8.181  1.00  0.00     0.202 C 
ATOM     14  C   UNL     1      19.742  35.447   7.998  1.00  0.00     0.179 C 
ATOM     15  C   UNL     1      18.925  35.247   9.264  1.00  0.00     0.177 C 
BRANCH  11  16
ATOM     16  O   UNL     1      22.577  35.918   9.619  1.00  0.00    -0.341 OA
BRANCH  16  17
ATOM     17  C   UNL     1      23.684  36.754   9.745  1.00  0.00     0.184 C 
ATOM     18  C   UNL     1      24.874  36.108   9.104  1.00  0.00     0.178 C 
ATOM     19  O   UNL     1      25.890  35.812  10.000  1.00  0.00    -0.341 OA
ATOM     20  C   UNL     1      25.372  35.260  11.183  1.00  0.00     0.281 C 
ATOM     21  C   UNL     1      23.852  37.169  11.147  1.00  0.00     0.180 C 
ATOM     22  C   UNL     1      24.850  36.435  11.975  1.00  0.00     0.202 C 
BRANCH  18  23
ATOM     23  C   UNL     1      25.469  36.968   8.007  1.00  0.00     0.191 C 
BRANCH  23  24
ATOM     24  O   UNL     1      24.486  37.549   7.217  1.00  0.00    -0.394 OA
ATOM     25  H   UNL     1      24.798  37.462   6.260  1.00  0.00     0.210 HD
ENDBRANCH  23  24
ENDBRANCH  18  23
BRANCH  20  26
ATOM     26  O   UNL     1      26.439  34.656  11.828  1.00  0.00    -0.350 OA
BRANCH  26  27
ATOM     27  C   UNL     1      27.573  35.448  11.919  1.00  0.00     0.169 C 
BRANCH  27  28
ATOM     28  C   UNL     1      28.636  34.855  12.817  1.00  0.00     0.119 C 
BRANCH  28  29
ATOM     29  N   UNL     1      29.623  35.822  13.215  1.00  0.00    -0.092 NA
ATOM     30  N   UNL     1      30.077  35.952  14.346  1.00  0.00     0.001 N 
ATOM     31  N   UNL     1      30.374  36.036  15.538  1.00  0.00    -0.003 NA
ENDBRANCH  28  29
ENDBRANCH  27  28
ENDBRANCH  26  27
ENDBRANCH  20  26
BRANCH  21  32
ATOM     32  O   UNL     1      24.141  38.553  11.256  1.00  0.00    -0.387 OA
ATOM     33  H   UNL     1      24.223  38.703  12.252  1.00  0.00     0.211 HD
ENDBRANCH  21  32
BRANCH  22  34
ATOM     34  O   UNL     1      24.369  36.050  13.223  1.00  0.00    -0.385 OA
ATOM     35  H   UNL     1      23.705  35.342  13.179  1.00  0.00     0.211 HD
ENDBRANCH  22  34
ENDBRANCH  16  17
ENDBRANCH  11  16
BRANCH  13  36
ATOM     36  O   UNL     1      20.461  37.738   7.649  1.00  0.00    -0.385 OA
ATOM     37  H   UNL     1      20.815  38.484   8.168  1.00  0.00     0.211 HD
ENDBRANCH  13  36
BRANCH  14  38
ATOM     38  O   UNL     1      20.214  34.230   7.513  1.00  0.00    -0.387 OA
ATOM     39  H   UNL     1      21.201  34.239   7.525  1.00  0.00     0.211 HD
ENDBRANCH  14  38
BRANCH  15  40
ATOM     40  O   UNL     1      19.560  34.200   9.985  1.00  0.00    -0.387 OA
ATOM     41  H   UNL     1      20.126  34.569  10.705  1.00  0.00     0.211 HD
ENDBRANCH  15  40
ENDBRANCH   9  10
ENDBRANCH   8   9
ENDBRANCH   3   8
BRANCH   3  42
ATOM     42  C   UNL     1      17.384  34.511  13.980  1.00  0.00     0.364 C 
ATOM     43  O   UNL     1      17.174  34.903  15.170  1.00  0.00    -0.246 OA
BRANCH  42  44
ATOM     44  O   UNL     1      16.627  33.499  13.449  1.00  0.00    -0.477 OA
ATOM     45  H   UNL     1      15.946  32.978  14.012  1.00  0.00     0.296 HD
ENDBRANCH  42  44
ENDBRANCH   3  42
BRANCH   6  46
ATOM     46  O   UNL     1      21.432  36.485  13.640  1.00  0.00    -0.391 OA
ATOM     47  H   UNL     1      21.619  37.408  13.900  1.00  0.00     0.211 HD
ENDBRANCH   6  46
BRANCH   7  48
ATOM     48  N   UNL     1      20.775  34.078  16.107  1.00  0.00    -0.348 N 
ATOM     49  C   UNL     1      21.863  33.496  16.805  1.00  0.00     0.217 C 
ATOM     50  H   UNL     1      19.898  34.214  16.648  1.00  0.00     0.163 HD
ATOM     51  C   UNL     1      21.767  33.098  18.233  1.00  0.00     0.114 C 
ATOM     52  O   UNL     1      22.934  33.321  16.171  1.00  0.00    -0.275 OA
ENDBRANCH   7  48
ENDBRANCH   1   2
BRANCH   1  53
ATOM     53  O   UNL     1      20.485  32.017  12.040  1.00  0.00    -0.388 OA
ATOM     54  H   UNL     1      20.640  32.596  11.253  1.00  0.00     0.211 HD
ENDBRANCH   1  53
BRANCH   1  55
ATOM     55  C   UNL     1      22.376  33.238  12.795  1.00  0.00     0.165 C 
BRANCH  55  56
ATOM     56  O   UNL     1      22.131  33.816  11.525  1.00  0.00    -0.388 OA
ATOM     57  H   UNL     1      21.522  34.587  11.628  1.00  0.00     0.211 HD
ENDBRANCH  55  56
BRANCH  55  58
ATOM     58  C   UNL     1      23.528  32.301  12.670  1.00  0.00     0.154 C 
BRANCH  58  59
ATOM     59  N   UNL     1      23.732  31.519  13.871  1.00  0.00    -0.319 N 
ATOM     60  C   UNL     1      23.954  30.125  13.798  1.00  0.00     0.407 C 
ATOM     61  H   UNL     1      23.724  31.958  14.834  1.00  0.00     0.167 HD
ATOM     62  O   UNL     1      23.970  29.511  12.706  1.00  0.00    -0.225 OA
BRANCH  60  63
ATOM     63  O   UNL     1      24.169  29.376  14.937  1.00  0.00    -0.443 OA
BRANCH  63  64
ATOM     64  C   UNL     1      24.740  29.789  16.129  1.00  0.00     0.294 C 
BRANCH  64  65
ATOM     65  C   UNL     1      25.988  30.574  16.004  1.00  0.00     0.120 A 
ATOM     66  C   UNL     1      27.248  30.073  16.173  1.00  0.00     0.138 A 
ATOM     67  N   UNL     1      26.080  31.907  15.717  1.00  0.00    -0.132 NA
ATOM     68  N   UNL     1      28.085  31.110  15.986  1.00  0.00    -0.249 N 
ATOM     69  N   UNL     1      27.378  32.181  15.719  1.00  0.00    -0.067 NA
BRANCH  68  70
ATOM     70  C   UNL     1      29.529  31.082  16.070  1.00  0.00     0.180 C 
BRANCH  70  71
ATOM     71  C   UNL     1      30.017  32.515  15.818  1.00  0.00     0.161 C 
BRANCH  71  72
ATOM     72  O   UNL     1      29.670  33.262  16.918  1.00  0.00    -0.389 OA
ATOM     73  H   UNL     1      30.431  33.781  17.277  1.00  0.00     0.211 HD
ENDBRANCH  71  72
BRANCH  71  74
ATOM     74  C   UNL     1      31.510  32.509  15.592  1.00  0.00     0.189 C 
BRANCH  74  75
ATOM     75  O   UNL     1      31.830  33.300  14.511  1.00  0.00    -0.394 OA
ATOM     76  H   UNL     1      31.101  33.954  14.353  1.00  0.00     0.210 HD
ENDBRANCH  74  75
ENDBRANCH  71  74
ENDBRANCH  70  71
ENDBRANCH  68  70
ENDBRANCH  64  65
ENDBRANCH  63  64
ENDBRANCH  60  63
ENDBRANCH  58  59
ENDBRANCH  55  58
ENDBRANCH   1  55
TORSDOF 34
BEGIN_RES LYS A 131
REMARK  4 active torsions:
REMARK  status: ('A' for Active; 'I' for Inactive)
REMARK    1  A    between atoms: CA   and  CB  
REMARK    2  A    between atoms: CB   and  CG  
REMARK    3  A    between atoms: CG   and  CD  
REMARK    4  A    between atoms: CD   and  CE  
ROOT
ATOM      1  CA  LYS A 131      29.867  25.555  16.977  1.00 20.52     0.186 C 
ENDROOT
BRANCH   1   2
ATOM      2  CB  LYS A 131      28.345  25.722  17.026  1.00 20.94     0.034 C 
BRANCH   2   3
ATOM      3  CG  LYS A 131      27.601  24.401  16.901  1.00 22.96     0.005 C 
BRANCH   3   4
ATOM      4  CD  LYS A 131      26.479  24.287  17.895  1.00 24.33     0.041 C 
BRANCH   4   5
ATOM      5  CE  LYS A 131      26.123  25.673  18.422  1.00 26.91     0.338 C 
ATOM      6  NZ  LYS A 131      24.882  26.169  17.782  1.00 27.40     0.618 N 
ENDBRANCH   4   5
ENDBRANCH   3   4
ENDBRANCH   2   3
ENDBRANCH   1   2
END_RES LYS A 131
BEGIN_RES LYS A 135
REMARK  4 active torsions:
REMARK  status: ('A' for Active; 'I' for Inactive)
REMARK    5  A    between atoms: CA   and  CB  
REMARK    6  A    between atoms: CB   and  CG  
REMARK    7  A    between atoms: CG   and  CD  
REMARK    8  A    between atoms: CD   and  CE  
ROOT
ATOM      7  CA  LYS A 135      33.193  34.663   9.290  1.00 25.02     0.186 C 
ENDROOT
BRANCH   7   8
ATOM      8  CB  LYS A 135      32.060  35.360  10.034  1.00 26.63     0.034 C 
BRANCH   8   9
ATOM      9  CG  LYS A 135      30.793  35.480   9.227  1.00 29.45     0.005 C 
BRANCH   9  10
ATOM     10  CD  LYS A 135      29.997  34.186   9.282  1.00 32.00     0.041 C 
BRANCH  10  11
ATOM     11  CE  LYS A 135      28.675  34.342   8.555  1.00 34.25     0.338 C 
ATOM     12  NZ  LYS A 135      28.757  35.406   7.516  1.00 35.99     0.618 N 
ENDBRANCH  10  11
ENDBRANCH   9  10
ENDBRANCH   8   9
ENDBRANCH   7   8
END_RES LYS A 135
