REMARK VINA RESULT:    -4.795      3.472      6.146
REMARK INTER + INTRA:         -21.945
REMARK INTER:                 -13.331
REMARK INTRA:                  -8.614
REMARK UNBOUND:                -9.861
REMARK SMILES CC(=O)N[C@@H]1[C@@H](O)C[C@](OC[C@H]2O[C@@H](O[C@H]3[C@H](O)[C@@H](O)[C@H](OCCN=[N+]=[N-])O[C@@H]3CO)[C@H](O)[C@@H](O)[C@H]2O)(C(=O)O)O[C@H]1C(O)[C@H](O)CNC(=O)OCc1cn(-c2ccc([N+](=O)[O-])cc2)nn1
REMARK SMILES IDX 9 1 8 2 6 3 5 4 42 5 41 6 10 7 11 8 12 9 14 10 13 11 32 12
REMARK SMILES IDX 34 13 36 14 15 15 16 16 29 17 28 18 21 19 17 20 19 21 30 22
REMARK SMILES IDX 31 23 22 25 23 26 24 27 25 28 26 29 27 30 18 31 20 33 33 35
REMARK SMILES IDX 35 37 37 39 38 41 39 42 40 43 7 45 43 47 44 48 45 50 46 51
REMARK SMILES IDX 47 53 48 54 49 55 50 57 51 58 52 59 53 60 54 61 66 62 55 63
REMARK SMILES IDX 65 64 56 65 57 66 64 67 58 68 63 69 59 70 60 71 61 72 62 73
REMARK SMILES IDX 4 74 2 75 1 77 3 78
REMARK H PARENT 31 24 18 32 20 34 33 36 35 38 37 40 40 44 7 46 44 49 46 52
REMARK H PARENT 48 56 4 76
REMARK Flexibility Score: inf
ROOT
ATOM      1  C   UNL     1      26.400  37.991   8.104  1.00  0.00     0.272 C 
ATOM      2  C   UNL     1      25.981  36.601   7.752  1.00  0.00     0.113 C 
ATOM      3  C   UNL     1      25.502  35.896   8.948  1.00  0.00     0.145 C 
ATOM      4  C   UNL     1      25.822  36.569  10.295  1.00  0.00     0.142 C 
ATOM      5  C   UNL     1      27.127  37.209  10.207  1.00  0.00     0.178 C 
ATOM      6  O   UNL     1      27.416  37.911   9.041  1.00  0.00    -0.332 OA
ENDROOT
BRANCH   1   7
ATOM      7  O   UNL     1      25.397  38.844   8.443  1.00  0.00    -0.338 OA
BRANCH   7   8
ATOM      8  C   UNL     1      24.353  38.942   7.581  1.00  0.00     0.199 C 
BRANCH   8   9
ATOM      9  C   UNL     1      23.201  39.743   8.176  1.00  0.00     0.179 C 
ATOM     10  C   UNL     1      22.153  38.440   9.812  1.00  0.00     0.282 C 
ATOM     11  O   UNL     1      22.140  38.965   8.558  1.00  0.00    -0.341 OA
ATOM     12  C   UNL     1      23.271  38.779  10.711  1.00  0.00     0.202 C 
ATOM     13  C   UNL     1      23.682  40.220  10.564  1.00  0.00     0.179 C 
ATOM     14  C   UNL     1      23.604  40.762   9.181  1.00  0.00     0.177 C 
BRANCH  10  15
ATOM     15  O   UNL     1      21.907  37.076   9.695  1.00  0.00    -0.341 OA
BRANCH  15  16
ATOM     16  C   UNL     1      20.630  36.693   9.455  1.00  0.00     0.184 C 
ATOM     17  C   UNL     1      20.025  35.828  10.539  1.00  0.00     0.178 C 
ATOM     18  O   UNL     1      18.727  35.457  10.133  1.00  0.00    -0.341 OA
ATOM     19  C   UNL     1      18.825  34.507   9.117  1.00  0.00     0.281 C 
ATOM     20  C   UNL     1      20.682  35.768   8.223  1.00  0.00     0.180 C 
ATOM     21  C   UNL     1      19.278  35.305   7.887  1.00  0.00     0.202 C 
BRANCH  17  22
ATOM     22  C   UNL     1      19.861  36.522  11.866  1.00  0.00     0.191 C 
BRANCH  22  23
ATOM     23  O   UNL     1      21.109  36.370  12.520  1.00  0.00    -0.394 OA
ATOM     24  H   UNL     1      20.977  36.026  13.443  1.00  0.00     0.210 HD
ENDBRANCH  22  23
ENDBRANCH  17  22
BRANCH  19  25
ATOM     25  O   UNL     1      17.597  33.961   8.850  1.00  0.00    -0.350 OA
BRANCH  25  26
ATOM     26  C   UNL     1      16.537  34.832   8.852  1.00  0.00     0.169 C 
BRANCH  26  27
ATOM     27  C   UNL     1      15.647  34.756   7.644  1.00  0.00     0.119 C 
BRANCH  27  28
ATOM     28  N   UNL     1      15.462  33.344   7.299  1.00  0.00    -0.092 NA
ATOM     29  N   UNL     1      15.819  32.941   6.202  1.00  0.00     0.001 N 
ATOM     30  N   UNL     1      16.393  32.524   5.209  1.00  0.00    -0.003 NA
ENDBRANCH  27  28
ENDBRANCH  26  27
ENDBRANCH  25  26
ENDBRANCH  19  25
BRANCH  20  31
ATOM     31  O   UNL     1      21.327  36.350   7.169  1.00  0.00    -0.387 OA
ATOM     32  H   UNL     1      21.858  35.748   6.611  1.00  0.00     0.211 HD
ENDBRANCH  20  31
BRANCH  21  33
ATOM     33  O   UNL     1      19.297  34.543   6.750  1.00  0.00    -0.385 OA
ATOM     34  H   UNL     1      19.269  33.589   7.001  1.00  0.00     0.211 HD
ENDBRANCH  21  33
ENDBRANCH  15  16
ENDBRANCH  10  15
BRANCH  12  35
ATOM     35  O   UNL     1      22.829  38.674  12.044  1.00  0.00    -0.385 OA
ATOM     36  H   UNL     1      22.759  39.547  12.474  1.00  0.00     0.211 HD
ENDBRANCH  12  35
BRANCH  13  37
ATOM     37  O   UNL     1      24.978  40.380  11.112  1.00  0.00    -0.387 OA
ATOM     38  H   UNL     1      25.459  39.549  10.966  1.00  0.00     0.211 HD
ENDBRANCH  13  37
BRANCH  14  39
ATOM     39  O   UNL     1      24.741  41.429   8.750  1.00  0.00    -0.387 OA
ATOM     40  H   UNL     1      25.067  40.954   7.937  1.00  0.00     0.211 HD
ENDBRANCH  14  39
ENDBRANCH   8   9
ENDBRANCH   7   8
ENDBRANCH   1   7
BRANCH   1  41
ATOM     41  C   UNL     1      27.122  38.566   6.903  1.00  0.00     0.364 C 
ATOM     42  O   UNL     1      27.796  39.608   7.016  1.00  0.00    -0.246 OA
BRANCH  41  43
ATOM     43  O   UNL     1      27.025  37.938   5.692  1.00  0.00    -0.477 OA
ATOM     44  H   UNL     1      26.287  37.291   5.428  1.00  0.00     0.296 HD
ENDBRANCH  41  43
ENDBRANCH   1  41
BRANCH   3  45
ATOM     45  O   UNL     1      24.119  35.736   8.920  1.00  0.00    -0.391 OA
ATOM     46  H   UNL     1      23.706  36.351   8.282  1.00  0.00     0.211 HD
ENDBRANCH   3  45
BRANCH   5  47
ATOM     47  C   UNL     1      27.671  38.052  11.275  1.00  0.00     0.176 C 
BRANCH  47  48
ATOM     48  O   UNL     1      26.897  38.164  12.434  1.00  0.00    -0.388 OA
ATOM     49  H   UNL     1      26.192  37.499  12.523  1.00  0.00     0.211 HD
ENDBRANCH  47  48
BRANCH  47  50
ATOM     50  C   UNL     1      29.079  37.881  11.745  1.00  0.00     0.165 C 
BRANCH  50  51
ATOM     51  O   UNL     1      30.054  38.446  10.982  1.00  0.00    -0.388 OA
ATOM     52  H   UNL     1      30.509  37.793  10.389  1.00  0.00     0.211 HD
ENDBRANCH  50  51
BRANCH  50  53
ATOM     53  C   UNL     1      29.354  36.514  12.311  1.00  0.00     0.154 C 
BRANCH  53  54
ATOM     54  N   UNL     1      30.309  36.481  13.387  1.00  0.00    -0.319 N 
ATOM     55  C   UNL     1      31.710  36.374  13.213  1.00  0.00     0.407 C 
ATOM     56  H   UNL     1      29.984  36.540  14.388  1.00  0.00     0.167 HD
ATOM     57  O   UNL     1      32.182  36.291  12.075  1.00  0.00    -0.225 OA
BRANCH  55  58
ATOM     58  O   UNL     1      32.587  36.355  14.299  1.00  0.00    -0.443 OA
BRANCH  58  59
ATOM     59  C   UNL     1      33.243  35.206  14.764  1.00  0.00     0.294 C 
BRANCH  59  60
ATOM     60  C   UNL     1      32.394  34.476  15.728  1.00  0.00     0.121 A 
ATOM     61  C   UNL     1      31.490  33.445  15.477  1.00  0.00     0.144 A 
ATOM     62  N   UNL     1      32.329  34.651  17.081  1.00  0.00    -0.131 NA
ATOM     63  N   UNL     1      30.932  33.044  16.634  1.00  0.00    -0.220 N 
ATOM     64  N   UNL     1      31.459  33.791  17.579  1.00  0.00    -0.062 NA
BRANCH  63  65
ATOM     65  C   UNL     1      29.966  32.002  16.815  1.00  0.00     0.067 A 
ATOM     66  C   UNL     1      29.510  31.589  18.044  1.00  0.00     0.035 A 
ATOM     67  C   UNL     1      29.455  31.352  15.701  1.00  0.00     0.035 A 
ATOM     68  C   UNL     1      28.575  30.563  18.164  1.00  0.00     0.088 A 
ATOM     69  C   UNL     1      28.530  30.336  15.817  1.00  0.00     0.088 A 
ATOM     70  C   UNL     1      28.071  29.920  17.048  1.00  0.00     0.269 A 
BRANCH  70  71
ATOM     71  N   UNL     1      27.119  28.871  17.183  1.00  0.00     0.062 N 
ATOM     72  O   UNL     1      27.305  27.843  17.854  1.00  0.00    -0.258 OA
ATOM     73  O   UNL     1      25.921  29.006  16.528  1.00  0.00    -0.258 OA
ENDBRANCH  70  71
ENDBRANCH  63  65
ENDBRANCH  59  60
ENDBRANCH  58  59
ENDBRANCH  55  58
ENDBRANCH  53  54
ENDBRANCH  50  53
ENDBRANCH  47  50
ENDBRANCH   5  47
BRANCH   4  74
ATOM     74  N   UNL     1      25.909  35.388  11.170  1.00  0.00    -0.348 N 
ATOM     75  C   UNL     1      24.861  34.995  12.020  1.00  0.00     0.217 C 
ATOM     76  H   UNL     1      26.783  34.834  11.135  1.00  0.00     0.163 HD
ATOM     77  C   UNL     1      25.054  33.782  12.871  1.00  0.00     0.114 C 
ATOM     78  O   UNL     1      23.789  35.615  12.089  1.00  0.00    -0.275 OA
ENDBRANCH   4  74
TORSDOF 31
BEGIN_RES LYS A 131
REMARK  4 active torsions:
REMARK  status: ('A' for Active; 'I' for Inactive)
REMARK    1  A    between atoms: CA   and  CB  
REMARK    2  A    between atoms: CB   and  CG  
REMARK    3  A    between atoms: CG   and  CD  
REMARK    4  A    between atoms: CD   and  CE  
ROOT
ATOM      1  CA  LYS A 131      29.867  25.555  16.977  1.00 20.52     0.186 C 
ENDROOT
BRANCH   1   2
ATOM      2  CB  LYS A 131      28.345  25.722  17.026  1.00 20.94     0.034 C 
BRANCH   2   3
ATOM      3  CG  LYS A 131      27.625  24.452  17.452  1.00 22.96     0.005 C 
BRANCH   3   4
ATOM      4  CD  LYS A 131      26.207  24.410  16.952  1.00 24.33     0.041 C 
BRANCH   4   5
ATOM      5  CE  LYS A 131      25.252  24.693  18.106  1.00 26.91     0.338 C 
ATOM      6  NZ  LYS A 131      25.996  24.786  19.385  1.00 27.40     0.618 N 
ENDBRANCH   4   5
ENDBRANCH   3   4
ENDBRANCH   2   3
ENDBRANCH   1   2
END_RES LYS A 131
BEGIN_RES LYS A 135
REMARK  4 active torsions:
REMARK  status: ('A' for Active; 'I' for Inactive)
REMARK    5  A    between atoms: CA   and  CB  
REMARK    6  A    between atoms: CB   and  CG  
REMARK    7  A    between atoms: CG   and  CD  
REMARK    8  A    between atoms: CD   and  CE  
ROOT
ATOM      7  CA  LYS A 135      33.193  34.663   9.290  1.00 25.02     0.186 C 
ENDROOT
BRANCH   7   8
ATOM      8  CB  LYS A 135      32.060  35.360  10.034  1.00 26.63     0.034 C 
BRANCH   8   9
ATOM      9  CG  LYS A 135      30.879  35.692   9.159  1.00 29.45     0.005 C 
BRANCH   9  10
ATOM     10  CD  LYS A 135      30.402  34.456   8.411  1.00 32.00     0.041 C 
BRANCH  10  11
ATOM     11  CE  LYS A 135      28.886  34.403   8.383  1.00 34.25     0.338 C 
ATOM     12  NZ  LYS A 135      28.353  33.670   9.565  1.00 35.99     0.618 N 
ENDBRANCH  10  11
ENDBRANCH   9  10
ENDBRANCH   8   9
ENDBRANCH   7   8
END_RES LYS A 135
