REMARK VINA RESULT:    -3.693      4.197      8.878
REMARK INTER + INTRA:         -23.619
REMARK INTER:                 -12.202
REMARK INTRA:                 -11.416
REMARK UNBOUND:               -13.881
REMARK SMILES CCOC(=O)c1cccc(-n2cc(COC(=O)NC[C@@H](O)C(O)[C@@H]3O[C@@](OC[C@H]4O[C@@H](O[C@H]5[C@H](O)[C@@H](O)[C@H](OCCN=[N+]=[N-])O[C@@H]5CO)[C@H](O)[C@@H](O)[C@H]4O)(C(=O)O)C[C@H](O)[C@H]3NC(C)=O)nn2)c1
REMARK SMILES IDX 22 1 24 2 26 3 58 4 25 5 59 6 61 7 27 8 28 9 29 10 31 11
REMARK SMILES IDX 30 12 49 13 51 14 53 15 32 16 33 17 46 18 45 19 38 20 34 21
REMARK SMILES IDX 36 22 47 23 48 24 39 26 40 27 41 28 42 29 43 30 44 31 35 32
REMARK SMILES IDX 37 34 50 36 52 38 54 40 55 42 56 43 57 44 60 46 62 48 63 49
REMARK SMILES IDX 64 51 65 52 23 53 20 55 21 56 19 58 18 59 16 60 17 62 15 63
REMARK SMILES IDX 14 64 13 65 12 66 66 67 11 68 67 69 10 70 68 71 9 72 6 73
REMARK SMILES IDX 8 74 7 75 4 76 5 77 3 78 2 79 1 80
REMARK H PARENT 48 25 35 33 37 35 50 37 52 39 54 41 57 45 60 47 62 50 23 54
REMARK H PARENT 21 57 18 61
REMARK Flexibility Score: inf
ROOT
ATOM      1  C   UNL     1      29.653  34.404  18.608  1.00  0.00     0.176 C 
ENDROOT
BRANCH   1   2
ATOM      2  C   UNL     1      29.771  33.783  17.280  1.00  0.00     0.178 C 
ATOM      3  C   UNL     1      28.384  32.423  15.932  1.00  0.00     0.272 C 
ATOM      4  C   UNL     1      29.579  32.600  15.051  1.00  0.00     0.113 C 
ATOM      5  O   UNL     1      28.916  32.679  17.247  1.00  0.00    -0.332 OA
ATOM      6  C   UNL     1      30.892  32.258  15.737  1.00  0.00     0.145 C 
ATOM      7  C   UNL     1      31.122  33.334  16.849  1.00  0.00     0.142 C 
BRANCH   3   8
ATOM      8  O   UNL     1      27.996  31.120  15.954  1.00  0.00    -0.338 OA
BRANCH   8   9
ATOM      9  C   UNL     1      26.854  30.630  15.540  1.00  0.00     0.199 C 
BRANCH   9  10
ATOM     10  C   UNL     1      25.930  29.754  16.272  1.00  0.00     0.179 C 
ATOM     11  C   UNL     1      25.736  28.329  18.117  1.00  0.00     0.282 C 
ATOM     12  O   UNL     1      26.549  28.893  17.107  1.00  0.00    -0.341 OA
ATOM     13  C   UNL     1      24.281  28.497  17.804  1.00  0.00     0.202 C 
ATOM     14  C   UNL     1      23.883  29.918  17.568  1.00  0.00     0.179 C 
ATOM     15  C   UNL     1      25.075  30.713  17.160  1.00  0.00     0.177 C 
BRANCH  11  16
ATOM     16  O   UNL     1      26.177  28.884  19.282  1.00  0.00    -0.341 OA
BRANCH  16  17
ATOM     17  C   UNL     1      27.384  28.528  19.776  1.00  0.00     0.184 C 
ATOM     18  C   UNL     1      27.204  28.074  21.200  1.00  0.00     0.178 C 
ATOM     19  O   UNL     1      28.410  27.642  21.754  1.00  0.00    -0.341 OA
ATOM     20  C   UNL     1      29.243  28.785  21.908  1.00  0.00     0.281 C 
ATOM     21  C   UNL     1      28.378  29.702  19.813  1.00  0.00     0.180 C 
ATOM     22  C   UNL     1      29.632  29.180  20.510  1.00  0.00     0.202 C 
BRANCH  18  23
ATOM     23  C   UNL     1      26.214  26.948  21.290  1.00  0.00     0.191 C 
BRANCH  23  24
ATOM     24  O   UNL     1      26.730  25.906  22.105  1.00  0.00    -0.394 OA
ATOM     25  H   UNL     1      26.731  26.184  23.056  1.00  0.00     0.210 HD
ENDBRANCH  23  24
ENDBRANCH  18  23
BRANCH  20  26
ATOM     26  O   UNL     1      30.289  28.434  22.711  1.00  0.00    -0.350 OA
BRANCH  26  27
ATOM     27  C   UNL     1      30.890  27.248  22.313  1.00  0.00     0.169 C 
BRANCH  27  28
ATOM     28  C   UNL     1      32.389  27.308  22.301  1.00  0.00     0.119 C 
BRANCH  28  29
ATOM     29  N   UNL     1      32.810  28.710  22.189  1.00  0.00    -0.092 NA
ATOM     30  N   UNL     1      33.899  29.021  22.691  1.00  0.00     0.001 N 
ATOM     31  N   UNL     1      35.055  29.429  22.920  1.00  0.00    -0.003 NA
ENDBRANCH  28  29
ENDBRANCH  27  28
ENDBRANCH  26  27
ENDBRANCH  20  26
BRANCH  21  32
ATOM     32  O   UNL     1      28.789  30.049  18.535  1.00  0.00    -0.387 OA
ATOM     33  H   UNL     1      28.956  31.022  18.534  1.00  0.00     0.211 HD
ENDBRANCH  21  32
BRANCH  22  34
ATOM     34  O   UNL     1      30.642  30.136  20.496  1.00  0.00    -0.385 OA
ATOM     35  H   UNL     1      31.523  29.772  20.181  1.00  0.00     0.211 HD
ENDBRANCH  22  34
ENDBRANCH  16  17
ENDBRANCH  11  16
BRANCH  13  36
ATOM     36  O   UNL     1      23.944  27.658  16.725  1.00  0.00    -0.385 OA
ATOM     37  H   UNL     1      23.070  27.224  16.849  1.00  0.00     0.211 HD
ENDBRANCH  13  36
BRANCH  14  38
ATOM     38  O   UNL     1      23.125  30.458  18.582  1.00  0.00    -0.387 OA
ATOM     39  H   UNL     1      23.087  29.781  19.310  1.00  0.00     0.211 HD
ENDBRANCH  14  38
BRANCH  15  40
ATOM     40  O   UNL     1      25.783  31.198  18.215  1.00  0.00    -0.387 OA
ATOM     41  H   UNL     1      25.301  31.964  18.616  1.00  0.00     0.211 HD
ENDBRANCH  15  40
ENDBRANCH   9  10
ENDBRANCH   8   9
ENDBRANCH   3   8
BRANCH   3  42
ATOM     42  C   UNL     1      27.292  33.363  15.729  1.00  0.00     0.364 C 
ATOM     43  O   UNL     1      26.574  33.765  16.657  1.00  0.00    -0.246 OA
BRANCH  42  44
ATOM     44  O   UNL     1      27.008  33.853  14.453  1.00  0.00    -0.477 OA
ATOM     45  H   UNL     1      26.345  34.578  14.271  1.00  0.00     0.296 HD
ENDBRANCH  42  44
ENDBRANCH   3  42
BRANCH   6  46
ATOM     46  O   UNL     1      30.743  31.062  16.393  1.00  0.00    -0.391 OA
ATOM     47  H   UNL     1      30.204  31.199  17.210  1.00  0.00     0.211 HD
ENDBRANCH   6  46
BRANCH   7  48
ATOM     48  N   UNL     1      31.904  34.379  16.230  1.00  0.00    -0.348 N 
ATOM     49  C   UNL     1      32.828  35.212  16.941  1.00  0.00     0.217 C 
ATOM     50  H   UNL     1      31.836  34.590  15.189  1.00  0.00     0.163 HD
ATOM     51  C   UNL     1      33.616  36.280  16.270  1.00  0.00     0.114 C 
ATOM     52  O   UNL     1      32.989  35.049  18.167  1.00  0.00    -0.275 OA
ENDBRANCH   7  48
ENDBRANCH   1   2
BRANCH   1  53
ATOM     53  O   UNL     1      28.447  34.976  18.913  1.00  0.00    -0.388 OA
ATOM     54  H   UNL     1      27.861  35.076  18.126  1.00  0.00     0.211 HD
ENDBRANCH   1  53
BRANCH   1  55
ATOM     55  C   UNL     1      30.203  33.626  19.776  1.00  0.00     0.165 C 
BRANCH  55  56
ATOM     56  O   UNL     1      29.246  32.732  20.266  1.00  0.00    -0.388 OA
ATOM     57  H   UNL     1      29.689  31.977  20.733  1.00  0.00     0.211 HD
ENDBRANCH  55  56
BRANCH  55  58
ATOM     58  C   UNL     1      30.884  34.457  20.820  1.00  0.00     0.154 C 
BRANCH  58  59
ATOM     59  N   UNL     1      32.260  34.063  21.023  1.00  0.00    -0.319 N 
ATOM     60  C   UNL     1      32.592  32.884  21.726  1.00  0.00     0.407 C 
ATOM     61  H   UNL     1      33.055  34.661  20.639  1.00  0.00     0.167 HD
ATOM     62  O   UNL     1      31.769  32.082  22.223  1.00  0.00    -0.225 OA
BRANCH  60  63
ATOM     63  O   UNL     1      33.943  32.535  21.923  1.00  0.00    -0.443 OA
BRANCH  63  64
ATOM     64  C   UNL     1      34.900  33.356  22.517  1.00  0.00     0.294 C 
BRANCH  64  65
ATOM     65  C   UNL     1      35.929  33.900  21.621  1.00  0.00     0.121 A 
ATOM     66  C   UNL     1      35.704  34.547  20.410  1.00  0.00     0.144 A 
ATOM     67  N   UNL     1      37.246  33.878  21.789  1.00  0.00    -0.131 NA
ATOM     68  N   UNL     1      36.891  34.883  19.907  1.00  0.00    -0.220 N 
ATOM     69  N   UNL     1      37.817  34.477  20.745  1.00  0.00    -0.062 NA
BRANCH  68  70
ATOM     70  C   UNL     1      37.106  35.560  18.687  1.00  0.00     0.067 A 
ATOM     71  C   UNL     1      37.598  34.902  17.563  1.00  0.00     0.044 A 
ATOM     72  C   UNL     1      36.832  36.894  18.543  1.00  0.00     0.028 A 
ATOM     73  C   UNL     1      37.812  35.513  16.357  1.00  0.00     0.062 A 
ATOM     74  C   UNL     1      37.034  37.549  17.338  1.00  0.00     0.003 A 
ATOM     75  C   UNL     1      37.522  36.868  16.247  1.00  0.00     0.016 A 
BRANCH  73  76
ATOM     76  C   UNL     1      38.329  34.768  15.228  1.00  0.00     0.338 C 
ATOM     77  O   UNL     1      39.558  34.596  15.117  1.00  0.00    -0.246 OA
BRANCH  76  78
ATOM     78  O   UNL     1      37.471  34.254  14.291  1.00  0.00    -0.462 OA
BRANCH  78  79
ATOM     79  C   UNL     1      37.825  33.267  13.350  1.00  0.00     0.230 C 
ATOM     80  C   UNL     1      37.062  33.486  12.061  1.00  0.00     0.049 C 
ENDBRANCH  78  79
ENDBRANCH  76  78
ENDBRANCH  73  76
ENDBRANCH  68  70
ENDBRANCH  64  65
ENDBRANCH  63  64
ENDBRANCH  60  63
ENDBRANCH  58  59
ENDBRANCH  55  58
ENDBRANCH   1  55
TORSDOF 33
BEGIN_RES LYS A 131
REMARK  4 active torsions:
REMARK  status: ('A' for Active; 'I' for Inactive)
REMARK    1  A    between atoms: CA   and  CB  
REMARK    2  A    between atoms: CB   and  CG  
REMARK    3  A    between atoms: CG   and  CD  
REMARK    4  A    between atoms: CD   and  CE  
ROOT
ATOM      1  CA  LYS A 131      29.867  25.555  16.977  1.00 20.52     0.186 C 
ENDROOT
BRANCH   1   2
ATOM      2  CB  LYS A 131      28.345  25.722  17.026  1.00 20.94     0.034 C 
BRANCH   2   3
ATOM      3  CG  LYS A 131      27.600  24.416  16.795  1.00 22.96     0.005 C 
BRANCH   3   4
ATOM      4  CD  LYS A 131      26.921  23.923  18.043  1.00 24.33     0.041 C 
BRANCH   4   5
ATOM      5  CE  LYS A 131      25.537  24.555  18.154  1.00 26.91     0.338 C 
ATOM      6  NZ  LYS A 131      24.753  24.306  16.921  1.00 27.40     0.618 N 
ENDBRANCH   4   5
ENDBRANCH   3   4
ENDBRANCH   2   3
ENDBRANCH   1   2
END_RES LYS A 131
BEGIN_RES LYS A 135
REMARK  4 active torsions:
REMARK  status: ('A' for Active; 'I' for Inactive)
REMARK    5  A    between atoms: CA   and  CB  
REMARK    6  A    between atoms: CB   and  CG  
REMARK    7  A    between atoms: CG   and  CD  
REMARK    8  A    between atoms: CD   and  CE  
ROOT
ATOM      7  CA  LYS A 135      33.193  34.663   9.290  1.00 25.02     0.186 C 
ENDROOT
BRANCH   7   8
ATOM      8  CB  LYS A 135      32.060  35.360  10.034  1.00 26.63     0.034 C 
BRANCH   8   9
ATOM      9  CG  LYS A 135      30.736  34.649   9.919  1.00 29.45     0.005 C 
BRANCH   9  10
ATOM     10  CD  LYS A 135      30.328  34.506   8.461  1.00 32.00     0.041 C 
BRANCH  10  11
ATOM     11  CE  LYS A 135      28.818  34.532   8.326  1.00 34.25     0.338 C 
ATOM     12  NZ  LYS A 135      28.166  33.817   9.458  1.00 35.99     0.618 N 
ENDBRANCH  10  11
ENDBRANCH   9  10
ENDBRANCH   8   9
ENDBRANCH   7   8
END_RES LYS A 135
