REMARK VINA RESULT:    -3.011      3.313      8.544
REMARK INTER + INTRA:         -22.197
REMARK INTER:                 -10.148
REMARK INTRA:                 -12.049
REMARK UNBOUND:               -13.729
REMARK SMILES CCOC(CCn1cc(COC(=O)NC[C@@H](O)C(O)[C@@H]2O[C@@](OC[C@H]3O[C@@H](O[C@H]4[C@H](O)[C@@H](O)[C@H](OCCN=[N+]=[N-])O[C@@H]4CO)[C@H](O)[C@@H](O)[C@H]3O)(C(=O)O)C[C@H](O)[C@H]2NC(C)=O)nn1)OCC
REMARK SMILES IDX 18 1 20 2 22 3 54 4 21 5 55 6 57 7 23 8 24 9 25 10 27 11
REMARK SMILES IDX 26 12 45 13 47 14 49 15 28 16 29 17 42 18 41 19 34 20 30 21
REMARK SMILES IDX 32 22 43 23 44 24 35 26 36 27 37 28 38 29 39 30 40 31 31 32
REMARK SMILES IDX 33 34 46 36 48 38 50 40 51 42 52 43 53 44 56 46 58 48 59 49
REMARK SMILES IDX 60 51 61 52 19 53 16 55 17 56 15 58 14 59 12 60 13 62 11 63
REMARK SMILES IDX 10 64 9 65 8 66 62 67 7 68 63 69 6 70 5 71 4 72 3 73 2 74
REMARK SMILES IDX 1 75 64 76 65 77 66 78
REMARK H PARENT 44 25 31 33 33 35 46 37 48 39 50 41 53 45 56 47 58 50 19 54
REMARK H PARENT 17 57 14 61
REMARK Flexibility Score: inf
ROOT
ATOM      1  C   UNL     1      30.743  38.305  14.366  1.00  0.00     0.176 C 
ENDROOT
BRANCH   1   2
ATOM      2  C   UNL     1      31.612  37.263  15.006  1.00  0.00     0.178 C 
ATOM      3  C   UNL     1      32.365  35.083  14.832  1.00  0.00     0.272 C 
ATOM      4  C   UNL     1      33.166  35.552  15.994  1.00  0.00     0.113 C 
ATOM      5  O   UNL     1      31.494  36.068  14.314  1.00  0.00    -0.332 OA
ATOM      6  C   UNL     1      32.424  36.309  17.041  1.00  0.00     0.145 C 
ATOM      7  C   UNL     1      31.162  36.934  16.433  1.00  0.00     0.142 C 
BRANCH   3   8
ATOM      8  O   UNL     1      31.673  33.945  14.946  1.00  0.00    -0.338 OA
BRANCH   8   9
ATOM      9  C   UNL     1      31.681  33.214  16.075  1.00  0.00     0.199 C 
BRANCH   9  10
ATOM     10  C   UNL     1      30.285  32.779  16.456  1.00  0.00     0.179 C 
ATOM     11  C   UNL     1      28.091  32.874  15.986  1.00  0.00     0.282 C 
ATOM     12  O   UNL     1      29.386  32.804  15.406  1.00  0.00    -0.341 OA
ATOM     13  C   UNL     1      27.793  31.559  16.604  1.00  0.00     0.202 C 
ATOM     14  C   UNL     1      28.860  31.219  17.618  1.00  0.00     0.179 C 
ATOM     15  C   UNL     1      30.267  31.402  17.113  1.00  0.00     0.177 C 
BRANCH  11  16
ATOM     16  O   UNL     1      27.183  33.292  15.007  1.00  0.00    -0.341 OA
BRANCH  16  17
ATOM     17  C   UNL     1      27.023  34.638  15.096  1.00  0.00     0.184 C 
ATOM     18  C   UNL     1      28.027  35.522  14.462  1.00  0.00     0.178 C 
ATOM     19  O   UNL     1      27.463  36.799  14.341  1.00  0.00    -0.341 OA
ATOM     20  C   UNL     1      27.286  37.376  15.607  1.00  0.00     0.281 C 
ATOM     21  C   UNL     1      27.010  35.088  16.592  1.00  0.00     0.180 C 
ATOM     22  C   UNL     1      26.441  36.513  16.520  1.00  0.00     0.202 C 
BRANCH  18  23
ATOM     23  C   UNL     1      28.394  35.041  13.090  1.00  0.00     0.191 C 
BRANCH  23  24
ATOM     24  O   UNL     1      29.538  34.243  13.096  1.00  0.00    -0.394 OA
ATOM     25  H   UNL     1      29.350  33.311  13.305  1.00  0.00     0.210 HD
ENDBRANCH  23  24
ENDBRANCH  18  23
BRANCH  20  26
ATOM     26  O   UNL     1      26.613  38.568  15.407  1.00  0.00    -0.350 OA
BRANCH  26  27
ATOM     27  C   UNL     1      25.645  38.571  14.449  1.00  0.00     0.169 C 
BRANCH  27  28
ATOM     28  C   UNL     1      24.334  39.032  15.028  1.00  0.00     0.119 C 
BRANCH  28  29
ATOM     29  N   UNL     1      23.409  37.902  15.080  1.00  0.00    -0.092 NA
ATOM     30  N   UNL     1      22.735  37.733  14.044  1.00  0.00     0.001 N 
ATOM     31  N   UNL     1      21.741  37.625  13.322  1.00  0.00    -0.003 NA
ENDBRANCH  28  29
ENDBRANCH  27  28
ENDBRANCH  26  27
ENDBRANCH  20  26
BRANCH  21  32
ATOM     32  O   UNL     1      26.201  34.281  17.347  1.00  0.00    -0.387 OA
ATOM     33  H   UNL     1      25.499  33.830  16.816  1.00  0.00     0.211 HD
ENDBRANCH  21  32
BRANCH  22  34
ATOM     34  O   UNL     1      26.385  37.088  17.761  1.00  0.00    -0.385 OA
ATOM     35  H   UNL     1      25.427  37.362  17.913  1.00  0.00     0.211 HD
ENDBRANCH  22  34
ENDBRANCH  16  17
ENDBRANCH  11  16
BRANCH  13  36
ATOM     36  O   UNL     1      26.586  31.589  17.319  1.00  0.00    -0.385 OA
ATOM     37  H   UNL     1      25.807  31.601  16.718  1.00  0.00     0.211 HD
ENDBRANCH  13  36
BRANCH  14  38
ATOM     38  O   UNL     1      28.659  29.965  18.184  1.00  0.00    -0.387 OA
ATOM     39  H   UNL     1      29.438  29.368  18.025  1.00  0.00     0.211 HD
ENDBRANCH  14  38
BRANCH  15  40
ATOM     40  O   UNL     1      30.629  30.443  16.180  1.00  0.00    -0.387 OA
ATOM     41  H   UNL     1      31.551  30.135  16.328  1.00  0.00     0.211 HD
ENDBRANCH  15  40
ENDBRANCH   9  10
ENDBRANCH   8   9
ENDBRANCH   3   8
BRANCH   3  42
ATOM     42  C   UNL     1      33.336  34.874  13.711  1.00  0.00     0.364 C 
ATOM     43  O   UNL     1      34.486  34.441  13.912  1.00  0.00    -0.246 OA
BRANCH  42  44
ATOM     44  O   UNL     1      32.991  35.157  12.393  1.00  0.00    -0.477 OA
ATOM     45  H   UNL     1      32.059  34.909  12.077  1.00  0.00     0.296 HD
ENDBRANCH  42  44
ENDBRANCH   3  42
BRANCH   6  46
ATOM     46  O   UNL     1      32.121  35.591  18.171  1.00  0.00    -0.391 OA
ATOM     47  H   UNL     1      31.477  36.036  18.776  1.00  0.00     0.211 HD
ENDBRANCH   6  46
BRANCH   7  48
ATOM     48  N   UNL     1      30.712  38.073  17.165  1.00  0.00    -0.348 N 
ATOM     49  C   UNL     1      29.781  37.870  18.222  1.00  0.00     0.217 C 
ATOM     50  H   UNL     1      31.030  39.042  16.968  1.00  0.00     0.163 HD
ATOM     51  C   UNL     1      29.292  39.037  19.002  1.00  0.00     0.114 C 
ATOM     52  O   UNL     1      29.355  36.702  18.515  1.00  0.00    -0.275 OA
ENDBRANCH   7  48
ENDBRANCH   1   2
BRANCH   1  53
ATOM     53  O   UNL     1      31.439  39.523  14.469  1.00  0.00    -0.388 OA
ATOM     54  H   UNL     1      32.334  39.451  14.026  1.00  0.00     0.211 HD
ENDBRANCH   1  53
BRANCH   1  55
ATOM     55  C   UNL     1      30.643  37.983  12.888  1.00  0.00     0.165 C 
BRANCH  55  56
ATOM     56  O   UNL     1      31.868  38.025  12.289  1.00  0.00    -0.388 OA
ATOM     57  H   UNL     1      31.865  37.800  11.325  1.00  0.00     0.211 HD
ENDBRANCH  55  56
BRANCH  55  58
ATOM     58  C   UNL     1      29.687  38.926  12.211  1.00  0.00     0.154 C 
BRANCH  58  59
ATOM     59  N   UNL     1      28.322  38.492  12.152  1.00  0.00    -0.319 N 
ATOM     60  C   UNL     1      27.524  38.484  10.998  1.00  0.00     0.407 C 
ATOM     61  H   UNL     1      27.909  38.153  13.075  1.00  0.00     0.167 HD
ATOM     62  O   UNL     1      27.933  38.855   9.885  1.00  0.00    -0.225 OA
BRANCH  60  63
ATOM     63  O   UNL     1      26.183  38.042  11.058  1.00  0.00    -0.443 OA
BRANCH  63  64
ATOM     64  C   UNL     1      25.759  36.991  10.177  1.00  0.00     0.294 C 
BRANCH  64  65
ATOM     65  C   UNL     1      24.849  36.087  10.927  1.00  0.00     0.120 A 
ATOM     66  C   UNL     1      24.976  35.665  12.229  1.00  0.00     0.138 A 
ATOM     67  N   UNL     1      23.740  35.519  10.449  1.00  0.00    -0.132 NA
ATOM     68  N   UNL     1      23.929  34.852  12.481  1.00  0.00    -0.252 N 
ATOM     69  N   UNL     1      23.199  34.786  11.382  1.00  0.00    -0.067 NA
BRANCH  68  70
ATOM     70  C   UNL     1      23.698  34.203  13.738  1.00  0.00     0.151 C 
BRANCH  70  71
ATOM     71  C   UNL     1      22.470  33.339  13.785  1.00  0.00     0.086 C 
BRANCH  71  72
ATOM     72  C   UNL     1      22.881  31.880  13.592  1.00  0.00     0.251 C 
BRANCH  72  73
ATOM     73  O   UNL     1      24.241  31.819  13.826  1.00  0.00    -0.353 OA
BRANCH  73  74
ATOM     74  C   UNL     1      24.625  30.616  14.405  1.00  0.00     0.160 C 
ATOM     75  C   UNL     1      23.708  30.231  15.549  1.00  0.00     0.035 C 
ENDBRANCH  73  74
ENDBRANCH  72  73
BRANCH  72  76
ATOM     76  O   UNL     1      22.455  31.377  12.399  1.00  0.00    -0.353 OA
BRANCH  76  77
ATOM     77  C   UNL     1      21.360  30.558  12.416  1.00  0.00     0.160 C 
ATOM     78  C   UNL     1      21.816  29.117  12.387  1.00  0.00     0.035 C 
ENDBRANCH  76  77
ENDBRANCH  72  76
ENDBRANCH  71  72
ENDBRANCH  70  71
ENDBRANCH  68  70
ENDBRANCH  64  65
ENDBRANCH  63  64
ENDBRANCH  60  63
ENDBRANCH  58  59
ENDBRANCH  55  58
ENDBRANCH   1  55
TORSDOF 36
BEGIN_RES LYS A 131
REMARK  4 active torsions:
REMARK  status: ('A' for Active; 'I' for Inactive)
REMARK    1  A    between atoms: CA   and  CB  
REMARK    2  A    between atoms: CB   and  CG  
REMARK    3  A    between atoms: CG   and  CD  
REMARK    4  A    between atoms: CD   and  CE  
ROOT
ATOM      1  CA  LYS A 131      29.867  25.555  16.977  1.00 20.52     0.186 C 
ENDROOT
BRANCH   1   2
ATOM      2  CB  LYS A 131      28.345  25.722  17.026  1.00 20.94     0.034 C 
BRANCH   2   3
ATOM      3  CG  LYS A 131      27.599  24.439  16.695  1.00 22.96     0.005 C 
BRANCH   3   4
ATOM      4  CD  LYS A 131      26.992  23.805  17.916  1.00 24.33     0.041 C 
BRANCH   4   5
ATOM      5  CE  LYS A 131      25.576  23.337  17.597  1.00 26.91     0.338 C 
ATOM      6  NZ  LYS A 131      24.825  24.401  16.891  1.00 27.40     0.618 N 
ENDBRANCH   4   5
ENDBRANCH   3   4
ENDBRANCH   2   3
ENDBRANCH   1   2
END_RES LYS A 131
BEGIN_RES LYS A 135
REMARK  4 active torsions:
REMARK  status: ('A' for Active; 'I' for Inactive)
REMARK    5  A    between atoms: CA   and  CB  
REMARK    6  A    between atoms: CB   and  CG  
REMARK    7  A    between atoms: CG   and  CD  
REMARK    8  A    between atoms: CD   and  CE  
ROOT
ATOM      7  CA  LYS A 135      33.193  34.663   9.290  1.00 25.02     0.186 C 
ENDROOT
BRANCH   7   8
ATOM      8  CB  LYS A 135      32.060  35.360  10.034  1.00 26.63     0.034 C 
BRANCH   8   9
ATOM      9  CG  LYS A 135      30.703  34.764   9.760  1.00 29.45     0.005 C 
BRANCH   9  10
ATOM     10  CD  LYS A 135      30.544  34.449   8.281  1.00 32.00     0.041 C 
BRANCH  10  11
ATOM     11  CE  LYS A 135      29.155  34.825   7.802  1.00 34.25     0.338 C 
ATOM     12  NZ  LYS A 135      28.895  36.278   8.002  1.00 35.99     0.618 N 
ENDBRANCH  10  11
ENDBRANCH   9  10
ENDBRANCH   8   9
ENDBRANCH   7   8
END_RES LYS A 135
