REMARK VINA RESULT:    -4.240      7.351     13.461
REMARK INTER + INTRA:         -21.680
REMARK INTER:                 -10.582
REMARK INTRA:                 -11.098
REMARK UNBOUND:               -11.242
REMARK SMILES CC(=O)N[C@@H]1[C@@H](O)C[C@](OC[C@H]2O[C@@H](O[C@H]3[C@H](O)[C@@H](O)[C@H](OCCN=[N+]=[N-])O[C@@H]3CO)[C@H](O)[C@@H](O)[C@H]2O)(C(=O)O)O[C@H]1C(O)[C@H](O)CNC(=O)OCc1cn(-c2c(C)cc(C)cc2C)nn1
REMARK SMILES IDX 9 1 8 2 6 3 5 4 42 5 41 6 10 7 11 8 12 9 14 10 13 11 32 12
REMARK SMILES IDX 34 13 36 14 15 15 16 16 29 17 28 18 21 19 17 20 19 21 30 22
REMARK SMILES IDX 31 23 22 25 23 26 24 27 25 28 26 29 27 30 18 31 20 33 33 35
REMARK SMILES IDX 35 37 37 39 38 41 39 42 40 43 7 45 43 47 44 48 45 50 46 51
REMARK SMILES IDX 47 53 48 54 49 55 50 57 51 58 52 59 53 60 54 61 66 62 55 63
REMARK SMILES IDX 65 64 56 65 57 66 63 67 58 68 59 69 62 70 64 71 60 72 61 73
REMARK SMILES IDX 4 74 2 75 1 77 3 78
REMARK H PARENT 31 24 18 32 20 34 33 36 35 38 37 40 40 44 7 46 44 49 46 52
REMARK H PARENT 48 56 4 76
REMARK Flexibility Score: inf
ROOT
ATOM      1  C   UNL     1      30.357  33.910  16.140  1.00  0.00     0.272 C 
ATOM      2  C   UNL     1      31.708  33.891  16.742  1.00  0.00     0.113 C 
ATOM      3  C   UNL     1      32.187  35.180  17.363  1.00  0.00     0.145 C 
ATOM      4  C   UNL     1      31.655  36.346  16.592  1.00  0.00     0.142 C 
ATOM      5  C   UNL     1      31.363  35.807  15.186  1.00  0.00     0.178 C 
ATOM      6  O   UNL     1      30.182  35.026  15.309  1.00  0.00    -0.332 OA
ENDROOT
BRANCH   1   7
ATOM      7  O   UNL     1      29.288  33.783  16.974  1.00  0.00    -0.338 OA
BRANCH   7   8
ATOM      8  C   UNL     1      29.292  32.865  17.958  1.00  0.00     0.199 C 
BRANCH   8   9
ATOM      9  C   UNL     1      27.881  32.262  18.034  1.00  0.00     0.179 C 
ATOM     10  C   UNL     1      26.073  32.025  16.629  1.00  0.00     0.282 C 
ATOM     11  O   UNL     1      27.036  32.884  17.136  1.00  0.00    -0.341 OA
ATOM     12  C   UNL     1      26.807  31.060  15.734  1.00  0.00     0.202 C 
ATOM     13  C   UNL     1      27.684  30.219  16.651  1.00  0.00     0.179 C 
ATOM     14  C   UNL     1      27.862  30.778  18.018  1.00  0.00     0.177 C 
BRANCH  10  15
ATOM     15  O   UNL     1      25.010  32.643  16.090  1.00  0.00    -0.341 OA
BRANCH  15  16
ATOM     16  C   UNL     1      25.132  33.259  14.898  1.00  0.00     0.184 C 
ATOM     17  C   UNL     1      25.070  34.763  15.097  1.00  0.00     0.178 C 
ATOM     18  O   UNL     1      23.868  35.301  14.751  1.00  0.00    -0.341 OA
ATOM     19  C   UNL     1      23.533  35.163  13.413  1.00  0.00     0.281 C 
ATOM     20  C   UNL     1      23.972  32.824  13.998  1.00  0.00     0.180 C 
ATOM     21  C   UNL     1      23.799  33.811  12.858  1.00  0.00     0.202 C 
BRANCH  17  22
ATOM     22  C   UNL     1      26.250  35.449  14.429  1.00  0.00     0.191 C 
BRANCH  22  23
ATOM     23  O   UNL     1      27.446  34.836  14.796  1.00  0.00    -0.394 OA
ATOM     24  H   UNL     1      28.151  35.472  15.057  1.00  0.00     0.210 HD
ENDBRANCH  22  23
ENDBRANCH  17  22
BRANCH  19  25
ATOM     25  O   UNL     1      24.188  36.124  12.628  1.00  0.00    -0.350 OA
BRANCH  25  26
ATOM     26  C   UNL     1      23.488  37.296  12.492  1.00  0.00     0.169 C 
BRANCH  26  27
ATOM     27  C   UNL     1      24.250  38.539  12.835  1.00  0.00     0.119 C 
BRANCH  27  28
ATOM     28  N   UNL     1      24.404  38.712  14.268  1.00  0.00    -0.092 NA
ATOM     29  N   UNL     1      25.513  38.996  14.762  1.00  0.00     0.001 N 
ATOM     30  N   UNL     1      26.669  39.333  15.043  1.00  0.00    -0.003 NA
ENDBRANCH  27  28
ENDBRANCH  26  27
ENDBRANCH  25  26
ENDBRANCH  19  25
BRANCH  20  31
ATOM     31  O   UNL     1      24.147  31.575  13.455  1.00  0.00    -0.387 OA
ATOM     32  H   UNL     1      24.355  31.568  12.486  1.00  0.00     0.211 HD
ENDBRANCH  20  31
BRANCH  21  33
ATOM     33  O   UNL     1      22.690  33.394  12.126  1.00  0.00    -0.385 OA
ATOM     34  H   UNL     1      21.909  33.994  12.284  1.00  0.00     0.211 HD
ENDBRANCH  21  33
ENDBRANCH  15  16
ENDBRANCH  10  15
BRANCH  12  35
ATOM     35  O   UNL     1      25.950  30.186  15.072  1.00  0.00    -0.385 OA
ATOM     36  H   UNL     1      26.529  29.512  14.601  1.00  0.00     0.211 HD
ENDBRANCH  12  35
BRANCH  13  37
ATOM     37  O   UNL     1      28.939  29.997  16.086  1.00  0.00    -0.387 OA
ATOM     38  H   UNL     1      29.075  30.484  15.233  1.00  0.00     0.211 HD
ENDBRANCH  13  37
BRANCH  14  39
ATOM     39  O   UNL     1      29.090  30.281  18.519  1.00  0.00    -0.387 OA
ATOM     40  H   UNL     1      29.469  29.609  17.906  1.00  0.00     0.211 HD
ENDBRANCH  14  39
ENDBRANCH   8   9
ENDBRANCH   7   8
ENDBRANCH   1   7
BRANCH   1  41
ATOM     41  C   UNL     1      30.324  32.765  15.152  1.00  0.00     0.364 C 
ATOM     42  O   UNL     1      29.348  32.650  14.405  1.00  0.00    -0.246 OA
BRANCH  41  43
ATOM     43  O   UNL     1      31.358  31.851  15.072  1.00  0.00    -0.477 OA
ATOM     44  H   UNL     1      31.564  31.153  15.764  1.00  0.00     0.296 HD
ENDBRANCH  41  43
ENDBRANCH   1  41
BRANCH   3  45
ATOM     45  O   UNL     1      31.796  35.160  18.701  1.00  0.00    -0.391 OA
ATOM     46  H   UNL     1      30.853  34.798  18.752  1.00  0.00     0.211 HD
ENDBRANCH   3  45
BRANCH   5  47
ATOM     47  C   UNL     1      31.019  36.835  14.183  1.00  0.00     0.176 C 
BRANCH  47  48
ATOM     48  O   UNL     1      32.261  37.470  13.815  1.00  0.00    -0.388 OA
ATOM     49  H   UNL     1      32.953  36.767  13.715  1.00  0.00     0.211 HD
ENDBRANCH  47  48
BRANCH  47  50
ATOM     50  C   UNL     1      30.195  38.020  14.646  1.00  0.00     0.165 C 
BRANCH  50  51
ATOM     51  O   UNL     1      28.856  37.468  14.634  1.00  0.00    -0.388 OA
ATOM     52  H   UNL     1      28.776  36.817  15.358  1.00  0.00     0.211 HD
ENDBRANCH  50  51
BRANCH  50  53
ATOM     53  C   UNL     1      30.116  39.094  13.588  1.00  0.00     0.154 C 
BRANCH  53  54
ATOM     54  N   UNL     1      30.286  38.662  12.235  1.00  0.00    -0.319 N 
ATOM     55  C   UNL     1      29.138  38.454  11.411  1.00  0.00     0.407 C 
ATOM     56  H   UNL     1      31.252  38.489  11.836  1.00  0.00     0.167 HD
ATOM     57  O   UNL     1      28.015  38.661  11.948  1.00  0.00    -0.225 OA
BRANCH  55  58
ATOM     58  O   UNL     1      29.231  38.048  10.086  1.00  0.00    -0.443 OA
BRANCH  58  59
ATOM     59  C   UNL     1      28.661  38.786   9.032  1.00  0.00     0.294 C 
BRANCH  59  60
ATOM     60  C   UNL     1      27.404  38.197   8.497  1.00  0.00     0.121 A 
ATOM     61  C   UNL     1      26.176  38.101   9.109  1.00  0.00     0.144 A 
ATOM     62  N   UNL     1      27.235  37.627   7.268  1.00  0.00    -0.131 NA
ATOM     63  N   UNL     1      25.315  37.497   8.273  1.00  0.00    -0.220 N 
ATOM     64  N   UNL     1      26.007  37.228   7.166  1.00  0.00    -0.062 NA
BRANCH  63  65
ATOM     65  C   UNL     1      23.927  37.176   8.486  1.00  0.00     0.072 A 
ATOM     66  C   UNL     1      23.653  35.962   9.066  1.00  0.00    -0.025 A 
ATOM     67  C   UNL     1      22.965  38.050   8.118  1.00  0.00    -0.025 A 
ATOM     68  C   UNL     1      24.754  35.018   9.461  1.00  0.00     0.047 C 
ATOM     69  C   UNL     1      22.328  35.635   9.276  1.00  0.00     0.009 A 
ATOM     70  C   UNL     1      21.637  37.674   8.350  1.00  0.00     0.009 A 
ATOM     71  C   UNL     1      23.223  39.372   7.490  1.00  0.00     0.047 C 
ATOM     72  C   UNL     1      21.301  36.474   8.927  1.00  0.00    -0.050 A 
ATOM     73  C   UNL     1      19.898  36.064   9.181  1.00  0.00     0.044 C 
ENDBRANCH  63  65
ENDBRANCH  59  60
ENDBRANCH  58  59
ENDBRANCH  55  58
ENDBRANCH  53  54
ENDBRANCH  50  53
ENDBRANCH  47  50
ENDBRANCH   5  47
BRANCH   4  74
ATOM     74  N   UNL     1      32.425  37.513  16.603  1.00  0.00    -0.348 N 
ATOM     75  C   UNL     1      32.349  38.496  17.632  1.00  0.00     0.217 C 
ATOM     76  H   UNL     1      33.112  37.689  15.848  1.00  0.00     0.163 HD
ATOM     77  C   UNL     1      33.189  39.732  17.614  1.00  0.00     0.114 C 
ATOM     78  O   UNL     1      31.550  38.291  18.561  1.00  0.00    -0.275 OA
ENDBRANCH   4  74
TORSDOF 30
BEGIN_RES LYS A 131
REMARK  4 active torsions:
REMARK  status: ('A' for Active; 'I' for Inactive)
REMARK    1  A    between atoms: CA   and  CB  
REMARK    2  A    between atoms: CB   and  CG  
REMARK    3  A    between atoms: CG   and  CD  
REMARK    4  A    between atoms: CD   and  CE  
ROOT
ATOM      1  CA  LYS A 131      29.867  25.555  16.977  1.00 20.52     0.186 C 
ENDROOT
BRANCH   1   2
ATOM      2  CB  LYS A 131      28.345  25.722  17.026  1.00 20.94     0.034 C 
BRANCH   2   3
ATOM      3  CG  LYS A 131      27.601  24.401  16.907  1.00 22.96     0.005 C 
BRANCH   3   4
ATOM      4  CD  LYS A 131      26.542  24.249  17.963  1.00 24.33     0.041 C 
BRANCH   4   5
ATOM      5  CE  LYS A 131      25.210  24.762  17.426  1.00 26.91     0.338 C 
ATOM      6  NZ  LYS A 131      24.373  23.634  16.953  1.00 27.40     0.618 N 
ENDBRANCH   4   5
ENDBRANCH   3   4
ENDBRANCH   2   3
ENDBRANCH   1   2
END_RES LYS A 131
BEGIN_RES LYS A 135
REMARK  4 active torsions:
REMARK  status: ('A' for Active; 'I' for Inactive)
REMARK    5  A    between atoms: CA   and  CB  
REMARK    6  A    between atoms: CB   and  CG  
REMARK    7  A    between atoms: CG   and  CD  
REMARK    8  A    between atoms: CD   and  CE  
ROOT
ATOM      7  CA  LYS A 135      33.193  34.663   9.290  1.00 25.02     0.186 C 
ENDROOT
BRANCH   7   8
ATOM      8  CB  LYS A 135      32.060  35.360  10.034  1.00 26.63     0.034 C 
BRANCH   8   9
ATOM      9  CG  LYS A 135      30.697  34.799   9.719  1.00 29.45     0.005 C 
BRANCH   9  10
ATOM     10  CD  LYS A 135      30.572  34.496   8.234  1.00 32.00     0.041 C 
BRANCH  10  11
ATOM     11  CE  LYS A 135      29.195  34.882   7.727  1.00 34.25     0.338 C 
ATOM     12  NZ  LYS A 135      28.136  34.491   8.699  1.00 35.99     0.618 N 
ENDBRANCH  10  11
ENDBRANCH   9  10
ENDBRANCH   8   9
ENDBRANCH   7   8
END_RES LYS A 135
