REMARK VINA RESULT:    -3.965      3.321      7.498
REMARK INTER + INTRA:         -22.376
REMARK INTER:                 -10.108
REMARK INTRA:                 -12.269
REMARK UNBOUND:               -12.269
REMARK SMILES CC(=O)N[C@@H]1[C@@H](O)C[C@](OC[C@H]2O[C@@H](O[C@H]3[C@H](O)[C@@H](O)[C@H](OCCN=[N+]=[N-])O[C@@H]3CO)[C@H](O)[C@@H](O)[C@H]2O)(C(=O)O)O[C@H]1C(O)[C@H](O)CNC(=O)OCc1cn(-c2cccc(S(N)(=O)=O)c2)nn1
REMARK SMILES IDX 9 1 8 2 6 3 5 4 42 5 41 6 10 7 11 8 12 9 14 10 13 11 32 12
REMARK SMILES IDX 34 13 36 14 15 15 16 16 29 17 28 18 21 19 17 20 19 21 30 22
REMARK SMILES IDX 31 23 22 25 23 26 24 27 25 28 26 29 27 30 18 31 20 33 33 35
REMARK SMILES IDX 35 37 37 39 38 41 39 42 40 43 7 45 43 47 44 48 45 50 46 51
REMARK SMILES IDX 47 53 48 54 49 55 50 57 51 58 52 59 53 60 54 61 67 62 55 63
REMARK SMILES IDX 66 64 56 65 65 66 57 67 60 68 58 69 59 70 61 71 63 72 64 73
REMARK SMILES IDX 62 74 4 77 2 78 1 80 3 81
REMARK H PARENT 31 24 18 32 20 34 33 36 35 38 37 40 40 44 7 46 44 49 46 52
REMARK H PARENT 48 56 62 75 62 76 4 79
REMARK Flexibility Score: inf
ROOT
ATOM      1  C   UNL     1      27.279  37.767   7.102  1.00  0.00     0.272 C 
ATOM      2  C   UNL     1      28.633  37.724   7.836  1.00  0.00     0.113 C 
ATOM      3  C   UNL     1      29.567  38.644   7.131  1.00  0.00     0.145 C 
ATOM      4  C   UNL     1      29.033  40.032   7.108  1.00  0.00     0.142 C 
ATOM      5  C   UNL     1      27.548  40.088   7.042  1.00  0.00     0.178 C 
ATOM      6  O   UNL     1      26.786  38.999   7.190  1.00  0.00    -0.332 OA
ENDROOT
BRANCH   1   7
ATOM      7  O   UNL     1      26.497  36.836   7.837  1.00  0.00    -0.338 OA
BRANCH   7   8
ATOM      8  C   UNL     1      25.181  37.122   7.644  1.00  0.00     0.199 C 
BRANCH   8   9
ATOM      9  C   UNL     1      24.371  37.067   8.920  1.00  0.00     0.179 C 
ATOM     10  C   UNL     1      23.676  35.593  10.453  1.00  0.00     0.282 C 
ATOM     11  O   UNL     1      24.829  36.071   9.780  1.00  0.00    -0.341 OA
ATOM     12  C   UNL     1      22.838  36.704  10.972  1.00  0.00     0.202 C 
ATOM     13  C   UNL     1      23.493  38.062  10.948  1.00  0.00     0.179 C 
ATOM     14  C   UNL     1      24.271  38.335   9.675  1.00  0.00     0.177 C 
BRANCH  10  15
ATOM     15  O   UNL     1      23.993  34.597  11.341  1.00  0.00    -0.341 OA
BRANCH  15  16
ATOM     16  C   UNL     1      24.132  34.995  12.650  1.00  0.00     0.184 C 
ATOM     17  C   UNL     1      25.557  34.766  13.090  1.00  0.00     0.178 C 
ATOM     18  O   UNL     1      25.600  34.230  14.383  1.00  0.00    -0.341 OA
ATOM     19  C   UNL     1      25.208  32.915  14.310  1.00  0.00     0.281 C 
ATOM     20  C   UNL     1      23.168  34.163  13.466  1.00  0.00     0.180 C 
ATOM     21  C   UNL     1      23.758  32.876  13.947  1.00  0.00     0.202 C 
BRANCH  17  22
ATOM     22  C   UNL     1      26.393  36.006  13.109  1.00  0.00     0.191 C 
BRANCH  22  23
ATOM     23  O   UNL     1      26.558  36.529  11.811  1.00  0.00    -0.394 OA
ATOM     24  H   UNL     1      27.440  36.290  11.440  1.00  0.00     0.210 HD
ENDBRANCH  22  23
ENDBRANCH  17  22
BRANCH  19  25
ATOM     25  O   UNL     1      25.384  32.235  15.515  1.00  0.00    -0.350 OA
BRANCH  25  26
ATOM     26  C   UNL     1      25.719  30.914  15.391  1.00  0.00     0.169 C 
BRANCH  26  27
ATOM     27  C   UNL     1      27.116  30.572  15.862  1.00  0.00     0.119 C 
BRANCH  27  28
ATOM     28  N   UNL     1      27.635  31.583  16.762  1.00  0.00    -0.092 NA
ATOM     29  N   UNL     1      28.365  31.311  17.711  1.00  0.00     0.001 N 
ATOM     30  N   UNL     1      29.083  31.149  18.682  1.00  0.00    -0.003 NA
ENDBRANCH  27  28
ENDBRANCH  26  27
ENDBRANCH  25  26
ENDBRANCH  19  25
BRANCH  20  31
ATOM     31  O   UNL     1      22.790  34.905  14.599  1.00  0.00    -0.387 OA
ATOM     32  H   UNL     1      21.808  34.998  14.675  1.00  0.00     0.211 HD
ENDBRANCH  20  31
BRANCH  21  33
ATOM     33  O   UNL     1      23.596  31.871  12.963  1.00  0.00    -0.385 OA
ATOM     34  H   UNL     1      22.784  31.365  13.200  1.00  0.00     0.211 HD
ENDBRANCH  21  33
ENDBRANCH  15  16
ENDBRANCH  10  15
BRANCH  12  35
ATOM     35  O   UNL     1      21.556  36.761  10.374  1.00  0.00    -0.385 OA
ATOM     36  H   UNL     1      21.019  36.096  10.911  1.00  0.00     0.211 HD
ENDBRANCH  12  35
BRANCH  13  37
ATOM     37  O   UNL     1      24.213  38.311  12.101  1.00  0.00    -0.387 OA
ATOM     38  H   UNL     1      25.127  37.908  11.952  1.00  0.00     0.211 HD
ENDBRANCH  13  37
BRANCH  14  39
ATOM     39  O   UNL     1      25.556  38.736  10.060  1.00  0.00    -0.387 OA
ATOM     40  H   UNL     1      26.183  38.755   9.294  1.00  0.00     0.211 HD
ENDBRANCH  14  39
ENDBRANCH   8   9
ENDBRANCH   7   8
ENDBRANCH   1   7
BRANCH   1  41
ATOM     41  C   UNL     1      27.543  37.228   5.745  1.00  0.00     0.364 C 
ATOM     42  O   UNL     1      27.895  35.997   5.644  1.00  0.00    -0.246 OA
BRANCH  41  43
ATOM     43  O   UNL     1      27.452  37.904   4.564  1.00  0.00    -0.477 OA
ATOM     44  H   UNL     1      27.994  37.648   3.729  1.00  0.00     0.296 HD
ENDBRANCH  41  43
ENDBRANCH   1  41
BRANCH   3  45
ATOM     45  O   UNL     1      30.787  38.583   7.862  1.00  0.00    -0.391 OA
ATOM     46  H   UNL     1      31.103  37.636   7.720  1.00  0.00     0.211 HD
ENDBRANCH   3  45
BRANCH   5  47
ATOM     47  C   UNL     1      27.084  41.184   8.032  1.00  0.00     0.176 C 
BRANCH  47  48
ATOM     48  O   UNL     1      27.310  40.737   9.320  1.00  0.00    -0.388 OA
ATOM     49  H   UNL     1      26.961  41.299  10.032  1.00  0.00     0.211 HD
ENDBRANCH  47  48
BRANCH  47  50
ATOM     50  C   UNL     1      25.704  41.616   7.720  1.00  0.00     0.165 C 
BRANCH  50  51
ATOM     51  O   UNL     1      25.505  41.550   6.343  1.00  0.00    -0.388 OA
ATOM     52  H   UNL     1      26.149  42.212   5.961  1.00  0.00     0.211 HD
ENDBRANCH  50  51
BRANCH  50  53
ATOM     53  C   UNL     1      25.430  43.048   8.149  1.00  0.00     0.154 C 
BRANCH  53  54
ATOM     54  N   UNL     1      26.263  43.339   9.290  1.00  0.00    -0.319 N 
ATOM     55  C   UNL     1      25.658  43.473  10.596  1.00  0.00     0.407 C 
ATOM     56  H   UNL     1      27.298  43.465   9.216  1.00  0.00     0.167 HD
ATOM     57  O   UNL     1      24.416  43.340  10.752  1.00  0.00    -0.225 OA
BRANCH  55  58
ATOM     58  O   UNL     1      26.513  43.748  11.643  1.00  0.00    -0.443 OA
BRANCH  58  59
ATOM     59  C   UNL     1      26.484  42.999  12.821  1.00  0.00     0.294 C 
BRANCH  59  60
ATOM     60  C   UNL     1      26.928  41.614  12.603  1.00  0.00     0.121 A 
ATOM     61  C   UNL     1      28.274  41.233  12.505  1.00  0.00     0.144 A 
ATOM     62  N   UNL     1      26.214  40.505  12.465  1.00  0.00    -0.131 NA
ATOM     63  N   UNL     1      28.296  39.919  12.312  1.00  0.00    -0.220 N 
ATOM     64  N   UNL     1      27.061  39.507  12.293  1.00  0.00    -0.062 NA
BRANCH  63  65
ATOM     65  C   UNL     1      29.501  39.154  12.172  1.00  0.00     0.068 A 
ATOM     66  C   UNL     1      29.631  37.964  12.893  1.00  0.00     0.050 A 
ATOM     67  C   UNL     1      30.506  39.571  11.352  1.00  0.00     0.028 A 
ATOM     68  C   UNL     1      30.763  37.195  12.793  1.00  0.00     0.084 A 
ATOM     69  C   UNL     1      31.631  38.818  11.245  1.00  0.00     0.004 A 
ATOM     70  C   UNL     1      31.783  37.625  11.956  1.00  0.00     0.022 A 
BRANCH  68  71
ATOM     71  S   UNL     1      30.990  35.703  13.660  1.00  0.00     0.238 S 
ATOM     72  O   UNL     1      29.662  35.256  14.205  1.00  0.00    -0.207 OA
ATOM     73  O   UNL     1      31.935  35.901  14.800  1.00  0.00    -0.207 OA
BRANCH  71  74
ATOM     74  N   UNL     1      31.615  34.511  12.557  1.00  0.00    -0.225 NA
ATOM     75  H   UNL     1      30.817  34.126  12.003  1.00  0.00     0.137 HD
ATOM     76  H   UNL     1      32.181  33.789  13.048  1.00  0.00     0.137 HD
ENDBRANCH  71  74
ENDBRANCH  68  71
ENDBRANCH  63  65
ENDBRANCH  59  60
ENDBRANCH  58  59
ENDBRANCH  55  58
ENDBRANCH  53  54
ENDBRANCH  50  53
ENDBRANCH  47  50
ENDBRANCH   5  47
BRANCH   4  77
ATOM     77  N   UNL     1      29.579  40.680   5.905  1.00  0.00    -0.348 N 
ATOM     78  C   UNL     1      30.554  41.712   5.963  1.00  0.00     0.217 C 
ATOM     79  H   UNL     1      29.241  40.375   4.969  1.00  0.00     0.163 HD
ATOM     80  C   UNL     1      31.068  42.326   4.713  1.00  0.00     0.114 C 
ATOM     81  O   UNL     1      30.959  42.081   7.104  1.00  0.00    -0.275 OA
ENDBRANCH   4  77
TORSDOF 32
BEGIN_RES LYS A 131
REMARK  4 active torsions:
REMARK  status: ('A' for Active; 'I' for Inactive)
REMARK    1  A    between atoms: CA   and  CB  
REMARK    2  A    between atoms: CB   and  CG  
REMARK    3  A    between atoms: CG   and  CD  
REMARK    4  A    between atoms: CD   and  CE  
ROOT
ATOM      1  CA  LYS A 131      29.867  25.555  16.977  1.00 20.52     0.186 C 
ENDROOT
BRANCH   1   2
ATOM      2  CB  LYS A 131      28.345  25.722  17.026  1.00 20.94     0.034 C 
BRANCH   2   3
ATOM      3  CG  LYS A 131      27.602  24.400  16.912  1.00 22.96     0.005 C 
BRANCH   3   4
ATOM      4  CD  LYS A 131      26.151  24.532  17.284  1.00 24.33     0.041 C 
BRANCH   4   5
ATOM      5  CE  LYS A 131      26.015  24.564  18.802  1.00 26.91     0.338 C 
ATOM      6  NZ  LYS A 131      25.508  23.265  19.305  1.00 27.40     0.618 N 
ENDBRANCH   4   5
ENDBRANCH   3   4
ENDBRANCH   2   3
ENDBRANCH   1   2
END_RES LYS A 131
BEGIN_RES LYS A 135
REMARK  4 active torsions:
REMARK  status: ('A' for Active; 'I' for Inactive)
REMARK    5  A    between atoms: CA   and  CB  
REMARK    6  A    between atoms: CB   and  CG  
REMARK    7  A    between atoms: CG   and  CD  
REMARK    8  A    between atoms: CD   and  CE  
ROOT
ATOM      7  CA  LYS A 135      33.193  34.663   9.290  1.00 25.02     0.186 C 
ENDROOT
BRANCH   7   8
ATOM      8  CB  LYS A 135      32.060  35.360  10.034  1.00 26.63     0.034 C 
BRANCH   8   9
ATOM      9  CG  LYS A 135      30.798  35.492   9.222  1.00 29.45     0.005 C 
BRANCH   9  10
ATOM     10  CD  LYS A 135      30.259  34.122   8.840  1.00 32.00     0.041 C 
BRANCH  10  11
ATOM     11  CE  LYS A 135      28.744  34.144   8.777  1.00 34.25     0.338 C 
ATOM     12  NZ  LYS A 135      28.150  34.129  10.142  1.00 35.99     0.618 N 
ENDBRANCH  10  11
ENDBRANCH   9  10
ENDBRANCH   8   9
ENDBRANCH   7   8
END_RES LYS A 135
