REMARK VINA RESULT:    -4.544      2.099      4.832
REMARK INTER + INTRA:         -24.844
REMARK INTER:                 -11.026
REMARK INTRA:                 -13.817
REMARK UNBOUND:               -11.931
REMARK SMILES CC(=O)N[C@@H]1[C@@H](O)C[C@](OC[C@H]2O[C@@H](O[C@H]3[C@H](O)[C@@H](O)[C@H](OCCN=[N+]=[N-])O[C@@H]3CO)[C@H](O)[C@@H](O)[C@H]2O)(C(=O)O)O[C@H]1C(O)[C@H](O)CNC(=O)OCc1cn(CC(=O)NCC(O)Cn2ccnc2[N+](=O)[O-])nn1
REMARK SMILES IDX 47 1 45 2 43 3 42 4 9 5 8 6 41 7 6 8 5 9 10 10 11 11 12 12
REMARK SMILES IDX 14 13 13 14 32 15 34 16 36 17 15 18 16 19 29 20 28 21 21 22
REMARK SMILES IDX 17 23 19 24 30 25 31 26 22 28 23 29 24 30 25 31 26 32 27 33
REMARK SMILES IDX 18 34 20 36 33 38 35 40 37 42 38 44 39 45 40 46 7 48 4 50
REMARK SMILES IDX 2 51 1 53 3 54 44 55 46 57 48 59 49 60 50 62 51 63 52 64
REMARK SMILES IDX 53 65 54 66 73 67 55 68 72 69 56 70 57 71 58 72 59 73 60 75
REMARK SMILES IDX 61 76 62 77 63 79 64 80 65 81 68 82 66 83 67 84 69 85 70 86
REMARK SMILES IDX 71 87
REMARK H PARENT 31 27 18 35 20 37 33 39 35 41 37 43 40 47 7 49 4 52 44 56
REMARK H PARENT 46 58 48 61 59 74 62 78
REMARK Flexibility Score: inf
ROOT
ATOM      1  C   UNL     1      31.622  31.558  21.539  1.00  0.00     0.154 C 
ENDROOT
BRANCH   1   2
ATOM      2  C   UNL     1      31.167  32.609  20.584  1.00  0.00     0.165 C 
BRANCH   2   3
ATOM      3  C   UNL     1      30.389  32.141  19.411  1.00  0.00     0.176 C 
BRANCH   3   4
ATOM      4  C   UNL     1      30.751  32.625  18.068  1.00  0.00     0.178 C 
ATOM      5  C   UNL     1      31.321  34.459  16.759  1.00  0.00     0.272 C 
ATOM      6  C   UNL     1      31.886  33.374  15.910  1.00  0.00     0.113 C 
ATOM      7  O   UNL     1      30.835  33.999  17.997  1.00  0.00    -0.332 OA
ATOM      8  C   UNL     1      30.987  32.201  15.709  1.00  0.00     0.145 C 
ATOM      9  C   UNL     1      29.997  32.100  16.905  1.00  0.00     0.142 C 
BRANCH   5  10
ATOM     10  O   UNL     1      30.351  35.239  16.200  1.00  0.00    -0.338 OA
BRANCH  10  11
ATOM     11  C   UNL     1      29.439  35.813  17.029  1.00  0.00     0.199 C 
BRANCH  11  12
ATOM     12  C   UNL     1      28.029  35.785  16.473  1.00  0.00     0.179 C 
ATOM     13  C   UNL     1      26.744  36.592  14.704  1.00  0.00     0.282 C 
ATOM     14  O   UNL     1      27.740  36.814  15.648  1.00  0.00    -0.341 OA
ATOM     15  C   UNL     1      25.648  35.706  15.242  1.00  0.00     0.202 C 
ATOM     16  C   UNL     1      26.191  34.379  15.717  1.00  0.00     0.179 C 
ATOM     17  C   UNL     1      27.700  34.453  15.856  1.00  0.00     0.177 C 
BRANCH  13  18
ATOM     18  O   UNL     1      27.190  36.100  13.530  1.00  0.00    -0.341 OA
BRANCH  18  19
ATOM     19  C   UNL     1      27.702  36.888  12.571  1.00  0.00     0.184 C 
ATOM     20  C   UNL     1      27.204  36.686  11.166  1.00  0.00     0.178 C 
ATOM     21  O   UNL     1      27.515  37.856  10.469  1.00  0.00    -0.341 OA
ATOM     22  C   UNL     1      28.886  37.973  10.270  1.00  0.00     0.281 C 
ATOM     23  C   UNL     1      29.228  36.750  12.447  1.00  0.00     0.180 C 
ATOM     24  C   UNL     1      29.671  37.879  11.544  1.00  0.00     0.202 C 
BRANCH  20  25
ATOM     25  C   UNL     1      25.709  36.555  11.166  1.00  0.00     0.191 C 
BRANCH  25  26
ATOM     26  O   UNL     1      25.301  35.261  11.515  1.00  0.00    -0.394 OA
ATOM     27  H   UNL     1      24.948  34.871  10.655  1.00  0.00     0.210 HD
ENDBRANCH  25  26
ENDBRANCH  20  25
BRANCH  22  28
ATOM     28  O   UNL     1      29.116  39.235   9.727  1.00  0.00    -0.350 OA
BRANCH  28  29
ATOM     29  C   UNL     1      28.030  39.666   8.964  1.00  0.00     0.169 C 
BRANCH  29  30
ATOM     30  C   UNL     1      28.418  39.426   7.503  1.00  0.00     0.119 C 
BRANCH  30  31
ATOM     31  N   UNL     1      27.267  38.966   6.746  1.00  0.00    -0.092 NA
ATOM     32  N   UNL     1      26.817  37.839   7.041  1.00  0.00     0.001 N 
ATOM     33  N   UNL     1      26.161  36.896   7.466  1.00  0.00    -0.003 NA
ENDBRANCH  30  31
ENDBRANCH  29  30
ENDBRANCH  28  29
ENDBRANCH  22  28
BRANCH  23  34
ATOM     34  O   UNL     1      29.853  36.946  13.674  1.00  0.00    -0.387 OA
ATOM     35  H   UNL     1      30.337  37.826  13.575  1.00  0.00     0.211 HD
ENDBRANCH  23  34
BRANCH  24  36
ATOM     36  O   UNL     1      31.023  37.805  11.211  1.00  0.00    -0.385 OA
ATOM     37  H   UNL     1      31.464  37.177  11.855  1.00  0.00     0.211 HD
ENDBRANCH  24  36
ENDBRANCH  18  19
ENDBRANCH  13  18
BRANCH  15  38
ATOM     38  O   UNL     1      24.911  36.348  16.246  1.00  0.00    -0.385 OA
ATOM     39  H   UNL     1      25.574  36.957  16.702  1.00  0.00     0.211 HD
ENDBRANCH  15  38
BRANCH  16  40
ATOM     40  O   UNL     1      25.910  33.366  14.805  1.00  0.00    -0.387 OA
ATOM     41  H   UNL     1      25.693  33.727  13.895  1.00  0.00     0.211 HD
ENDBRANCH  16  40
BRANCH  17  42
ATOM     42  O   UNL     1      28.386  34.177  14.697  1.00  0.00    -0.387 OA
ATOM     43  H   UNL     1      29.345  33.962  14.856  1.00  0.00     0.211 HD
ENDBRANCH  17  42
ENDBRANCH  11  12
ENDBRANCH  10  11
ENDBRANCH   5  10
BRANCH   5  44
ATOM     44  C   UNL     1      32.482  35.335  17.165  1.00  0.00     0.364 C 
ATOM     45  O   UNL     1      33.253  35.701  16.259  1.00  0.00    -0.246 OA
BRANCH  44  46
ATOM     46  O   UNL     1      32.712  35.731  18.461  1.00  0.00    -0.477 OA
ATOM     47  H   UNL     1      32.246  35.249  19.250  1.00  0.00     0.296 HD
ENDBRANCH  44  46
ENDBRANCH   5  44
BRANCH   8  48
ATOM     48  O   UNL     1      30.319  32.118  14.530  1.00  0.00    -0.391 OA
ATOM     49  H   UNL     1      29.379  31.892  14.576  1.00  0.00     0.211 HD
ENDBRANCH   8  48
BRANCH   9  50
ATOM     50  N   UNL     1      29.555  30.757  16.952  1.00  0.00    -0.348 N 
ATOM     51  C   UNL     1      28.333  30.352  16.305  1.00  0.00     0.217 C 
ATOM     52  H   UNL     1      30.092  30.025  17.435  1.00  0.00     0.163 HD
ATOM     53  C   UNL     1      27.846  28.947  16.349  1.00  0.00     0.114 C 
ATOM     54  O   UNL     1      27.676  31.223  15.698  1.00  0.00    -0.275 OA
ENDBRANCH   9  50
ENDBRANCH   3   4
BRANCH   3  55
ATOM     55  O   UNL     1      29.022  32.372  19.703  1.00  0.00    -0.388 OA
ATOM     56  H   UNL     1      28.624  32.788  18.921  1.00  0.00     0.211 HD
ENDBRANCH   3  55
ENDBRANCH   2   3
BRANCH   2  57
ATOM     57  O   UNL     1      32.108  33.585  20.358  1.00  0.00    -0.388 OA
ATOM     58  H   UNL     1      31.945  34.167  19.594  1.00  0.00     0.211 HD
ENDBRANCH   2  57
ENDBRANCH   1   2
BRANCH   1  59
ATOM     59  N   UNL     1      30.632  30.524  21.664  1.00  0.00    -0.319 N 
ATOM     60  C   UNL     1      30.938  29.140  21.630  1.00  0.00     0.407 C 
ATOM     61  H   UNL     1      29.607  30.774  21.788  1.00  0.00     0.167 HD
ATOM     62  O   UNL     1      32.126  28.782  21.496  1.00  0.00    -0.225 OA
BRANCH  60  63
ATOM     63  O   UNL     1      29.999  28.135  21.734  1.00  0.00    -0.443 OA
BRANCH  63  64
ATOM     64  C   UNL     1      29.210  27.738  20.644  1.00  0.00     0.294 C 
BRANCH  64  65
ATOM     65  C   UNL     1      28.029  28.550  20.359  1.00  0.00     0.120 A 
ATOM     66  C   UNL     1      26.713  28.260  20.614  1.00  0.00     0.138 A 
ATOM     67  N   UNL     1      28.010  29.755  19.765  1.00  0.00    -0.132 NA
ATOM     68  N   UNL     1      25.943  29.283  20.174  1.00  0.00    -0.243 N 
ATOM     69  N   UNL     1      26.738  30.173  19.667  1.00  0.00    -0.067 NA
BRANCH  68  70
ATOM     70  C   UNL     1      24.492  29.375  20.281  1.00  0.00     0.245 C 
BRANCH  70  71
ATOM     71  C   UNL     1      23.896  29.147  18.948  1.00  0.00     0.241 C 
ATOM     72  O   UNL     1      22.639  28.967  18.808  1.00  0.00    -0.273 OA
ATOM     73  N   UNL     1      24.669  29.119  17.749  1.00  0.00    -0.352 N 
ATOM     74  H   UNL     1      25.692  29.260  17.809  1.00  0.00     0.163 HD
BRANCH  73  75
ATOM     75  C   UNL     1      23.992  28.891  16.486  1.00  0.00     0.151 C 
BRANCH  75  76
ATOM     76  C   UNL     1      24.052  30.084  15.583  1.00  0.00     0.168 C 
BRANCH  76  77
ATOM     77  O   UNL     1      24.877  31.080  16.074  1.00  0.00    -0.388 OA
ATOM     78  H   UNL     1      25.789  30.901  15.742  1.00  0.00     0.211 HD
ENDBRANCH  76  77
BRANCH  76  79
ATOM     79  C   UNL     1      22.630  30.599  15.415  1.00  0.00     0.239 C 
BRANCH  79  80
ATOM     80  N   UNL     1      22.550  32.016  15.624  1.00  0.00    -0.227 N 
ATOM     81  C   UNL     1      22.370  32.612  16.832  1.00  0.00     0.204 A 
ATOM     82  C   UNL     1      22.611  33.032  14.728  1.00  0.00     0.434 A 
ATOM     83  C   UNL     1      22.323  33.974  16.663  1.00  0.00     0.245 A 
ATOM     84  N   UNL     1      22.472  34.212  15.364  1.00  0.00    -0.074 NA
BRANCH  82  85
ATOM     85  N   UNL     1      22.807  32.877  13.323  1.00  0.00    -0.047 N 
ATOM     86  O   UNL     1      21.898  32.675  12.519  1.00  0.00    -0.390 OA
ATOM     87  O   UNL     1      24.104  32.951  12.832  1.00  0.00    -0.390 OA
ENDBRANCH  82  85
ENDBRANCH  79  80
ENDBRANCH  76  79
ENDBRANCH  75  76
ENDBRANCH  73  75
ENDBRANCH  70  71
ENDBRANCH  68  70
ENDBRANCH  64  65
ENDBRANCH  63  64
ENDBRANCH  60  63
ENDBRANCH   1  59
TORSDOF 37
BEGIN_RES LYS A 131
REMARK  4 active torsions:
REMARK  status: ('A' for Active; 'I' for Inactive)
REMARK    1  A    between atoms: CA   and  CB  
REMARK    2  A    between atoms: CB   and  CG  
REMARK    3  A    between atoms: CG   and  CD  
REMARK    4  A    between atoms: CD   and  CE  
ROOT
ATOM      1  CA  LYS A 131      29.867  25.555  16.977  1.00 20.52     0.186 C 
ENDROOT
BRANCH   1   2
ATOM      2  CB  LYS A 131      28.345  25.722  17.026  1.00 20.94     0.034 C 
BRANCH   2   3
ATOM      3  CG  LYS A 131      27.602  24.400  16.914  1.00 22.96     0.005 C 
BRANCH   3   4
ATOM      4  CD  LYS A 131      26.467  24.303  17.896  1.00 24.33     0.041 C 
BRANCH   4   5
ATOM      5  CE  LYS A 131      25.845  25.682  18.093  1.00 26.91     0.338 C 
ATOM      6  NZ  LYS A 131      24.711  25.608  19.044  1.00 27.40     0.618 N 
ENDBRANCH   4   5
ENDBRANCH   3   4
ENDBRANCH   2   3
ENDBRANCH   1   2
END_RES LYS A 131
BEGIN_RES LYS A 135
REMARK  4 active torsions:
REMARK  status: ('A' for Active; 'I' for Inactive)
REMARK    5  A    between atoms: CA   and  CB  
REMARK    6  A    between atoms: CB   and  CG  
REMARK    7  A    between atoms: CG   and  CD  
REMARK    8  A    between atoms: CD   and  CE  
ROOT
ATOM      7  CA  LYS A 135      33.193  34.663   9.290  1.00 25.02     0.186 C 
ENDROOT
BRANCH   7   8
ATOM      8  CB  LYS A 135      32.060  35.360  10.034  1.00 26.63     0.034 C 
BRANCH   8   9
ATOM      9  CG  LYS A 135      30.729  34.667   9.891  1.00 29.45     0.005 C 
BRANCH   9  10
ATOM     10  CD  LYS A 135      30.305  34.615   8.432  1.00 32.00     0.041 C 
BRANCH  10  11
ATOM     11  CE  LYS A 135      28.796  34.526   8.318  1.00 34.25     0.338 C 
ATOM     12  NZ  LYS A 135      28.213  33.791   9.475  1.00 35.99     0.618 N 
ENDBRANCH  10  11
ENDBRANCH   9  10
ENDBRANCH   8   9
ENDBRANCH   7   8
END_RES LYS A 135
