REMARK VINA RESULT:    -3.584      0.000      0.000
REMARK INTER + INTRA:         -22.924
REMARK INTER:                 -11.523
REMARK INTRA:                 -11.400
REMARK UNBOUND:               -13.473
REMARK SMILES CC(=O)N[C@@H]1[C@@H](O)C[C@](OC[C@H]2O[C@@H](O[C@H]3[C@H](O)[C@@H](O)[C@H](OCCN=[N+]=[N-])O[C@@H]3CO)[C@H](O)[C@@H](O)[C@H]2O)(C(=O)O)O[C@H]1C(O)[C@H](O)CNC(=O)OCc1cn(CCOC(C)=O)nn1
REMARK SMILES IDX 43 1 42 2 9 3 8 4 41 5 6 6 5 7 10 8 11 9 12 10 14 11 13 12
REMARK SMILES IDX 32 13 34 14 36 15 15 16 16 17 29 18 28 19 21 20 17 21 19 22
REMARK SMILES IDX 30 23 31 24 22 26 23 27 24 28 25 29 26 30 27 31 18 32 20 34
REMARK SMILES IDX 33 36 35 38 37 40 38 42 39 43 40 44 7 46 4 48 2 49 1 51 3 52
REMARK SMILES IDX 44 53 45 55 46 56 47 58 48 59 49 60 50 62 51 63 52 64 53 65
REMARK SMILES IDX 54 66 63 67 55 68 62 69 56 70 57 71 58 72 59 73 61 74 60 75
REMARK H PARENT 31 25 18 33 20 35 33 37 35 39 37 41 40 45 7 47 4 50 44 54
REMARK H PARENT 46 57 48 61
REMARK Flexibility Score: inf
ROOT
ATOM      1  C   UNL     1      29.320  32.767  15.200  1.00  0.00     0.176 C 
ENDROOT
BRANCH   1   2
ATOM      2  C   UNL     1      29.787  33.760  14.166  1.00  0.00     0.178 C 
ATOM      3  C   UNL     1      31.306  35.556  14.016  1.00  0.00     0.272 C 
ATOM      4  C   UNL     1      30.840  35.470  12.583  1.00  0.00     0.113 C 
ATOM      5  O   UNL     1      30.852  34.450  14.784  1.00  0.00    -0.332 OA
ATOM      6  C   UNL     1      29.361  35.389  12.451  1.00  0.00     0.145 C 
ATOM      7  C   UNL     1      28.801  34.819  13.785  1.00  0.00     0.142 C 
BRANCH   3   8
ATOM      8  O   UNL     1      30.986  36.630  14.697  1.00  0.00    -0.338 OA
BRANCH   8   9
ATOM      9  C   UNL     1      31.506  37.824  14.760  1.00  0.00     0.199 C 
BRANCH   9  10
ATOM     10  C   UNL     1      30.786  39.103  14.699  1.00  0.00     0.179 C 
ATOM     11  C   UNL     1      30.137  40.679  13.147  1.00  0.00     0.282 C 
ATOM     12  O   UNL     1      30.384  39.310  13.322  1.00  0.00    -0.341 OA
ATOM     13  C   UNL     1      29.404  41.313  14.254  1.00  0.00     0.202 C 
ATOM     14  C   UNL     1      28.864  40.429  15.323  1.00  0.00     0.179 C 
ATOM     15  C   UNL     1      29.400  39.041  15.370  1.00  0.00     0.177 C 
BRANCH  11  16
ATOM     16  O   UNL     1      29.594  40.825  11.882  1.00  0.00    -0.341 OA
BRANCH  16  17
ATOM     17  C   UNL     1      29.040  39.672  11.389  1.00  0.00     0.184 C 
ATOM     18  C   UNL     1      29.476  39.465   9.957  1.00  0.00     0.178 C 
ATOM     19  O   UNL     1      28.892  38.255   9.559  1.00  0.00    -0.341 OA
ATOM     20  C   UNL     1      27.569  38.449   9.293  1.00  0.00     0.281 C 
ATOM     21  C   UNL     1      27.521  39.692  11.466  1.00  0.00     0.180 C 
ATOM     22  C   UNL     1      26.886  39.508  10.127  1.00  0.00     0.202 C 
BRANCH  18  23
ATOM     23  C   UNL     1      30.985  39.315   9.890  1.00  0.00     0.191 C 
BRANCH  23  24
ATOM     24  O   UNL     1      31.418  38.483  10.906  1.00  0.00    -0.394 OA
ATOM     25  H   UNL     1      32.367  38.752  11.095  1.00  0.00     0.210 HD
ENDBRANCH  23  24
ENDBRANCH  18  23
BRANCH  20  26
ATOM     26  O   UNL     1      26.926  37.212   9.429  1.00  0.00    -0.350 OA
BRANCH  26  27
ATOM     27  C   UNL     1      25.585  37.296   9.075  1.00  0.00     0.169 C 
BRANCH  27  28
ATOM     28  C   UNL     1      24.910  36.087   9.732  1.00  0.00     0.119 C 
BRANCH  28  29
ATOM     29  N   UNL     1      23.804  36.572  10.539  1.00  0.00    -0.092 NA
ATOM     30  N   UNL     1      23.921  37.526  11.319  1.00  0.00     0.001 N 
ATOM     31  N   UNL     1      24.121  38.191  12.353  1.00  0.00    -0.003 NA
ENDBRANCH  28  29
ENDBRANCH  27  28
ENDBRANCH  26  27
ENDBRANCH  20  26
BRANCH  21  32
ATOM     32  O   UNL     1      27.012  38.792  12.393  1.00  0.00    -0.387 OA
ATOM     33  H   UNL     1      26.113  38.450  12.166  1.00  0.00     0.211 HD
ENDBRANCH  21  32
BRANCH  22  34
ATOM     34  O   UNL     1      26.750  40.717   9.473  1.00  0.00    -0.385 OA
ATOM     35  H   UNL     1      27.655  41.137   9.400  1.00  0.00     0.211 HD
ENDBRANCH  22  34
ENDBRANCH  16  17
ENDBRANCH  11  16
BRANCH  13  36
ATOM     36  O   UNL     1      30.128  42.402  14.810  1.00  0.00    -0.385 OA
ATOM     37  H   UNL     1      30.170  43.162  14.193  1.00  0.00     0.211 HD
ENDBRANCH  13  36
BRANCH  14  38
ATOM     38  O   UNL     1      27.464  40.344  15.265  1.00  0.00    -0.387 OA
ATOM     39  H   UNL     1      27.125  41.169  14.805  1.00  0.00     0.211 HD
ENDBRANCH  14  38
BRANCH  15  40
ATOM     40  O   UNL     1      28.566  38.251  14.532  1.00  0.00    -0.387 OA
ATOM     41  H   UNL     1      28.107  38.812  13.875  1.00  0.00     0.211 HD
ENDBRANCH  15  40
ENDBRANCH   9  10
ENDBRANCH   8   9
ENDBRANCH   3   8
BRANCH   3  42
ATOM     42  C   UNL     1      32.768  35.273  13.964  1.00  0.00     0.364 C 
ATOM     43  O   UNL     1      33.534  35.174  14.940  1.00  0.00    -0.246 OA
BRANCH  42  44
ATOM     44  O   UNL     1      33.397  35.092  12.713  1.00  0.00    -0.477 OA
ATOM     45  H   UNL     1      33.329  35.828  12.026  1.00  0.00     0.296 HD
ENDBRANCH  42  44
ENDBRANCH   3  42
BRANCH   6  46
ATOM     46  O   UNL     1      28.728  36.564  12.119  1.00  0.00    -0.391 OA
ATOM     47  H   UNL     1      28.446  37.098  12.904  1.00  0.00     0.211 HD
ENDBRANCH   6  46
BRANCH   7  48
ATOM     48  N   UNL     1      27.446  34.425  13.591  1.00  0.00    -0.348 N 
ATOM     49  C   UNL     1      26.359  35.297  13.861  1.00  0.00     0.217 C 
ATOM     50  H   UNL     1      27.240  33.484  13.219  1.00  0.00     0.163 HD
ATOM     51  C   UNL     1      24.939  34.876  13.655  1.00  0.00     0.114 C 
ATOM     52  O   UNL     1      26.542  36.477  14.289  1.00  0.00    -0.275 OA
ENDBRANCH   7  48
ENDBRANCH   1   2
BRANCH   1  53
ATOM     53  O   UNL     1      28.646  33.564  16.177  1.00  0.00    -0.388 OA
ATOM     54  H   UNL     1      29.085  34.436  16.261  1.00  0.00     0.211 HD
ENDBRANCH   1  53
BRANCH   1  55
ATOM     55  C   UNL     1      30.502  32.201  15.951  1.00  0.00     0.165 C 
BRANCH  55  56
ATOM     56  O   UNL     1      31.496  31.830  15.032  1.00  0.00    -0.388 OA
ATOM     57  H   UNL     1      31.293  30.928  14.710  1.00  0.00     0.211 HD
ENDBRANCH  55  56
BRANCH  55  58
ATOM     58  C   UNL     1      30.137  31.068  16.860  1.00  0.00     0.154 C 
BRANCH  58  59
ATOM     59  N   UNL     1      29.088  30.216  16.396  1.00  0.00    -0.319 N 
ATOM     60  C   UNL     1      27.944  29.906  17.155  1.00  0.00     0.407 C 
ATOM     61  H   UNL     1      29.120  29.765  15.430  1.00  0.00     0.167 HD
ATOM     62  O   UNL     1      27.747  30.364  18.301  1.00  0.00    -0.225 OA
BRANCH  60  63
ATOM     63  O   UNL     1      26.942  29.052  16.669  1.00  0.00    -0.443 OA
BRANCH  63  64
ATOM     64  C   UNL     1      25.580  29.357  16.763  1.00  0.00     0.294 C 
BRANCH  64  65
ATOM     65  C   UNL     1      25.079  30.048  15.543  1.00  0.00     0.120 A 
ATOM     66  C   UNL     1      23.988  29.616  14.808  1.00  0.00     0.138 A 
ATOM     67  N   UNL     1      25.515  31.145  14.932  1.00  0.00    -0.132 NA
ATOM     68  N   UNL     1      23.822  30.471  13.794  1.00  0.00    -0.249 N 
ATOM     69  N   UNL     1      24.761  31.393  13.889  1.00  0.00    -0.067 NA
BRANCH  68  70
ATOM     70  C   UNL     1      22.797  30.411  12.740  1.00  0.00     0.187 C 
BRANCH  70  71
ATOM     71  C   UNL     1      22.374  28.976  12.519  1.00  0.00     0.256 C 
BRANCH  71  72
ATOM     72  O   UNL     1      21.242  28.712  13.340  1.00  0.00    -0.464 OA
BRANCH  72  73
ATOM     73  C   UNL     1      20.007  28.422  12.768  1.00  0.00     0.302 C 
ATOM     74  O   UNL     1      19.397  27.403  13.169  1.00  0.00    -0.253 OA
ATOM     75  C   UNL     1      19.397  29.282  11.702  1.00  0.00     0.139 C 
ENDBRANCH  72  73
ENDBRANCH  71  72
ENDBRANCH  70  71
ENDBRANCH  68  70
ENDBRANCH  64  65
ENDBRANCH  63  64
ENDBRANCH  60  63
ENDBRANCH  58  59
ENDBRANCH  55  58
ENDBRANCH   1  55
TORSDOF 33
BEGIN_RES LYS A 131
REMARK  4 active torsions:
REMARK  status: ('A' for Active; 'I' for Inactive)
REMARK    1  A    between atoms: CA   and  CB  
REMARK    2  A    between atoms: CB   and  CG  
REMARK    3  A    between atoms: CG   and  CD  
REMARK    4  A    between atoms: CD   and  CE  
ROOT
ATOM      1  CA  LYS A 131      29.867  25.555  16.977  1.00 20.52     0.186 C 
ENDROOT
BRANCH   1   2
ATOM      2  CB  LYS A 131      28.345  25.722  17.026  1.00 20.94     0.034 C 
BRANCH   2   3
ATOM      3  CG  LYS A 131      27.599  24.477  16.570  1.00 22.96     0.005 C 
BRANCH   3   4
ATOM      4  CD  LYS A 131      27.008  23.716  17.724  1.00 24.33     0.041 C 
BRANCH   4   5
ATOM      5  CE  LYS A 131      25.655  24.318  18.091  1.00 26.91     0.338 C 
ATOM      6  NZ  LYS A 131      24.671  24.079  17.010  1.00 27.40     0.618 N 
ENDBRANCH   4   5
ENDBRANCH   3   4
ENDBRANCH   2   3
ENDBRANCH   1   2
END_RES LYS A 131
BEGIN_RES LYS A 135
REMARK  4 active torsions:
REMARK  status: ('A' for Active; 'I' for Inactive)
REMARK    5  A    between atoms: CA   and  CB  
REMARK    6  A    between atoms: CB   and  CG  
REMARK    7  A    between atoms: CG   and  CD  
REMARK    8  A    between atoms: CD   and  CE  
ROOT
ATOM      7  CA  LYS A 135      33.193  34.663   9.290  1.00 25.02     0.186 C 
ENDROOT
BRANCH   7   8
ATOM      8  CB  LYS A 135      32.060  35.360  10.034  1.00 26.63     0.034 C 
BRANCH   8   9
ATOM      9  CG  LYS A 135      30.804  35.510   9.215  1.00 29.45     0.005 C 
BRANCH   9  10
ATOM     10  CD  LYS A 135      30.127  34.162   9.019  1.00 32.00     0.041 C 
BRANCH  10  11
ATOM     11  CE  LYS A 135      28.667  34.348   8.652  1.00 34.25     0.338 C 
ATOM     12  NZ  LYS A 135      27.776  33.686   9.644  1.00 35.99     0.618 N 
ENDBRANCH  10  11
ENDBRANCH   9  10
ENDBRANCH   8   9
ENDBRANCH   7   8
END_RES LYS A 135
