REMARK VINA RESULT:    -3.729      3.051      5.129
REMARK INTER + INTRA:         -22.581
REMARK INTER:                 -12.091
REMARK INTRA:                 -10.490
REMARK UNBOUND:               -13.184
REMARK SMILES CC(=O)N[C@@H]1[C@@H](O)C[C@](OC[C@H]2O[C@@H](O[C@H]3[C@H](O)[C@@H](O)[C@H](OCCN=[N+]=[N-])O[C@@H]3CO)[C@H](O)[C@@H](O)[C@H]2O)(C(=O)O)O[C@H]1C(O)[C@H](O)CNC(=O)OCc1cn(-c2cc(Cl)ccc2C(=O)N(C)C)nn1
REMARK SMILES IDX 9 1 8 2 6 3 5 4 42 5 41 6 10 7 11 8 12 9 14 10 13 11 32 12
REMARK SMILES IDX 34 13 36 14 15 15 16 16 29 17 28 18 21 19 17 20 19 21 30 22
REMARK SMILES IDX 31 23 22 25 23 26 24 27 25 28 26 29 27 30 18 31 20 33 33 35
REMARK SMILES IDX 35 37 37 39 38 41 39 42 40 43 7 45 43 47 44 48 45 50 46 51
REMARK SMILES IDX 47 53 48 54 49 55 50 57 51 58 52 59 53 60 54 61 69 62 55 63
REMARK SMILES IDX 68 64 56 65 57 66 62 67 58 68 61 69 59 70 60 71 63 72 64 73
REMARK SMILES IDX 65 74 66 75 67 76 4 77 2 78 1 80 3 81
REMARK H PARENT 31 24 18 32 20 34 33 36 35 38 37 40 40 44 7 46 44 49 46 52
REMARK H PARENT 48 56 4 79
REMARK Flexibility Score: inf
ROOT
ATOM      1  C   UNL     1      29.262  33.175  15.923  1.00  0.00     0.272 C 
ATOM      2  C   UNL     1      30.304  34.151  16.321  1.00  0.00     0.113 C 
ATOM      3  C   UNL     1      29.781  35.558  16.183  1.00  0.00     0.145 C 
ATOM      4  C   UNL     1      29.401  35.738  14.733  1.00  0.00     0.142 C 
ATOM      5  C   UNL     1      28.445  34.712  14.291  1.00  0.00     0.178 C 
ATOM      6  O   UNL     1      28.395  33.516  14.934  1.00  0.00    -0.332 OA
ENDROOT
BRANCH   1   7
ATOM      7  O   UNL     1      28.497  32.772  17.006  1.00  0.00    -0.338 OA
BRANCH   7   8
ATOM      8  C   UNL     1      29.116  32.501  18.175  1.00  0.00     0.199 C 
BRANCH   8   9
ATOM      9  C   UNL     1      28.222  31.590  19.030  1.00  0.00     0.179 C 
ATOM     10  C   UNL     1      26.010  30.938  19.021  1.00  0.00     0.282 C 
ATOM     11  O   UNL     1      26.937  32.042  18.943  1.00  0.00    -0.341 OA
ATOM     12  C   UNL     1      26.492  30.044  20.141  1.00  0.00     0.202 C 
ATOM     13  C   UNL     1      27.776  29.335  19.765  1.00  0.00     0.179 C 
ATOM     14  C   UNL     1      28.509  30.178  18.737  1.00  0.00     0.177 C 
BRANCH  10  15
ATOM     15  O   UNL     1      25.989  30.398  17.807  1.00  0.00    -0.341 OA
BRANCH  15  16
ATOM     16  C   UNL     1      25.025  30.722  16.868  1.00  0.00     0.184 C 
ATOM     17  C   UNL     1      24.741  29.467  16.108  1.00  0.00     0.178 C 
ATOM     18  O   UNL     1      23.778  29.713  15.113  1.00  0.00    -0.341 OA
ATOM     19  C   UNL     1      24.566  30.397  14.123  1.00  0.00     0.281 C 
ATOM     20  C   UNL     1      25.530  31.798  15.942  1.00  0.00     0.180 C 
ATOM     21  C   UNL     1      24.828  31.771  14.618  1.00  0.00     0.202 C 
BRANCH  17  22
ATOM     22  C   UNL     1      24.255  28.365  17.025  1.00  0.00     0.191 C 
BRANCH  22  23
ATOM     23  O   UNL     1      25.352  27.710  17.544  1.00  0.00    -0.394 OA
ATOM     24  H   UNL     1      26.170  28.247  17.393  1.00  0.00     0.210 HD
ENDBRANCH  22  23
ENDBRANCH  17  22
BRANCH  19  25
ATOM     25  O   UNL     1      23.904  30.341  12.959  1.00  0.00    -0.350 OA
BRANCH  25  26
ATOM     26  C   UNL     1      22.793  29.515  12.939  1.00  0.00     0.169 C 
BRANCH  26  27
ATOM     27  C   UNL     1      21.538  30.196  12.434  1.00  0.00     0.119 C 
BRANCH  27  28
ATOM     28  N   UNL     1      20.537  29.220  12.061  1.00  0.00    -0.092 NA
ATOM     29  N   UNL     1      19.428  29.579  11.680  1.00  0.00     0.001 N 
ATOM     30  N   UNL     1      18.399  30.129  11.236  1.00  0.00    -0.003 NA
ENDBRANCH  27  28
ENDBRANCH  26  27
ENDBRANCH  25  26
ENDBRANCH  19  25
BRANCH  20  31
ATOM     31  O   UNL     1      25.332  33.075  16.481  1.00  0.00    -0.387 OA
ATOM     32  H   UNL     1      25.655  33.777  15.844  1.00  0.00     0.211 HD
ENDBRANCH  20  31
BRANCH  21  33
ATOM     33  O   UNL     1      25.597  32.469  13.690  1.00  0.00    -0.385 OA
ATOM     34  H   UNL     1      25.435  33.436  13.692  1.00  0.00     0.211 HD
ENDBRANCH  21  33
ENDBRANCH  15  16
ENDBRANCH  10  15
BRANCH  12  35
ATOM     35  O   UNL     1      26.800  30.896  21.221  1.00  0.00    -0.385 OA
ATOM     36  H   UNL     1      26.282  30.637  22.048  1.00  0.00     0.211 HD
ENDBRANCH  12  35
BRANCH  13  37
ATOM     37  O   UNL     1      27.605  28.074  19.258  1.00  0.00    -0.387 OA
ATOM     38  H   UNL     1      28.210  27.401  19.653  1.00  0.00     0.211 HD
ENDBRANCH  13  37
BRANCH  14  39
ATOM     39  O   UNL     1      28.382  29.743  17.449  1.00  0.00    -0.387 OA
ATOM     40  H   UNL     1      29.229  29.582  16.977  1.00  0.00     0.211 HD
ENDBRANCH  14  39
ENDBRANCH   8   9
ENDBRANCH   7   8
ENDBRANCH   1   7
BRANCH   1  41
ATOM     41  C   UNL     1      29.973  31.880  15.486  1.00  0.00     0.364 C 
ATOM     42  O   UNL     1      31.224  31.921  15.481  1.00  0.00    -0.246 OA
BRANCH  41  43
ATOM     43  O   UNL     1      29.315  30.748  15.121  1.00  0.00    -0.477 OA
ATOM     44  H   UNL     1      28.997  30.530  14.203  1.00  0.00     0.296 HD
ENDBRANCH  41  43
ENDBRANCH   1  41
BRANCH   3  45
ATOM     45  O   UNL     1      28.771  35.770  17.077  1.00  0.00    -0.391 OA
ATOM     46  H   UNL     1      28.870  36.486  17.713  1.00  0.00     0.211 HD
ENDBRANCH   3  45
BRANCH   5  47
ATOM     47  C   UNL     1      27.001  35.179  14.154  1.00  0.00     0.176 C 
BRANCH  47  48
ATOM     48  O   UNL     1      26.431  35.625  15.313  1.00  0.00    -0.388 OA
ATOM     49  H   UNL     1      26.917  36.367  15.762  1.00  0.00     0.211 HD
ENDBRANCH  47  48
BRANCH  47  50
ATOM     50  C   UNL     1      26.728  36.119  13.039  1.00  0.00     0.165 C 
BRANCH  50  51
ATOM     51  O   UNL     1      25.377  36.080  12.619  1.00  0.00    -0.388 OA
ATOM     52  H   UNL     1      25.156  36.863  12.061  1.00  0.00     0.211 HD
ENDBRANCH  50  51
BRANCH  50  53
ATOM     53  C   UNL     1      27.476  35.550  11.810  1.00  0.00     0.154 C 
BRANCH  53  54
ATOM     54  N   UNL     1      26.901  36.064  10.599  1.00  0.00    -0.319 N 
ATOM     55  C   UNL     1      26.667  35.232   9.486  1.00  0.00     0.407 C 
ATOM     56  H   UNL     1      26.634  37.088  10.500  1.00  0.00     0.167 HD
ATOM     57  O   UNL     1      26.933  34.009   9.527  1.00  0.00    -0.225 OA
BRANCH  55  58
ATOM     58  O   UNL     1      26.132  35.746   8.298  1.00  0.00    -0.443 OA
BRANCH  58  59
ATOM     59  C   UNL     1      25.285  36.861   8.290  1.00  0.00     0.294 C 
BRANCH  59  60
ATOM     60  C   UNL     1      24.145  36.677   9.239  1.00  0.00     0.121 A 
ATOM     61  C   UNL     1      23.124  35.719   9.070  1.00  0.00     0.144 A 
ATOM     62  N   UNL     1      23.850  37.309  10.364  1.00  0.00    -0.131 NA
ATOM     63  N   UNL     1      22.276  35.817  10.084  1.00  0.00    -0.219 N 
ATOM     64  N   UNL     1      22.751  36.802  10.859  1.00  0.00    -0.062 NA
BRANCH  63  65
ATOM     65  C   UNL     1      21.096  35.109  10.415  1.00  0.00     0.081 A 
ATOM     66  C   UNL     1      20.018  35.122   9.521  1.00  0.00     0.049 A 
ATOM     67  C   UNL     1      20.898  34.420  11.577  1.00  0.00     0.065 A 
ATOM     68  C   UNL     1      18.853  34.488   9.804  1.00  0.00     0.043 A 
ATOM     69  C   UNL     1      19.689  33.763  11.872  1.00  0.00     0.017 A 
ATOM     70  Cl  UNL     1      17.538  34.544   8.638  1.00  0.00    -0.084 Cl
ATOM     71  C   UNL     1      18.654  33.800  10.970  1.00  0.00     0.021 A 
BRANCH  67  72
ATOM     72  C   UNL     1      21.958  34.281  12.579  1.00  0.00     0.255 C 
ATOM     73  O   UNL     1      22.863  33.445  12.379  1.00  0.00    -0.269 OA
ATOM     74  N   UNL     1      21.949  35.071  13.732  1.00  0.00    -0.345 N 
ATOM     75  C   UNL     1      20.883  36.044  13.953  1.00  0.00     0.146 C 
ATOM     76  C   UNL     1      22.999  34.959  14.741  1.00  0.00     0.146 C 
ENDBRANCH  67  72
ENDBRANCH  63  65
ENDBRANCH  59  60
ENDBRANCH  58  59
ENDBRANCH  55  58
ENDBRANCH  53  54
ENDBRANCH  50  53
ENDBRANCH  47  50
ENDBRANCH   5  47
BRANCH   4  77
ATOM     77  N   UNL     1      30.655  35.724  13.975  1.00  0.00    -0.348 N 
ATOM     78  C   UNL     1      30.969  36.702  13.008  1.00  0.00     0.217 C 
ATOM     79  H   UNL     1      31.348  34.969  14.143  1.00  0.00     0.163 HD
ATOM     80  C   UNL     1      32.235  36.693  12.237  1.00  0.00     0.114 C 
ATOM     81  O   UNL     1      30.139  37.625  12.790  1.00  0.00    -0.275 OA
ENDBRANCH   4  77
TORSDOF 31
BEGIN_RES LYS A 131
REMARK  4 active torsions:
REMARK  status: ('A' for Active; 'I' for Inactive)
REMARK    1  A    between atoms: CA   and  CB  
REMARK    2  A    between atoms: CB   and  CG  
REMARK    3  A    between atoms: CG   and  CD  
REMARK    4  A    between atoms: CD   and  CE  
ROOT
ATOM      1  CA  LYS A 131      29.867  25.555  16.977  1.00 20.52     0.186 C 
ENDROOT
BRANCH   1   2
ATOM      2  CB  LYS A 131      28.345  25.722  17.026  1.00 20.94     0.034 C 
BRANCH   2   3
ATOM      3  CG  LYS A 131      27.601  24.403  16.881  1.00 22.96     0.005 C 
BRANCH   3   4
ATOM      4  CD  LYS A 131      26.408  24.323  17.793  1.00 24.33     0.041 C 
BRANCH   4   5
ATOM      5  CE  LYS A 131      25.670  23.010  17.551  1.00 26.91     0.338 C 
ATOM      6  NZ  LYS A 131      24.265  23.269  17.156  1.00 27.40     0.618 N 
ENDBRANCH   4   5
ENDBRANCH   3   4
ENDBRANCH   2   3
ENDBRANCH   1   2
END_RES LYS A 131
BEGIN_RES LYS A 135
REMARK  4 active torsions:
REMARK  status: ('A' for Active; 'I' for Inactive)
REMARK    5  A    between atoms: CA   and  CB  
REMARK    6  A    between atoms: CB   and  CG  
REMARK    7  A    between atoms: CG   and  CD  
REMARK    8  A    between atoms: CD   and  CE  
ROOT
ATOM      7  CA  LYS A 135      33.193  34.663   9.290  1.00 25.02     0.186 C 
ENDROOT
BRANCH   7   8
ATOM      8  CB  LYS A 135      32.060  35.360  10.034  1.00 26.63     0.034 C 
BRANCH   8   9
ATOM      9  CG  LYS A 135      30.727  35.251   9.340  1.00 29.45     0.005 C 
BRANCH   9  10
ATOM     10  CD  LYS A 135      30.147  36.631   9.072  1.00 32.00     0.041 C 
BRANCH  10  11
ATOM     11  CE  LYS A 135      29.467  36.669   7.717  1.00 34.25     0.338 C 
ATOM     12  NZ  LYS A 135      29.327  35.300   7.149  1.00 35.99     0.618 N 
ENDBRANCH  10  11
ENDBRANCH   9  10
ENDBRANCH   8   9
ENDBRANCH   7   8
END_RES LYS A 135
