REMARK VINA RESULT:    -4.604      4.088      9.142
REMARK INTER + INTRA:         -23.048
REMARK INTER:                 -13.246
REMARK INTRA:                  -9.802
REMARK UNBOUND:               -11.447
REMARK SMILES CC(=O)N[C@@H]1[C@@H](O)C[C@](OC[C@H]2O[C@@H](O[C@H]3[C@H](O)[C@@H](O)[C@H](OCCN=[N+]=[N-])O[C@@H]3CO)[C@H](O)[C@@H](O)[C@H]2O)(C(=O)O)O[C@H]1C(O)[C@H](O)CNC(=O)OCc1cn(-c2ccccc2C(C)C)nn1
REMARK SMILES IDX 9 1 8 2 6 3 5 4 42 5 41 6 10 7 11 8 12 9 14 10 13 11 32 12
REMARK SMILES IDX 34 13 36 14 15 15 16 16 29 17 28 18 21 19 17 20 19 21 30 22
REMARK SMILES IDX 31 23 22 25 23 26 24 27 25 28 26 29 27 30 18 31 20 33 33 35
REMARK SMILES IDX 35 37 37 39 38 41 39 42 40 43 7 45 43 47 44 48 45 50 46 51
REMARK SMILES IDX 47 53 48 54 49 55 50 57 51 58 52 59 53 60 54 61 66 62 55 63
REMARK SMILES IDX 65 64 56 65 61 66 57 67 60 68 58 69 59 70 62 71 63 72 64 73
REMARK SMILES IDX 4 74 2 75 1 77 3 78
REMARK H PARENT 31 24 18 32 20 34 33 36 35 38 37 40 40 44 7 46 44 49 46 52
REMARK H PARENT 48 56 4 76
REMARK Flexibility Score: inf
ROOT
ATOM      1  C   UNL     1      26.461  34.838  13.926  1.00  0.00     0.272 C 
ATOM      2  C   UNL     1      26.251  33.953  12.719  1.00  0.00     0.113 C 
ATOM      3  C   UNL     1      24.977  34.416  12.029  1.00  0.00     0.145 C 
ATOM      4  C   UNL     1      23.810  34.058  12.966  1.00  0.00     0.142 C 
ATOM      5  C   UNL     1      24.147  34.578  14.312  1.00  0.00     0.178 C 
ATOM      6  O   UNL     1      25.212  35.462  14.219  1.00  0.00    -0.332 OA
ENDROOT
BRANCH   1   7
ATOM      7  O   UNL     1      27.276  35.877  13.666  1.00  0.00    -0.338 OA
BRANCH   7   8
ATOM      8  C   UNL     1      28.340  35.980  12.947  1.00  0.00     0.199 C 
BRANCH   8   9
ATOM      9  C   UNL     1      29.718  36.183  13.488  1.00  0.00     0.179 C 
ATOM     10  C   UNL     1      31.100  35.779  15.247  1.00  0.00     0.282 C 
ATOM     11  O   UNL     1      29.834  35.895  14.825  1.00  0.00    -0.341 OA
ATOM     12  C   UNL     1      32.176  36.349  14.334  1.00  0.00     0.202 C 
ATOM     13  C   UNL     1      32.072  35.795  12.938  1.00  0.00     0.179 C 
ATOM     14  C   UNL     1      30.691  35.242  12.740  1.00  0.00     0.177 C 
BRANCH  10  15
ATOM     15  O   UNL     1      31.526  34.560  15.678  1.00  0.00    -0.341 OA
BRANCH  15  16
ATOM     16  C   UNL     1      30.785  33.875  16.609  1.00  0.00     0.184 C 
ATOM     17  C   UNL     1      31.024  34.323  18.013  1.00  0.00     0.178 C 
ATOM     18  O   UNL     1      31.454  33.342  18.835  1.00  0.00    -0.341 OA
ATOM     19  C   UNL     1      30.745  32.188  18.956  1.00  0.00     0.281 C 
ATOM     20  C   UNL     1      30.819  32.406  16.493  1.00  0.00     0.180 C 
ATOM     21  C   UNL     1      30.029  31.825  17.654  1.00  0.00     0.202 C 
BRANCH  17  22
ATOM     22  C   UNL     1      29.794  34.981  18.660  1.00  0.00     0.191 C 
BRANCH  22  23
ATOM     23  O   UNL     1      28.953  35.412  17.609  1.00  0.00    -0.394 OA
ATOM     24  H   UNL     1      29.461  36.146  17.139  1.00  0.00     0.210 HD
ENDBRANCH  22  23
ENDBRANCH  17  22
BRANCH  19  25
ATOM     25  O   UNL     1      29.795  32.301  19.935  1.00  0.00    -0.350 OA
BRANCH  25  26
ATOM     26  C   UNL     1      29.838  31.434  20.980  1.00  0.00     0.169 C 
BRANCH  26  27
ATOM     27  C   UNL     1      29.035  30.189  20.897  1.00  0.00     0.119 C 
BRANCH  27  28
ATOM     28  N   UNL     1      29.833  29.056  20.571  1.00  0.00    -0.092 NA
ATOM     29  N   UNL     1      31.045  28.997  20.528  1.00  0.00     0.001 N 
ATOM     30  N   UNL     1      32.260  29.063  20.677  1.00  0.00    -0.003 NA
ENDBRANCH  27  28
ENDBRANCH  26  27
ENDBRANCH  25  26
ENDBRANCH  19  25
BRANCH  20  31
ATOM     31  O   UNL     1      30.228  31.903  15.335  1.00  0.00    -0.387 OA
ATOM     32  H   UNL     1      29.321  32.275  15.268  1.00  0.00     0.211 HD
ENDBRANCH  20  31
BRANCH  21  33
ATOM     33  O   UNL     1      29.979  30.432  17.567  1.00  0.00    -0.385 OA
ATOM     34  H   UNL     1      29.627  30.213  16.668  1.00  0.00     0.211 HD
ENDBRANCH  21  33
ENDBRANCH  15  16
ENDBRANCH  10  15
BRANCH  12  35
ATOM     35  O   UNL     1      32.047  37.727  14.332  1.00  0.00    -0.385 OA
ATOM     36  H   UNL     1      31.580  38.024  13.489  1.00  0.00     0.211 HD
ENDBRANCH  12  35
BRANCH  13  37
ATOM     37  O   UNL     1      33.050  34.805  12.763  1.00  0.00    -0.387 OA
ATOM     38  H   UNL     1      33.653  35.132  12.050  1.00  0.00     0.211 HD
ENDBRANCH  13  37
BRANCH  14  39
ATOM     39  O   UNL     1      30.593  34.001  13.334  1.00  0.00    -0.387 OA
ATOM     40  H   UNL     1      29.891  33.490  12.859  1.00  0.00     0.211 HD
ENDBRANCH  14  39
ENDBRANCH   8   9
ENDBRANCH   7   8
ENDBRANCH   1   7
BRANCH   1  41
ATOM     41  C   UNL     1      26.863  34.065  15.107  1.00  0.00     0.364 C 
ATOM     42  O   UNL     1      26.747  34.656  16.240  1.00  0.00    -0.246 OA
BRANCH  41  43
ATOM     43  O   UNL     1      27.354  32.788  15.171  1.00  0.00    -0.477 OA
ATOM     44  H   UNL     1      28.218  32.496  15.589  1.00  0.00     0.296 HD
ENDBRANCH  41  43
ENDBRANCH   1  41
BRANCH   3  45
ATOM     45  O   UNL     1      24.961  35.813  11.956  1.00  0.00    -0.391 OA
ATOM     46  H   UNL     1      25.902  36.111  11.885  1.00  0.00     0.211 HD
ENDBRANCH   3  45
BRANCH   5  47
ATOM     47  C   UNL     1      23.078  35.327  15.050  1.00  0.00     0.176 C 
BRANCH  47  48
ATOM     48  O   UNL     1      21.862  34.796  14.493  1.00  0.00    -0.388 OA
ATOM     49  H   UNL     1      22.183  33.915  14.119  1.00  0.00     0.211 HD
ENDBRANCH  47  48
BRANCH  47  50
ATOM     50  C   UNL     1      23.004  36.802  14.818  1.00  0.00     0.165 C 
BRANCH  50  51
ATOM     51  O   UNL     1      23.322  37.559  15.914  1.00  0.00    -0.388 OA
ATOM     52  H   UNL     1      22.888  38.442  15.787  1.00  0.00     0.211 HD
ENDBRANCH  50  51
BRANCH  50  53
ATOM     53  C   UNL     1      21.850  37.225  13.990  1.00  0.00     0.154 C 
BRANCH  53  54
ATOM     54  N   UNL     1      22.089  37.262  12.560  1.00  0.00    -0.319 N 
ATOM     55  C   UNL     1      21.301  36.508  11.657  1.00  0.00     0.407 C 
ATOM     56  H   UNL     1      22.845  37.842  12.136  1.00  0.00     0.167 HD
ATOM     57  O   UNL     1      20.360  35.762  12.010  1.00  0.00    -0.225 OA
BRANCH  55  58
ATOM     58  O   UNL     1      21.510  36.533  10.257  1.00  0.00    -0.443 OA
BRANCH  58  59
ATOM     59  C   UNL     1      21.947  37.704   9.638  1.00  0.00     0.294 C 
BRANCH  59  60
ATOM     60  C   UNL     1      23.419  37.609   9.427  1.00  0.00     0.121 A 
ATOM     61  C   UNL     1      24.140  37.127   8.358  1.00  0.00     0.144 A 
ATOM     62  N   UNL     1      24.380  38.013  10.317  1.00  0.00    -0.131 NA
ATOM     63  N   UNL     1      25.461  37.230   8.579  1.00  0.00    -0.220 N 
ATOM     64  N   UNL     1      25.567  37.780   9.797  1.00  0.00    -0.062 NA
BRANCH  63  65
ATOM     65  C   UNL     1      26.553  36.862   7.743  1.00  0.00     0.070 A 
ATOM     66  C   UNL     1      27.178  37.828   6.985  1.00  0.00    -0.020 A 
ATOM     67  C   UNL     1      27.024  35.573   7.636  1.00  0.00     0.029 A 
ATOM     68  C   UNL     1      28.232  37.510   6.152  1.00  0.00     0.006 A 
ATOM     69  C   UNL     1      28.079  35.238   6.807  1.00  0.00     0.002 A 
ATOM     70  C   UNL     1      28.692  36.218   6.054  1.00  0.00     0.000 A 
BRANCH  66  71
ATOM     71  C   UNL     1      26.710  39.226   7.078  1.00  0.00     0.015 C 
ATOM     72  C   UNL     1      26.711  39.818   5.677  1.00  0.00     0.012 C 
ATOM     73  C   UNL     1      27.700  40.038   7.929  1.00  0.00     0.012 C 
ENDBRANCH  66  71
ENDBRANCH  63  65
ENDBRANCH  59  60
ENDBRANCH  58  59
ENDBRANCH  55  58
ENDBRANCH  53  54
ENDBRANCH  50  53
ENDBRANCH  47  50
ENDBRANCH   5  47
BRANCH   4  74
ATOM     74  N   UNL     1      23.671  32.620  12.933  1.00  0.00    -0.348 N 
ATOM     75  C   UNL     1      22.469  31.928  12.715  1.00  0.00     0.217 C 
ATOM     76  H   UNL     1      24.546  32.037  13.093  1.00  0.00     0.163 HD
ATOM     77  C   UNL     1      22.490  30.427  12.715  1.00  0.00     0.114 C 
ATOM     78  O   UNL     1      21.409  32.539  12.525  1.00  0.00    -0.275 OA
ENDBRANCH   4  74
TORSDOF 31
BEGIN_RES LYS A 131
REMARK  4 active torsions:
REMARK  status: ('A' for Active; 'I' for Inactive)
REMARK    1  A    between atoms: CA   and  CB  
REMARK    2  A    between atoms: CB   and  CG  
REMARK    3  A    between atoms: CG   and  CD  
REMARK    4  A    between atoms: CD   and  CE  
ROOT
ATOM      1  CA  LYS A 131      29.867  25.555  16.977  1.00 20.52     0.186 C 
ENDROOT
BRANCH   1   2
ATOM      2  CB  LYS A 131      28.345  25.722  17.026  1.00 20.94     0.034 C 
BRANCH   2   3
ATOM      3  CG  LYS A 131      27.601  24.401  16.901  1.00 22.96     0.005 C 
BRANCH   3   4
ATOM      4  CD  LYS A 131      26.155  24.526  17.291  1.00 24.33     0.041 C 
BRANCH   4   5
ATOM      5  CE  LYS A 131      26.057  24.948  18.754  1.00 26.91     0.338 C 
ATOM      6  NZ  LYS A 131      25.328  26.232  18.877  1.00 27.40     0.618 N 
ENDBRANCH   4   5
ENDBRANCH   3   4
ENDBRANCH   2   3
ENDBRANCH   1   2
END_RES LYS A 131
BEGIN_RES LYS A 135
REMARK  4 active torsions:
REMARK  status: ('A' for Active; 'I' for Inactive)
REMARK    5  A    between atoms: CA   and  CB  
REMARK    6  A    between atoms: CB   and  CG  
REMARK    7  A    between atoms: CG   and  CD  
REMARK    8  A    between atoms: CD   and  CE  
ROOT
ATOM      7  CA  LYS A 135      33.193  34.663   9.290  1.00 25.02     0.186 C 
ENDROOT
BRANCH   7   8
ATOM      8  CB  LYS A 135      32.060  35.360  10.034  1.00 26.63     0.034 C 
BRANCH   8   9
ATOM      9  CG  LYS A 135      30.783  35.451   9.239  1.00 29.45     0.005 C 
BRANCH   9  10
ATOM     10  CD  LYS A 135      30.104  36.792   9.466  1.00 32.00     0.041 C 
BRANCH  10  11
ATOM     11  CE  LYS A 135      31.129  37.909   9.504  1.00 34.25     0.338 C 
ATOM     12  NZ  LYS A 135      31.083  38.724   8.259  1.00 35.99     0.618 N 
ENDBRANCH  10  11
ENDBRANCH   9  10
ENDBRANCH   8   9
ENDBRANCH   7   8
END_RES LYS A 135
