REMARK VINA RESULT:    -3.989      3.124      8.425
REMARK INTER + INTRA:         -21.178
REMARK INTER:                 -10.751
REMARK INTRA:                 -10.427
REMARK UNBOUND:               -10.427
REMARK SMILES CCN(CC)CCn1cc(COC(=O)NC[C@@H](O)C(O)[C@@H]2O[C@@](OC[C@H]3O[C@@H](O[C@H]4[C@H](O)[C@@H](O)[C@H](OCCN=[N+]=[N-])O[C@@H]4CO)[C@H](O)[C@@H](O)[C@H]3O)(C(=O)O)C[C@H](O)[C@H]2NC(C)=O)nn1
REMARK SMILES IDX 19 1 21 2 23 3 55 4 22 5 56 6 58 7 24 8 25 9 26 10 28 11
REMARK SMILES IDX 27 12 46 13 48 14 50 15 29 16 30 17 43 18 42 19 35 20 31 21
REMARK SMILES IDX 33 22 44 23 45 24 36 26 37 27 38 28 39 29 40 30 41 31 32 32
REMARK SMILES IDX 34 34 47 36 49 38 51 40 52 42 53 43 54 44 57 46 59 48 60 49
REMARK SMILES IDX 61 51 62 52 20 53 17 55 18 56 16 58 15 59 13 60 14 62 12 63
REMARK SMILES IDX 11 64 10 65 9 66 63 67 8 68 64 69 7 70 6 71 3 72 2 73 1 74
REMARK SMILES IDX 4 75 5 76
REMARK H PARENT 45 25 32 33 34 35 47 37 49 39 51 41 54 45 57 47 59 50 20 54
REMARK H PARENT 18 57 15 61
REMARK Flexibility Score: inf
ROOT
ATOM      1  C   UNL     1      31.734  37.857  15.920  1.00  0.00     0.176 C 
ENDROOT
BRANCH   1   2
ATOM      2  C   UNL     1      31.871  37.429  14.483  1.00  0.00     0.178 C 
ATOM      3  C   UNL     1      31.094  37.803  12.349  1.00  0.00     0.272 C 
ATOM      4  C   UNL     1      32.265  36.842  12.089  1.00  0.00     0.113 C 
ATOM      5  O   UNL     1      31.052  38.178  13.673  1.00  0.00    -0.332 OA
ATOM      6  C   UNL     1      32.226  35.611  12.935  1.00  0.00     0.145 C 
ATOM      7  C   UNL     1      31.514  35.977  14.246  1.00  0.00     0.142 C 
BRANCH   3   8
ATOM      8  O   UNL     1      29.962  37.171  11.894  1.00  0.00    -0.338 OA
BRANCH   8   9
ATOM      9  C   UNL     1      28.789  37.877  12.001  1.00  0.00     0.199 C 
BRANCH   9  10
ATOM     10  C   UNL     1      27.909  37.325  13.136  1.00  0.00     0.179 C 
ATOM     11  C   UNL     1      25.641  36.699  13.163  1.00  0.00     0.282 C 
ATOM     12  O   UNL     1      26.633  37.594  12.790  1.00  0.00    -0.341 OA
ATOM     13  C   UNL     1      25.998  35.930  14.371  1.00  0.00     0.202 C 
ATOM     14  C   UNL     1      27.309  35.200  14.270  1.00  0.00     0.179 C 
ATOM     15  C   UNL     1      28.171  35.852  13.210  1.00  0.00     0.177 C 
BRANCH  11  16
ATOM     16  O   UNL     1      25.346  35.995  12.004  1.00  0.00    -0.341 OA
BRANCH  16  17
ATOM     17  C   UNL     1      24.679  36.700  11.065  1.00  0.00     0.184 C 
ATOM     18  C   UNL     1      23.580  35.909  10.405  1.00  0.00     0.178 C 
ATOM     19  O   UNL     1      22.883  36.786   9.524  1.00  0.00    -0.341 OA
ATOM     20  C   UNL     1      23.615  36.890   8.361  1.00  0.00     0.281 C 
ATOM     21  C   UNL     1      25.574  37.218   9.945  1.00  0.00     0.180 C 
ATOM     22  C   UNL     1      25.065  36.876   8.581  1.00  0.00     0.202 C 
BRANCH  18  23
ATOM     23  C   UNL     1      22.645  35.205  11.320  1.00  0.00     0.191 C 
BRANCH  23  24
ATOM     24  O   UNL     1      22.318  36.075  12.353  1.00  0.00    -0.394 OA
ATOM     25  H   UNL     1      23.093  36.348  12.904  1.00  0.00     0.210 HD
ENDBRANCH  23  24
ENDBRANCH  18  23
BRANCH  20  26
ATOM     26  O   UNL     1      23.158  37.925   7.550  1.00  0.00    -0.350 OA
BRANCH  26  27
ATOM     27  C   UNL     1      22.783  39.054   8.215  1.00  0.00     0.169 C 
BRANCH  27  28
ATOM     28  C   UNL     1      23.143  40.326   7.471  1.00  0.00     0.119 C 
BRANCH  28  29
ATOM     29  N   UNL     1      24.366  40.163   6.711  1.00  0.00    -0.092 NA
ATOM     30  N   UNL     1      25.487  40.162   7.236  1.00  0.00     0.001 N 
ATOM     31  N   UNL     1      26.548  40.616   7.668  1.00  0.00    -0.003 NA
ENDBRANCH  28  29
ENDBRANCH  27  28
ENDBRANCH  26  27
ENDBRANCH  20  26
BRANCH  21  32
ATOM     32  O   UNL     1      25.672  38.591  10.066  1.00  0.00    -0.387 OA
ATOM     33  H   UNL     1      25.860  39.058   9.227  1.00  0.00     0.211 HD
ENDBRANCH  21  32
BRANCH  22  34
ATOM     34  O   UNL     1      25.596  35.640   8.133  1.00  0.00    -0.385 OA
ATOM     35  H   UNL     1      26.562  35.665   8.357  1.00  0.00     0.211 HD
ENDBRANCH  22  34
ENDBRANCH  16  17
ENDBRANCH  11  16
BRANCH  13  36
ATOM     36  O   UNL     1      26.129  36.844  15.457  1.00  0.00    -0.385 OA
ATOM     37  H   UNL     1      26.518  37.686  15.160  1.00  0.00     0.211 HD
ENDBRANCH  13  36
BRANCH  14  38
ATOM     38  O   UNL     1      27.183  33.836  14.064  1.00  0.00    -0.387 OA
ATOM     39  H   UNL     1      28.025  33.357  14.120  1.00  0.00     0.211 HD
ENDBRANCH  14  38
BRANCH  15  40
ATOM     40  O   UNL     1      27.847  35.279  11.987  1.00  0.00    -0.387 OA
ATOM     41  H   UNL     1      26.940  35.582  11.694  1.00  0.00     0.211 HD
ENDBRANCH  15  40
ENDBRANCH   9  10
ENDBRANCH   8   9
ENDBRANCH   3   8
BRANCH   3  42
ATOM     42  C   UNL     1      31.409  38.994  11.520  1.00  0.00     0.364 C 
ATOM     43  O   UNL     1      31.433  40.161  12.041  1.00  0.00    -0.246 OA
BRANCH  42  44
ATOM     44  O   UNL     1      31.690  38.956  10.169  1.00  0.00    -0.477 OA
ATOM     45  H   UNL     1      32.652  39.005   9.851  1.00  0.00     0.296 HD
ENDBRANCH  42  44
ENDBRANCH   3  42
BRANCH   6  46
ATOM     46  O   UNL     1      31.696  34.499  12.329  1.00  0.00    -0.391 OA
ATOM     47  H   UNL     1      31.601  33.800  13.026  1.00  0.00     0.211 HD
ENDBRANCH   6  46
BRANCH   7  48
ATOM     48  N   UNL     1      31.871  35.093  15.303  1.00  0.00    -0.348 N 
ATOM     49  C   UNL     1      31.120  33.871  15.452  1.00  0.00     0.217 C 
ATOM     50  H   UNL     1      32.635  35.241  15.986  1.00  0.00     0.163 HD
ATOM     51  C   UNL     1      31.435  32.903  16.532  1.00  0.00     0.114 C 
ATOM     52  O   UNL     1      30.171  33.585  14.674  1.00  0.00    -0.275 OA
ENDBRANCH   7  48
ENDBRANCH   1   2
BRANCH   1  53
ATOM     53  O   UNL     1      32.776  38.726  16.218  1.00  0.00    -0.388 OA
ATOM     54  H   UNL     1      33.339  38.860  15.392  1.00  0.00     0.211 HD
ENDBRANCH   1  53
BRANCH   1  55
ATOM     55  C   UNL     1      30.428  38.601  16.029  1.00  0.00     0.165 C 
BRANCH  55  56
ATOM     56  O   UNL     1      30.676  39.977  15.950  1.00  0.00    -0.388 OA
ATOM     57  H   UNL     1      31.399  40.193  16.588  1.00  0.00     0.211 HD
ENDBRANCH  55  56
BRANCH  55  58
ATOM     58  C   UNL     1      29.623  38.310  17.241  1.00  0.00     0.154 C 
BRANCH  58  59
ATOM     59  N   UNL     1      28.645  37.291  17.067  1.00  0.00    -0.319 N 
ATOM     60  C   UNL     1      28.877  35.991  17.631  1.00  0.00     0.407 C 
ATOM     61  H   UNL     1      27.784  37.453  16.545  1.00  0.00     0.167 HD
ATOM     62  O   UNL     1      29.923  35.742  18.263  1.00  0.00    -0.225 OA
BRANCH  60  63
ATOM     63  O   UNL     1      27.909  35.016  17.453  1.00  0.00    -0.443 OA
BRANCH  63  64
ATOM     64  C   UNL     1      28.139  33.715  18.018  1.00  0.00     0.294 C 
BRANCH  64  65
ATOM     65  C   UNL     1      27.451  32.735  17.167  1.00  0.00     0.120 A 
ATOM     66  C   UNL     1      26.063  32.568  17.143  1.00  0.00     0.138 A 
ATOM     67  N   UNL     1      27.925  31.849  16.294  1.00  0.00    -0.132 NA
ATOM     68  N   UNL     1      25.761  31.598  16.262  1.00  0.00    -0.251 N 
ATOM     69  N   UNL     1      26.896  31.182  15.766  1.00  0.00    -0.067 NA
BRANCH  68  70
ATOM     70  C   UNL     1      24.444  31.097  15.918  1.00  0.00     0.161 C 
BRANCH  70  71
ATOM     71  C   UNL     1      24.589  29.636  15.549  1.00  0.00     0.108 C 
BRANCH  71  72
ATOM     72  N   UNL     1      23.847  29.267  14.378  1.00  0.00    -0.302 NA
BRANCH  72  73
ATOM     73  C   UNL     1      24.041  30.193  13.295  1.00  0.00     0.081 C 
ATOM     74  C   UNL     1      22.688  30.473  12.652  1.00  0.00     0.021 C 
ENDBRANCH  72  73
BRANCH  72  75
ATOM     75  C   UNL     1      22.471  28.986  14.647  1.00  0.00     0.081 C 
ATOM     76  C   UNL     1      22.286  27.548  15.088  1.00  0.00     0.021 C 
ENDBRANCH  72  75
ENDBRANCH  71  72
ENDBRANCH  70  71
ENDBRANCH  68  70
ENDBRANCH  64  65
ENDBRANCH  63  64
ENDBRANCH  60  63
ENDBRANCH  58  59
ENDBRANCH  55  58
ENDBRANCH   1  55
TORSDOF 34
BEGIN_RES LYS A 131
REMARK  4 active torsions:
REMARK  status: ('A' for Active; 'I' for Inactive)
REMARK    1  A    between atoms: CA   and  CB  
REMARK    2  A    between atoms: CB   and  CG  
REMARK    3  A    between atoms: CG   and  CD  
REMARK    4  A    between atoms: CD   and  CE  
ROOT
ATOM      1  CA  LYS A 131      29.867  25.555  16.977  1.00 20.52     0.186 C 
ENDROOT
BRANCH   1   2
ATOM      2  CB  LYS A 131      28.345  25.722  17.026  1.00 20.94     0.034 C 
BRANCH   2   3
ATOM      3  CG  LYS A 131      27.602  24.400  16.911  1.00 22.96     0.005 C 
BRANCH   3   4
ATOM      4  CD  LYS A 131      26.616  24.206  18.030  1.00 24.33     0.041 C 
BRANCH   4   5
ATOM      5  CE  LYS A 131      26.016  25.553  18.419  1.00 26.91     0.338 C 
ATOM      6  NZ  LYS A 131      24.751  25.790  17.684  1.00 27.40     0.618 N 
ENDBRANCH   4   5
ENDBRANCH   3   4
ENDBRANCH   2   3
ENDBRANCH   1   2
END_RES LYS A 131
BEGIN_RES LYS A 135
REMARK  4 active torsions:
REMARK  status: ('A' for Active; 'I' for Inactive)
REMARK    5  A    between atoms: CA   and  CB  
REMARK    6  A    between atoms: CB   and  CG  
REMARK    7  A    between atoms: CG   and  CD  
REMARK    8  A    between atoms: CD   and  CE  
ROOT
ATOM      7  CA  LYS A 135      33.193  34.663   9.290  1.00 25.02     0.186 C 
ENDROOT
BRANCH   7   8
ATOM      8  CB  LYS A 135      32.060  35.360  10.034  1.00 26.63     0.034 C 
BRANCH   8   9
ATOM      9  CG  LYS A 135      30.833  35.585   9.189  1.00 29.45     0.005 C 
BRANCH   9  10
ATOM     10  CD  LYS A 135      29.871  34.414   9.317  1.00 32.00     0.041 C 
BRANCH  10  11
ATOM     11  CE  LYS A 135      28.829  34.458   8.216  1.00 34.25     0.338 C 
ATOM     12  NZ  LYS A 135      28.974  35.688   7.389  1.00 35.99     0.618 N 
ENDBRANCH  10  11
ENDBRANCH   9  10
ENDBRANCH   8   9
ENDBRANCH   7   8
END_RES LYS A 135
