REMARK VINA RESULT:    -4.794      5.996     12.864
REMARK INTER + INTRA:         -21.810
REMARK INTER:                 -12.081
REMARK INTRA:                  -9.729
REMARK UNBOUND:                -9.729
REMARK SMILES CC(=O)N[C@@H]1[C@@H](O)C[C@](OC[C@H]2O[C@@H](O[C@H]3[C@H](O)[C@@H](O)[C@H](OCCN=[N+]=[N-])O[C@@H]3CO)[C@H](O)[C@@H](O)[C@H]2O)(C(=O)O)O[C@H]1C(O)[C@H](O)CNC(=O)OCc1cn(-c2ncccc2C#N)nn1
REMARK SMILES IDX 9 1 8 2 6 3 5 4 42 5 41 6 10 7 11 8 12 9 14 10 13 11 32 12
REMARK SMILES IDX 34 13 36 14 15 15 16 16 29 17 28 18 21 19 17 20 19 21 30 22
REMARK SMILES IDX 31 23 22 25 23 26 24 27 25 28 26 29 27 30 18 31 20 33 33 35
REMARK SMILES IDX 35 37 37 39 38 41 39 42 40 43 7 45 43 47 44 48 45 50 46 51
REMARK SMILES IDX 47 53 48 54 49 55 50 57 51 58 52 59 53 60 54 61 65 62 55 63
REMARK SMILES IDX 64 64 56 65 57 66 61 67 58 68 60 69 59 70 62 71 63 72 4 73
REMARK SMILES IDX 2 74 1 76 3 77
REMARK H PARENT 31 24 18 32 20 34 33 36 35 38 37 40 40 44 7 46 44 49 46 52
REMARK H PARENT 48 56 4 75
REMARK Flexibility Score: inf
ROOT
ATOM      1  C   UNL     1      27.715  38.763   7.081  1.00  0.00     0.272 C 
ATOM      2  C   UNL     1      28.713  37.825   7.615  1.00  0.00     0.113 C 
ATOM      3  C   UNL     1      30.110  38.259   7.401  1.00  0.00     0.145 C 
ATOM      4  C   UNL     1      30.352  39.730   7.334  1.00  0.00     0.142 C 
ATOM      5  C   UNL     1      29.162  40.614   7.580  1.00  0.00     0.178 C 
ATOM      6  O   UNL     1      27.997  40.097   7.263  1.00  0.00    -0.332 OA
ENDROOT
BRANCH   1   7
ATOM      7  O   UNL     1      26.423  38.658   7.404  1.00  0.00    -0.338 OA
BRANCH   7   8
ATOM      8  C   UNL     1      25.743  38.610   8.508  1.00  0.00     0.199 C 
BRANCH   8   9
ATOM      9  C   UNL     1      25.292  37.157   8.701  1.00  0.00     0.179 C 
ATOM     10  C   UNL     1      24.764  35.576  10.236  1.00  0.00     0.282 C 
ATOM     11  O   UNL     1      25.589  36.728   9.965  1.00  0.00    -0.341 OA
ATOM     12  C   UNL     1      23.359  36.010  10.445  1.00  0.00     0.202 C 
ATOM     13  C   UNL     1      22.876  36.880   9.281  1.00  0.00     0.179 C 
ATOM     14  C   UNL     1      23.917  36.867   8.227  1.00  0.00     0.177 C 
BRANCH  10  15
ATOM     15  O   UNL     1      25.255  34.878  11.284  1.00  0.00    -0.341 OA
BRANCH  15  16
ATOM     16  C   UNL     1      25.989  35.597  12.185  1.00  0.00     0.184 C 
ATOM     17  C   UNL     1      27.236  34.774  12.623  1.00  0.00     0.178 C 
ATOM     18  O   UNL     1      27.056  34.394  13.952  1.00  0.00    -0.341 OA
ATOM     19  C   UNL     1      25.835  33.722  14.113  1.00  0.00     0.281 C 
ATOM     20  C   UNL     1      25.243  35.997  13.432  1.00  0.00     0.180 C 
ATOM     21  C   UNL     1      24.732  34.741  14.146  1.00  0.00     0.202 C 
BRANCH  17  22
ATOM     22  C   UNL     1      28.455  35.616  12.425  1.00  0.00     0.191 C 
BRANCH  22  23
ATOM     23  O   UNL     1      28.239  36.642  11.488  1.00  0.00    -0.394 OA
ATOM     24  H   UNL     1      28.721  37.469  11.728  1.00  0.00     0.210 HD
ENDBRANCH  22  23
ENDBRANCH  17  22
BRANCH  19  25
ATOM     25  O   UNL     1      25.935  32.998  15.279  1.00  0.00    -0.350 OA
BRANCH  25  26
ATOM     26  C   UNL     1      27.273  32.675  15.573  1.00  0.00     0.169 C 
BRANCH  26  27
ATOM     27  C   UNL     1      27.349  31.339  16.284  1.00  0.00     0.119 C 
BRANCH  27  28
ATOM     28  N   UNL     1      28.469  30.612  15.670  1.00  0.00    -0.092 NA
ATOM     29  N   UNL     1      29.614  30.965  16.055  1.00  0.00     0.001 N 
ATOM     30  N   UNL     1      30.742  31.478  16.102  1.00  0.00    -0.003 NA
ENDBRANCH  27  28
ENDBRANCH  26  27
ENDBRANCH  25  26
ENDBRANCH  19  25
BRANCH  20  31
ATOM     31  O   UNL     1      26.004  36.746  14.299  1.00  0.00    -0.387 OA
ATOM     32  H   UNL     1      26.892  37.007  14.007  1.00  0.00     0.211 HD
ENDBRANCH  20  31
BRANCH  21  33
ATOM     33  O   UNL     1      23.574  34.285  13.524  1.00  0.00    -0.385 OA
ATOM     34  H   UNL     1      22.807  34.726  13.982  1.00  0.00     0.211 HD
ENDBRANCH  21  33
ENDBRANCH  15  16
ENDBRANCH  10  15
BRANCH  12  35
ATOM     35  O   UNL     1      22.517  34.919  10.567  1.00  0.00    -0.385 OA
ATOM     36  H   UNL     1      22.837  34.218   9.909  1.00  0.00     0.211 HD
ENDBRANCH  12  35
BRANCH  13  37
ATOM     37  O   UNL     1      22.631  38.190   9.758  1.00  0.00    -0.387 OA
ATOM     38  H   UNL     1      22.691  38.843   9.006  1.00  0.00     0.211 HD
ENDBRANCH  13  37
BRANCH  14  39
ATOM     39  O   UNL     1      23.613  37.677   7.128  1.00  0.00    -0.387 OA
ATOM     40  H   UNL     1      23.519  38.639   7.425  1.00  0.00     0.211 HD
ENDBRANCH  14  39
ENDBRANCH   8   9
ENDBRANCH   7   8
ENDBRANCH   1   7
BRANCH   1  41
ATOM     41  C   UNL     1      27.754  38.566   5.566  1.00  0.00     0.364 C 
ATOM     42  O   UNL     1      28.091  39.418   4.762  1.00  0.00    -0.246 OA
BRANCH  41  43
ATOM     43  O   UNL     1      27.377  37.315   5.037  1.00  0.00    -0.477 OA
ATOM     44  H   UNL     1      27.937  36.821   4.359  1.00  0.00     0.296 HD
ENDBRANCH  41  43
ENDBRANCH   1  41
BRANCH   3  45
ATOM     45  O   UNL     1      30.968  37.639   8.329  1.00  0.00    -0.391 OA
ATOM     46  H   UNL     1      30.410  36.893   8.727  1.00  0.00     0.211 HD
ENDBRANCH   3  45
BRANCH   5  47
ATOM     47  C   UNL     1      29.197  41.214   9.014  1.00  0.00     0.176 C 
BRANCH  47  48
ATOM     48  O   UNL     1      29.819  42.491   8.882  1.00  0.00    -0.388 OA
ATOM     49  H   UNL     1      30.671  42.513   9.350  1.00  0.00     0.211 HD
ENDBRANCH  47  48
BRANCH  47  50
ATOM     50  C   UNL     1      29.957  40.484   9.997  1.00  0.00     0.165 C 
BRANCH  50  51
ATOM     51  O   UNL     1      29.353  39.330  10.556  1.00  0.00    -0.388 OA
ATOM     52  H   UNL     1      30.050  38.826  11.082  1.00  0.00     0.211 HD
ENDBRANCH  50  51
BRANCH  50  53
ATOM     53  C   UNL     1      30.366  41.275  11.198  1.00  0.00     0.154 C 
BRANCH  53  54
ATOM     54  N   UNL     1      29.682  41.122  12.421  1.00  0.00    -0.319 N 
ATOM     55  C   UNL     1      28.820  41.999  13.078  1.00  0.00     0.407 C 
ATOM     56  H   UNL     1      29.842  40.184  12.956  1.00  0.00     0.167 HD
ATOM     57  O   UNL     1      28.576  43.102  12.531  1.00  0.00    -0.225 OA
BRANCH  55  58
ATOM     58  O   UNL     1      28.252  41.625  14.312  1.00  0.00    -0.443 OA
BRANCH  58  59
ATOM     59  C   UNL     1      29.084  41.096  15.302  1.00  0.00     0.294 C 
BRANCH  59  60
ATOM     60  C   UNL     1      29.255  39.660  15.184  1.00  0.00     0.121 A 
ATOM     61  C   UNL     1      30.422  39.006  15.053  1.00  0.00     0.146 A 
ATOM     62  N   UNL     1      28.235  38.699  15.119  1.00  0.00    -0.131 NA
ATOM     63  N   UNL     1      30.201  37.707  14.909  1.00  0.00    -0.201 N 
ATOM     64  N   UNL     1      28.908  37.598  14.958  1.00  0.00    -0.060 NA
BRANCH  63  65
ATOM     65  C   UNL     1      31.098  36.621  14.797  1.00  0.00     0.173 A 
ATOM     66  N   UNL     1      31.198  35.827  15.896  1.00  0.00    -0.236 NA
ATOM     67  C   UNL     1      31.939  36.459  13.689  1.00  0.00     0.097 A 
ATOM     68  C   UNL     1      32.218  34.803  15.892  1.00  0.00     0.113 A 
ATOM     69  C   UNL     1      32.893  35.467  13.761  1.00  0.00     0.025 A 
ATOM     70  C   UNL     1      32.993  34.694  14.841  1.00  0.00     0.022 A 
BRANCH  67  71
ATOM     71  C   UNL     1      31.823  37.183  12.463  1.00  0.00     0.103 C 
ATOM     72  N   UNL     1      31.722  37.778  11.415  1.00  0.00    -0.192 NA
ENDBRANCH  67  71
ENDBRANCH  63  65
ENDBRANCH  59  60
ENDBRANCH  58  59
ENDBRANCH  55  58
ENDBRANCH  53  54
ENDBRANCH  50  53
ENDBRANCH  47  50
ENDBRANCH   5  47
BRANCH   4  73
ATOM     73  N   UNL     1      31.095  39.953   6.113  1.00  0.00    -0.348 N 
ATOM     74  C   UNL     1      32.482  39.962   5.938  1.00  0.00     0.217 C 
ATOM     75  H   UNL     1      30.528  40.153   5.211  1.00  0.00     0.163 HD
ATOM     76  C   UNL     1      33.085  40.164   4.561  1.00  0.00     0.114 C 
ATOM     77  O   UNL     1      33.322  39.808   6.851  1.00  0.00    -0.275 OA
ENDBRANCH   4  73
TORSDOF 31
BEGIN_RES LYS A 131
REMARK  4 active torsions:
REMARK  status: ('A' for Active; 'I' for Inactive)
REMARK    1  A    between atoms: CA   and  CB  
REMARK    2  A    between atoms: CB   and  CG  
REMARK    3  A    between atoms: CG   and  CD  
REMARK    4  A    between atoms: CD   and  CE  
ROOT
ATOM      1  CA  LYS A 131      29.867  25.555  16.977  1.00 20.52     0.186 C 
ENDROOT
BRANCH   1   2
ATOM      2  CB  LYS A 131      28.345  25.722  17.026  1.00 20.94     0.034 C 
BRANCH   2   3
ATOM      3  CG  LYS A 131      27.601  24.401  16.906  1.00 22.96     0.005 C 
BRANCH   3   4
ATOM      4  CD  LYS A 131      26.154  24.528  17.294  1.00 24.33     0.041 C 
BRANCH   4   5
ATOM      5  CE  LYS A 131      25.791  23.421  18.278  1.00 26.91     0.338 C 
ATOM      6  NZ  LYS A 131      24.959  22.389  17.615  1.00 27.40     0.618 N 
ENDBRANCH   4   5
ENDBRANCH   3   4
ENDBRANCH   2   3
ENDBRANCH   1   2
END_RES LYS A 131
BEGIN_RES LYS A 135
REMARK  4 active torsions:
REMARK  status: ('A' for Active; 'I' for Inactive)
REMARK    5  A    between atoms: CA   and  CB  
REMARK    6  A    between atoms: CB   and  CG  
REMARK    7  A    between atoms: CG   and  CD  
REMARK    8  A    between atoms: CD   and  CE  
ROOT
ATOM      7  CA  LYS A 135      33.193  34.663   9.290  1.00 25.02     0.186 C 
ENDROOT
BRANCH   7   8
ATOM      8  CB  LYS A 135      32.060  35.360  10.034  1.00 26.63     0.034 C 
BRANCH   8   9
ATOM      9  CG  LYS A 135      30.819  34.516  10.169  1.00 29.45     0.005 C 
BRANCH   9  10
ATOM     10  CD  LYS A 135      30.306  34.094   8.801  1.00 32.00     0.041 C 
BRANCH  10  11
ATOM     11  CE  LYS A 135      28.855  34.500   8.628  1.00 34.25     0.338 C 
ATOM     12  NZ  LYS A 135      27.951  33.609   9.407  1.00 35.99     0.618 N 
ENDBRANCH  10  11
ENDBRANCH   9  10
ENDBRANCH   8   9
ENDBRANCH   7   8
END_RES LYS A 135
