REMARK VINA RESULT:    -4.701      3.492      8.249
REMARK INTER + INTRA:         -22.743
REMARK INTER:                 -13.974
REMARK INTRA:                  -8.769
REMARK UNBOUND:               -10.485
REMARK SMILES CC(=O)N[C@@H]1[C@@H](O)C[C@](OC[C@H]2O[C@@H](O[C@H]3[C@H](O)[C@@H](O)[C@H](OCCN=[N+]=[N-])O[C@@H]3CO)[C@H](O)[C@@H](O)[C@H]2O)(C(=O)O)O[C@H]1C(O)[C@H](O)CNC(=O)OCc1cn(CC(O)c2ccccc2)nn1
REMARK SMILES IDX 9 1 8 2 6 3 5 4 42 5 41 6 10 7 11 8 12 9 14 10 13 11 32 12
REMARK SMILES IDX 34 13 36 14 15 15 16 16 29 17 28 18 21 19 17 20 19 21 30 22
REMARK SMILES IDX 31 23 22 25 23 26 24 27 25 28 26 29 27 30 18 31 20 33 33 35
REMARK SMILES IDX 35 37 37 39 38 41 39 42 40 43 7 45 43 47 44 48 45 50 46 51
REMARK SMILES IDX 47 53 48 54 49 55 50 57 51 58 52 59 53 60 54 61 66 62 55 63
REMARK SMILES IDX 65 64 56 65 57 66 58 67 59 69 60 70 64 71 61 72 63 73 62 74
REMARK SMILES IDX 4 75 2 76 1 78 3 79
REMARK H PARENT 31 24 18 32 20 34 33 36 35 38 37 40 40 44 7 46 44 49 46 52
REMARK H PARENT 48 56 58 68 4 77
REMARK Flexibility Score: inf
ROOT
ATOM      1  C   UNL     1      28.324  36.132   9.498  1.00  0.00     0.272 C 
ATOM      2  C   UNL     1      29.120  36.248   8.253  1.00  0.00     0.113 C 
ATOM      3  C   UNL     1      29.637  37.599   7.908  1.00  0.00     0.145 C 
ATOM      4  C   UNL     1      28.928  38.623   8.736  1.00  0.00     0.142 C 
ATOM      5  C   UNL     1      27.472  38.203   8.835  1.00  0.00     0.178 C 
ATOM      6  O   UNL     1      27.252  37.032   9.492  1.00  0.00    -0.332 OA
ENDROOT
BRANCH   1   7
ATOM      7  O   UNL     1      28.974  36.301  10.684  1.00  0.00    -0.338 OA
BRANCH   7   8
ATOM      8  C   UNL     1      28.249  36.690  11.767  1.00  0.00     0.199 C 
BRANCH   8   9
ATOM      9  C   UNL     1      27.666  35.501  12.496  1.00  0.00     0.179 C 
ATOM     10  C   UNL     1      27.837  34.514  14.567  1.00  0.00     0.282 C 
ATOM     11  O   UNL     1      28.499  35.102  13.523  1.00  0.00    -0.341 OA
ATOM     12  C   UNL     1      26.874  35.420  15.302  1.00  0.00     0.202 C 
ATOM     13  C   UNL     1      26.277  36.379  14.296  1.00  0.00     0.179 C 
ATOM     14  C   UNL     1      26.258  35.667  12.959  1.00  0.00     0.177 C 
BRANCH  10  15
ATOM     15  O   UNL     1      28.712  34.041  15.539  1.00  0.00    -0.341 OA
BRANCH  15  16
ATOM     16  C   UNL     1      29.224  32.793  15.316  1.00  0.00     0.184 C 
ATOM     17  C   UNL     1      28.672  31.891  16.414  1.00  0.00     0.178 C 
ATOM     18  O   UNL     1      29.598  31.704  17.420  1.00  0.00    -0.341 OA
ATOM     19  C   UNL     1      30.073  32.971  17.806  1.00  0.00     0.281 C 
ATOM     20  C   UNL     1      30.739  32.916  15.409  1.00  0.00     0.180 C 
ATOM     21  C   UNL     1      31.155  33.353  16.803  1.00  0.00     0.202 C 
BRANCH  17  22
ATOM     22  C   UNL     1      28.190  30.571  15.837  1.00  0.00     0.191 C 
BRANCH  22  23
ATOM     23  O   UNL     1      29.232  29.656  15.724  1.00  0.00    -0.394 OA
ATOM     24  H   UNL     1      29.825  29.667  16.521  1.00  0.00     0.210 HD
ENDBRANCH  22  23
ENDBRANCH  17  22
BRANCH  19  25
ATOM     25  O   UNL     1      30.552  32.841  19.087  1.00  0.00    -0.350 OA
BRANCH  25  26
ATOM     26  C   UNL     1      30.254  31.654  19.714  1.00  0.00     0.169 C 
BRANCH  26  27
ATOM     27  C   UNL     1      31.242  31.247  20.771  1.00  0.00     0.119 C 
BRANCH  27  28
ATOM     28  N   UNL     1      32.062  32.400  21.158  1.00  0.00    -0.092 NA
ATOM     29  N   UNL     1      33.079  32.115  21.810  1.00  0.00     0.001 N 
ATOM     30  N   UNL     1      34.201  32.067  22.312  1.00  0.00    -0.003 NA
ENDBRANCH  27  28
ENDBRANCH  26  27
ENDBRANCH  25  26
ENDBRANCH  19  25
BRANCH  20  31
ATOM     31  O   UNL     1      31.340  31.708  15.081  1.00  0.00    -0.387 OA
ATOM     32  H   UNL     1      30.987  30.986  15.674  1.00  0.00     0.211 HD
ENDBRANCH  20  31
BRANCH  21  33
ATOM     33  O   UNL     1      31.453  34.703  16.832  1.00  0.00    -0.385 OA
ATOM     34  H   UNL     1      32.090  34.889  16.099  1.00  0.00     0.211 HD
ENDBRANCH  21  33
ENDBRANCH  15  16
ENDBRANCH  10  15
BRANCH  12  35
ATOM     35  O   UNL     1      25.855  34.635  15.850  1.00  0.00    -0.385 OA
ATOM     36  H   UNL     1      24.998  35.120  15.700  1.00  0.00     0.211 HD
ENDBRANCH  12  35
BRANCH  13  37
ATOM     37  O   UNL     1      27.122  37.485  14.263  1.00  0.00    -0.387 OA
ATOM     38  H   UNL     1      26.828  38.195  13.667  1.00  0.00     0.211 HD
ENDBRANCH  13  37
BRANCH  14  39
ATOM     39  O   UNL     1      25.424  36.239  12.029  1.00  0.00    -0.387 OA
ATOM     40  H   UNL     1      24.746  36.849  12.419  1.00  0.00     0.211 HD
ENDBRANCH  14  39
ENDBRANCH   8   9
ENDBRANCH   7   8
ENDBRANCH   1   7
BRANCH   1  41
ATOM     41  C   UNL     1      27.650  34.771   9.424  1.00  0.00     0.364 C 
ATOM     42  O   UNL     1      28.326  33.755   9.436  1.00  0.00    -0.246 OA
BRANCH  41  43
ATOM     43  O   UNL     1      26.269  34.782   9.346  1.00  0.00    -0.477 OA
ATOM     44  H   UNL     1      25.865  34.472   8.487  1.00  0.00     0.296 HD
ENDBRANCH  41  43
ENDBRANCH   1  41
BRANCH   3  45
ATOM     45  O   UNL     1      31.028  37.669   8.007  1.00  0.00    -0.391 OA
ATOM     46  H   UNL     1      31.382  37.039   7.319  1.00  0.00     0.211 HD
ENDBRANCH   3  45
BRANCH   5  47
ATOM     47  C   UNL     1      26.735  39.393   9.395  1.00  0.00     0.176 C 
BRANCH  47  48
ATOM     48  O   UNL     1      27.251  39.677  10.669  1.00  0.00    -0.388 OA
ATOM     49  H   UNL     1      26.496  40.051  11.202  1.00  0.00     0.211 HD
ENDBRANCH  47  48
BRANCH  47  50
ATOM     50  C   UNL     1      25.257  39.193   9.416  1.00  0.00     0.165 C 
BRANCH  50  51
ATOM     51  O   UNL     1      24.875  38.118  10.173  1.00  0.00    -0.388 OA
ATOM     52  H   UNL     1      24.651  38.319  11.095  1.00  0.00     0.211 HD
ENDBRANCH  50  51
BRANCH  50  53
ATOM     53  C   UNL     1      24.588  39.312   8.071  1.00  0.00     0.154 C 
BRANCH  53  54
ATOM     54  N   UNL     1      23.509  38.400   7.830  1.00  0.00    -0.319 N 
ATOM     55  C   UNL     1      22.175  38.578   8.300  1.00  0.00     0.407 C 
ATOM     56  H   UNL     1      23.691  37.518   7.252  1.00  0.00     0.167 HD
ATOM     57  O   UNL     1      21.865  39.583   8.964  1.00  0.00    -0.225 OA
BRANCH  55  58
ATOM     58  O   UNL     1      21.194  37.648   8.033  1.00  0.00    -0.443 OA
BRANCH  58  59
ATOM     59  C   UNL     1      21.456  36.252   7.893  1.00  0.00     0.294 C 
BRANCH  59  60
ATOM     60  C   UNL     1      22.023  35.721   9.173  1.00  0.00     0.120 A 
ATOM     61  C   UNL     1      21.384  35.305  10.312  1.00  0.00     0.138 A 
ATOM     62  N   UNL     1      23.345  35.552   9.391  1.00  0.00    -0.132 NA
ATOM     63  N   UNL     1      22.324  34.886  11.211  1.00  0.00    -0.249 N 
ATOM     64  N   UNL     1      23.472  35.060  10.599  1.00  0.00    -0.067 NA
BRANCH  63  65
ATOM     65  C   UNL     1      22.055  34.365  12.542  1.00  0.00     0.182 C 
BRANCH  65  66
ATOM     66  C   UNL     1      23.255  33.584  13.046  1.00  0.00     0.166 C 
BRANCH  66  67
ATOM     67  O   UNL     1      23.382  33.960  14.404  1.00  0.00    -0.386 OA
ATOM     68  H   UNL     1      24.310  33.774  14.718  1.00  0.00     0.211 HD
ENDBRANCH  66  67
BRANCH  66  69
ATOM     69  C   UNL     1      23.118  32.129  12.932  1.00  0.00    -0.018 A 
ATOM     70  C   UNL     1      24.155  31.267  13.114  1.00  0.00     0.006 A 
ATOM     71  C   UNL     1      21.835  31.669  12.603  1.00  0.00     0.006 A 
ATOM     72  C   UNL     1      23.919  29.910  12.966  1.00  0.00     0.000 A 
ATOM     73  C   UNL     1      21.628  30.323  12.461  1.00  0.00     0.000 A 
ATOM     74  C   UNL     1      22.670  29.436  12.642  1.00  0.00     0.000 A 
ENDBRANCH  66  69
ENDBRANCH  65  66
ENDBRANCH  63  65
ENDBRANCH  59  60
ENDBRANCH  58  59
ENDBRANCH  55  58
ENDBRANCH  53  54
ENDBRANCH  50  53
ENDBRANCH  47  50
ENDBRANCH   5  47
BRANCH   4  75
ATOM     75  N   UNL     1      28.899  39.914   8.031  1.00  0.00    -0.348 N 
ATOM     76  C   UNL     1      29.900  40.901   8.213  1.00  0.00     0.217 C 
ATOM     77  H   UNL     1      28.122  40.132   7.371  1.00  0.00     0.163 HD
ATOM     78  C   UNL     1      29.904  42.215   7.519  1.00  0.00     0.114 C 
ATOM     79  O   UNL     1      30.843  40.643   9.011  1.00  0.00    -0.275 OA
ENDBRANCH   4  75
TORSDOF 33
BEGIN_RES LYS A 131
REMARK  4 active torsions:
REMARK  status: ('A' for Active; 'I' for Inactive)
REMARK    1  A    between atoms: CA   and  CB  
REMARK    2  A    between atoms: CB   and  CG  
REMARK    3  A    between atoms: CG   and  CD  
REMARK    4  A    between atoms: CD   and  CE  
ROOT
ATOM      1  CA  LYS A 131      29.867  25.555  16.977  1.00 20.52     0.186 C 
ENDROOT
BRANCH   1   2
ATOM      2  CB  LYS A 131      28.345  25.722  17.026  1.00 20.94     0.034 C 
BRANCH   2   3
ATOM      3  CG  LYS A 131      27.599  24.473  16.581  1.00 22.96     0.005 C 
BRANCH   3   4
ATOM      4  CD  LYS A 131      27.165  23.628  17.746  1.00 24.33     0.041 C 
BRANCH   4   5
ATOM      5  CE  LYS A 131      25.746  24.012  18.153  1.00 26.91     0.338 C 
ATOM      6  NZ  LYS A 131      24.941  24.365  16.959  1.00 27.40     0.618 N 
ENDBRANCH   4   5
ENDBRANCH   3   4
ENDBRANCH   2   3
ENDBRANCH   1   2
END_RES LYS A 131
BEGIN_RES LYS A 135
REMARK  4 active torsions:
REMARK  status: ('A' for Active; 'I' for Inactive)
REMARK    5  A    between atoms: CA   and  CB  
REMARK    6  A    between atoms: CB   and  CG  
REMARK    7  A    between atoms: CG   and  CD  
REMARK    8  A    between atoms: CD   and  CE  
ROOT
ATOM      7  CA  LYS A 135      33.193  34.663   9.290  1.00 25.02     0.186 C 
ENDROOT
BRANCH   7   8
ATOM      8  CB  LYS A 135      32.060  35.360  10.034  1.00 26.63     0.034 C 
BRANCH   8   9
ATOM      9  CG  LYS A 135      32.536  36.341  11.074  1.00 29.45     0.005 C 
BRANCH   9  10
ATOM     10  CD  LYS A 135      32.686  35.660  12.425  1.00 32.00     0.041 C 
BRANCH  10  11
ATOM     11  CE  LYS A 135      31.708  36.242  13.427  1.00 34.25     0.338 C 
ATOM     12  NZ  LYS A 135      31.499  37.697  13.189  1.00 35.99     0.618 N 
ENDBRANCH  10  11
ENDBRANCH   9  10
ENDBRANCH   8   9
ENDBRANCH   7   8
END_RES LYS A 135
