REMARK VINA RESULT:    -4.805      3.390      8.543
REMARK INTER + INTRA:         -25.583
REMARK INTER:                 -10.678
REMARK INTRA:                 -14.906
REMARK UNBOUND:               -11.931
REMARK SMILES CC(=O)N[C@@H]1[C@@H](O)C[C@](OC[C@H]2O[C@@H](O[C@H]3[C@H](O)[C@@H](O)[C@H](OCCN=[N+]=[N-])O[C@@H]3CO)[C@H](O)[C@@H](O)[C@H]2O)(C(=O)O)O[C@H]1C(O)[C@H](O)CNC(=O)OCc1cn(CC(=O)NCC(O)Cn2ccnc2[N+](=O)[O-])nn1
REMARK SMILES IDX 47 1 45 2 43 3 42 4 9 5 8 6 41 7 6 8 5 9 10 10 11 11 12 12
REMARK SMILES IDX 14 13 13 14 32 15 34 16 36 17 15 18 16 19 29 20 28 21 21 22
REMARK SMILES IDX 17 23 19 24 30 25 31 26 22 28 23 29 24 30 25 31 26 32 27 33
REMARK SMILES IDX 18 34 20 36 33 38 35 40 37 42 38 44 39 45 40 46 7 48 4 50
REMARK SMILES IDX 2 51 1 53 3 54 44 55 46 57 48 59 49 60 50 62 51 63 52 64
REMARK SMILES IDX 53 65 54 66 73 67 55 68 72 69 56 70 57 71 58 72 59 73 60 75
REMARK SMILES IDX 61 76 62 77 63 79 64 80 65 81 68 82 66 83 67 84 69 85 70 86
REMARK SMILES IDX 71 87
REMARK H PARENT 31 27 18 35 20 37 33 39 35 41 37 43 40 47 7 49 4 52 44 56
REMARK H PARENT 46 58 48 61 59 74 62 78
REMARK Flexibility Score: inf
ROOT
ATOM      1  C   UNL     1      21.085  33.497  12.668  1.00  0.00     0.154 C 
ENDROOT
BRANCH   1   2
ATOM      2  C   UNL     1      21.670  34.248  11.519  1.00  0.00     0.165 C 
BRANCH   2   3
ATOM      3  C   UNL     1      22.640  35.317  11.857  1.00  0.00     0.176 C 
BRANCH   3   4
ATOM      4  C   UNL     1      23.756  35.594  10.936  1.00  0.00     0.178 C 
ATOM      5  C   UNL     1      26.059  35.780  10.685  1.00  0.00     0.272 C 
ATOM      6  C   UNL     1      25.682  35.537   9.266  1.00  0.00     0.113 C 
ATOM      7  O   UNL     1      24.976  35.661  11.575  1.00  0.00    -0.332 OA
ATOM      8  C   UNL     1      24.521  36.337   8.778  1.00  0.00     0.145 C 
ATOM      9  C   UNL     1      23.617  36.721   9.984  1.00  0.00     0.142 C 
BRANCH   5  10
ATOM     10  O   UNL     1      26.693  36.956  10.964  1.00  0.00    -0.338 OA
BRANCH  10  11
ATOM     11  C   UNL     1      27.890  37.191  10.364  1.00  0.00     0.199 C 
BRANCH  11  12
ATOM     12  C   UNL     1      28.749  38.185  11.122  1.00  0.00     0.179 C 
ATOM     13  C   UNL     1      28.784  39.454  13.077  1.00  0.00     0.282 C 
ATOM     14  O   UNL     1      28.064  38.949  12.000  1.00  0.00    -0.341 OA
ATOM     15  C   UNL     1      30.199  39.806  12.690  1.00  0.00     0.202 C 
ATOM     16  C   UNL     1      30.929  38.615  12.114  1.00  0.00     0.179 C 
ATOM     17  C   UNL     1      29.941  37.521  11.755  1.00  0.00     0.177 C 
BRANCH  13  18
ATOM     18  O   UNL     1      28.796  38.654  14.162  1.00  0.00    -0.341 OA
BRANCH  18  19
ATOM     19  C   UNL     1      27.756  38.578  15.008  1.00  0.00     0.184 C 
ATOM     20  C   UNL     1      28.016  38.889  16.457  1.00  0.00     0.178 C 
ATOM     21  O   UNL     1      26.772  39.181  17.023  1.00  0.00    -0.341 OA
ATOM     22  C   UNL     1      25.981  38.041  17.114  1.00  0.00     0.281 C 
ATOM     23  C   UNL     1      27.120  37.179  15.038  1.00  0.00     0.180 C 
ATOM     24  C   UNL     1      25.825  37.333  15.802  1.00  0.00     0.202 C 
BRANCH  20  25
ATOM     25  C   UNL     1      28.855  40.127  16.573  1.00  0.00     0.191 C 
BRANCH  25  26
ATOM     26  O   UNL     1      30.214  39.855  16.363  1.00  0.00    -0.394 OA
ATOM     27  H   UNL     1      30.633  40.764  16.238  1.00  0.00     0.210 HD
ENDBRANCH  25  26
ENDBRANCH  20  25
BRANCH  22  28
ATOM     28  O   UNL     1      24.715  38.451  17.524  1.00  0.00    -0.350 OA
BRANCH  28  29
ATOM     29  C   UNL     1      24.427  39.740  17.073  1.00  0.00     0.169 C 
BRANCH  29  30
ATOM     30  C   UNL     1      23.355  39.582  15.992  1.00  0.00     0.119 C 
BRANCH  30  31
ATOM     31  N   UNL     1      22.288  38.717  16.464  1.00  0.00    -0.092 NA
ATOM     32  N   UNL     1      22.134  37.636  15.857  1.00  0.00     0.001 N 
ATOM     33  N   UNL     1      22.118  36.463  15.506  1.00  0.00    -0.003 NA
ENDBRANCH  30  31
ENDBRANCH  29  30
ENDBRANCH  28  29
ENDBRANCH  22  28
BRANCH  23  34
ATOM     34  O   UNL     1      26.785  36.751  13.757  1.00  0.00    -0.387 OA
ATOM     35  H   UNL     1      27.579  37.006  13.188  1.00  0.00     0.211 HD
ENDBRANCH  23  34
BRANCH  24  36
ATOM     36  O   UNL     1      25.194  36.113  16.045  1.00  0.00    -0.385 OA
ATOM     37  H   UNL     1      25.177  35.598  15.185  1.00  0.00     0.211 HD
ENDBRANCH  24  36
ENDBRANCH  18  19
ENDBRANCH  13  18
BRANCH  15  38
ATOM     38  O   UNL     1      30.239  40.902  11.818  1.00  0.00    -0.385 OA
ATOM     39  H   UNL     1      30.626  40.535  10.962  1.00  0.00     0.211 HD
ENDBRANCH  15  38
BRANCH  16  40
ATOM     40  O   UNL     1      31.820  38.077  13.039  1.00  0.00    -0.387 OA
ATOM     41  H   UNL     1      32.752  38.423  12.911  1.00  0.00     0.211 HD
ENDBRANCH  16  40
BRANCH  17  42
ATOM     42  O   UNL     1      29.636  36.675  12.794  1.00  0.00    -0.387 OA
ATOM     43  H   UNL     1      30.109  35.800  12.734  1.00  0.00     0.211 HD
ENDBRANCH  17  42
ENDBRANCH  11  12
ENDBRANCH  10  11
ENDBRANCH   5  10
BRANCH   5  44
ATOM     44  C   UNL     1      26.950  34.632  11.095  1.00  0.00     0.364 C 
ATOM     45  O   UNL     1      27.250  33.810  10.211  1.00  0.00    -0.246 OA
BRANCH  44  46
ATOM     46  O   UNL     1      27.429  34.466  12.373  1.00  0.00    -0.477 OA
ATOM     47  H   UNL     1      27.961  35.224  12.839  1.00  0.00     0.296 HD
ENDBRANCH  44  46
ENDBRANCH   5  44
BRANCH   8  48
ATOM     48  O   UNL     1      24.790  37.429   8.017  1.00  0.00    -0.391 OA
ATOM     49  H   UNL     1      24.818  37.298   7.058  1.00  0.00     0.211 HD
ENDBRANCH   8  48
BRANCH   9  50
ATOM     50  N   UNL     1      22.332  36.990   9.456  1.00  0.00    -0.348 N 
ATOM     51  C   UNL     1      21.699  38.269   9.654  1.00  0.00     0.217 C 
ATOM     52  H   UNL     1      21.814  36.293   8.907  1.00  0.00     0.163 HD
ATOM     53  C   UNL     1      20.346  38.570   9.115  1.00  0.00     0.114 C 
ATOM     54  O   UNL     1      22.321  39.136  10.304  1.00  0.00    -0.275 OA
ENDBRANCH   9  50
ENDBRANCH   3   4
BRANCH   3  55
ATOM     55  O   UNL     1      23.096  35.059  13.174  1.00  0.00    -0.388 OA
ATOM     56  H   UNL     1      23.726  35.761  13.406  1.00  0.00     0.211 HD
ENDBRANCH   3  55
ENDBRANCH   2   3
BRANCH   2  57
ATOM     57  O   UNL     1      20.758  34.524  10.528  1.00  0.00    -0.388 OA
ATOM     58  H   UNL     1      20.999  34.228   9.631  1.00  0.00     0.211 HD
ENDBRANCH   2  57
ENDBRANCH   1   2
BRANCH   1  59
ATOM     59  N   UNL     1      22.002  32.494  13.137  1.00  0.00    -0.319 N 
ATOM     60  C   UNL     1      21.886  31.118  12.815  1.00  0.00     0.407 C 
ATOM     61  H   UNL     1      22.819  32.763  13.760  1.00  0.00     0.167 HD
ATOM     62  O   UNL     1      20.952  30.741  12.078  1.00  0.00    -0.225 OA
BRANCH  60  63
ATOM     63  O   UNL     1      22.747  30.141  13.266  1.00  0.00    -0.443 OA
BRANCH  63  64
ATOM     64  C   UNL     1      24.140  30.266  13.153  1.00  0.00     0.294 C 
BRANCH  64  65
ATOM     65  C   UNL     1      24.761  31.368  13.885  1.00  0.00     0.120 A 
ATOM     66  C   UNL     1      25.290  31.360  15.151  1.00  0.00     0.138 A 
ATOM     67  N   UNL     1      24.919  32.629  13.451  1.00  0.00    -0.132 NA
ATOM     68  N   UNL     1      25.748  32.600  15.445  1.00  0.00    -0.243 N 
ATOM     69  N   UNL     1      25.518  33.350  14.413  1.00  0.00    -0.067 NA
BRANCH  68  70
ATOM     70  C   UNL     1      26.404  33.003  16.682  1.00  0.00     0.245 C 
BRANCH  70  71
ATOM     71  C   UNL     1      27.712  33.610  16.359  1.00  0.00     0.241 C 
ATOM     72  O   UNL     1      28.302  34.389  17.182  1.00  0.00    -0.273 OA
ATOM     73  N   UNL     1      28.395  33.368  15.130  1.00  0.00    -0.352 N 
ATOM     74  H   UNL     1      27.959  32.744  14.429  1.00  0.00     0.163 HD
BRANCH  73  75
ATOM     75  C   UNL     1      29.677  34.009  14.904  1.00  0.00     0.151 C 
BRANCH  75  76
ATOM     76  C   UNL     1      30.807  33.028  14.868  1.00  0.00     0.168 C 
BRANCH  76  77
ATOM     77  O   UNL     1      30.374  31.717  14.960  1.00  0.00    -0.388 OA
ATOM     78  H   UNL     1      30.766  31.220  14.203  1.00  0.00     0.211 HD
ENDBRANCH  76  77
BRANCH  76  79
ATOM     79  C   UNL     1      31.739  33.366  16.022  1.00  0.00     0.239 C 
BRANCH  79  80
ATOM     80  N   UNL     1      32.056  34.764  16.058  1.00  0.00    -0.227 N 
ATOM     81  C   UNL     1      31.731  35.606  17.076  1.00  0.00     0.204 A 
ATOM     82  C   UNL     1      32.693  35.537  15.144  1.00  0.00     0.434 A 
ATOM     83  C   UNL     1      32.169  36.872  16.774  1.00  0.00     0.245 A 
ATOM     84  N   UNL     1      32.756  36.809  15.584  1.00  0.00    -0.074 NA
BRANCH  82  85
ATOM     85  N   UNL     1      33.229  35.071  13.907  1.00  0.00    -0.047 N 
ATOM     86  O   UNL     1      34.314  34.499  13.797  1.00  0.00    -0.390 OA
ATOM     87  O   UNL     1      32.488  35.282  12.752  1.00  0.00    -0.390 OA
ENDBRANCH  82  85
ENDBRANCH  79  80
ENDBRANCH  76  79
ENDBRANCH  75  76
ENDBRANCH  73  75
ENDBRANCH  70  71
ENDBRANCH  68  70
ENDBRANCH  64  65
ENDBRANCH  63  64
ENDBRANCH  60  63
ENDBRANCH   1  59
TORSDOF 37
BEGIN_RES LYS A 131
REMARK  4 active torsions:
REMARK  status: ('A' for Active; 'I' for Inactive)
REMARK    1  A    between atoms: CA   and  CB  
REMARK    2  A    between atoms: CB   and  CG  
REMARK    3  A    between atoms: CG   and  CD  
REMARK    4  A    between atoms: CD   and  CE  
ROOT
ATOM      1  CA  LYS A 131      29.867  25.555  16.977  1.00 20.52     0.186 C 
ENDROOT
BRANCH   1   2
ATOM      2  CB  LYS A 131      28.345  25.722  17.026  1.00 20.94     0.034 C 
BRANCH   2   3
ATOM      3  CG  LYS A 131      27.602  24.399  16.926  1.00 22.96     0.005 C 
BRANCH   3   4
ATOM      4  CD  LYS A 131      26.522  24.276  17.965  1.00 24.33     0.041 C 
BRANCH   4   5
ATOM      5  CE  LYS A 131      25.239  23.776  17.309  1.00 26.91     0.338 C 
ATOM      6  NZ  LYS A 131      24.347  24.913  16.981  1.00 27.40     0.618 N 
ENDBRANCH   4   5
ENDBRANCH   3   4
ENDBRANCH   2   3
ENDBRANCH   1   2
END_RES LYS A 131
BEGIN_RES LYS A 135
REMARK  4 active torsions:
REMARK  status: ('A' for Active; 'I' for Inactive)
REMARK    5  A    between atoms: CA   and  CB  
REMARK    6  A    between atoms: CB   and  CG  
REMARK    7  A    between atoms: CG   and  CD  
REMARK    8  A    between atoms: CD   and  CE  
ROOT
ATOM      7  CA  LYS A 135      33.193  34.663   9.290  1.00 25.02     0.186 C 
ENDROOT
BRANCH   7   8
ATOM      8  CB  LYS A 135      32.060  35.360  10.034  1.00 26.63     0.034 C 
BRANCH   8   9
ATOM      9  CG  LYS A 135      30.695  34.813   9.703  1.00 29.45     0.005 C 
BRANCH   9  10
ATOM     10  CD  LYS A 135      30.591  34.492   8.220  1.00 32.00     0.041 C 
BRANCH  10  11
ATOM     11  CE  LYS A 135      29.230  34.891   7.683  1.00 34.25     0.338 C 
ATOM     12  NZ  LYS A 135      29.237  36.299   7.198  1.00 35.99     0.618 N 
ENDBRANCH  10  11
ENDBRANCH   9  10
ENDBRANCH   8   9
ENDBRANCH   7   8
END_RES LYS A 135
