REMARK VINA RESULT:    -3.777      4.876      8.218
REMARK INTER + INTRA:         -22.702
REMARK INTER:                  -9.547
REMARK INTRA:                 -13.155
REMARK UNBOUND:               -13.184
REMARK SMILES CC(=O)N[C@@H]1[C@@H](O)C[C@](OC[C@H]2O[C@@H](O[C@H]3[C@H](O)[C@@H](O)[C@H](OCCN=[N+]=[N-])O[C@@H]3CO)[C@H](O)[C@@H](O)[C@H]2O)(C(=O)O)O[C@H]1C(O)[C@H](O)CNC(=O)OCc1cn(-c2cc(Cl)ccc2C(=O)N(C)C)nn1
REMARK SMILES IDX 9 1 8 2 6 3 5 4 42 5 41 6 10 7 11 8 12 9 14 10 13 11 32 12
REMARK SMILES IDX 34 13 36 14 15 15 16 16 29 17 28 18 21 19 17 20 19 21 30 22
REMARK SMILES IDX 31 23 22 25 23 26 24 27 25 28 26 29 27 30 18 31 20 33 33 35
REMARK SMILES IDX 35 37 37 39 38 41 39 42 40 43 7 45 43 47 44 48 45 50 46 51
REMARK SMILES IDX 47 53 48 54 49 55 50 57 51 58 52 59 53 60 54 61 69 62 55 63
REMARK SMILES IDX 68 64 56 65 57 66 62 67 58 68 61 69 59 70 60 71 63 72 64 73
REMARK SMILES IDX 65 74 66 75 67 76 4 77 2 78 1 80 3 81
REMARK H PARENT 31 24 18 32 20 34 33 36 35 38 37 40 40 44 7 46 44 49 46 52
REMARK H PARENT 48 56 4 79
REMARK Flexibility Score: inf
ROOT
ATOM      1  C   UNL     1      27.962  31.467  17.106  1.00  0.00     0.272 C 
ATOM      2  C   UNL     1      29.165  30.765  16.600  1.00  0.00     0.113 C 
ATOM      3  C   UNL     1      30.328  30.983  17.533  1.00  0.00     0.145 C 
ATOM      4  C   UNL     1      30.561  32.474  17.593  1.00  0.00     0.142 C 
ATOM      5  C   UNL     1      29.345  33.198  17.993  1.00  0.00     0.178 C 
ATOM      6  O   UNL     1      28.126  32.639  17.774  1.00  0.00    -0.332 OA
ENDROOT
BRANCH   1   7
ATOM      7  O   UNL     1      27.194  30.647  17.917  1.00  0.00    -0.338 OA
BRANCH   7   8
ATOM      8  C   UNL     1      26.403  31.215  18.853  1.00  0.00     0.199 C 
BRANCH   8   9
ATOM      9  C   UNL     1      25.398  30.177  19.375  1.00  0.00     0.179 C 
ATOM     10  C   UNL     1      25.484  27.993  20.110  1.00  0.00     0.282 C 
ATOM     11  O   UNL     1      25.874  28.932  19.085  1.00  0.00    -0.341 OA
ATOM     12  C   UNL     1      24.029  28.264  20.417  1.00  0.00     0.202 C 
ATOM     13  C   UNL     1      23.855  29.586  21.135  1.00  0.00     0.179 C 
ATOM     14  C   UNL     1      25.012  30.495  20.757  1.00  0.00     0.177 C 
BRANCH  10  15
ATOM     15  O   UNL     1      26.339  28.176  21.111  1.00  0.00    -0.341 OA
BRANCH  15  16
ATOM     16  C   UNL     1      27.432  27.352  21.313  1.00  0.00     0.184 C 
ATOM     17  C   UNL     1      27.821  27.513  22.747  1.00  0.00     0.178 C 
ATOM     18  O   UNL     1      28.945  26.719  23.035  1.00  0.00    -0.341 OA
ATOM     19  C   UNL     1      29.997  27.493  22.434  1.00  0.00     0.281 C 
ATOM     20  C   UNL     1      28.570  27.754  20.409  1.00  0.00     0.180 C 
ATOM     21  C   UNL     1      29.898  27.333  20.962  1.00  0.00     0.202 C 
BRANCH  17  22
ATOM     22  C   UNL     1      26.682  27.138  23.672  1.00  0.00     0.191 C 
BRANCH  22  23
ATOM     23  O   UNL     1      25.899  28.253  23.880  1.00  0.00    -0.394 OA
ATOM     24  H   UNL     1      26.471  29.037  24.076  1.00  0.00     0.210 HD
ENDBRANCH  22  23
ENDBRANCH  17  22
BRANCH  19  25
ATOM     25  O   UNL     1      31.160  27.088  22.962  1.00  0.00    -0.350 OA
BRANCH  25  26
ATOM     26  C   UNL     1      31.784  27.993  23.803  1.00  0.00     0.169 C 
BRANCH  26  27
ATOM     27  C   UNL     1      32.580  27.340  24.915  1.00  0.00     0.119 C 
BRANCH  27  28
ATOM     28  N   UNL     1      33.996  27.592  24.751  1.00  0.00    -0.092 NA
ATOM     29  N   UNL     1      34.824  26.893  25.324  1.00  0.00     0.001 N 
ATOM     30  N   UNL     1      35.511  26.028  25.907  1.00  0.00    -0.003 NA
ENDBRANCH  27  28
ENDBRANCH  26  27
ENDBRANCH  25  26
ENDBRANCH  19  25
BRANCH  20  31
ATOM     31  O   UNL     1      28.453  27.168  19.144  1.00  0.00    -0.387 OA
ATOM     32  H   UNL     1      28.406  27.875  18.435  1.00  0.00     0.211 HD
ENDBRANCH  20  31
BRANCH  21  33
ATOM     33  O   UNL     1      30.898  28.075  20.338  1.00  0.00    -0.385 OA
ATOM     34  H   UNL     1      31.310  27.616  19.575  1.00  0.00     0.211 HD
ENDBRANCH  21  33
ENDBRANCH  15  16
ENDBRANCH  10  15
BRANCH  12  35
ATOM     35  O   UNL     1      23.380  28.391  19.172  1.00  0.00    -0.385 OA
ATOM     36  H   UNL     1      24.023  28.239  18.409  1.00  0.00     0.211 HD
ENDBRANCH  12  35
BRANCH  13  37
ATOM     37  O   UNL     1      23.798  29.492  22.500  1.00  0.00    -0.387 OA
ATOM     38  H   UNL     1      24.443  28.850  22.881  1.00  0.00     0.211 HD
ENDBRANCH  13  37
BRANCH  14  39
ATOM     39  O   UNL     1      25.994  30.589  21.702  1.00  0.00    -0.387 OA
ATOM     40  H   UNL     1      26.696  29.904  21.645  1.00  0.00     0.211 HD
ENDBRANCH  14  39
ENDBRANCH   8   9
ENDBRANCH   7   8
ENDBRANCH   1   7
BRANCH   1  41
ATOM     41  C   UNL     1      27.040  31.746  15.905  1.00  0.00     0.364 C 
ATOM     42  O   UNL     1      27.109  32.899  15.422  1.00  0.00    -0.246 OA
BRANCH  41  43
ATOM     43  O   UNL     1      26.192  30.824  15.378  1.00  0.00    -0.477 OA
ATOM     44  H   UNL     1      25.374  30.465  15.819  1.00  0.00     0.296 HD
ENDBRANCH  41  43
ENDBRANCH   1  41
BRANCH   3  45
ATOM     45  O   UNL     1      30.080  30.387  18.736  1.00  0.00    -0.391 OA
ATOM     46  H   UNL     1      29.564  30.875  19.387  1.00  0.00     0.211 HD
ENDBRANCH   3  45
BRANCH   5  47
ATOM     47  C   UNL     1      29.327  33.700  19.431  1.00  0.00     0.176 C 
BRANCH  47  48
ATOM     48  O   UNL     1      30.511  33.568  20.099  1.00  0.00    -0.388 OA
ATOM     49  H   UNL     1      30.637  32.699  20.564  1.00  0.00     0.211 HD
ENDBRANCH  47  48
BRANCH  47  50
ATOM     50  C   UNL     1      28.756  35.054  19.637  1.00  0.00     0.165 C 
BRANCH  50  51
ATOM     51  O   UNL     1      29.727  35.991  20.065  1.00  0.00    -0.388 OA
ATOM     52  H   UNL     1      29.364  36.584  20.764  1.00  0.00     0.211 HD
ENDBRANCH  50  51
BRANCH  50  53
ATOM     53  C   UNL     1      27.831  34.944  20.870  1.00  0.00     0.154 C 
BRANCH  53  54
ATOM     54  N   UNL     1      28.485  34.210  21.917  1.00  0.00    -0.319 N 
ATOM     55  C   UNL     1      27.765  33.356  22.777  1.00  0.00     0.407 C 
ATOM     56  H   UNL     1      29.533  34.285  22.079  1.00  0.00     0.167 HD
ATOM     57  O   UNL     1      26.531  33.193  22.640  1.00  0.00    -0.225 OA
BRANCH  55  58
ATOM     58  O   UNL     1      28.405  32.665  23.812  1.00  0.00    -0.443 OA
BRANCH  58  59
ATOM     59  C   UNL     1      28.816  31.334  23.669  1.00  0.00     0.294 C 
BRANCH  59  60
ATOM     60  C   UNL     1      30.061  31.241  22.847  1.00  0.00     0.121 A 
ATOM     61  C   UNL     1      31.352  31.533  23.332  1.00  0.00     0.144 A 
ATOM     62  N   UNL     1      30.233  30.891  21.581  1.00  0.00    -0.131 NA
ATOM     63  N   UNL     1      32.227  31.348  22.354  1.00  0.00    -0.219 N 
ATOM     64  N   UNL     1      31.507  30.955  21.294  1.00  0.00    -0.062 NA
BRANCH  63  65
ATOM     65  C   UNL     1      33.634  31.488  22.291  1.00  0.00     0.081 A 
ATOM     66  C   UNL     1      34.444  30.382  22.575  1.00  0.00     0.049 A 
ATOM     67  C   UNL     1      34.292  32.648  22.000  1.00  0.00     0.065 A 
ATOM     68  C   UNL     1      35.798  30.470  22.561  1.00  0.00     0.043 A 
ATOM     69  C   UNL     1      35.696  32.742  21.986  1.00  0.00     0.017 A 
ATOM     70  Cl  UNL     1      36.756  29.043  22.928  1.00  0.00    -0.084 Cl
ATOM     71  C   UNL     1      36.456  31.634  22.271  1.00  0.00     0.021 A 
BRANCH  67  72
ATOM     72  C   UNL     1      33.570  33.871  21.633  1.00  0.00     0.255 C 
ATOM     73  O   UNL     1      33.304  34.069  20.430  1.00  0.00    -0.269 OA
ATOM     74  N   UNL     1      33.191  34.789  22.616  1.00  0.00    -0.345 N 
ATOM     75  C   UNL     1      33.510  34.543  24.020  1.00  0.00     0.146 C 
ATOM     76  C   UNL     1      32.462  36.009  22.279  1.00  0.00     0.146 C 
ENDBRANCH  67  72
ENDBRANCH  63  65
ENDBRANCH  59  60
ENDBRANCH  58  59
ENDBRANCH  55  58
ENDBRANCH  53  54
ENDBRANCH  50  53
ENDBRANCH  47  50
ENDBRANCH   5  47
BRANCH   4  77
ATOM     77  N   UNL     1      31.057  32.865  16.270  1.00  0.00    -0.348 N 
ATOM     78  C   UNL     1      31.932  33.956  16.080  1.00  0.00     0.217 C 
ATOM     79  H   UNL     1      30.759  32.331  15.431  1.00  0.00     0.163 HD
ATOM     80  C   UNL     1      32.436  34.358  14.745  1.00  0.00     0.114 C 
ATOM     81  O   UNL     1      32.302  34.616  17.087  1.00  0.00    -0.275 OA
ENDBRANCH   4  77
TORSDOF 31
BEGIN_RES LYS A 131
REMARK  4 active torsions:
REMARK  status: ('A' for Active; 'I' for Inactive)
REMARK    1  A    between atoms: CA   and  CB  
REMARK    2  A    between atoms: CB   and  CG  
REMARK    3  A    between atoms: CG   and  CD  
REMARK    4  A    between atoms: CD   and  CE  
ROOT
ATOM      1  CA  LYS A 131      29.867  25.555  16.977  1.00 20.52     0.186 C 
ENDROOT
BRANCH   1   2
ATOM      2  CB  LYS A 131      28.345  25.722  17.026  1.00 20.94     0.034 C 
BRANCH   2   3
ATOM      3  CG  LYS A 131      27.601  24.401  16.907  1.00 22.96     0.005 C 
BRANCH   3   4
ATOM      4  CD  LYS A 131      26.524  24.261  17.947  1.00 24.33     0.041 C 
BRANCH   4   5
ATOM      5  CE  LYS A 131      25.157  24.298  17.271  1.00 26.91     0.338 C 
ATOM      6  NZ  LYS A 131      24.286  25.306  17.920  1.00 27.40     0.618 N 
ENDBRANCH   4   5
ENDBRANCH   3   4
ENDBRANCH   2   3
ENDBRANCH   1   2
END_RES LYS A 131
BEGIN_RES LYS A 135
REMARK  4 active torsions:
REMARK  status: ('A' for Active; 'I' for Inactive)
REMARK    5  A    between atoms: CA   and  CB  
REMARK    6  A    between atoms: CB   and  CG  
REMARK    7  A    between atoms: CG   and  CD  
REMARK    8  A    between atoms: CD   and  CE  
ROOT
ATOM      7  CA  LYS A 135      33.193  34.663   9.290  1.00 25.02     0.186 C 
ENDROOT
BRANCH   7   8
ATOM      8  CB  LYS A 135      32.060  35.360  10.034  1.00 26.63     0.034 C 
BRANCH   8   9
ATOM      9  CG  LYS A 135      30.733  34.657   9.906  1.00 29.45     0.005 C 
BRANCH   9  10
ATOM     10  CD  LYS A 135      30.334  34.526   8.445  1.00 32.00     0.041 C 
BRANCH  10  11
ATOM     11  CE  LYS A 135      28.824  34.555   8.300  1.00 34.25     0.338 C 
ATOM     12  NZ  LYS A 135      28.164  33.826   9.419  1.00 35.99     0.618 N 
ENDBRANCH  10  11
ENDBRANCH   9  10
ENDBRANCH   8   9
ENDBRANCH   7   8
END_RES LYS A 135
