REMARK VINA RESULT:    -4.039      0.000      0.000
REMARK INTER + INTRA:         -23.105
REMARK INTER:                 -10.112
REMARK INTRA:                 -12.993
REMARK UNBOUND:               -13.046
REMARK SMILES CC(=O)N[C@@H]1[C@@H](O)C[C@](OC[C@H]2O[C@@H](O[C@H]3[C@H](O)[C@@H](O)[C@H](OCCN=[N+]=[N-])O[C@@H]3CO)[C@H](O)[C@@H](O)[C@H]2O)(C(=O)O)O[C@H]1C(O)[C@H](O)CNC(=O)OCc1cn(-c2nc(C)nc(N)n2)nn1
REMARK SMILES IDX 9 1 8 2 6 3 5 4 42 5 41 6 10 7 11 8 12 9 14 10 13 11 32 12
REMARK SMILES IDX 34 13 36 14 15 15 16 16 29 17 28 18 21 19 17 20 19 21 30 22
REMARK SMILES IDX 31 23 22 25 23 26 24 27 25 28 26 29 27 30 18 31 20 33 33 35
REMARK SMILES IDX 35 37 37 39 38 41 39 42 40 43 7 45 43 47 44 48 45 50 46 51
REMARK SMILES IDX 47 53 48 54 49 55 50 57 51 58 52 59 53 60 54 61 65 62 55 63
REMARK SMILES IDX 64 64 56 65 63 66 57 67 61 68 58 69 60 70 59 71 62 72 4 75
REMARK SMILES IDX 2 76 1 78 3 79
REMARK H PARENT 31 24 18 32 20 34 33 36 35 38 37 40 40 44 7 46 44 49 46 52
REMARK H PARENT 48 56 62 73 62 74 4 77
REMARK Flexibility Score: inf
ROOT
ATOM      1  C   UNL     1      29.903  35.580  14.095  1.00  0.00     0.272 C 
ATOM      2  C   UNL     1      29.248  36.858  13.694  1.00  0.00     0.113 C 
ATOM      3  C   UNL     1      27.852  36.951  14.230  1.00  0.00     0.145 C 
ATOM      4  C   UNL     1      27.075  35.750  13.760  1.00  0.00     0.142 C 
ATOM      5  C   UNL     1      27.836  34.454  13.915  1.00  0.00     0.178 C 
ATOM      6  O   UNL     1      29.130  34.515  13.560  1.00  0.00    -0.332 OA
ENDROOT
BRANCH   1   7
ATOM      7  O   UNL     1      30.274  35.411  15.315  1.00  0.00    -0.338 OA
BRANCH   7   8
ATOM      8  C   UNL     1      31.094  34.791  16.072  1.00  0.00     0.199 C 
BRANCH   8   9
ATOM      9  C   UNL     1      30.913  33.492  16.778  1.00  0.00     0.179 C 
ATOM     10  C   UNL     1      29.986  32.355  18.448  1.00  0.00     0.282 C 
ATOM     11  O   UNL     1      29.885  33.536  17.663  1.00  0.00    -0.341 OA
ATOM     12  C   UNL     1      29.385  31.287  17.569  1.00  0.00     0.202 C 
ATOM     13  C   UNL     1      30.268  31.087  16.362  1.00  0.00     0.179 C 
ATOM     14  C   UNL     1      31.076  32.256  15.955  1.00  0.00     0.177 C 
BRANCH  10  15
ATOM     15  O   UNL     1      29.302  32.478  19.627  1.00  0.00    -0.341 OA
BRANCH  15  16
ATOM     16  C   UNL     1      28.808  33.750  19.861  1.00  0.00     0.184 C 
ATOM     17  C   UNL     1      29.230  34.369  21.150  1.00  0.00     0.178 C 
ATOM     18  O   UNL     1      28.163  34.803  21.926  1.00  0.00    -0.341 OA
ATOM     19  C   UNL     1      27.262  35.619  21.254  1.00  0.00     0.281 C 
ATOM     20  C   UNL     1      27.276  33.585  19.869  1.00  0.00     0.180 C 
ATOM     21  C   UNL     1      26.691  34.968  20.030  1.00  0.00     0.202 C 
BRANCH  17  22
ATOM     22  C   UNL     1      30.285  35.436  21.024  1.00  0.00     0.191 C 
BRANCH  22  23
ATOM     23  O   UNL     1      30.536  35.595  19.643  1.00  0.00    -0.394 OA
ATOM     24  H   UNL     1      29.851  35.167  19.085  1.00  0.00     0.210 HD
ENDBRANCH  22  23
ENDBRANCH  17  22
BRANCH  19  25
ATOM     25  O   UNL     1      27.777  36.839  20.914  1.00  0.00    -0.350 OA
BRANCH  25  26
ATOM     26  C   UNL     1      27.379  37.383  19.729  1.00  0.00     0.169 C 
BRANCH  26  27
ATOM     27  C   UNL     1      28.374  38.346  19.143  1.00  0.00     0.119 C 
BRANCH  27  28
ATOM     28  N   UNL     1      29.195  37.614  18.167  1.00  0.00    -0.092 NA
ATOM     29  N   UNL     1      29.975  38.282  17.491  1.00  0.00     0.001 N 
ATOM     30  N   UNL     1      30.489  38.686  16.426  1.00  0.00    -0.003 NA
ENDBRANCH  27  28
ENDBRANCH  26  27
ENDBRANCH  25  26
ENDBRANCH  19  25
BRANCH  20  31
ATOM     31  O   UNL     1      26.867  32.958  18.712  1.00  0.00    -0.387 OA
ATOM     32  H   UNL     1      27.021  33.535  17.914  1.00  0.00     0.211 HD
ENDBRANCH  20  31
BRANCH  21  33
ATOM     33  O   UNL     1      25.306  34.819  20.114  1.00  0.00    -0.385 OA
ATOM     34  H   UNL     1      24.860  35.141  19.291  1.00  0.00     0.211 HD
ENDBRANCH  21  33
ENDBRANCH  15  16
ENDBRANCH  10  15
BRANCH  12  35
ATOM     35  O   UNL     1      29.180  30.085  18.242  1.00  0.00    -0.385 OA
ATOM     36  H   UNL     1      28.207  29.986  18.395  1.00  0.00     0.211 HD
ENDBRANCH  12  35
BRANCH  13  37
ATOM     37  O   UNL     1      29.455  30.581  15.345  1.00  0.00    -0.387 OA
ATOM     38  H   UNL     1      29.969  30.284  14.553  1.00  0.00     0.211 HD
ENDBRANCH  13  37
BRANCH  14  39
ATOM     39  O   UNL     1      30.981  32.444  14.580  1.00  0.00    -0.387 OA
ATOM     40  H   UNL     1      30.249  33.119  14.448  1.00  0.00     0.211 HD
ENDBRANCH  14  39
ENDBRANCH   8   9
ENDBRANCH   7   8
ENDBRANCH   1   7
BRANCH   1  41
ATOM     41  C   UNL     1      31.119  35.513  13.127  1.00  0.00     0.364 C 
ATOM     42  O   UNL     1      31.189  34.519  12.416  1.00  0.00    -0.246 OA
BRANCH  41  43
ATOM     43  O   UNL     1      32.033  36.519  13.101  1.00  0.00    -0.477 OA
ATOM     44  H   UNL     1      31.938  37.361  12.516  1.00  0.00     0.296 HD
ENDBRANCH  41  43
ENDBRANCH   1  41
BRANCH   3  45
ATOM     45  O   UNL     1      27.770  36.971  15.604  1.00  0.00    -0.391 OA
ATOM     46  H   UNL     1      26.940  36.592  15.941  1.00  0.00     0.211 HD
ENDBRANCH   3  45
BRANCH   5  47
ATOM     47  C   UNL     1      27.570  33.753  15.225  1.00  0.00     0.176 C 
BRANCH  47  48
ATOM     48  O   UNL     1      27.640  34.645  16.281  1.00  0.00    -0.388 OA
ATOM     49  H   UNL     1      28.455  35.175  16.327  1.00  0.00     0.211 HD
ENDBRANCH  47  48
BRANCH  47  50
ATOM     50  C   UNL     1      26.232  33.087  15.164  1.00  0.00     0.165 C 
BRANCH  50  51
ATOM     51  O   UNL     1      25.406  33.646  16.157  1.00  0.00    -0.388 OA
ATOM     52  H   UNL     1      24.773  32.967  16.448  1.00  0.00     0.211 HD
ENDBRANCH  50  51
BRANCH  50  53
ATOM     53  C   UNL     1      26.244  31.608  15.354  1.00  0.00     0.154 C 
BRANCH  53  54
ATOM     54  N   UNL     1      25.536  31.197  16.546  1.00  0.00    -0.319 N 
ATOM     55  C   UNL     1      24.577  30.167  16.584  1.00  0.00     0.407 C 
ATOM     56  H   UNL     1      25.727  31.683  17.471  1.00  0.00     0.167 HD
ATOM     57  O   UNL     1      24.288  29.540  15.560  1.00  0.00    -0.225 OA
BRANCH  55  58
ATOM     58  O   UNL     1      23.920  29.814  17.759  1.00  0.00    -0.443 OA
BRANCH  58  59
ATOM     59  C   UNL     1      24.286  28.723  18.564  1.00  0.00     0.294 C 
BRANCH  59  60
ATOM     60  C   UNL     1      25.549  28.988  19.318  1.00  0.00     0.121 A 
ATOM     61  C   UNL     1      26.411  28.040  19.828  1.00  0.00     0.148 A 
ATOM     62  N   UNL     1      26.072  30.188  19.636  1.00  0.00    -0.131 NA
ATOM     63  N   UNL     1      27.422  28.684  20.435  1.00  0.00    -0.185 N 
ATOM     64  N   UNL     1      27.192  29.974  20.304  1.00  0.00    -0.059 NA
BRANCH  63  65
ATOM     65  C   UNL     1      28.508  28.032  21.079  1.00  0.00     0.257 A 
ATOM     66  N   UNL     1      29.672  27.877  20.421  1.00  0.00    -0.175 NA
ATOM     67  N   UNL     1      28.455  27.548  22.334  1.00  0.00    -0.196 NA
ATOM     68  C   UNL     1      30.743  27.264  20.987  1.00  0.00     0.225 A 
ATOM     69  C   UNL     1      29.489  26.939  22.925  1.00  0.00     0.133 A 
ATOM     70  N   UNL     1      30.626  26.800  22.251  1.00  0.00    -0.198 NA
ATOM     71  C   UNL     1      29.385  26.413  24.331  1.00  0.00     0.090 C 
BRANCH  68  72
ATOM     72  N   UNL     1      31.941  27.128  20.251  1.00  0.00    -0.368 N 
ATOM     73  H   UNL     1      31.997  27.397  19.250  1.00  0.00     0.159 HD
ATOM     74  H   UNL     1      32.798  26.753  20.702  1.00  0.00     0.159 HD
ENDBRANCH  68  72
ENDBRANCH  63  65
ENDBRANCH  59  60
ENDBRANCH  58  59
ENDBRANCH  55  58
ENDBRANCH  53  54
ENDBRANCH  50  53
ENDBRANCH  47  50
ENDBRANCH   5  47
BRANCH   4  75
ATOM     75  N   UNL     1      26.706  35.949  12.374  1.00  0.00    -0.348 N 
ATOM     76  C   UNL     1      25.427  35.549  11.894  1.00  0.00     0.217 C 
ATOM     77  H   UNL     1      27.357  36.389  11.676  1.00  0.00     0.163 HD
ATOM     78  C   UNL     1      25.071  35.758  10.485  1.00  0.00     0.114 C 
ATOM     79  O   UNL     1      24.611  35.020  12.679  1.00  0.00    -0.275 OA
ENDBRANCH   4  75
TORSDOF 31
BEGIN_RES LYS A 131
REMARK  4 active torsions:
REMARK  status: ('A' for Active; 'I' for Inactive)
REMARK    1  A    between atoms: CA   and  CB  
REMARK    2  A    between atoms: CB   and  CG  
REMARK    3  A    between atoms: CG   and  CD  
REMARK    4  A    between atoms: CD   and  CE  
ROOT
ATOM      1  CA  LYS A 131      29.867  25.555  16.977  1.00 20.52     0.186 C 
ENDROOT
BRANCH   1   2
ATOM      2  CB  LYS A 131      28.345  25.722  17.026  1.00 20.94     0.034 C 
BRANCH   2   3
ATOM      3  CG  LYS A 131      27.601  24.402  16.896  1.00 22.96     0.005 C 
BRANCH   3   4
ATOM      4  CD  LYS A 131      26.150  24.530  17.266  1.00 24.33     0.041 C 
BRANCH   4   5
ATOM      5  CE  LYS A 131      26.006  24.492  18.784  1.00 26.91     0.338 C 
ATOM      6  NZ  LYS A 131      25.519  23.164  19.226  1.00 27.40     0.618 N 
ENDBRANCH   4   5
ENDBRANCH   3   4
ENDBRANCH   2   3
ENDBRANCH   1   2
END_RES LYS A 131
BEGIN_RES LYS A 135
REMARK  4 active torsions:
REMARK  status: ('A' for Active; 'I' for Inactive)
REMARK    5  A    between atoms: CA   and  CB  
REMARK    6  A    between atoms: CB   and  CG  
REMARK    7  A    between atoms: CG   and  CD  
REMARK    8  A    between atoms: CD   and  CE  
ROOT
ATOM      7  CA  LYS A 135      33.193  34.663   9.290  1.00 25.02     0.186 C 
ENDROOT
BRANCH   7   8
ATOM      8  CB  LYS A 135      32.060  35.360  10.034  1.00 26.63     0.034 C 
BRANCH   8   9
ATOM      9  CG  LYS A 135      30.837  35.595   9.186  1.00 29.45     0.005 C 
BRANCH   9  10
ATOM     10  CD  LYS A 135      30.234  34.273   8.736  1.00 32.00     0.041 C 
BRANCH  10  11
ATOM     11  CE  LYS A 135      28.726  34.389   8.615  1.00 34.25     0.338 C 
ATOM     12  NZ  LYS A 135      28.043  33.741   9.769  1.00 35.99     0.618 N 
ENDBRANCH  10  11
ENDBRANCH   9  10
ENDBRANCH   8   9
ENDBRANCH   7   8
END_RES LYS A 135
