REMARK VINA RESULT:    -5.741      3.062      8.908
REMARK INTER + INTRA:         -24.219
REMARK INTER:                 -11.406
REMARK INTRA:                 -12.814
REMARK UNBOUND:                -9.416
REMARK SMILES CC(=O)N[C@@H]1[C@@H](O)C[C@](OC[C@H]2O[C@@H](O[C@H]3[C@H](O)[C@@H](O)[C@H](OCCN=[N+]=[N-])O[C@@H]3CO)[C@H](O)[C@@H](O)[C@H]2O)(C(=O)O)O[C@H]1C(O)[C@H](O)CNC(=O)OCc1cn(C(C)(C)C(=O)c2c[nH]c3ccccc23)nn1
REMARK SMILES IDX 9 1 8 2 6 3 5 4 42 5 41 6 10 7 11 8 12 9 14 10 13 11 32 12
REMARK SMILES IDX 34 13 36 14 15 15 16 16 29 17 28 18 21 19 17 20 19 21 30 22
REMARK SMILES IDX 31 23 22 25 23 26 24 27 25 28 26 29 27 30 18 31 20 33 33 35
REMARK SMILES IDX 35 37 37 39 38 41 39 42 40 43 7 45 43 47 44 48 45 50 46 51
REMARK SMILES IDX 47 53 48 54 49 55 50 57 51 58 52 59 53 60 54 61 71 62 55 63
REMARK SMILES IDX 70 64 56 65 57 66 58 67 59 68 60 69 61 70 62 71 69 72 63 73
REMARK SMILES IDX 64 74 68 75 65 77 67 78 66 79 4 80 2 81 1 83 3 84
REMARK H PARENT 31 24 18 32 20 34 33 36 35 38 37 40 40 44 7 46 44 49 46 52
REMARK H PARENT 48 56 63 76 4 82
REMARK Flexibility Score: inf
ROOT
ATOM      1  C   UNL     1      28.783  36.852   7.905  1.00  0.00     0.272 C 
ATOM      2  C   UNL     1      30.156  37.323   8.354  1.00  0.00     0.113 C 
ATOM      3  C   UNL     1      30.220  38.825   8.476  1.00  0.00     0.145 C 
ATOM      4  C   UNL     1      30.108  39.440   7.037  1.00  0.00     0.142 C 
ATOM      5  C   UNL     1      29.150  38.551   6.313  1.00  0.00     0.178 C 
ATOM      6  O   UNL     1      28.279  37.942   7.191  1.00  0.00    -0.332 OA
ENDROOT
BRANCH   1   7
ATOM      7  O   UNL     1      27.940  36.429   8.850  1.00  0.00    -0.338 OA
BRANCH   7   8
ATOM      8  C   UNL     1      28.054  35.823   9.985  1.00  0.00     0.199 C 
BRANCH   8   9
ATOM      9  C   UNL     1      27.912  36.722  11.216  1.00  0.00     0.179 C 
ATOM     10  C   UNL     1      25.578  36.555  11.606  1.00  0.00     0.282 C 
ATOM     11  O   UNL     1      26.676  37.270  11.284  1.00  0.00    -0.341 OA
ATOM     12  C   UNL     1      25.772  35.614  12.763  1.00  0.00     0.202 C 
ATOM     13  C   UNL     1      27.122  35.878  13.423  1.00  0.00     0.179 C 
ATOM     14  C   UNL     1      28.231  35.911  12.442  1.00  0.00     0.177 C 
BRANCH  10  15
ATOM     15  O   UNL     1      25.128  35.832  10.515  1.00  0.00    -0.341 OA
BRANCH  15  16
ATOM     16  C   UNL     1      24.044  36.384   9.898  1.00  0.00     0.184 C 
ATOM     17  C   UNL     1      22.806  35.567   9.814  1.00  0.00     0.178 C 
ATOM     18  O   UNL     1      21.748  36.467   9.568  1.00  0.00    -0.341 OA
ATOM     19  C   UNL     1      21.858  37.135   8.383  1.00  0.00     0.281 C 
ATOM     20  C   UNL     1      24.345  36.888   8.500  1.00  0.00     0.180 C 
ATOM     21  C   UNL     1      23.194  37.804   8.144  1.00  0.00     0.202 C 
BRANCH  17  22
ATOM     22  C   UNL     1      22.434  34.853  11.097  1.00  0.00     0.191 C 
BRANCH  22  23
ATOM     23  O   UNL     1      22.285  35.832  12.087  1.00  0.00    -0.394 OA
ATOM     24  H   UNL     1      23.121  36.007  12.578  1.00  0.00     0.210 HD
ENDBRANCH  22  23
ENDBRANCH  17  22
BRANCH  19  25
ATOM     25  O   UNL     1      20.913  38.166   8.388  1.00  0.00    -0.350 OA
BRANCH  25  26
ATOM     26  C   UNL     1      19.670  37.619   8.647  1.00  0.00     0.169 C 
BRANCH  26  27
ATOM     27  C   UNL     1      18.724  38.605   9.278  1.00  0.00     0.119 C 
BRANCH  27  28
ATOM     28  N   UNL     1      18.532  38.391  10.696  1.00  0.00    -0.092 NA
ATOM     29  N   UNL     1      19.501  38.170  11.449  1.00  0.00     0.001 N 
ATOM     30  N   UNL     1      20.465  38.443  12.169  1.00  0.00    -0.003 NA
ENDBRANCH  27  28
ENDBRANCH  26  27
ENDBRANCH  25  26
ENDBRANCH  19  25
BRANCH  20  31
ATOM     31  O   UNL     1      25.532  37.578   8.419  1.00  0.00    -0.387 OA
ATOM     32  H   UNL     1      25.525  38.108   7.593  1.00  0.00     0.211 HD
ENDBRANCH  20  31
BRANCH  21  33
ATOM     33  O   UNL     1      23.277  38.080   6.780  1.00  0.00    -0.385 OA
ATOM     34  H   UNL     1      22.599  38.749   6.493  1.00  0.00     0.211 HD
ENDBRANCH  21  33
ENDBRANCH  15  16
ENDBRANCH  10  15
BRANCH  12  35
ATOM     35  O   UNL     1      24.750  35.666  13.710  1.00  0.00    -0.385 OA
ATOM     36  H   UNL     1      24.708  34.813  14.191  1.00  0.00     0.211 HD
ENDBRANCH  12  35
BRANCH  13  37
ATOM     37  O   UNL     1      27.285  34.821  14.348  1.00  0.00    -0.387 OA
ATOM     38  H   UNL     1      26.499  34.750  14.943  1.00  0.00     0.211 HD
ENDBRANCH  13  37
BRANCH  14  39
ATOM     39  O   UNL     1      28.542  34.601  11.999  1.00  0.00    -0.387 OA
ATOM     40  H   UNL     1      27.936  33.954  12.447  1.00  0.00     0.211 HD
ENDBRANCH  14  39
ENDBRANCH   8   9
ENDBRANCH   7   8
ENDBRANCH   1   7
BRANCH   1  41
ATOM     41  C   UNL     1      28.984  35.717   6.978  1.00  0.00     0.364 C 
ATOM     42  O   UNL     1      28.092  35.464   6.129  1.00  0.00    -0.246 OA
BRANCH  41  43
ATOM     43  O   UNL     1      30.082  34.916   6.987  1.00  0.00    -0.477 OA
ATOM     44  H   UNL     1      30.543  34.516   7.802  1.00  0.00     0.296 HD
ENDBRANCH  41  43
ENDBRANCH   1  41
BRANCH   3  45
ATOM     45  O   UNL     1      29.179  39.413   9.155  1.00  0.00    -0.391 OA
ATOM     46  H   UNL     1      28.623  38.761   9.670  1.00  0.00     0.211 HD
ENDBRANCH   3  45
BRANCH   5  47
ATOM     47  C   UNL     1      28.321  39.162   5.245  1.00  0.00     0.176 C 
BRANCH  47  48
ATOM     48  O   UNL     1      27.464  38.275   4.634  1.00  0.00    -0.388 OA
ATOM     49  H   UNL     1      27.357  38.406   3.650  1.00  0.00     0.211 HD
ENDBRANCH  47  48
BRANCH  47  50
ATOM     50  C   UNL     1      27.704  40.511   5.547  1.00  0.00     0.165 C 
BRANCH  50  51
ATOM     51  O   UNL     1      27.804  40.874   6.850  1.00  0.00    -0.388 OA
ATOM     52  H   UNL     1      27.096  40.512   7.402  1.00  0.00     0.211 HD
ENDBRANCH  50  51
BRANCH  50  53
ATOM     53  C   UNL     1      26.347  40.558   4.924  1.00  0.00     0.154 C 
BRANCH  53  54
ATOM     54  N   UNL     1      25.231  40.350   5.768  1.00  0.00    -0.319 N 
ATOM     55  C   UNL     1      24.358  41.402   6.215  1.00  0.00     0.407 C 
ATOM     56  H   UNL     1      24.992  39.371   6.112  1.00  0.00     0.167 HD
ATOM     57  O   UNL     1      24.552  42.592   5.894  1.00  0.00    -0.225 OA
BRANCH  55  58
ATOM     58  O   UNL     1      23.271  41.124   7.022  1.00  0.00    -0.443 OA
BRANCH  58  59
ATOM     59  C   UNL     1      23.175  41.597   8.335  1.00  0.00     0.294 C 
BRANCH  59  60
ATOM     60  C   UNL     1      24.450  41.262   9.043  1.00  0.00     0.120 A 
ATOM     61  C   UNL     1      24.920  41.898  10.207  1.00  0.00     0.139 A 
ATOM     62  N   UNL     1      25.402  40.365   8.755  1.00  0.00    -0.132 NA
ATOM     63  N   UNL     1      26.101  41.374  10.560  1.00  0.00    -0.239 N 
ATOM     64  N   UNL     1      26.381  40.448   9.674  1.00  0.00    -0.066 NA
BRANCH  63  65
ATOM     65  C   UNL     1      26.882  41.782  11.709  1.00  0.00     0.122 C 
ATOM     66  C   UNL     1      27.661  40.505  12.180  1.00  0.00     0.046 C 
ATOM     67  C   UNL     1      26.043  42.141  12.913  1.00  0.00     0.046 C 
BRANCH  65  68
ATOM     68  C   UNL     1      27.884  42.774  11.373  1.00  0.00     0.192 C 
ATOM     69  O   UNL     1      27.934  43.785  12.201  1.00  0.00    -0.291 OA
BRANCH  68  70
ATOM     70  C   UNL     1      28.822  42.835  10.295  1.00  0.00     0.045 A 
ATOM     71  C   UNL     1      28.529  43.396   9.045  1.00  0.00     0.095 A 
ATOM     72  C   UNL     1      30.120  42.374  10.220  1.00  0.00     0.010 A 
ATOM     73  N   UNL     1      29.598  43.268   8.283  1.00  0.00    -0.360 N 
ATOM     74  C   UNL     1      30.589  42.659   8.934  1.00  0.00     0.046 A 
ATOM     75  C   UNL     1      30.972  41.741  11.083  1.00  0.00     0.011 A 
ATOM     76  H   UNL     1      29.634  43.615   7.283  1.00  0.00     0.166 HD
ATOM     77  C   UNL     1      31.872  42.315   8.545  1.00  0.00     0.027 A 
ATOM     78  C   UNL     1      32.263  41.395  10.686  1.00  0.00     0.001 A 
ATOM     79  C   UNL     1      32.700  41.684   9.427  1.00  0.00     0.002 A 
ENDBRANCH  68  70
ENDBRANCH  65  68
ENDBRANCH  63  65
ENDBRANCH  59  60
ENDBRANCH  58  59
ENDBRANCH  55  58
ENDBRANCH  53  54
ENDBRANCH  50  53
ENDBRANCH  47  50
ENDBRANCH   5  47
BRANCH   4  80
ATOM     80  N   UNL     1      31.463  39.276   6.519  1.00  0.00    -0.348 N 
ATOM     81  C   UNL     1      32.048  40.128   5.548  1.00  0.00     0.217 C 
ATOM     82  H   UNL     1      32.050  38.476   6.879  1.00  0.00     0.163 HD
ATOM     83  C   UNL     1      33.428  39.955   5.020  1.00  0.00     0.114 C 
ATOM     84  O   UNL     1      31.318  41.089   5.126  1.00  0.00    -0.275 OA
ENDBRANCH   4  80
TORSDOF 32
BEGIN_RES LYS A 131
REMARK  4 active torsions:
REMARK  status: ('A' for Active; 'I' for Inactive)
REMARK    1  A    between atoms: CA   and  CB  
REMARK    2  A    between atoms: CB   and  CG  
REMARK    3  A    between atoms: CG   and  CD  
REMARK    4  A    between atoms: CD   and  CE  
ROOT
ATOM      1  CA  LYS A 131      29.867  25.555  16.977  1.00 20.52     0.186 C 
ENDROOT
BRANCH   1   2
ATOM      2  CB  LYS A 131      28.345  25.722  17.026  1.00 20.94     0.034 C 
BRANCH   2   3
ATOM      3  CG  LYS A 131      27.600  24.408  16.844  1.00 22.96     0.005 C 
BRANCH   3   4
ATOM      4  CD  LYS A 131      26.246  24.430  17.498  1.00 24.33     0.041 C 
BRANCH   4   5
ATOM      5  CE  LYS A 131      25.695  23.009  17.573  1.00 26.91     0.338 C 
ATOM      6  NZ  LYS A 131      25.122  22.746  18.914  1.00 27.40     0.618 N 
ENDBRANCH   4   5
ENDBRANCH   3   4
ENDBRANCH   2   3
ENDBRANCH   1   2
END_RES LYS A 131
BEGIN_RES LYS A 135
REMARK  4 active torsions:
REMARK  status: ('A' for Active; 'I' for Inactive)
REMARK    5  A    between atoms: CA   and  CB  
REMARK    6  A    between atoms: CB   and  CG  
REMARK    7  A    between atoms: CG   and  CD  
REMARK    8  A    between atoms: CD   and  CE  
ROOT
ATOM      7  CA  LYS A 135      33.193  34.663   9.290  1.00 25.02     0.186 C 
ENDROOT
BRANCH   7   8
ATOM      8  CB  LYS A 135      32.060  35.360  10.034  1.00 26.63     0.034 C 
BRANCH   8   9
ATOM      9  CG  LYS A 135      32.498  36.022  11.315  1.00 29.45     0.005 C 
BRANCH   9  10
ATOM     10  CD  LYS A 135      32.131  37.498  11.309  1.00 32.00     0.041 C 
BRANCH  10  11
ATOM     11  CE  LYS A 135      31.400  37.870  12.585  1.00 34.25     0.338 C 
ATOM     12  NZ  LYS A 135      31.845  37.022  13.725  1.00 35.99     0.618 N 
ENDBRANCH  10  11
ENDBRANCH   9  10
ENDBRANCH   8   9
ENDBRANCH   7   8
END_RES LYS A 135
