REMARK VINA RESULT:    -4.671      0.000      0.000
REMARK INTER + INTRA:         -23.032
REMARK INTER:                 -12.772
REMARK INTRA:                 -10.260
REMARK UNBOUND:               -11.125
REMARK SMILES CC(=O)N[C@@H]1[C@@H](O)C[C@](OC[C@H]2O[C@@H](O[C@H]3[C@H](O)[C@@H](O)[C@H](OCCN=[N+]=[N-])O[C@@H]3CO)[C@H](O)[C@@H](O)[C@H]2O)(C(=O)O)O[C@H]1C(O)[C@H](O)CNC(=O)OCc1cn([C@@H](C)C(=O)O)nn1
REMARK SMILES IDX 9 1 8 2 6 3 5 4 42 5 41 6 10 7 11 8 12 9 14 10 13 11 32 12
REMARK SMILES IDX 34 13 36 14 15 15 16 16 29 17 28 18 21 19 17 20 19 21 30 22
REMARK SMILES IDX 31 23 22 25 23 26 24 27 25 28 26 29 27 30 18 31 20 33 33 35
REMARK SMILES IDX 35 37 37 39 38 41 39 42 40 43 7 45 43 47 44 48 45 50 46 51
REMARK SMILES IDX 47 53 48 54 49 55 50 57 51 58 52 59 53 60 54 61 62 62 55 63
REMARK SMILES IDX 61 64 56 65 57 66 58 67 59 68 60 69 4 71 2 72 1 74 3 75
REMARK H PARENT 31 24 18 32 20 34 33 36 35 38 37 40 40 44 7 46 44 49 46 52
REMARK H PARENT 48 56 60 70 4 73
REMARK Flexibility Score: inf
ROOT
ATOM      1  C   UNL     1      29.836  33.627  15.929  1.00  0.00     0.272 C 
ATOM      2  C   UNL     1      30.972  34.559  15.756  1.00  0.00     0.113 C 
ATOM      3  C   UNL     1      30.396  35.954  15.687  1.00  0.00     0.145 C 
ATOM      4  C   UNL     1      29.731  35.980  14.264  1.00  0.00     0.142 C 
ATOM      5  C   UNL     1      29.009  34.745  14.013  1.00  0.00     0.178 C 
ATOM      6  O   UNL     1      28.767  33.914  15.074  1.00  0.00    -0.332 OA
ENDROOT
BRANCH   1   7
ATOM      7  O   UNL     1      29.419  33.536  17.221  1.00  0.00    -0.338 OA
BRANCH   7   8
ATOM      8  C   UNL     1      30.306  33.228  18.184  1.00  0.00     0.199 C 
BRANCH   8   9
ATOM      9  C   UNL     1      29.659  32.330  19.269  1.00  0.00     0.179 C 
ATOM     10  C   UNL     1      27.602  31.437  19.814  1.00  0.00     0.282 C 
ATOM     11  O   UNL     1      28.373  32.092  18.860  1.00  0.00    -0.341 OA
ATOM     12  C   UNL     1      28.413  30.939  20.974  1.00  0.00     0.202 C 
ATOM     13  C   UNL     1      29.672  30.244  20.492  1.00  0.00     0.179 C 
ATOM     14  C   UNL     1      30.416  31.060  19.449  1.00  0.00     0.177 C 
BRANCH  10  15
ATOM     15  O   UNL     1      26.912  30.334  19.291  1.00  0.00    -0.341 OA
BRANCH  15  16
ATOM     16  C   UNL     1      26.943  30.319  17.905  1.00  0.00     0.184 C 
ATOM     17  C   UNL     1      25.571  30.544  17.355  1.00  0.00     0.178 C 
ATOM     18  O   UNL     1      25.048  29.402  16.746  1.00  0.00    -0.341 OA
ATOM     19  C   UNL     1      25.130  28.295  17.596  1.00  0.00     0.281 C 
ATOM     20  C   UNL     1      27.475  28.973  17.470  1.00  0.00     0.180 C 
ATOM     21  C   UNL     1      26.547  27.831  17.777  1.00  0.00     0.202 C 
BRANCH  17  22
ATOM     22  C   UNL     1      25.544  31.661  16.337  1.00  0.00     0.191 C 
BRANCH  22  23
ATOM     23  O   UNL     1      26.747  32.363  16.299  1.00  0.00    -0.394 OA
ATOM     24  H   UNL     1      27.488  31.764  16.519  1.00  0.00     0.210 HD
ENDBRANCH  22  23
ENDBRANCH  17  22
BRANCH  19  25
ATOM     25  O   UNL     1      24.404  27.286  16.989  1.00  0.00    -0.350 OA
BRANCH  25  26
ATOM     26  C   UNL     1      23.106  27.710  16.793  1.00  0.00     0.169 C 
BRANCH  26  27
ATOM     27  C   UNL     1      22.527  27.094  15.537  1.00  0.00     0.119 C 
BRANCH  27  28
ATOM     28  N   UNL     1      22.114  28.174  14.643  1.00  0.00    -0.092 NA
ATOM     29  N   UNL     1      22.928  28.859  14.022  1.00  0.00     0.001 N 
ATOM     30  N   UNL     1      23.779  29.309  13.275  1.00  0.00    -0.003 NA
ENDBRANCH  27  28
ENDBRANCH  26  27
ENDBRANCH  25  26
ENDBRANCH  19  25
BRANCH  20  31
ATOM     31  O   UNL     1      27.803  28.952  16.116  1.00  0.00    -0.387 OA
ATOM     32  H   UNL     1      28.171  29.800  15.784  1.00  0.00     0.211 HD
ENDBRANCH  20  31
BRANCH  21  33
ATOM     33  O   UNL     1      26.709  27.421  19.099  1.00  0.00    -0.385 OA
ATOM     34  H   UNL     1      27.235  26.590  19.155  1.00  0.00     0.211 HD
ENDBRANCH  21  33
ENDBRANCH  15  16
ENDBRANCH  10  15
BRANCH  12  35
ATOM     35  O   UNL     1      28.651  31.880  21.948  1.00  0.00    -0.385 OA
ATOM     36  H   UNL     1      27.831  31.996  22.522  1.00  0.00     0.211 HD
ENDBRANCH  12  35
BRANCH  13  37
ATOM     37  O   UNL     1      29.261  29.027  19.906  1.00  0.00    -0.387 OA
ATOM     38  H   UNL     1      29.171  28.316  20.594  1.00  0.00     0.211 HD
ENDBRANCH  13  37
BRANCH  14  39
ATOM     39  O   UNL     1      30.524  30.355  18.250  1.00  0.00    -0.387 OA
ATOM     40  H   UNL     1      29.621  30.087  17.940  1.00  0.00     0.211 HD
ENDBRANCH  14  39
ENDBRANCH   8   9
ENDBRANCH   7   8
ENDBRANCH   1   7
BRANCH   1  41
ATOM     41  C   UNL     1      30.282  32.287  15.462  1.00  0.00     0.364 C 
ATOM     42  O   UNL     1      29.519  31.314  15.544  1.00  0.00    -0.246 OA
BRANCH  41  43
ATOM     43  O   UNL     1      31.549  32.095  14.930  1.00  0.00    -0.477 OA
ATOM     44  H   UNL     1      32.333  31.794  15.528  1.00  0.00     0.296 HD
ENDBRANCH  41  43
ENDBRANCH   1  41
BRANCH   3  45
ATOM     45  O   UNL     1      29.331  36.021  16.576  1.00  0.00    -0.391 OA
ATOM     46  H   UNL     1      29.155  36.917  16.908  1.00  0.00     0.211 HD
ENDBRANCH   3  45
BRANCH   5  47
ATOM     47  C   UNL     1      27.701  34.866  13.248  1.00  0.00     0.176 C 
BRANCH  47  48
ATOM     48  O   UNL     1      27.893  35.916  12.279  1.00  0.00    -0.388 OA
ATOM     49  H   UNL     1      27.121  36.505  12.290  1.00  0.00     0.211 HD
ENDBRANCH  47  48
BRANCH  47  50
ATOM     50  C   UNL     1      26.548  35.389  14.080  1.00  0.00     0.165 C 
BRANCH  50  51
ATOM     51  O   UNL     1      26.669  35.235  15.426  1.00  0.00    -0.388 OA
ATOM     52  H   UNL     1      26.356  35.972  15.996  1.00  0.00     0.211 HD
ENDBRANCH  50  51
BRANCH  50  53
ATOM     53  C   UNL     1      25.222  35.040  13.496  1.00  0.00     0.154 C 
BRANCH  53  54
ATOM     54  N   UNL     1      24.951  35.487  12.181  1.00  0.00    -0.319 N 
ATOM     55  C   UNL     1      23.973  36.434  11.778  1.00  0.00     0.407 C 
ATOM     56  H   UNL     1      25.550  35.063  11.407  1.00  0.00     0.167 HD
ATOM     57  O   UNL     1      23.256  36.964  12.635  1.00  0.00    -0.225 OA
BRANCH  55  58
ATOM     58  O   UNL     1      23.832  36.753  10.417  1.00  0.00    -0.443 OA
BRANCH  58  59
ATOM     59  C   UNL     1      24.472  35.988   9.430  1.00  0.00     0.294 C 
BRANCH  59  60
ATOM     60  C   UNL     1      25.739  36.568   8.971  1.00  0.00     0.120 A 
ATOM     61  C   UNL     1      26.243  36.666   7.693  1.00  0.00     0.139 A 
ATOM     62  N   UNL     1      26.649  37.129   9.811  1.00  0.00    -0.132 NA
ATOM     63  N   UNL     1      27.425  37.275   7.789  1.00  0.00    -0.238 N 
ATOM     64  N   UNL     1      27.675  37.556   9.062  1.00  0.00    -0.066 NA
BRANCH  63  65
ATOM     65  C   UNL     1      28.309  37.584   6.684  1.00  0.00     0.215 C 
ATOM     66  C   UNL     1      28.613  36.336   5.915  1.00  0.00     0.046 C 
BRANCH  65  67
ATOM     67  C   UNL     1      27.715  38.605   5.788  1.00  0.00     0.328 C 
ATOM     68  O   UNL     1      27.466  39.742   6.258  1.00  0.00    -0.250 OA
BRANCH  67  69
ATOM     69  O   UNL     1      27.428  38.349   4.456  1.00  0.00    -0.480 OA
ATOM     70  H   UNL     1      27.870  38.865   3.705  1.00  0.00     0.296 HD
ENDBRANCH  67  69
ENDBRANCH  65  67
ENDBRANCH  63  65
ENDBRANCH  59  60
ENDBRANCH  58  59
ENDBRANCH  55  58
ENDBRANCH  53  54
ENDBRANCH  50  53
ENDBRANCH  47  50
ENDBRANCH   5  47
BRANCH   4  71
ATOM     71  N   UNL     1      30.771  36.324  13.313  1.00  0.00    -0.348 N 
ATOM     72  C   UNL     1      30.817  37.448  12.490  1.00  0.00     0.217 C 
ATOM     73  H   UNL     1      31.576  35.637  13.247  1.00  0.00     0.163 HD
ATOM     74  C   UNL     1      31.940  37.688  11.550  1.00  0.00     0.114 C 
ATOM     75  O   UNL     1      29.889  38.276  12.542  1.00  0.00    -0.275 OA
ENDBRANCH   4  71
TORSDOF 32
BEGIN_RES LYS A 131
REMARK  4 active torsions:
REMARK  status: ('A' for Active; 'I' for Inactive)
REMARK    1  A    between atoms: CA   and  CB  
REMARK    2  A    between atoms: CB   and  CG  
REMARK    3  A    between atoms: CG   and  CD  
REMARK    4  A    between atoms: CD   and  CE  
ROOT
ATOM      1  CA  LYS A 131      29.867  25.555  16.977  1.00 20.52     0.186 C 
ENDROOT
BRANCH   1   2
ATOM      2  CB  LYS A 131      28.345  25.722  17.026  1.00 20.94     0.034 C 
BRANCH   2   3
ATOM      3  CG  LYS A 131      27.600  24.414  16.806  1.00 22.96     0.005 C 
BRANCH   3   4
ATOM      4  CD  LYS A 131      26.670  24.095  17.944  1.00 24.33     0.041 C 
BRANCH   4   5
ATOM      5  CE  LYS A 131      25.583  23.140  17.460  1.00 26.91     0.338 C 
ATOM      6  NZ  LYS A 131      24.419  23.897  16.944  1.00 27.40     0.618 N 
ENDBRANCH   4   5
ENDBRANCH   3   4
ENDBRANCH   2   3
ENDBRANCH   1   2
END_RES LYS A 131
BEGIN_RES LYS A 135
REMARK  4 active torsions:
REMARK  status: ('A' for Active; 'I' for Inactive)
REMARK    5  A    between atoms: CA   and  CB  
REMARK    6  A    between atoms: CB   and  CG  
REMARK    7  A    between atoms: CG   and  CD  
REMARK    8  A    between atoms: CD   and  CE  
ROOT
ATOM      7  CA  LYS A 135      33.193  34.663   9.290  1.00 25.02     0.186 C 
ENDROOT
BRANCH   7   8
ATOM      8  CB  LYS A 135      32.060  35.360  10.034  1.00 26.63     0.034 C 
BRANCH   8   9
ATOM      9  CG  LYS A 135      30.775  35.427   9.249  1.00 29.45     0.005 C 
BRANCH   9  10
ATOM     10  CD  LYS A 135      30.169  34.041   9.093  1.00 32.00     0.041 C 
BRANCH  10  11
ATOM     11  CE  LYS A 135      28.714  34.140   8.678  1.00 34.25     0.338 C 
ATOM     12  NZ  LYS A 135      27.812  33.679   9.770  1.00 35.99     0.618 N 
ENDBRANCH  10  11
ENDBRANCH   9  10
ENDBRANCH   8   9
ENDBRANCH   7   8
END_RES LYS A 135
