REMARK VINA RESULT:    -4.322      2.542      7.149
REMARK INTER + INTRA:         -22.144
REMARK INTER:                  -8.736
REMARK INTRA:                 -13.408
REMARK UNBOUND:               -11.125
REMARK SMILES CC(=O)N[C@@H]1[C@@H](O)C[C@](OC[C@H]2O[C@@H](O[C@H]3[C@H](O)[C@@H](O)[C@H](OCCN=[N+]=[N-])O[C@@H]3CO)[C@H](O)[C@@H](O)[C@H]2O)(C(=O)O)O[C@H]1C(O)[C@H](O)CNC(=O)OCc1cn([C@@H](C)C(=O)O)nn1
REMARK SMILES IDX 9 1 8 2 6 3 5 4 42 5 41 6 10 7 11 8 12 9 14 10 13 11 32 12
REMARK SMILES IDX 34 13 36 14 15 15 16 16 29 17 28 18 21 19 17 20 19 21 30 22
REMARK SMILES IDX 31 23 22 25 23 26 24 27 25 28 26 29 27 30 18 31 20 33 33 35
REMARK SMILES IDX 35 37 37 39 38 41 39 42 40 43 7 45 43 47 44 48 45 50 46 51
REMARK SMILES IDX 47 53 48 54 49 55 50 57 51 58 52 59 53 60 54 61 62 62 55 63
REMARK SMILES IDX 61 64 56 65 57 66 58 67 59 68 60 69 4 71 2 72 1 74 3 75
REMARK H PARENT 31 24 18 32 20 34 33 36 35 38 37 40 40 44 7 46 44 49 46 52
REMARK H PARENT 48 56 60 70 4 73
REMARK Flexibility Score: inf
ROOT
ATOM      1  C   UNL     1      29.616  31.770  17.599  1.00  0.00     0.272 C 
ATOM      2  C   UNL     1      29.198  30.545  16.883  1.00  0.00     0.113 C 
ATOM      3  C   UNL     1      28.510  30.987  15.612  1.00  0.00     0.145 C 
ATOM      4  C   UNL     1      27.138  31.540  16.141  1.00  0.00     0.142 C 
ATOM      5  C   UNL     1      27.337  32.350  17.330  1.00  0.00     0.178 C 
ATOM      6  O   UNL     1      28.612  32.743  17.636  1.00  0.00    -0.332 OA
ENDROOT
BRANCH   1   7
ATOM      7  O   UNL     1      30.782  32.288  17.128  1.00  0.00    -0.338 OA
BRANCH   7   8
ATOM      8  C   UNL     1      31.080  33.578  17.368  1.00  0.00     0.199 C 
BRANCH   8   9
ATOM      9  C   UNL     1      31.914  34.181  16.210  1.00  0.00     0.179 C 
ATOM     10  C   UNL     1      31.623  34.977  14.063  1.00  0.00     0.282 C 
ATOM     11  O   UNL     1      31.019  34.569  15.248  1.00  0.00    -0.341 OA
ATOM     12  C   UNL     1      33.112  35.118  14.189  1.00  0.00     0.202 C 
ATOM     13  C   UNL     1      33.476  35.866  15.457  1.00  0.00     0.179 C 
ATOM     14  C   UNL     1      32.744  35.327  16.675  1.00  0.00     0.177 C 
BRANCH  10  15
ATOM     15  O   UNL     1      31.132  36.205  13.598  1.00  0.00    -0.341 OA
BRANCH  15  16
ATOM     16  C   UNL     1      29.770  36.334  13.828  1.00  0.00     0.184 C 
ATOM     17  C   UNL     1      29.027  36.354  12.530  1.00  0.00     0.178 C 
ATOM     18  O   UNL     1      28.478  37.607  12.253  1.00  0.00    -0.341 OA
ATOM     19  C   UNL     1      29.442  38.615  12.356  1.00  0.00     0.281 C 
ATOM     20  C   UNL     1      29.550  37.622  14.586  1.00  0.00     0.180 C 
ATOM     21  C   UNL     1      29.851  38.855  13.781  1.00  0.00     0.202 C 
BRANCH  17  22
ATOM     22  C   UNL     1      27.903  35.344  12.504  1.00  0.00     0.191 C 
BRANCH  22  23
ATOM     23  O   UNL     1      26.776  35.797  13.187  1.00  0.00    -0.394 OA
ATOM     24  H   UNL     1      26.915  35.711  14.151  1.00  0.00     0.210 HD
ENDBRANCH  22  23
ENDBRANCH  17  22
BRANCH  19  25
ATOM     25  O   UNL     1      28.854  39.766  11.861  1.00  0.00    -0.350 OA
BRANCH  25  26
ATOM     26  C   UNL     1      27.490  39.584  11.780  1.00  0.00     0.169 C 
BRANCH  26  27
ATOM     27  C   UNL     1      26.770  40.510  12.739  1.00  0.00     0.119 C 
BRANCH  27  28
ATOM     28  N   UNL     1      26.229  39.707  13.834  1.00  0.00    -0.092 NA
ATOM     29  N   UNL     1      25.359  38.854  13.655  1.00  0.00     0.001 N 
ATOM     30  N   UNL     1      24.691  37.883  13.346  1.00  0.00    -0.003 NA
ENDBRANCH  27  28
ENDBRANCH  26  27
ENDBRANCH  25  26
ENDBRANCH  19  25
BRANCH  20  31
ATOM     31  O   UNL     1      28.259  37.711  15.104  1.00  0.00    -0.387 OA
ATOM     32  H   UNL     1      27.726  36.896  14.982  1.00  0.00     0.211 HD
ENDBRANCH  20  31
BRANCH  21  33
ATOM     33  O   UNL     1      31.219  39.123  13.805  1.00  0.00    -0.385 OA
ATOM     34  H   UNL     1      31.647  38.881  12.952  1.00  0.00     0.211 HD
ENDBRANCH  21  33
ENDBRANCH  15  16
ENDBRANCH  10  15
BRANCH  12  35
ATOM     35  O   UNL     1      33.810  33.944  14.031  1.00  0.00    -0.385 OA
ATOM     36  H   UNL     1      34.719  34.024  14.458  1.00  0.00     0.211 HD
ENDBRANCH  12  35
BRANCH  13  37
ATOM     37  O   UNL     1      33.093  37.210  15.256  1.00  0.00    -0.387 OA
ATOM     38  H   UNL     1      33.425  37.545  14.382  1.00  0.00     0.211 HD
ENDBRANCH  13  37
BRANCH  14  39
ATOM     39  O   UNL     1      31.961  36.320  17.263  1.00  0.00    -0.387 OA
ATOM     40  H   UNL     1      32.456  36.729  18.019  1.00  0.00     0.211 HD
ENDBRANCH  14  39
ENDBRANCH   8   9
ENDBRANCH   7   8
ENDBRANCH   1   7
BRANCH   1  41
ATOM     41  C   UNL     1      29.782  31.413  19.033  1.00  0.00     0.364 C 
ATOM     42  O   UNL     1      30.414  30.396  19.353  1.00  0.00    -0.246 OA
BRANCH  41  43
ATOM     43  O   UNL     1      29.240  32.201  20.039  1.00  0.00    -0.477 OA
ATOM     44  H   UNL     1      29.293  33.229  19.990  1.00  0.00     0.296 HD
ENDBRANCH  41  43
ENDBRANCH   1  41
BRANCH   3  45
ATOM     45  O   UNL     1      29.180  32.104  15.129  1.00  0.00    -0.391 OA
ATOM     46  H   UNL     1      28.836  32.945  15.477  1.00  0.00     0.211 HD
ENDBRANCH   3  45
BRANCH   5  47
ATOM     47  C   UNL     1      26.457  33.582  17.468  1.00  0.00     0.176 C 
BRANCH  47  48
ATOM     48  O   UNL     1      25.099  33.136  17.280  1.00  0.00    -0.388 OA
ATOM     49  H   UNL     1      25.087  32.166  17.228  1.00  0.00     0.211 HD
ENDBRANCH  47  48
BRANCH  47  50
ATOM     50  C   UNL     1      26.632  34.591  16.351  1.00  0.00     0.165 C 
BRANCH  50  51
ATOM     51  O   UNL     1      27.915  34.854  15.984  1.00  0.00    -0.388 OA
ATOM     52  H   UNL     1      28.449  34.105  15.638  1.00  0.00     0.211 HD
ENDBRANCH  50  51
BRANCH  50  53
ATOM     53  C   UNL     1      25.738  35.774  16.509  1.00  0.00     0.154 C 
BRANCH  53  54
ATOM     54  N   UNL     1      24.615  35.861  15.652  1.00  0.00    -0.319 N 
ATOM     55  C   UNL     1      23.257  35.617  15.985  1.00  0.00     0.407 C 
ATOM     56  H   UNL     1      24.814  36.142  14.642  1.00  0.00     0.167 HD
ATOM     57  O   UNL     1      22.967  35.298  17.144  1.00  0.00    -0.225 OA
BRANCH  55  58
ATOM     58  O   UNL     1      22.265  35.740  14.997  1.00  0.00    -0.443 OA
BRANCH  58  59
ATOM     59  C   UNL     1      22.031  34.703  14.082  1.00  0.00     0.294 C 
BRANCH  59  60
ATOM     60  C   UNL     1      22.912  34.749  12.910  1.00  0.00     0.120 A 
ATOM     61  C   UNL     1      22.685  35.300  11.668  1.00  0.00     0.139 A 
ATOM     62  N   UNL     1      24.162  34.216  12.896  1.00  0.00    -0.132 NA
ATOM     63  N   UNL     1      23.787  35.091  10.945  1.00  0.00    -0.238 N 
ATOM     64  N   UNL     1      24.680  34.439  11.679  1.00  0.00    -0.066 NA
BRANCH  63  65
ATOM     65  C   UNL     1      23.988  35.505   9.571  1.00  0.00     0.215 C 
ATOM     66  C   UNL     1      22.690  35.972   8.989  1.00  0.00     0.046 C 
BRANCH  65  67
ATOM     67  C   UNL     1      25.007  36.576   9.475  1.00  0.00     0.328 C 
ATOM     68  O   UNL     1      25.212  37.109   8.357  1.00  0.00    -0.250 OA
BRANCH  67  69
ATOM     69  O   UNL     1      25.738  37.008  10.571  1.00  0.00    -0.480 OA
ATOM     70  H   UNL     1      25.322  37.092  11.491  1.00  0.00     0.296 HD
ENDBRANCH  67  69
ENDBRANCH  65  67
ENDBRANCH  63  65
ENDBRANCH  59  60
ENDBRANCH  58  59
ENDBRANCH  55  58
ENDBRANCH  53  54
ENDBRANCH  50  53
ENDBRANCH  47  50
ENDBRANCH   5  47
BRANCH   4  71
ATOM     71  N   UNL     1      26.243  30.407  16.274  1.00  0.00    -0.348 N 
ATOM     72  C   UNL     1      24.967  30.276  15.728  1.00  0.00     0.217 C 
ATOM     73  H   UNL     1      26.612  29.598  16.852  1.00  0.00     0.163 HD
ATOM     74  C   UNL     1      24.143  29.062  15.940  1.00  0.00     0.114 C 
ATOM     75  O   UNL     1      24.502  31.207  15.044  1.00  0.00    -0.275 OA
ENDBRANCH   4  71
TORSDOF 32
BEGIN_RES LYS A 131
REMARK  4 active torsions:
REMARK  status: ('A' for Active; 'I' for Inactive)
REMARK    1  A    between atoms: CA   and  CB  
REMARK    2  A    between atoms: CB   and  CG  
REMARK    3  A    between atoms: CG   and  CD  
REMARK    4  A    between atoms: CD   and  CE  
ROOT
ATOM      1  CA  LYS A 131      29.867  25.555  16.977  1.00 20.52     0.186 C 
ENDROOT
BRANCH   1   2
ATOM      2  CB  LYS A 131      28.345  25.722  17.026  1.00 20.94     0.034 C 
BRANCH   2   3
ATOM      3  CG  LYS A 131      27.599  24.444  16.676  1.00 22.96     0.005 C 
BRANCH   3   4
ATOM      4  CD  LYS A 131      27.029  23.769  17.893  1.00 24.33     0.041 C 
BRANCH   4   5
ATOM      5  CE  LYS A 131      26.017  24.695  18.561  1.00 26.91     0.338 C 
ATOM      6  NZ  LYS A 131      25.457  24.059  19.777  1.00 27.40     0.618 N 
ENDBRANCH   4   5
ENDBRANCH   3   4
ENDBRANCH   2   3
ENDBRANCH   1   2
END_RES LYS A 131
BEGIN_RES LYS A 135
REMARK  4 active torsions:
REMARK  status: ('A' for Active; 'I' for Inactive)
REMARK    5  A    between atoms: CA   and  CB  
REMARK    6  A    between atoms: CB   and  CG  
REMARK    7  A    between atoms: CG   and  CD  
REMARK    8  A    between atoms: CD   and  CE  
ROOT
ATOM      7  CA  LYS A 135      33.193  34.663   9.290  1.00 25.02     0.186 C 
ENDROOT
BRANCH   7   8
ATOM      8  CB  LYS A 135      32.060  35.360  10.034  1.00 26.63     0.034 C 
BRANCH   8   9
ATOM      9  CG  LYS A 135      30.735  34.652   9.914  1.00 29.45     0.005 C 
BRANCH   9  10
ATOM     10  CD  LYS A 135      30.321  34.530   8.456  1.00 32.00     0.041 C 
BRANCH  10  11
ATOM     11  CE  LYS A 135      28.810  34.536   8.329  1.00 34.25     0.338 C 
ATOM     12  NZ  LYS A 135      28.371  35.382   7.185  1.00 35.99     0.618 N 
ENDBRANCH  10  11
ENDBRANCH   9  10
ENDBRANCH   8   9
ENDBRANCH   7   8
END_RES LYS A 135
