REMARK VINA RESULT:    -3.791      2.433      8.402
REMARK INTER + INTRA:         -22.298
REMARK INTER:                 -10.555
REMARK INTRA:                 -11.743
REMARK UNBOUND:               -11.857
REMARK SMILES CC[N+](C)(CC)CCCn1cc(COC(=O)NC[C@@H](O)C(O)[C@@H]2O[C@@](OC[C@H]3O[C@@H](O[C@H]4[C@H](O)[C@@H](O)[C@H](OCCN=[N+]=[N-])O[C@@H]4CO)[C@H](O)[C@@H](O)[C@H]3O)(C(=O)O)C[C@H](O)[C@H]2NC(C)=O)nn1
REMARK SMILES IDX 21 1 23 2 25 3 57 4 24 5 58 6 60 7 26 8 27 9 28 10 30 11
REMARK SMILES IDX 29 12 48 13 50 14 52 15 31 16 32 17 45 18 44 19 37 20 33 21
REMARK SMILES IDX 35 22 46 23 47 24 38 26 39 27 40 28 41 29 42 30 43 31 34 32
REMARK SMILES IDX 36 34 49 36 51 38 53 40 54 42 55 43 56 44 59 46 61 48 62 49
REMARK SMILES IDX 63 51 64 52 22 53 19 55 20 56 18 58 17 59 15 60 16 62 14 63
REMARK SMILES IDX 13 64 12 65 11 66 65 67 10 68 66 69 9 70 8 71 7 72 3 73 4 74
REMARK SMILES IDX 2 75 1 76 5 77 6 78
REMARK H PARENT 47 25 34 33 36 35 49 37 51 39 53 41 56 45 59 47 61 50 22 54
REMARK H PARENT 20 57 17 61
REMARK Flexibility Score: inf
ROOT
ATOM      1  C   UNL     1      26.687  31.155  16.432  1.00  0.00     0.176 C 
ENDROOT
BRANCH   1   2
ATOM      2  C   UNL     1      25.251  30.854  16.851  1.00  0.00     0.178 C 
ATOM      3  C   UNL     1      24.023  30.300  18.787  1.00  0.00     0.272 C 
ATOM      4  C   UNL     1      23.167  29.542  17.828  1.00  0.00     0.113 C 
ATOM      5  O   UNL     1      25.292  30.417  18.157  1.00  0.00    -0.332 OA
ATOM      6  C   UNL     1      23.973  28.806  16.790  1.00  0.00     0.145 C 
ATOM      7  C   UNL     1      24.669  29.845  15.915  1.00  0.00     0.142 C 
BRANCH   3   8
ATOM      8  O   UNL     1      24.318  29.611  19.945  1.00  0.00    -0.338 OA
BRANCH   8   9
ATOM      9  C   UNL     1      25.579  29.230  20.207  1.00  0.00     0.199 C 
BRANCH   9  10
ATOM     10  C   UNL     1      25.688  27.685  20.291  1.00  0.00     0.179 C 
ATOM     11  C   UNL     1      28.020  27.371  20.465  1.00  0.00     0.282 C 
ATOM     12  O   UNL     1      26.827  27.204  19.773  1.00  0.00    -0.341 OA
ATOM     13  C   UNL     1      27.868  27.370  21.938  1.00  0.00     0.202 C 
ATOM     14  C   UNL     1      26.654  26.457  22.213  1.00  0.00     0.179 C 
ATOM     15  C   UNL     1      25.465  27.266  21.744  1.00  0.00     0.177 C 
BRANCH  11  16
ATOM     16  O   UNL     1      28.756  28.432  19.918  1.00  0.00    -0.341 OA
BRANCH  16  17
ATOM     17  C   UNL     1      29.639  28.974  20.806  1.00  0.00     0.184 C 
ATOM     18  C   UNL     1      29.781  30.430  20.912  1.00  0.00     0.178 C 
ATOM     19  O   UNL     1      30.504  30.742  22.049  1.00  0.00    -0.341 OA
ATOM     20  C   UNL     1      31.292  29.806  22.615  1.00  0.00     0.281 C 
ATOM     21  C   UNL     1      31.066  28.443  20.534  1.00  0.00     0.180 C 
ATOM     22  C   UNL     1      31.949  28.802  21.700  1.00  0.00     0.202 C 
BRANCH  18  23
ATOM     23  C   UNL     1      28.495  31.232  20.956  1.00  0.00     0.191 C 
BRANCH  23  24
ATOM     24  O   UNL     1      27.924  31.429  19.705  1.00  0.00    -0.394 OA
ATOM     25  H   UNL     1      27.082  31.964  19.865  1.00  0.00     0.210 HD
ENDBRANCH  23  24
ENDBRANCH  18  23
BRANCH  20  26
ATOM     26  O   UNL     1      30.669  29.209  23.695  1.00  0.00    -0.350 OA
BRANCH  26  27
ATOM     27  C   UNL     1      31.449  28.971  24.778  1.00  0.00     0.169 C 
BRANCH  27  28
ATOM     28  C   UNL     1      31.323  27.565  25.327  1.00  0.00     0.119 C 
BRANCH  28  29
ATOM     29  N   UNL     1      29.939  27.310  25.689  1.00  0.00    -0.092 NA
ATOM     30  N   UNL     1      29.388  26.227  25.510  1.00  0.00     0.001 N 
ATOM     31  N   UNL     1      28.823  25.142  25.360  1.00  0.00    -0.003 NA
ENDBRANCH  28  29
ENDBRANCH  27  28
ENDBRANCH  26  27
ENDBRANCH  20  26
BRANCH  21  32
ATOM     32  O   UNL     1      30.945  27.097  20.279  1.00  0.00    -0.387 OA
ATOM     33  H   UNL     1      31.717  26.673  19.871  1.00  0.00     0.211 HD
ENDBRANCH  21  32
BRANCH  22  34
ATOM     34  O   UNL     1      33.175  29.230  21.217  1.00  0.00    -0.385 OA
ATOM     35  H   UNL     1      33.788  29.569  21.920  1.00  0.00     0.211 HD
ENDBRANCH  22  34
ENDBRANCH  16  17
ENDBRANCH  11  16
BRANCH  13  36
ATOM     36  O   UNL     1      28.946  26.781  22.617  1.00  0.00    -0.385 OA
ATOM     37  H   UNL     1      28.747  26.837  23.577  1.00  0.00     0.211 HD
ENDBRANCH  13  36
BRANCH  14  38
ATOM     38  O   UNL     1      26.565  26.204  23.582  1.00  0.00    -0.387 OA
ATOM     39  H   UNL     1      27.481  26.185  23.927  1.00  0.00     0.211 HD
ENDBRANCH  14  38
BRANCH  15  40
ATOM     40  O   UNL     1      25.471  28.432  22.506  1.00  0.00    -0.387 OA
ATOM     41  H   UNL     1      25.319  29.253  22.014  1.00  0.00     0.211 HD
ENDBRANCH  15  40
ENDBRANCH   9  10
ENDBRANCH   8   9
ENDBRANCH   3   8
BRANCH   3  42
ATOM     42  C   UNL     1      23.527  31.645  19.125  1.00  0.00     0.364 C 
ATOM     43  O   UNL     1      24.194  32.439  19.825  1.00  0.00    -0.246 OA
BRANCH  42  44
ATOM     44  O   UNL     1      22.301  32.078  18.680  1.00  0.00    -0.477 OA
ATOM     45  H   UNL     1      21.440  31.551  18.811  1.00  0.00     0.296 HD
ENDBRANCH  42  44
ENDBRANCH   3  42
BRANCH   6  46
ATOM     46  O   UNL     1      24.911  27.955  17.324  1.00  0.00    -0.391 OA
ATOM     47  H   UNL     1      24.925  27.993  18.329  1.00  0.00     0.211 HD
ENDBRANCH   6  46
BRANCH   7  48
ATOM     48  N   UNL     1      23.578  30.479  15.156  1.00  0.00    -0.348 N 
ATOM     49  C   UNL     1      23.692  30.724  13.759  1.00  0.00     0.217 C 
ATOM     50  H   UNL     1      22.683  30.784  15.589  1.00  0.00     0.163 HD
ATOM     51  C   UNL     1      22.618  31.357  12.953  1.00  0.00     0.114 C 
ATOM     52  O   UNL     1      24.743  30.386  13.186  1.00  0.00    -0.275 OA
ENDBRANCH   7  48
ENDBRANCH   1   2
BRANCH   1  53
ATOM     53  O   UNL     1      26.650  31.859  15.180  1.00  0.00    -0.388 OA
ATOM     54  H   UNL     1      27.579  32.166  15.010  1.00  0.00     0.211 HD
ENDBRANCH   1  53
BRANCH   1  55
ATOM     55  C   UNL     1      27.447  29.894  16.180  1.00  0.00     0.165 C 
BRANCH  55  56
ATOM     56  O   UNL     1      27.721  29.409  17.526  1.00  0.00    -0.388 OA
ATOM     57  H   UNL     1      27.730  28.404  17.473  1.00  0.00     0.211 HD
ENDBRANCH  55  56
BRANCH  55  58
ATOM     58  C   UNL     1      28.750  29.999  15.477  1.00  0.00     0.154 C 
BRANCH  58  59
ATOM     59  N   UNL     1      29.556  31.133  15.545  1.00  0.00    -0.319 N 
ATOM     60  C   UNL     1      30.296  31.623  16.646  1.00  0.00     0.407 C 
ATOM     61  H   UNL     1      29.637  31.742  14.631  1.00  0.00     0.167 HD
ATOM     62  O   UNL     1      30.326  31.072  17.757  1.00  0.00    -0.225 OA
BRANCH  60  63
ATOM     63  O   UNL     1      31.051  32.814  16.512  1.00  0.00    -0.443 OA
BRANCH  63  64
ATOM     64  C   UNL     1      31.764  32.991  15.273  1.00  0.00     0.294 C 
BRANCH  64  65
ATOM     65  C   UNL     1      31.077  34.188  14.658  1.00  0.00     0.120 A 
ATOM     66  C   UNL     1      29.987  34.172  13.822  1.00  0.00     0.138 A 
ATOM     67  N   UNL     1      31.350  35.485  14.838  1.00  0.00    -0.132 NA
ATOM     68  N   UNL     1      29.636  35.465  13.526  1.00  0.00    -0.252 N 
ATOM     69  N   UNL     1      30.498  36.233  14.167  1.00  0.00    -0.067 NA
BRANCH  68  70
ATOM     70  C   UNL     1      28.507  35.871  12.709  1.00  0.00     0.152 C 
BRANCH  70  71
ATOM     71  C   UNL     1      27.399  36.420  13.499  1.00  0.00     0.085 C 
BRANCH  71  72
ATOM     72  C   UNL     1      26.710  35.593  14.504  1.00  0.00     0.265 C 
BRANCH  72  73
ATOM     73  N   UNL     1      26.926  35.861  15.886  1.00  0.00    -0.326 N 
ATOM     74  C   UNL     1      27.467  37.182  16.059  1.00  0.00     0.334 C 
BRANCH  73  75
ATOM     75  C   UNL     1      27.704  34.887  16.597  1.00  0.00     0.260 C 
ATOM     76  C   UNL     1      28.828  35.497  17.399  1.00  0.00     0.071 C 
ENDBRANCH  73  75
BRANCH  73  77
ATOM     77  C   UNL     1      25.589  35.909  16.501  1.00  0.00     0.260 C 
ATOM     78  C   UNL     1      25.146  34.615  17.089  1.00  0.00     0.071 C 
ENDBRANCH  73  77
ENDBRANCH  72  73
ENDBRANCH  71  72
ENDBRANCH  70  71
ENDBRANCH  68  70
ENDBRANCH  64  65
ENDBRANCH  63  64
ENDBRANCH  60  63
ENDBRANCH  58  59
ENDBRANCH  55  58
ENDBRANCH   1  55
TORSDOF 35
BEGIN_RES LYS A 131
REMARK  4 active torsions:
REMARK  status: ('A' for Active; 'I' for Inactive)
REMARK    1  A    between atoms: CA   and  CB  
REMARK    2  A    between atoms: CB   and  CG  
REMARK    3  A    between atoms: CG   and  CD  
REMARK    4  A    between atoms: CD   and  CE  
ROOT
ATOM      1  CA  LYS A 131      29.867  25.555  16.977  1.00 20.52     0.186 C 
ENDROOT
BRANCH   1   2
ATOM      2  CB  LYS A 131      28.345  25.722  17.026  1.00 20.94     0.034 C 
BRANCH   2   3
ATOM      3  CG  LYS A 131      27.602  24.398  16.934  1.00 22.96     0.005 C 
BRANCH   3   4
ATOM      4  CD  LYS A 131      26.173  24.518  17.385  1.00 24.33     0.041 C 
BRANCH   4   5
ATOM      5  CE  LYS A 131      25.864  23.421  18.398  1.00 26.91     0.338 C 
ATOM      6  NZ  LYS A 131      25.498  24.012  19.707  1.00 27.40     0.618 N 
ENDBRANCH   4   5
ENDBRANCH   3   4
ENDBRANCH   2   3
ENDBRANCH   1   2
END_RES LYS A 131
BEGIN_RES LYS A 135
REMARK  4 active torsions:
REMARK  status: ('A' for Active; 'I' for Inactive)
REMARK    5  A    between atoms: CA   and  CB  
REMARK    6  A    between atoms: CB   and  CG  
REMARK    7  A    between atoms: CG   and  CD  
REMARK    8  A    between atoms: CD   and  CE  
ROOT
ATOM      7  CA  LYS A 135      33.193  34.663   9.290  1.00 25.02     0.186 C 
ENDROOT
BRANCH   7   8
ATOM      8  CB  LYS A 135      32.060  35.360  10.034  1.00 26.63     0.034 C 
BRANCH   8   9
ATOM      9  CG  LYS A 135      30.746  34.627   9.953  1.00 29.45     0.005 C 
BRANCH   9  10
ATOM     10  CD  LYS A 135      30.278  34.521   8.510  1.00 32.00     0.041 C 
BRANCH  10  11
ATOM     11  CE  LYS A 135      29.596  35.804   8.076  1.00 34.25     0.338 C 
ATOM     12  NZ  LYS A 135      28.879  35.620   6.783  1.00 35.99     0.618 N 
ENDBRANCH  10  11
ENDBRANCH   9  10
ENDBRANCH   8   9
ENDBRANCH   7   8
END_RES LYS A 135
