REMARK VINA RESULT:    -3.914      3.368      7.242
REMARK INTER + INTRA:         -22.251
REMARK INTER:                  -9.986
REMARK INTRA:                 -12.265
REMARK UNBOUND:               -11.702
REMARK SMILES CC(=O)N[C@@H]1[C@@H](O)C[C@](OC[C@H]2O[C@@H](O[C@H]3[C@H](O)[C@@H](O)[C@H](OCCN=[N+]=[N-])O[C@@H]3CO)[C@H](O)[C@@H](O)[C@H]2O)(C(=O)O)O[C@H]1C(O)[C@H](O)CNC(=O)OCc1cn([C@@H](CC(=O)O)C(=O)O)nn1
REMARK SMILES IDX 43 1 42 2 9 3 8 4 41 5 6 6 5 7 10 8 11 9 12 10 14 11 13 12
REMARK SMILES IDX 32 13 34 14 36 15 15 16 16 17 29 18 28 19 21 20 17 21 19 22
REMARK SMILES IDX 30 23 31 24 22 26 23 27 24 28 25 29 26 30 27 31 18 32 20 34
REMARK SMILES IDX 33 36 35 38 37 40 38 42 39 43 40 44 7 46 4 48 2 49 1 51 3 52
REMARK SMILES IDX 44 53 45 55 46 56 47 58 48 59 49 60 50 62 51 63 52 64 53 65
REMARK SMILES IDX 54 66 65 67 55 68 64 69 56 70 57 71 58 72 59 73 60 74 61 76
REMARK SMILES IDX 62 77 63 78
REMARK H PARENT 31 25 18 33 20 35 33 37 35 39 37 41 40 45 7 47 4 50 44 54
REMARK H PARENT 46 57 48 61 60 75 63 79
REMARK Flexibility Score: inf
ROOT
ATOM      1  C   UNL     1      22.450  37.116   7.796  1.00  0.00     0.176 C 
ENDROOT
BRANCH   1   2
ATOM      2  C   UNL     1      23.880  37.629   7.826  1.00  0.00     0.178 C 
ATOM      3  C   UNL     1      26.020  37.009   8.577  1.00  0.00     0.272 C 
ATOM      4  C   UNL     1      26.144  38.522   8.351  1.00  0.00     0.113 C 
ATOM      5  O   UNL     1      24.635  36.733   8.518  1.00  0.00    -0.332 OA
ATOM      6  C   UNL     1      25.088  39.152   9.248  1.00  0.00     0.145 C 
ATOM      7  C   UNL     1      23.802  39.026   8.415  1.00  0.00     0.142 C 
BRANCH   3   8
ATOM      8  O   UNL     1      26.525  36.662   9.669  1.00  0.00    -0.338 OA
BRANCH   8   9
ATOM      9  C   UNL     1      27.034  36.326  10.753  1.00  0.00     0.199 C 
BRANCH   9  10
ATOM     10  C   UNL     1      26.710  34.931  11.288  1.00  0.00     0.179 C 
ATOM     11  C   UNL     1      27.604  34.984  13.408  1.00  0.00     0.282 C 
ATOM     12  O   UNL     1      27.602  34.417  12.166  1.00  0.00    -0.341 OA
ATOM     13  C   UNL     1      26.274  34.960  14.055  1.00  0.00     0.202 C 
ATOM     14  C   UNL     1      25.379  34.090  13.158  1.00  0.00     0.179 C 
ATOM     15  C   UNL     1      25.307  34.840  11.841  1.00  0.00     0.177 C 
BRANCH  11  16
ATOM     16  O   UNL     1      28.338  36.152  13.541  1.00  0.00    -0.341 OA
BRANCH  16  17
ATOM     17  C   UNL     1      29.575  35.966  14.114  1.00  0.00     0.184 C 
ATOM     18  C   UNL     1      29.965  37.103  14.989  1.00  0.00     0.178 C 
ATOM     19  O   UNL     1      31.190  36.873  15.603  1.00  0.00    -0.341 OA
ATOM     20  C   UNL     1      32.120  36.219  14.788  1.00  0.00     0.281 C 
ATOM     21  C   UNL     1      30.561  35.854  12.954  1.00  0.00     0.180 C 
ATOM     22  C   UNL     1      31.838  36.538  13.323  1.00  0.00     0.202 C 
BRANCH  18  23
ATOM     23  C   UNL     1      28.945  37.178  16.124  1.00  0.00     0.191 C 
BRANCH  23  24
ATOM     24  O   UNL     1      28.675  35.868  16.571  1.00  0.00    -0.394 OA
ATOM     25  H   UNL     1      28.627  35.322  15.731  1.00  0.00     0.210 HD
ENDBRANCH  23  24
ENDBRANCH  18  23
BRANCH  20  26
ATOM     26  O   UNL     1      31.938  34.859  14.960  1.00  0.00    -0.350 OA
BRANCH  26  27
ATOM     27  C   UNL     1      32.172  34.360  16.204  1.00  0.00     0.169 C 
BRANCH  27  28
ATOM     28  C   UNL     1      31.487  33.040  16.390  1.00  0.00     0.119 C 
BRANCH  28  29
ATOM     29  N   UNL     1      30.507  32.882  15.313  1.00  0.00    -0.092 NA
ATOM     30  N   UNL     1      29.322  32.664  15.638  1.00  0.00     0.001 N 
ATOM     31  N   UNL     1      28.228  32.071  15.611  1.00  0.00    -0.003 NA
ENDBRANCH  28  29
ENDBRANCH  27  28
ENDBRANCH  26  27
ENDBRANCH  20  26
BRANCH  21  32
ATOM     32  O   UNL     1      30.808  34.516  12.674  1.00  0.00    -0.387 OA
ATOM     33  H   UNL     1      29.955  33.994  12.702  1.00  0.00     0.211 HD
ENDBRANCH  21  32
BRANCH  22  34
ATOM     34  O   UNL     1      31.825  37.918  13.114  1.00  0.00    -0.385 OA
ATOM     35  H   UNL     1      31.451  38.299  13.970  1.00  0.00     0.211 HD
ENDBRANCH  22  34
ENDBRANCH  16  17
ENDBRANCH  11  16
BRANCH  13  36
ATOM     36  O   UNL     1      26.266  34.334  15.304  1.00  0.00    -0.385 OA
ATOM     37  H   UNL     1      25.416  33.810  15.367  1.00  0.00     0.211 HD
ENDBRANCH  13  36
BRANCH  14  38
ATOM     38  O   UNL     1      24.134  33.874  13.694  1.00  0.00    -0.387 OA
ATOM     39  H   UNL     1      24.146  33.171  14.403  1.00  0.00     0.211 HD
ENDBRANCH  14  38
BRANCH  15  40
ATOM     40  O   UNL     1      24.743  36.078  12.053  1.00  0.00    -0.387 OA
ATOM     41  H   UNL     1      23.809  36.147  11.793  1.00  0.00     0.211 HD
ENDBRANCH  15  40
ENDBRANCH   9  10
ENDBRANCH   8   9
ENDBRANCH   3   8
BRANCH   3  42
ATOM     42  C   UNL     1      26.648  36.407   7.323  1.00  0.00     0.364 C 
ATOM     43  O   UNL     1      27.175  35.286   7.374  1.00  0.00    -0.246 OA
BRANCH  42  44
ATOM     44  O   UNL     1      26.644  37.091   6.123  1.00  0.00    -0.477 OA
ATOM     45  H   UNL     1      27.195  37.948   5.975  1.00  0.00     0.296 HD
ENDBRANCH  42  44
ENDBRANCH   3  42
BRANCH   6  46
ATOM     46  O   UNL     1      24.836  38.310  10.353  1.00  0.00    -0.391 OA
ATOM     47  H   UNL     1      25.616  38.189  10.920  1.00  0.00     0.211 HD
ENDBRANCH   6  46
BRANCH   7  48
ATOM     48  N   UNL     1      23.867  40.072   7.422  1.00  0.00    -0.348 N 
ATOM     49  C   UNL     1      22.902  41.126   7.426  1.00  0.00     0.217 C 
ATOM     50  H   UNL     1      24.599  40.104   6.676  1.00  0.00     0.163 HD
ATOM     51  C   UNL     1      23.022  42.182   6.365  1.00  0.00     0.114 C 
ATOM     52  O   UNL     1      21.979  41.180   8.281  1.00  0.00    -0.275 OA
ENDBRANCH   7  48
ENDBRANCH   1   2
BRANCH   1  53
ATOM     53  O   UNL     1      21.531  38.149   7.939  1.00  0.00    -0.388 OA
ATOM     54  H   UNL     1      21.965  39.046   7.863  1.00  0.00     0.211 HD
ENDBRANCH   1  53
BRANCH   1  55
ATOM     55  C   UNL     1      22.143  36.006   8.728  1.00  0.00     0.165 C 
BRANCH  55  56
ATOM     56  O   UNL     1      21.610  34.868   8.166  1.00  0.00    -0.388 OA
ATOM     57  H   UNL     1      21.126  35.021   7.311  1.00  0.00     0.211 HD
ENDBRANCH  55  56
BRANCH  55  58
ATOM     58  C   UNL     1      21.417  36.489   9.937  1.00  0.00     0.154 C 
BRANCH  58  59
ATOM     59  N   UNL     1      22.200  37.178  10.915  1.00  0.00    -0.319 N 
ATOM     60  C   UNL     1      21.829  38.485  11.310  1.00  0.00     0.407 C 
ATOM     61  H   UNL     1      23.029  36.743  11.343  1.00  0.00     0.167 HD
ATOM     62  O   UNL     1      20.784  38.997  10.777  1.00  0.00    -0.225 OA
BRANCH  60  63
ATOM     63  O   UNL     1      22.496  39.280  12.226  1.00  0.00    -0.443 OA
BRANCH  63  64
ATOM     64  C   UNL     1      22.882  38.729  13.495  1.00  0.00     0.294 C 
BRANCH  64  65
ATOM     65  C   UNL     1      24.106  39.423  13.960  1.00  0.00     0.120 A 
ATOM     66  C   UNL     1      25.432  39.134  13.727  1.00  0.00     0.139 A 
ATOM     67  N   UNL     1      24.131  40.533  14.770  1.00  0.00    -0.132 NA
ATOM     68  N   UNL     1      26.205  40.048  14.384  1.00  0.00    -0.237 N 
ATOM     69  N   UNL     1      25.378  40.853  14.985  1.00  0.00    -0.066 NA
BRANCH  68  70
ATOM     70  C   UNL     1      27.649  40.088  14.409  1.00  0.00     0.229 C 
BRANCH  70  71
ATOM     71  C   UNL     1      28.125  40.755  13.131  1.00  0.00     0.161 C 
BRANCH  71  72
ATOM     72  C   UNL     1      29.262  40.031  12.532  1.00  0.00     0.306 C 
ATOM     73  O   UNL     1      29.099  38.922  11.964  1.00  0.00    -0.252 OA
BRANCH  72  74
ATOM     74  O   UNL     1      30.533  40.560  12.586  1.00  0.00    -0.481 OA
ATOM     75  H   UNL     1      31.153  40.437  11.777  1.00  0.00     0.296 HD
ENDBRANCH  72  74
ENDBRANCH  71  72
ENDBRANCH  70  71
BRANCH  70  76
ATOM     76  C   UNL     1      28.087  40.882  15.571  1.00  0.00     0.329 C 
ATOM     77  O   UNL     1      28.729  41.940  15.375  1.00  0.00    -0.250 OA
BRANCH  76  78
ATOM     78  O   UNL     1      27.822  40.515  16.883  1.00  0.00    -0.480 OA
ATOM     79  H   UNL     1      28.558  40.057  17.413  1.00  0.00     0.296 HD
ENDBRANCH  76  78
ENDBRANCH  70  76
ENDBRANCH  68  70
ENDBRANCH  64  65
ENDBRANCH  63  64
ENDBRANCH  60  63
ENDBRANCH  58  59
ENDBRANCH  55  58
ENDBRANCH   1  55
TORSDOF 35
BEGIN_RES LYS A 131
REMARK  4 active torsions:
REMARK  status: ('A' for Active; 'I' for Inactive)
REMARK    1  A    between atoms: CA   and  CB  
REMARK    2  A    between atoms: CB   and  CG  
REMARK    3  A    between atoms: CG   and  CD  
REMARK    4  A    between atoms: CD   and  CE  
ROOT
ATOM      1  CA  LYS A 131      29.867  25.555  16.977  1.00 20.52     0.186 C 
ENDROOT
BRANCH   1   2
ATOM      2  CB  LYS A 131      28.345  25.722  17.026  1.00 20.94     0.034 C 
BRANCH   2   3
ATOM      3  CG  LYS A 131      27.601  24.403  16.887  1.00 22.96     0.005 C 
BRANCH   3   4
ATOM      4  CD  LYS A 131      26.749  24.103  18.089  1.00 24.33     0.041 C 
BRANCH   4   5
ATOM      5  CE  LYS A 131      25.558  23.249  17.669  1.00 26.91     0.338 C 
ATOM      6  NZ  LYS A 131      24.567  24.066  16.930  1.00 27.40     0.618 N 
ENDBRANCH   4   5
ENDBRANCH   3   4
ENDBRANCH   2   3
ENDBRANCH   1   2
END_RES LYS A 131
BEGIN_RES LYS A 135
REMARK  4 active torsions:
REMARK  status: ('A' for Active; 'I' for Inactive)
REMARK    5  A    between atoms: CA   and  CB  
REMARK    6  A    between atoms: CB   and  CG  
REMARK    7  A    between atoms: CG   and  CD  
REMARK    8  A    between atoms: CD   and  CE  
ROOT
ATOM      7  CA  LYS A 135      33.193  34.663   9.290  1.00 25.02     0.186 C 
ENDROOT
BRANCH   7   8
ATOM      8  CB  LYS A 135      32.060  35.360  10.034  1.00 26.63     0.034 C 
BRANCH   8   9
ATOM      9  CG  LYS A 135      30.734  35.283   9.322  1.00 29.45     0.005 C 
BRANCH   9  10
ATOM     10  CD  LYS A 135      30.205  36.676   9.021  1.00 32.00     0.041 C 
BRANCH  10  11
ATOM     11  CE  LYS A 135      31.136  37.733   9.583  1.00 34.25     0.338 C 
ATOM     12  NZ  LYS A 135      31.411  38.796   8.576  1.00 35.99     0.618 N 
ENDBRANCH  10  11
ENDBRANCH   9  10
ENDBRANCH   8   9
ENDBRANCH   7   8
END_RES LYS A 135
