REMARK VINA RESULT:    -4.421      4.432     11.169
REMARK INTER + INTRA:         -24.436
REMARK INTER:                 -13.016
REMARK INTRA:                 -11.421
REMARK UNBOUND:               -12.132
REMARK SMILES CCOCCc1c(-c2ccccc2)nc(N)nc1-n1cc(COC(=O)NC[C@@H](O)C(O)[C@@H]2O[C@@](OC[C@H]3O[C@@H](O[C@H]4[C@H](O)[C@@H](O)[C@H](OCCN=[N+]=[N-])O[C@@H]4CO)[C@H](O)[C@@H](O)[C@H]3O)(C(=O)O)C[C@H](O)[C@H]2NC(C)=O)nn1
REMARK SMILES IDX 30 1 32 2 34 3 66 4 33 5 67 6 69 7 35 8 36 9 37 10 39 11
REMARK SMILES IDX 38 12 57 13 59 14 61 15 40 16 41 17 54 18 53 19 46 20 42 21
REMARK SMILES IDX 44 22 55 23 56 24 47 26 48 27 49 28 50 29 51 30 52 31 43 32
REMARK SMILES IDX 45 34 58 36 60 38 62 40 63 42 64 43 65 44 68 46 70 48 71 49
REMARK SMILES IDX 72 51 73 52 31 53 28 55 29 56 27 58 26 59 24 60 25 62 23 63
REMARK SMILES IDX 22 64 21 65 20 66 74 67 19 68 75 69 18 70 17 71 6 72 15 73
REMARK SMILES IDX 7 74 14 75 5 76 4 77 3 78 2 79 1 80 16 81 8 84 9 85 13 86
REMARK SMILES IDX 10 87 12 88 11 89
REMARK H PARENT 56 25 43 33 45 35 58 37 60 39 62 41 65 45 68 47 70 50 31 54
REMARK H PARENT 29 57 26 61 16 82 16 83
REMARK Flexibility Score: inf
ROOT
ATOM      1  C   UNL     1      26.968  41.380   6.250  1.00  0.00     0.176 C 
ENDROOT
BRANCH   1   2
ATOM      2  C   UNL     1      27.840  40.161   6.204  1.00  0.00     0.178 C 
ATOM      3  C   UNL     1      27.861  38.065   7.244  1.00  0.00     0.272 C 
ATOM      4  C   UNL     1      29.086  37.889   6.344  1.00  0.00     0.113 C 
ATOM      5  O   UNL     1      27.137  39.161   6.942  1.00  0.00    -0.332 OA
ATOM      6  C   UNL     1      30.006  39.071   6.393  1.00  0.00     0.145 C 
ATOM      7  C   UNL     1      29.187  40.272   6.830  1.00  0.00     0.142 C 
BRANCH   3   8
ATOM      8  O   UNL     1      28.305  37.995   8.546  1.00  0.00    -0.338 OA
BRANCH   8   9
ATOM      9  C   UNL     1      27.355  37.707   9.491  1.00  0.00     0.199 C 
BRANCH   9  10
ATOM     10  C   UNL     1      27.814  38.059  10.898  1.00  0.00     0.179 C 
ATOM     11  C   UNL     1      29.795  37.722  12.084  1.00  0.00     0.282 C 
ATOM     12  O   UNL     1      28.852  37.236  11.223  1.00  0.00    -0.341 OA
ATOM     13  C   UNL     1      30.365  38.986  11.427  1.00  0.00     0.202 C 
ATOM     14  C   UNL     1      29.257  40.023  11.599  1.00  0.00     0.179 C 
ATOM     15  C   UNL     1      27.926  39.501  11.185  1.00  0.00     0.177 C 
BRANCH  11  16
ATOM     16  O   UNL     1      30.760  36.771  12.318  1.00  0.00    -0.341 OA
BRANCH  16  17
ATOM     17  C   UNL     1      30.599  36.145  13.544  1.00  0.00     0.184 C 
ATOM     18  C   UNL     1      31.740  36.439  14.458  1.00  0.00     0.178 C 
ATOM     19  O   UNL     1      32.576  35.407  14.747  1.00  0.00    -0.341 OA
ATOM     20  C   UNL     1      32.045  34.189  15.033  1.00  0.00     0.281 C 
ATOM     21  C   UNL     1      30.311  34.683  13.384  1.00  0.00     0.180 C 
ATOM     22  C   UNL     1      30.613  33.970  14.675  1.00  0.00     0.202 C 
BRANCH  18  23
ATOM     23  C   UNL     1      31.282  37.186  15.712  1.00  0.00     0.191 C 
BRANCH  23  24
ATOM     24  O   UNL     1      32.356  37.705  16.412  1.00  0.00    -0.394 OA
ATOM     25  H   UNL     1      32.005  38.072  17.263  1.00  0.00     0.210 HD
ENDBRANCH  23  24
ENDBRANCH  18  23
BRANCH  20  26
ATOM     26  O   UNL     1      32.213  33.963  16.395  1.00  0.00    -0.350 OA
BRANCH  26  27
ATOM     27  C   UNL     1      31.054  34.036  17.127  1.00  0.00     0.169 C 
BRANCH  27  28
ATOM     28  C   UNL     1      30.909  32.950  18.165  1.00  0.00     0.119 C 
BRANCH  28  29
ATOM     29  N   UNL     1      30.346  31.762  17.526  1.00  0.00    -0.092 NA
ATOM     30  N   UNL     1      29.559  31.018  18.124  1.00  0.00     0.001 N 
ATOM     31  N   UNL     1      28.897  30.313  18.885  1.00  0.00    -0.003 NA
ENDBRANCH  28  29
ENDBRANCH  27  28
ENDBRANCH  26  27
ENDBRANCH  20  26
BRANCH  21  32
ATOM     32  O   UNL     1      28.975  34.436  13.056  1.00  0.00    -0.387 OA
ATOM     33  H   UNL     1      28.365  35.108  13.466  1.00  0.00     0.211 HD
ENDBRANCH  21  32
BRANCH  22  34
ATOM     34  O   UNL     1      30.416  32.607  14.459  1.00  0.00    -0.385 OA
ATOM     35  H   UNL     1      29.563  32.420  13.991  1.00  0.00     0.211 HD
ENDBRANCH  22  34
ENDBRANCH  16  17
ENDBRANCH  11  16
BRANCH  13  36
ATOM     36  O   UNL     1      31.516  39.426  12.033  1.00  0.00    -0.385 OA
ATOM     37  H   UNL     1      31.654  40.404  11.900  1.00  0.00     0.211 HD
ENDBRANCH  13  36
BRANCH  14  38
ATOM     38  O   UNL     1      29.587  41.258  11.088  1.00  0.00    -0.387 OA
ATOM     39  H   UNL     1      29.911  41.883  11.805  1.00  0.00     0.211 HD
ENDBRANCH  14  38
BRANCH  15  40
ATOM     40  O   UNL     1      27.527  40.224  10.040  1.00  0.00    -0.387 OA
ATOM     41  H   UNL     1      27.609  39.639   9.243  1.00  0.00     0.211 HD
ENDBRANCH  15  40
ENDBRANCH   9  10
ENDBRANCH   8   9
ENDBRANCH   3   8
BRANCH   3  42
ATOM     42  C   UNL     1      27.037  36.851   6.942  1.00  0.00     0.364 C 
ATOM     43  O   UNL     1      27.709  35.836   6.538  1.00  0.00    -0.246 OA
BRANCH  42  44
ATOM     44  O   UNL     1      25.681  36.759   7.065  1.00  0.00    -0.477 OA
ATOM     45  H   UNL     1      25.249  36.919   7.971  1.00  0.00     0.296 HD
ENDBRANCH  42  44
ENDBRANCH   3  42
BRANCH   6  46
ATOM     46  O   UNL     1      31.014  38.767   7.320  1.00  0.00    -0.391 OA
ATOM     47  H   UNL     1      30.688  38.187   8.036  1.00  0.00     0.211 HD
ENDBRANCH   6  46
BRANCH   7  48
ATOM     48  N   UNL     1      29.899  41.496   6.626  1.00  0.00    -0.348 N 
ATOM     49  C   UNL     1      29.954  42.547   7.578  1.00  0.00     0.217 C 
ATOM     50  H   UNL     1      30.416  41.594   5.725  1.00  0.00     0.163 HD
ATOM     51  C   UNL     1      30.722  43.767   7.262  1.00  0.00     0.114 C 
ATOM     52  O   UNL     1      29.357  42.432   8.670  1.00  0.00    -0.275 OA
ENDBRANCH   7  48
ENDBRANCH   1   2
BRANCH   1  53
ATOM     53  O   UNL     1      26.715  41.606   7.646  1.00  0.00    -0.388 OA
ATOM     54  H   UNL     1      26.994  40.783   8.099  1.00  0.00     0.211 HD
ENDBRANCH   1  53
BRANCH   1  55
ATOM     55  C   UNL     1      25.652  41.340   5.584  1.00  0.00     0.165 C 
BRANCH  55  56
ATOM     56  O   UNL     1      25.629  42.489   4.741  1.00  0.00    -0.388 OA
ATOM     57  H   UNL     1      25.225  42.230   3.889  1.00  0.00     0.211 HD
ENDBRANCH  55  56
BRANCH  55  58
ATOM     58  C   UNL     1      24.448  41.359   6.428  1.00  0.00     0.154 C 
BRANCH  58  59
ATOM     59  N   UNL     1      23.931  40.103   6.812  1.00  0.00    -0.319 N 
ATOM     60  C   UNL     1      24.019  39.527   8.093  1.00  0.00     0.407 C 
ATOM     61  H   UNL     1      23.406  39.469   6.101  1.00  0.00     0.167 HD
ATOM     62  O   UNL     1      24.590  40.099   9.048  1.00  0.00    -0.225 OA
BRANCH  60  63
ATOM     63  O   UNL     1      23.471  38.275   8.389  1.00  0.00    -0.443 OA
BRANCH  63  64
ATOM     64  C   UNL     1      23.053  37.929   9.693  1.00  0.00     0.294 C 
BRANCH  64  65
ATOM     65  C   UNL     1      23.877  36.833  10.258  1.00  0.00     0.121 A 
ATOM     66  C   UNL     1      24.297  36.699  11.555  1.00  0.00     0.146 A 
ATOM     67  N   UNL     1      24.394  35.767   9.606  1.00  0.00    -0.131 NA
ATOM     68  N   UNL     1      25.067  35.552  11.670  1.00  0.00    -0.202 N 
ATOM     69  N   UNL     1      25.082  35.047  10.473  1.00  0.00    -0.060 NA
BRANCH  68  70
ATOM     70  C   UNL     1      25.624  35.228  12.919  1.00  0.00     0.164 A 
ATOM     71  N   UNL     1      26.350  36.172  13.569  1.00  0.00    -0.193 NA
ATOM     72  C   UNL     1      25.417  34.013  13.588  1.00  0.00     0.026 A 
ATOM     73  C   UNL     1      26.860  36.000  14.789  1.00  0.00     0.222 A 
ATOM     74  C   UNL     1      25.925  33.816  14.836  1.00  0.00     0.081 A 
ATOM     75  N   UNL     1      26.647  34.837  15.408  1.00  0.00    -0.213 NA
BRANCH  72  76
ATOM     76  C   UNL     1      24.737  32.968  12.813  1.00  0.00     0.070 C 
BRANCH  76  77
ATOM     77  C   UNL     1      23.251  32.862  13.082  1.00  0.00     0.165 C 
BRANCH  77  78
ATOM     78  O   UNL     1      22.688  31.627  12.973  1.00  0.00    -0.381 OA
BRANCH  78  79
ATOM     79  C   UNL     1      23.248  30.601  13.673  1.00  0.00     0.156 C 
ATOM     80  C   UNL     1      23.583  29.416  12.751  1.00  0.00     0.035 C 
ENDBRANCH  78  79
ENDBRANCH  77  78
ENDBRANCH  76  77
ENDBRANCH  72  76
BRANCH  73  81
ATOM     81  N   UNL     1      27.622  37.027  15.432  1.00  0.00    -0.368 N 
ATOM     82  H   UNL     1      27.145  37.858  15.837  1.00  0.00     0.159 HD
ATOM     83  H   UNL     1      28.651  36.989  15.521  1.00  0.00     0.159 HD
ENDBRANCH  73  81
BRANCH  74  84
ATOM     84  C   UNL     1      25.735  32.604  15.602  1.00  0.00     0.001 A 
ATOM     85  C   UNL     1      26.645  31.565  15.414  1.00  0.00     0.010 A 
ATOM     86  C   UNL     1      24.711  32.455  16.519  1.00  0.00     0.010 A 
ATOM     87  C   UNL     1      26.545  30.381  16.132  1.00  0.00     0.001 A 
ATOM     88  C   UNL     1      24.631  31.275  17.218  1.00  0.00     0.001 A 
ATOM     89  C   UNL     1      25.522  30.247  17.041  1.00  0.00     0.000 A 
ENDBRANCH  74  84
ENDBRANCH  68  70
ENDBRANCH  64  65
ENDBRANCH  63  64
ENDBRANCH  60  63
ENDBRANCH  58  59
ENDBRANCH  55  58
ENDBRANCH   1  55
TORSDOF 36
BEGIN_RES LYS A 131
REMARK  4 active torsions:
REMARK  status: ('A' for Active; 'I' for Inactive)
REMARK    1  A    between atoms: CA   and  CB  
REMARK    2  A    between atoms: CB   and  CG  
REMARK    3  A    between atoms: CG   and  CD  
REMARK    4  A    between atoms: CD   and  CE  
ROOT
ATOM      1  CA  LYS A 131      29.867  25.555  16.977  1.00 20.52     0.186 C 
ENDROOT
BRANCH   1   2
ATOM      2  CB  LYS A 131      28.345  25.722  17.026  1.00 20.94     0.034 C 
BRANCH   2   3
ATOM      3  CG  LYS A 131      27.851  26.247  18.365  1.00 22.96     0.005 C 
BRANCH   3   4
ATOM      4  CD  LYS A 131      26.492  26.881  18.259  1.00 24.33     0.041 C 
BRANCH   4   5
ATOM      5  CE  LYS A 131      25.431  25.794  18.124  1.00 26.91     0.338 C 
ATOM      6  NZ  LYS A 131      25.551  24.813  19.229  1.00 27.40     0.618 N 
ENDBRANCH   4   5
ENDBRANCH   3   4
ENDBRANCH   2   3
ENDBRANCH   1   2
END_RES LYS A 131
BEGIN_RES LYS A 135
REMARK  4 active torsions:
REMARK  status: ('A' for Active; 'I' for Inactive)
REMARK    5  A    between atoms: CA   and  CB  
REMARK    6  A    between atoms: CB   and  CG  
REMARK    7  A    between atoms: CG   and  CD  
REMARK    8  A    between atoms: CD   and  CE  
ROOT
ATOM      7  CA  LYS A 135      33.193  34.663   9.290  1.00 25.02     0.186 C 
ENDROOT
BRANCH   7   8
ATOM      8  CB  LYS A 135      32.060  35.360  10.034  1.00 26.63     0.034 C 
BRANCH   8   9
ATOM      9  CG  LYS A 135      30.897  35.731   9.150  1.00 29.45     0.005 C 
BRANCH   9  10
ATOM     10  CD  LYS A 135      30.098  34.496   8.767  1.00 32.00     0.041 C 
BRANCH  10  11
ATOM     11  CE  LYS A 135      28.994  34.242   9.775  1.00 34.25     0.338 C 
ATOM     12  NZ  LYS A 135      27.756  33.758   9.105  1.00 35.99     0.618 N 
ENDBRANCH  10  11
ENDBRANCH   9  10
ENDBRANCH   8   9
ENDBRANCH   7   8
END_RES LYS A 135
