REMARK VINA RESULT:    -5.302      4.426      9.957
REMARK INTER + INTRA:         -22.477
REMARK INTER:                 -11.306
REMARK INTRA:                 -11.172
REMARK UNBOUND:                -9.428
REMARK SMILES CC(=O)N[C@@H]1[C@@H](O)C[C@](OC[C@H]2O[C@@H](O[C@H]3[C@H](O)[C@@H](O)[C@H](OCCN=[N+]=[N-])O[C@@H]3CO)[C@H](O)[C@@H](O)[C@H]2O)(C(=O)O)O[C@H]1C(O)[C@H](O)CNC(=O)OCc1cn(-c2ccc(C)cc2)nn1
REMARK SMILES IDX 9 1 8 2 6 3 5 4 42 5 41 6 10 7 11 8 12 9 14 10 13 11 32 12
REMARK SMILES IDX 34 13 36 14 15 15 16 16 29 17 28 18 21 19 17 20 19 21 30 22
REMARK SMILES IDX 31 23 22 25 23 26 24 27 25 28 26 29 27 30 18 31 20 33 33 35
REMARK SMILES IDX 35 37 37 39 38 41 39 42 40 43 7 45 43 47 44 48 45 50 46 51
REMARK SMILES IDX 47 53 48 54 49 55 50 57 51 58 52 59 53 60 54 61 64 62 55 63
REMARK SMILES IDX 63 64 56 65 57 66 62 67 58 68 61 69 59 70 60 71 4 72 2 73
REMARK SMILES IDX 1 75 3 76
REMARK H PARENT 31 24 18 32 20 34 33 36 35 38 37 40 40 44 7 46 44 49 46 52
REMARK H PARENT 48 56 4 74
REMARK Flexibility Score: inf
ROOT
ATOM      1  C   UNL     1      29.191  32.622  16.706  1.00  0.00     0.272 C 
ATOM      2  C   UNL     1      29.724  32.510  18.131  1.00  0.00     0.113 C 
ATOM      3  C   UNL     1      30.908  33.372  18.348  1.00  0.00     0.145 C 
ATOM      4  C   UNL     1      30.932  34.639  17.569  1.00  0.00     0.142 C 
ATOM      5  C   UNL     1      29.671  34.961  16.775  1.00  0.00     0.178 C 
ATOM      6  O   UNL     1      29.117  33.846  16.242  1.00  0.00    -0.332 OA
ENDROOT
BRANCH   1   7
ATOM      7  O   UNL     1      27.857  32.120  16.807  1.00  0.00    -0.338 OA
BRANCH   7   8
ATOM      8  C   UNL     1      27.610  31.807  18.145  1.00  0.00     0.199 C 
BRANCH   8   9
ATOM      9  C   UNL     1      26.740  30.618  18.301  1.00  0.00     0.179 C 
ATOM     10  C   UNL     1      25.027  29.422  17.359  1.00  0.00     0.282 C 
ATOM     11  O   UNL     1      26.005  30.386  17.137  1.00  0.00    -0.341 OA
ATOM     12  C   UNL     1      25.649  28.090  17.543  1.00  0.00     0.202 C 
ATOM     13  C   UNL     1      27.126  28.226  17.790  1.00  0.00     0.179 C 
ATOM     14  C   UNL     1      27.476  29.373  18.716  1.00  0.00     0.177 C 
BRANCH  10  15
ATOM     15  O   UNL     1      24.163  29.385  16.267  1.00  0.00    -0.341 OA
BRANCH  15  16
ATOM     16  C   UNL     1      24.293  30.526  15.473  1.00  0.00     0.184 C 
ATOM     17  C   UNL     1      23.157  31.502  15.599  1.00  0.00     0.178 C 
ATOM     18  O   UNL     1      22.492  31.633  14.375  1.00  0.00    -0.341 OA
ATOM     19  C   UNL     1      21.903  30.426  14.046  1.00  0.00     0.281 C 
ATOM     20  C   UNL     1      24.321  30.028  14.044  1.00  0.00     0.180 C 
ATOM     21  C   UNL     1      22.957  29.360  13.815  1.00  0.00     0.202 C 
BRANCH  17  22
ATOM     22  C   UNL     1      23.699  32.911  15.889  1.00  0.00     0.191 C 
BRANCH  22  23
ATOM     23  O   UNL     1      25.079  32.951  15.703  1.00  0.00    -0.394 OA
ATOM     24  H   UNL     1      25.246  33.565  14.926  1.00  0.00     0.210 HD
ENDBRANCH  22  23
ENDBRANCH  17  22
BRANCH  19  25
ATOM     25  O   UNL     1      21.072  30.519  12.940  1.00  0.00    -0.350 OA
BRANCH  25  26
ATOM     26  C   UNL     1      21.079  29.399  12.148  1.00  0.00     0.169 C 
BRANCH  26  27
ATOM     27  C   UNL     1      19.730  28.793  11.883  1.00  0.00     0.119 C 
BRANCH  27  28
ATOM     28  N   UNL     1      19.088  28.352  13.098  1.00  0.00    -0.092 NA
ATOM     29  N   UNL     1      19.650  27.559  13.834  1.00  0.00     0.001 N 
ATOM     30  N   UNL     1      20.241  26.830  14.631  1.00  0.00    -0.003 NA
ENDBRANCH  27  28
ENDBRANCH  26  27
ENDBRANCH  25  26
ENDBRANCH  19  25
BRANCH  20  31
ATOM     31  O   UNL     1      24.508  31.046  13.121  1.00  0.00    -0.387 OA
ATOM     32  H   UNL     1      24.606  31.887  13.632  1.00  0.00     0.211 HD
ENDBRANCH  20  31
BRANCH  21  33
ATOM     33  O   UNL     1      22.833  28.430  14.867  1.00  0.00    -0.385 OA
ATOM     34  H   UNL     1      21.915  28.377  15.218  1.00  0.00     0.211 HD
ENDBRANCH  21  33
ENDBRANCH  15  16
ENDBRANCH  10  15
BRANCH  12  35
ATOM     35  O   UNL     1      25.039  27.358  18.578  1.00  0.00    -0.385 OA
ATOM     36  H   UNL     1      25.753  27.299  19.294  1.00  0.00     0.211 HD
ENDBRANCH  12  35
BRANCH  13  37
ATOM     37  O   UNL     1      27.789  28.250  16.589  1.00  0.00    -0.387 OA
ATOM     38  H   UNL     1      27.780  27.368  16.096  1.00  0.00     0.211 HD
ENDBRANCH  13  37
BRANCH  14  39
ATOM     39  O   UNL     1      28.832  29.624  18.625  1.00  0.00    -0.387 OA
ATOM     40  H   UNL     1      29.083  30.303  17.965  1.00  0.00     0.211 HD
ENDBRANCH  14  39
ENDBRANCH   8   9
ENDBRANCH   7   8
ENDBRANCH   1   7
BRANCH   1  41
ATOM     41  C   UNL     1      30.019  31.692  15.912  1.00  0.00     0.364 C 
ATOM     42  O   UNL     1      31.071  32.031  15.324  1.00  0.00    -0.246 OA
BRANCH  41  43
ATOM     43  O   UNL     1      29.591  30.354  15.824  1.00  0.00    -0.477 OA
ATOM     44  H   UNL     1      28.786  30.138  15.235  1.00  0.00     0.296 HD
ENDBRANCH  41  43
ENDBRANCH   1  41
BRANCH   3  45
ATOM     45  O   UNL     1      31.128  33.578  19.729  1.00  0.00    -0.391 OA
ATOM     46  H   UNL     1      31.731  34.388  19.775  1.00  0.00     0.211 HD
ENDBRANCH   3  45
BRANCH   5  47
ATOM     47  C   UNL     1      28.725  35.745  17.662  1.00  0.00     0.176 C 
BRANCH  47  48
ATOM     48  O   UNL     1      29.330  36.779  18.360  1.00  0.00    -0.388 OA
ATOM     49  H   UNL     1      28.662  37.077  19.033  1.00  0.00     0.211 HD
ENDBRANCH  47  48
BRANCH  47  50
ATOM     50  C   UNL     1      27.388  36.076  17.193  1.00  0.00     0.165 C 
BRANCH  50  51
ATOM     51  O   UNL     1      26.544  34.984  16.899  1.00  0.00    -0.388 OA
ATOM     52  H   UNL     1      25.605  35.209  17.133  1.00  0.00     0.211 HD
ENDBRANCH  50  51
BRANCH  50  53
ATOM     53  C   UNL     1      27.153  37.107  16.146  1.00  0.00     0.154 C 
BRANCH  53  54
ATOM     54  N   UNL     1      26.982  36.585  14.816  1.00  0.00    -0.319 N 
ATOM     55  C   UNL     1      28.040  36.636  13.862  1.00  0.00     0.407 C 
ATOM     56  H   UNL     1      26.070  36.160  14.531  1.00  0.00     0.167 HD
ATOM     57  O   UNL     1      29.141  37.131  14.204  1.00  0.00    -0.225 OA
BRANCH  55  58
ATOM     58  O   UNL     1      27.839  36.149  12.589  1.00  0.00    -0.443 OA
BRANCH  58  59
ATOM     59  C   UNL     1      27.520  34.829  12.308  1.00  0.00     0.294 C 
BRANCH  59  60
ATOM     60  C   UNL     1      26.078  34.647  12.133  1.00  0.00     0.121 A 
ATOM     61  C   UNL     1      25.284  35.220  11.122  1.00  0.00     0.144 A 
ATOM     62  N   UNL     1      25.230  33.934  12.861  1.00  0.00    -0.131 NA
ATOM     63  N   UNL     1      24.026  34.820  11.302  1.00  0.00    -0.220 N 
ATOM     64  N   UNL     1      24.014  34.041  12.363  1.00  0.00    -0.062 NA
BRANCH  63  65
ATOM     65  C   UNL     1      22.928  35.212  10.458  1.00  0.00     0.066 A 
ATOM     66  C   UNL     1      23.163  35.587   9.154  1.00  0.00     0.029 A 
ATOM     67  C   UNL     1      21.624  35.214  10.906  1.00  0.00     0.029 A 
ATOM     68  C   UNL     1      22.102  35.955   8.320  1.00  0.00     0.005 A 
ATOM     69  C   UNL     1      20.561  35.582  10.073  1.00  0.00     0.005 A 
ATOM     70  C   UNL     1      20.801  35.955   8.771  1.00  0.00    -0.051 A 
ATOM     71  C   UNL     1      19.663  36.338   7.875  1.00  0.00     0.044 C 
ENDBRANCH  63  65
ENDBRANCH  59  60
ENDBRANCH  58  59
ENDBRANCH  55  58
ENDBRANCH  53  54
ENDBRANCH  50  53
ENDBRANCH  47  50
ENDBRANCH   5  47
BRANCH   4  72
ATOM     72  N   UNL     1      32.138  34.790  16.777  1.00  0.00    -0.348 N 
ATOM     73  C   UNL     1      33.174  35.725  17.080  1.00  0.00     0.217 C 
ATOM     74  H   UNL     1      32.294  34.209  15.930  1.00  0.00     0.163 HD
ATOM     75  C   UNL     1      34.393  35.846  16.223  1.00  0.00     0.114 C 
ATOM     76  O   UNL     1      32.983  36.426  18.105  1.00  0.00    -0.275 OA
ENDBRANCH   4  72
TORSDOF 30
BEGIN_RES LYS A 131
REMARK  4 active torsions:
REMARK  status: ('A' for Active; 'I' for Inactive)
REMARK    1  A    between atoms: CA   and  CB  
REMARK    2  A    between atoms: CB   and  CG  
REMARK    3  A    between atoms: CG   and  CD  
REMARK    4  A    between atoms: CD   and  CE  
ROOT
ATOM      1  CA  LYS A 131      29.867  25.555  16.977  1.00 20.52     0.186 C 
ENDROOT
BRANCH   1   2
ATOM      2  CB  LYS A 131      28.345  25.722  17.026  1.00 20.94     0.034 C 
BRANCH   2   3
ATOM      3  CG  LYS A 131      27.601  24.406  16.864  1.00 22.96     0.005 C 
BRANCH   3   4
ATOM      4  CD  LYS A 131      26.667  24.138  18.012  1.00 24.33     0.041 C 
BRANCH   4   5
ATOM      5  CE  LYS A 131      25.422  23.421  17.499  1.00 26.91     0.338 C 
ATOM      6  NZ  LYS A 131      24.524  24.373  16.806  1.00 27.40     0.618 N 
ENDBRANCH   4   5
ENDBRANCH   3   4
ENDBRANCH   2   3
ENDBRANCH   1   2
END_RES LYS A 131
BEGIN_RES LYS A 135
REMARK  4 active torsions:
REMARK  status: ('A' for Active; 'I' for Inactive)
REMARK    5  A    between atoms: CA   and  CB  
REMARK    6  A    between atoms: CB   and  CG  
REMARK    7  A    between atoms: CG   and  CD  
REMARK    8  A    between atoms: CD   and  CE  
ROOT
ATOM      7  CA  LYS A 135      33.193  34.663   9.290  1.00 25.02     0.186 C 
ENDROOT
BRANCH   7   8
ATOM      8  CB  LYS A 135      32.060  35.360  10.034  1.00 26.63     0.034 C 
BRANCH   8   9
ATOM      9  CG  LYS A 135      30.695  34.820   9.695  1.00 29.45     0.005 C 
BRANCH   9  10
ATOM     10  CD  LYS A 135      30.592  34.514   8.209  1.00 32.00     0.041 C 
BRANCH  10  11
ATOM     11  CE  LYS A 135      29.226  34.905   7.678  1.00 34.25     0.338 C 
ATOM     12  NZ  LYS A 135      28.206  34.899   8.764  1.00 35.99     0.618 N 
ENDBRANCH  10  11
ENDBRANCH   9  10
ENDBRANCH   8   9
ENDBRANCH   7   8
END_RES LYS A 135
