REMARK VINA RESULT:    -4.768      2.589      7.254
REMARK INTER + INTRA:         -22.277
REMARK INTER:                 -11.394
REMARK INTRA:                 -10.883
REMARK UNBOUND:               -10.541
REMARK SMILES CC(=O)N[C@@H]1[C@@H](O)C[C@](OC[C@H]2O[C@@H](O[C@H]3[C@H](O)[C@@H](O)[C@H](OCCN=[N+]=[N-])O[C@@H]3CO)[C@H](O)[C@@H](O)[C@H]2O)(C(=O)O)O[C@H]1C(O)[C@H](O)CNC(=O)OCc1cn(-c2ccccc2)nn1
REMARK SMILES IDX 9 1 8 2 6 3 5 4 42 5 41 6 10 7 11 8 12 9 14 10 13 11 32 12
REMARK SMILES IDX 34 13 36 14 15 15 16 16 29 17 28 18 21 19 17 20 19 21 30 22
REMARK SMILES IDX 31 23 22 25 23 26 24 27 25 28 26 29 27 30 18 31 20 33 33 35
REMARK SMILES IDX 35 37 37 39 38 41 39 42 40 43 7 45 43 47 44 48 45 50 46 51
REMARK SMILES IDX 47 53 48 54 49 55 50 57 51 58 52 59 53 60 54 61 63 62 55 63
REMARK SMILES IDX 62 64 56 65 57 66 61 67 58 68 60 69 59 70 4 71 2 72 1 74
REMARK SMILES IDX 3 75
REMARK H PARENT 31 24 18 32 20 34 33 36 35 38 37 40 40 44 7 46 44 49 46 52
REMARK H PARENT 48 56 4 73
REMARK Flexibility Score: inf
ROOT
ATOM      1  C   UNL     1      31.038  33.344  17.052  1.00  0.00     0.272 C 
ATOM      2  C   UNL     1      31.924  34.360  16.433  1.00  0.00     0.113 C 
ATOM      3  C   UNL     1      31.261  35.279  15.476  1.00  0.00     0.145 C 
ATOM      4  C   UNL     1      29.904  35.708  16.003  1.00  0.00     0.142 C 
ATOM      5  C   UNL     1      29.117  34.435  16.217  1.00  0.00     0.178 C 
ATOM      6  O   UNL     1      29.709  33.811  17.284  1.00  0.00    -0.332 OA
ENDROOT
BRANCH   1   7
ATOM      7  O   UNL     1      31.408  32.927  18.297  1.00  0.00    -0.338 OA
BRANCH   7   8
ATOM      8  C   UNL     1      30.842  33.324  19.421  1.00  0.00     0.199 C 
BRANCH   8   9
ATOM      9  C   UNL     1      30.302  32.392  20.435  1.00  0.00     0.179 C 
ATOM     10  C   UNL     1      28.446  31.010  20.739  1.00  0.00     0.282 C 
ATOM     11  O   UNL     1      28.990  32.060  19.968  1.00  0.00    -0.341 OA
ATOM     12  C   UNL     1      29.260  30.641  21.935  1.00  0.00     0.202 C 
ATOM     13  C   UNL     1      30.662  30.232  21.541  1.00  0.00     0.179 C 
ATOM     14  C   UNL     1      31.088  31.077  20.376  1.00  0.00     0.177 C 
BRANCH  10  15
ATOM     15  O   UNL     1      28.323  29.934  19.939  1.00  0.00    -0.341 OA
BRANCH  15  16
ATOM     16  C   UNL     1      27.131  29.370  19.671  1.00  0.00     0.184 C 
ATOM     17  C   UNL     1      27.153  28.278  18.627  1.00  0.00     0.178 C 
ATOM     18  O   UNL     1      25.847  28.230  18.102  1.00  0.00    -0.341 OA
ATOM     19  C   UNL     1      25.808  29.251  17.127  1.00  0.00     0.281 C 
ATOM     20  C   UNL     1      26.064  30.389  19.270  1.00  0.00     0.180 C 
ATOM     21  C   UNL     1      26.081  30.596  17.769  1.00  0.00     0.202 C 
BRANCH  17  22
ATOM     22  C   UNL     1      27.434  26.915  19.223  1.00  0.00     0.191 C 
BRANCH  22  23
ATOM     23  O   UNL     1      28.710  26.938  19.793  1.00  0.00    -0.394 OA
ATOM     24  H   UNL     1      29.320  27.571  19.299  1.00  0.00     0.210 HD
ENDBRANCH  22  23
ENDBRANCH  17  22
BRANCH  19  25
ATOM     25  O   UNL     1      24.609  29.306  16.485  1.00  0.00    -0.350 OA
BRANCH  25  26
ATOM     26  C   UNL     1      23.771  28.232  16.602  1.00  0.00     0.169 C 
BRANCH  26  27
ATOM     27  C   UNL     1      22.504  28.489  17.354  1.00  0.00     0.119 C 
BRANCH  27  28
ATOM     28  N   UNL     1      22.421  29.823  17.822  1.00  0.00    -0.092 NA
ATOM     29  N   UNL     1      21.840  30.715  17.176  1.00  0.00     0.001 N 
ATOM     30  N   UNL     1      21.534  31.511  16.275  1.00  0.00    -0.003 NA
ENDBRANCH  27  28
ENDBRANCH  26  27
ENDBRANCH  25  26
ENDBRANCH  19  25
BRANCH  20  31
ATOM     31  O   UNL     1      24.779  29.993  19.613  1.00  0.00    -0.387 OA
ATOM     32  H   UNL     1      24.788  29.292  20.309  1.00  0.00     0.211 HD
ENDBRANCH  20  31
BRANCH  21  33
ATOM     33  O   UNL     1      27.274  31.124  17.320  1.00  0.00    -0.385 OA
ATOM     34  H   UNL     1      27.792  30.506  16.756  1.00  0.00     0.211 HD
ENDBRANCH  21  33
ENDBRANCH  15  16
ENDBRANCH  10  15
BRANCH  12  35
ATOM     35  O   UNL     1      29.218  31.561  22.975  1.00  0.00    -0.385 OA
ATOM     36  H   UNL     1      30.094  31.524  23.438  1.00  0.00     0.211 HD
ENDBRANCH  12  35
BRANCH  13  37
ATOM     37  O   UNL     1      30.642  28.908  21.144  1.00  0.00    -0.387 OA
ATOM     38  H   UNL     1      30.837  28.263  21.870  1.00  0.00     0.211 HD
ENDBRANCH  13  37
BRANCH  14  39
ATOM     39  O   UNL     1      30.721  30.473  19.151  1.00  0.00    -0.387 OA
ATOM     40  H   UNL     1      31.272  29.686  18.963  1.00  0.00     0.211 HD
ENDBRANCH  14  39
ENDBRANCH   8   9
ENDBRANCH   7   8
ENDBRANCH   1   7
BRANCH   1  41
ATOM     41  C   UNL     1      30.808  32.232  16.102  1.00  0.00     0.364 C 
ATOM     42  O   UNL     1      30.027  31.315  16.351  1.00  0.00    -0.246 OA
BRANCH  41  43
ATOM     43  O   UNL     1      31.496  32.199  14.871  1.00  0.00    -0.477 OA
ATOM     44  H   UNL     1      32.505  32.059  14.889  1.00  0.00     0.296 HD
ENDBRANCH  41  43
ENDBRANCH   1  41
BRANCH   3  45
ATOM     45  O   UNL     1      32.084  36.376  15.232  1.00  0.00    -0.391 OA
ATOM     46  H   UNL     1      32.046  36.944  16.020  1.00  0.00     0.211 HD
ENDBRANCH   3  45
BRANCH   5  47
ATOM     47  C   UNL     1      27.682  34.740  16.636  1.00  0.00     0.176 C 
BRANCH  47  48
ATOM     48  O   UNL     1      26.887  33.725  16.177  1.00  0.00    -0.388 OA
ATOM     49  H   UNL     1      25.952  33.769  16.476  1.00  0.00     0.211 HD
ENDBRANCH  47  48
BRANCH  47  50
ATOM     50  C   UNL     1      27.478  35.026  18.065  1.00  0.00     0.165 C 
BRANCH  50  51
ATOM     51  O   UNL     1      26.940  33.830  18.636  1.00  0.00    -0.388 OA
ATOM     52  H   UNL     1      27.693  33.364  19.043  1.00  0.00     0.211 HD
ENDBRANCH  50  51
BRANCH  50  53
ATOM     53  C   UNL     1      26.358  36.056  18.291  1.00  0.00     0.154 C 
BRANCH  53  54
ATOM     54  N   UNL     1      25.580  36.278  17.098  1.00  0.00    -0.319 N 
ATOM     55  C   UNL     1      24.203  35.875  17.010  1.00  0.00     0.407 C 
ATOM     56  H   UNL     1      25.962  36.738  16.246  1.00  0.00     0.167 HD
ATOM     57  O   UNL     1      23.632  35.326  17.980  1.00  0.00    -0.225 OA
BRANCH  55  58
ATOM     58  O   UNL     1      23.473  36.086  15.855  1.00  0.00    -0.443 OA
BRANCH  58  59
ATOM     59  C   UNL     1      24.115  36.299  14.602  1.00  0.00     0.294 C 
BRANCH  59  60
ATOM     60  C   UNL     1      24.430  34.938  14.077  1.00  0.00     0.121 A 
ATOM     61  C   UNL     1      23.472  33.949  13.897  1.00  0.00     0.144 A 
ATOM     62  N   UNL     1      25.587  34.392  13.692  1.00  0.00    -0.131 NA
ATOM     63  N   UNL     1      24.075  32.834  13.408  1.00  0.00    -0.220 N 
ATOM     64  N   UNL     1      25.348  33.138  13.298  1.00  0.00    -0.062 NA
BRANCH  63  65
ATOM     65  C   UNL     1      23.451  31.600  13.091  1.00  0.00     0.066 A 
ATOM     66  C   UNL     1      22.122  31.527  12.744  1.00  0.00     0.028 A 
ATOM     67  C   UNL     1      24.182  30.433  13.119  1.00  0.00     0.028 A 
ATOM     68  C   UNL     1      21.511  30.332  12.428  1.00  0.00     0.002 A 
ATOM     69  C   UNL     1      23.563  29.233  12.800  1.00  0.00     0.002 A 
ATOM     70  C   UNL     1      22.238  29.141  12.452  1.00  0.00     0.000 A 
ENDBRANCH  63  65
ENDBRANCH  59  60
ENDBRANCH  58  59
ENDBRANCH  55  58
ENDBRANCH  53  54
ENDBRANCH  50  53
ENDBRANCH  47  50
ENDBRANCH   5  47
BRANCH   4  71
ATOM     71  N   UNL     1      29.299  36.695  15.181  1.00  0.00    -0.348 N 
ATOM     72  C   UNL     1      28.921  37.937  15.755  1.00  0.00     0.217 C 
ATOM     73  H   UNL     1      29.134  36.552  14.168  1.00  0.00     0.163 HD
ATOM     74  C   UNL     1      28.283  38.994  14.913  1.00  0.00     0.114 C 
ATOM     75  O   UNL     1      29.103  38.202  16.982  1.00  0.00    -0.275 OA
ENDBRANCH   4  71
TORSDOF 30
BEGIN_RES LYS A 131
REMARK  4 active torsions:
REMARK  status: ('A' for Active; 'I' for Inactive)
REMARK    1  A    between atoms: CA   and  CB  
REMARK    2  A    between atoms: CB   and  CG  
REMARK    3  A    between atoms: CG   and  CD  
REMARK    4  A    between atoms: CD   and  CE  
ROOT
ATOM      1  CA  LYS A 131      29.867  25.555  16.977  1.00 20.52     0.186 C 
ENDROOT
BRANCH   1   2
ATOM      2  CB  LYS A 131      28.345  25.722  17.026  1.00 20.94     0.034 C 
BRANCH   2   3
ATOM      3  CG  LYS A 131      27.599  24.476  16.573  1.00 22.96     0.005 C 
BRANCH   3   4
ATOM      4  CD  LYS A 131      26.576  24.031  17.581  1.00 24.33     0.041 C 
BRANCH   4   5
ATOM      5  CE  LYS A 131      25.238  24.697  17.277  1.00 26.91     0.338 C 
ATOM      6  NZ  LYS A 131      24.469  24.910  18.525  1.00 27.40     0.618 N 
ENDBRANCH   4   5
ENDBRANCH   3   4
ENDBRANCH   2   3
ENDBRANCH   1   2
END_RES LYS A 131
BEGIN_RES LYS A 135
REMARK  4 active torsions:
REMARK  status: ('A' for Active; 'I' for Inactive)
REMARK    5  A    between atoms: CA   and  CB  
REMARK    6  A    between atoms: CB   and  CG  
REMARK    7  A    between atoms: CG   and  CD  
REMARK    8  A    between atoms: CD   and  CE  
ROOT
ATOM      7  CA  LYS A 135      33.193  34.663   9.290  1.00 25.02     0.186 C 
ENDROOT
BRANCH   7   8
ATOM      8  CB  LYS A 135      32.060  35.360  10.034  1.00 26.63     0.034 C 
BRANCH   8   9
ATOM      9  CG  LYS A 135      30.755  35.360   9.281  1.00 29.45     0.005 C 
BRANCH   9  10
ATOM     10  CD  LYS A 135      29.625  34.856  10.164  1.00 32.00     0.041 C 
BRANCH  10  11
ATOM     11  CE  LYS A 135      29.759  35.412  11.569  1.00 34.25     0.338 C 
ATOM     12  NZ  LYS A 135      29.176  34.479  12.573  1.00 35.99     0.618 N 
ENDBRANCH  10  11
ENDBRANCH   9  10
ENDBRANCH   8   9
ENDBRANCH   7   8
END_RES LYS A 135
