REMARK VINA RESULT:    -3.264      3.265      6.700
REMARK INTER + INTRA:         -22.079
REMARK INTER:                  -7.167
REMARK INTRA:                 -14.912
REMARK UNBOUND:               -13.473
REMARK SMILES CC(=O)N[C@@H]1[C@@H](O)C[C@](OC[C@H]2O[C@@H](O[C@H]3[C@H](O)[C@@H](O)[C@H](OCCN=[N+]=[N-])O[C@@H]3CO)[C@H](O)[C@@H](O)[C@H]2O)(C(=O)O)O[C@H]1C(O)[C@H](O)CNC(=O)OCc1cn(CCOC(C)=O)nn1
REMARK SMILES IDX 43 1 42 2 9 3 8 4 41 5 6 6 5 7 10 8 11 9 12 10 14 11 13 12
REMARK SMILES IDX 32 13 34 14 36 15 15 16 16 17 29 18 28 19 21 20 17 21 19 22
REMARK SMILES IDX 30 23 31 24 22 26 23 27 24 28 25 29 26 30 27 31 18 32 20 34
REMARK SMILES IDX 33 36 35 38 37 40 38 42 39 43 40 44 7 46 4 48 2 49 1 51 3 52
REMARK SMILES IDX 44 53 45 55 46 56 47 58 48 59 49 60 50 62 51 63 52 64 53 65
REMARK SMILES IDX 54 66 63 67 55 68 62 69 56 70 57 71 58 72 59 73 61 74 60 75
REMARK H PARENT 31 25 18 33 20 35 33 37 35 39 37 41 40 45 7 47 4 50 44 54
REMARK H PARENT 46 57 48 61
REMARK Flexibility Score: inf
ROOT
ATOM      1  C   UNL     1      31.345  36.092  18.937  1.00  0.00     0.176 C 
ENDROOT
BRANCH   1   2
ATOM      2  C   UNL     1      31.714  37.497  18.538  1.00  0.00     0.178 C 
ATOM      3  C   UNL     1      31.010  39.125  16.984  1.00  0.00     0.272 C 
ATOM      4  C   UNL     1      32.050  39.907  17.750  1.00  0.00     0.113 C 
ATOM      5  O   UNL     1      30.724  37.881  17.609  1.00  0.00    -0.332 OA
ATOM      6  C   UNL     1      33.328  39.169  17.924  1.00  0.00     0.145 C 
ATOM      7  C   UNL     1      33.014  37.650  17.811  1.00  0.00     0.142 C 
BRANCH   3   8
ATOM      8  O   UNL     1      31.257  38.854  15.726  1.00  0.00    -0.338 OA
BRANCH   8   9
ATOM      9  C   UNL     1      30.569  39.031  14.633  1.00  0.00     0.199 C 
BRANCH   9  10
ATOM     10  C   UNL     1      29.766  38.025  13.925  1.00  0.00     0.179 C 
ATOM     11  C   UNL     1      29.954  35.868  13.135  1.00  0.00     0.282 C 
ATOM     12  O   UNL     1      30.390  36.737  14.146  1.00  0.00    -0.341 OA
ATOM     13  C   UNL     1      28.521  35.972  12.818  1.00  0.00     0.202 C 
ATOM     14  C   UNL     1      27.678  36.829  13.695  1.00  0.00     0.179 C 
ATOM     15  C   UNL     1      28.400  37.773  14.592  1.00  0.00     0.177 C 
BRANCH  11  16
ATOM     16  O   UNL     1      30.424  34.608  13.465  1.00  0.00    -0.341 OA
BRANCH  16  17
ATOM     17  C   UNL     1      30.517  34.396  14.817  1.00  0.00     0.184 C 
ATOM     18  C   UNL     1      31.789  33.642  15.132  1.00  0.00     0.178 C 
ATOM     19  O   UNL     1      31.809  33.508  16.527  1.00  0.00    -0.341 OA
ATOM     20  C   UNL     1      30.945  32.524  16.905  1.00  0.00     0.281 C 
ATOM     21  C   UNL     1      29.319  33.631  15.357  1.00  0.00     0.180 C 
ATOM     22  C   UNL     1      29.719  32.363  16.037  1.00  0.00     0.202 C 
BRANCH  18  23
ATOM     23  C   UNL     1      32.996  34.461  14.711  1.00  0.00     0.191 C 
BRANCH  23  24
ATOM     24  O   UNL     1      32.779  35.796  14.997  1.00  0.00    -0.394 OA
ATOM     25  H   UNL     1      32.918  36.288  14.133  1.00  0.00     0.210 HD
ENDBRANCH  23  24
ENDBRANCH  18  23
BRANCH  20  26
ATOM     26  O   UNL     1      30.587  32.767  18.237  1.00  0.00    -0.350 OA
BRANCH  26  27
ATOM     27  C   UNL     1      30.460  31.582  18.952  1.00  0.00     0.169 C 
BRANCH  27  28
ATOM     28  C   UNL     1      29.080  31.649  19.616  1.00  0.00     0.119 C 
BRANCH  28  29
ATOM     29  N   UNL     1      29.276  31.853  21.041  1.00  0.00    -0.092 NA
ATOM     30  N   UNL     1      28.543  32.590  21.713  1.00  0.00     0.001 N 
ATOM     31  N   UNL     1      28.083  33.593  22.290  1.00  0.00    -0.003 NA
ENDBRANCH  28  29
ENDBRANCH  27  28
ENDBRANCH  26  27
ENDBRANCH  20  26
BRANCH  21  32
ATOM     32  O   UNL     1      28.503  34.405  16.172  1.00  0.00    -0.387 OA
ATOM     33  H   UNL     1      28.768  34.399  17.124  1.00  0.00     0.211 HD
ENDBRANCH  21  32
BRANCH  22  34
ATOM     34  O   UNL     1      29.822  31.327  15.130  1.00  0.00    -0.385 OA
ATOM     35  H   UNL     1      30.063  30.495  15.631  1.00  0.00     0.211 HD
ENDBRANCH  22  34
ENDBRANCH  16  17
ENDBRANCH  11  16
BRANCH  13  36
ATOM     36  O   UNL     1      28.306  36.276  11.447  1.00  0.00    -0.385 OA
ATOM     37  H   UNL     1      28.586  35.540  10.864  1.00  0.00     0.211 HD
ENDBRANCH  13  36
BRANCH  14  38
ATOM     38  O   UNL     1      26.813  36.062  14.490  1.00  0.00    -0.387 OA
ATOM     39  H   UNL     1      27.027  36.253  15.451  1.00  0.00     0.211 HD
ENDBRANCH  14  38
BRANCH  15  40
ATOM     40  O   UNL     1      28.651  37.075  15.805  1.00  0.00    -0.387 OA
ATOM     41  H   UNL     1      29.112  36.231  15.627  1.00  0.00     0.211 HD
ENDBRANCH  15  40
ENDBRANCH   9  10
ENDBRANCH   8   9
ENDBRANCH   3   8
BRANCH   3  42
ATOM     42  C   UNL     1      29.731  39.852  17.219  1.00  0.00     0.364 C 
ATOM     43  O   UNL     1      29.517  41.057  16.990  1.00  0.00    -0.246 OA
BRANCH  42  44
ATOM     44  O   UNL     1      28.623  39.158  17.752  1.00  0.00    -0.477 OA
ATOM     45  H   UNL     1      28.524  38.175  17.546  1.00  0.00     0.296 HD
ENDBRANCH  42  44
ENDBRANCH   3  42
BRANCH   6  46
ATOM     46  O   UNL     1      34.341  39.522  17.063  1.00  0.00    -0.391 OA
ATOM     47  H   UNL     1      34.067  39.532  16.111  1.00  0.00     0.211 HD
ENDBRANCH   6  46
BRANCH   7  48
ATOM     48  N   UNL     1      34.132  36.906  18.287  1.00  0.00    -0.348 N 
ATOM     49  C   UNL     1      35.177  36.481  17.427  1.00  0.00     0.217 C 
ATOM     50  H   UNL     1      34.203  36.685  19.293  1.00  0.00     0.163 HD
ATOM     51  C   UNL     1      36.347  35.699  17.934  1.00  0.00     0.114 C 
ATOM     52  O   UNL     1      35.169  36.745  16.186  1.00  0.00    -0.275 OA
ENDBRANCH   7  48
ENDBRANCH   1   2
BRANCH   1  53
ATOM     53  O   UNL     1      30.291  35.734  18.038  1.00  0.00    -0.388 OA
ATOM     54  H   UNL     1      30.664  35.335  17.225  1.00  0.00     0.211 HD
ENDBRANCH   1  53
BRANCH   1  55
ATOM     55  C   UNL     1      30.676  36.092  20.291  1.00  0.00     0.165 C 
BRANCH  55  56
ATOM     56  O   UNL     1      30.478  34.766  20.706  1.00  0.00    -0.388 OA
ATOM     57  H   UNL     1      30.358  34.211  19.908  1.00  0.00     0.211 HD
ENDBRANCH  55  56
BRANCH  55  58
ATOM     58  C   UNL     1      29.402  36.878  20.321  1.00  0.00     0.154 C 
BRANCH  58  59
ATOM     59  N   UNL     1      28.200  36.106  20.358  1.00  0.00    -0.319 N 
ATOM     60  C   UNL     1      27.294  36.025  19.283  1.00  0.00     0.407 C 
ATOM     61  H   UNL     1      27.925  35.540  21.219  1.00  0.00     0.167 HD
ATOM     62  O   UNL     1      27.476  36.618  18.199  1.00  0.00    -0.225 OA
BRANCH  60  63
ATOM     63  O   UNL     1      26.115  35.267  19.365  1.00  0.00    -0.443 OA
BRANCH  63  64
ATOM     64  C   UNL     1      26.108  33.872  19.262  1.00  0.00     0.294 C 
BRANCH  64  65
ATOM     65  C   UNL     1      25.973  33.419  17.850  1.00  0.00     0.120 A 
ATOM     66  C   UNL     1      26.142  32.106  17.444  1.00  0.00     0.138 A 
ATOM     67  N   UNL     1      25.677  34.102  16.749  1.00  0.00    -0.132 NA
ATOM     68  N   UNL     1      25.942  32.063  16.123  1.00  0.00    -0.249 N 
ATOM     69  N   UNL     1      25.660  33.289  15.721  1.00  0.00    -0.067 NA
BRANCH  68  70
ATOM     70  C   UNL     1      26.028  30.885  15.249  1.00  0.00     0.187 C 
BRANCH  70  71
ATOM     71  C   UNL     1      24.648  30.513  14.754  1.00  0.00     0.256 C 
BRANCH  71  72
ATOM     72  O   UNL     1      23.804  30.322  15.885  1.00  0.00    -0.464 OA
BRANCH  72  73
ATOM     73  C   UNL     1      23.680  29.065  16.469  1.00  0.00     0.302 C 
ATOM     74  O   UNL     1      24.216  28.881  17.587  1.00  0.00    -0.253 OA
ATOM     75  C   UNL     1      22.935  27.944  15.808  1.00  0.00     0.139 C 
ENDBRANCH  72  73
ENDBRANCH  71  72
ENDBRANCH  70  71
ENDBRANCH  68  70
ENDBRANCH  64  65
ENDBRANCH  63  64
ENDBRANCH  60  63
ENDBRANCH  58  59
ENDBRANCH  55  58
ENDBRANCH   1  55
TORSDOF 33
BEGIN_RES LYS A 131
REMARK  4 active torsions:
REMARK  status: ('A' for Active; 'I' for Inactive)
REMARK    1  A    between atoms: CA   and  CB  
REMARK    2  A    between atoms: CB   and  CG  
REMARK    3  A    between atoms: CG   and  CD  
REMARK    4  A    between atoms: CD   and  CE  
ROOT
ATOM      1  CA  LYS A 131      29.867  25.555  16.977  1.00 20.52     0.186 C 
ENDROOT
BRANCH   1   2
ATOM      2  CB  LYS A 131      28.345  25.722  17.026  1.00 20.94     0.034 C 
BRANCH   2   3
ATOM      3  CG  LYS A 131      27.602  24.400  16.913  1.00 22.96     0.005 C 
BRANCH   3   4
ATOM      4  CD  LYS A 131      26.160  24.524  17.323  1.00 24.33     0.041 C 
BRANCH   4   5
ATOM      5  CE  LYS A 131      25.959  25.827  18.089  1.00 26.91     0.338 C 
ATOM      6  NZ  LYS A 131      25.744  25.555  19.529  1.00 27.40     0.618 N 
ENDBRANCH   4   5
ENDBRANCH   3   4
ENDBRANCH   2   3
ENDBRANCH   1   2
END_RES LYS A 131
BEGIN_RES LYS A 135
REMARK  4 active torsions:
REMARK  status: ('A' for Active; 'I' for Inactive)
REMARK    5  A    between atoms: CA   and  CB  
REMARK    6  A    between atoms: CB   and  CG  
REMARK    7  A    between atoms: CG   and  CD  
REMARK    8  A    between atoms: CD   and  CE  
ROOT
ATOM      7  CA  LYS A 135      33.193  34.663   9.290  1.00 25.02     0.186 C 
ENDROOT
BRANCH   7   8
ATOM      8  CB  LYS A 135      32.060  35.360  10.034  1.00 26.63     0.034 C 
BRANCH   8   9
ATOM      9  CG  LYS A 135      30.807  35.519   9.212  1.00 29.45     0.005 C 
BRANCH   9  10
ATOM     10  CD  LYS A 135      30.095  34.184   9.056  1.00 32.00     0.041 C 
BRANCH  10  11
ATOM     11  CE  LYS A 135      28.675  34.392   8.564  1.00 34.25     0.338 C 
ATOM     12  NZ  LYS A 135      27.697  33.680   9.432  1.00 35.99     0.618 N 
ENDBRANCH  10  11
ENDBRANCH   9  10
ENDBRANCH   8   9
ENDBRANCH   7   8
END_RES LYS A 135
