REMARK VINA RESULT:    -4.387      3.760      7.097
REMARK INTER + INTRA:         -22.687
REMARK INTER:                 -10.155
REMARK INTRA:                 -12.532
REMARK UNBOUND:               -11.119
REMARK SMILES CC(=O)N[C@@H]1[C@@H](O)C[C@](OC[C@H]2O[C@@H](O[C@H]3[C@H](O)[C@@H](O)[C@H](OCCN=[N+]=[N-])O[C@@H]3CO)[C@H](O)[C@@H](O)[C@H]2O)(C(=O)O)O[C@H]1C(O)[C@H](O)CNC(=O)OCc1cn(CC(O)CO)nn1
REMARK SMILES IDX 43 1 42 2 9 3 8 4 41 5 6 6 5 7 10 8 11 9 12 10 14 11 13 12
REMARK SMILES IDX 32 13 34 14 36 15 15 16 16 17 29 18 28 19 21 20 17 21 19 22
REMARK SMILES IDX 30 23 31 24 22 26 23 27 24 28 25 29 26 30 27 31 18 32 20 34
REMARK SMILES IDX 33 36 35 38 37 40 38 42 39 43 40 44 7 46 4 48 2 49 1 51 3 52
REMARK SMILES IDX 44 53 45 55 46 56 47 58 48 59 49 60 50 62 51 63 52 64 53 65
REMARK SMILES IDX 54 66 62 67 55 68 61 69 56 70 57 71 58 72 59 74 60 75
REMARK H PARENT 31 25 18 33 20 35 33 37 35 39 37 41 40 45 7 47 4 50 44 54
REMARK H PARENT 46 57 48 61 58 73 60 76
REMARK Flexibility Score: inf
ROOT
ATOM      1  C   UNL     1      28.862  36.037  17.114  1.00  0.00     0.176 C 
ENDROOT
BRANCH   1   2
ATOM      2  C   UNL     1      29.221  36.016  15.616  1.00  0.00     0.178 C 
ATOM      3  C   UNL     1      28.280  35.762  13.465  1.00  0.00     0.272 C 
ATOM      4  C   UNL     1      29.318  34.734  13.111  1.00  0.00     0.113 C 
ATOM      5  O   UNL     1      28.146  35.813  14.860  1.00  0.00    -0.332 OA
ATOM      6  C   UNL     1      30.121  34.170  14.223  1.00  0.00     0.145 C 
ATOM      7  C   UNL     1      30.317  35.040  15.408  1.00  0.00     0.142 C 
BRANCH   3   8
ATOM      8  O   UNL     1      27.106  35.438  12.962  1.00  0.00    -0.338 OA
BRANCH   8   9
ATOM      9  C   UNL     1      26.318  34.486  12.693  1.00  0.00     0.199 C 
BRANCH   9  10
ATOM     10  C   UNL     1      25.563  33.681  13.700  1.00  0.00     0.179 C 
ATOM     11  C   UNL     1      25.878  32.045  15.268  1.00  0.00     0.282 C 
ATOM     12  O   UNL     1      26.507  33.115  14.640  1.00  0.00    -0.341 OA
ATOM     13  C   UNL     1      24.390  32.122  15.317  1.00  0.00     0.202 C 
ATOM     14  C   UNL     1      23.816  33.505  15.368  1.00  0.00     0.179 C 
ATOM     15  C   UNL     1      24.697  34.513  14.647  1.00  0.00     0.177 C 
BRANCH  11  16
ATOM     16  O   UNL     1      26.362  31.754  16.526  1.00  0.00    -0.341 OA
BRANCH  16  17
ATOM     17  C   UNL     1      26.984  30.510  16.621  1.00  0.00     0.184 C 
ATOM     18  C   UNL     1      26.626  29.872  17.929  1.00  0.00     0.178 C 
ATOM     19  O   UNL     1      27.715  29.684  18.766  1.00  0.00    -0.341 OA
ATOM     20  C   UNL     1      28.550  30.814  18.766  1.00  0.00     0.281 C 
ATOM     21  C   UNL     1      28.422  30.636  16.336  1.00  0.00     0.180 C 
ATOM     22  C   UNL     1      29.356  30.713  17.493  1.00  0.00     0.202 C 
BRANCH  18  23
ATOM     23  C   UNL     1      25.955  28.526  17.742  1.00  0.00     0.191 C 
BRANCH  23  24
ATOM     24  O   UNL     1      24.645  28.659  17.306  1.00  0.00    -0.394 OA
ATOM     25  H   UNL     1      24.663  29.305  16.529  1.00  0.00     0.210 HD
ENDBRANCH  23  24
ENDBRANCH  18  23
BRANCH  20  26
ATOM     26  O   UNL     1      29.360  30.695  19.884  1.00  0.00    -0.350 OA
BRANCH  26  27
ATOM     27  C   UNL     1      28.674  30.679  21.088  1.00  0.00     0.169 C 
BRANCH  27  28
ATOM     28  C   UNL     1      28.087  32.025  21.450  1.00  0.00     0.119 C 
BRANCH  28  29
ATOM     29  N   UNL     1      26.655  32.055  21.319  1.00  0.00    -0.092 NA
ATOM     30  N   UNL     1      26.035  32.601  20.414  1.00  0.00     0.001 N 
ATOM     31  N   UNL     1      25.539  33.267  19.505  1.00  0.00    -0.003 NA
ENDBRANCH  28  29
ENDBRANCH  27  28
ENDBRANCH  26  27
ENDBRANCH  20  26
BRANCH  21  32
ATOM     32  O   UNL     1      28.882  29.603  15.482  1.00  0.00    -0.387 OA
ATOM     33  H   UNL     1      29.742  29.972  15.100  1.00  0.00     0.211 HD
ENDBRANCH  21  32
BRANCH  22  34
ATOM     34  O   UNL     1      30.296  31.736  17.390  1.00  0.00    -0.385 OA
ATOM     35  H   UNL     1      31.180  31.423  17.139  1.00  0.00     0.211 HD
ENDBRANCH  22  34
ENDBRANCH  16  17
ENDBRANCH  11  16
BRANCH  13  36
ATOM     36  O   UNL     1      23.784  31.312  14.328  1.00  0.00    -0.385 OA
ATOM     37  H   UNL     1      23.426  30.479  14.684  1.00  0.00     0.211 HD
ENDBRANCH  13  36
BRANCH  14  38
ATOM     38  O   UNL     1      23.519  33.937  16.658  1.00  0.00    -0.387 OA
ATOM     39  H   UNL     1      22.748  34.552  16.623  1.00  0.00     0.211 HD
ENDBRANCH  14  38
BRANCH  15  40
ATOM     40  O   UNL     1      25.584  35.036  15.626  1.00  0.00    -0.387 OA
ATOM     41  H   UNL     1      25.996  35.875  15.306  1.00  0.00     0.211 HD
ENDBRANCH  15  40
ENDBRANCH   9  10
ENDBRANCH   8   9
ENDBRANCH   3   8
BRANCH   3  42
ATOM     42  C   UNL     1      28.700  37.129  13.014  1.00  0.00     0.364 C 
ATOM     43  O   UNL     1      29.788  37.195  12.361  1.00  0.00    -0.246 OA
BRANCH  42  44
ATOM     44  O   UNL     1      27.985  38.269  13.270  1.00  0.00    -0.477 OA
ATOM     45  H   UNL     1      26.979  38.334  13.078  1.00  0.00     0.296 HD
ENDBRANCH  42  44
ENDBRANCH   3  42
BRANCH   6  46
ATOM     46  O   UNL     1      29.468  32.988  14.647  1.00  0.00    -0.391 OA
ATOM     47  H   UNL     1      28.703  32.813  14.064  1.00  0.00     0.211 HD
ENDBRANCH   6  46
BRANCH   7  48
ATOM     48  N   UNL     1      31.640  35.654  15.337  1.00  0.00    -0.348 N 
ATOM     49  C   UNL     1      32.642  35.398  16.307  1.00  0.00     0.217 C 
ATOM     50  H   UNL     1      31.896  36.307  14.569  1.00  0.00     0.163 HD
ATOM     51  C   UNL     1      33.989  36.021  16.240  1.00  0.00     0.114 C 
ATOM     52  O   UNL     1      32.356  34.612  17.245  1.00  0.00    -0.275 OA
ENDBRANCH   7  48
ENDBRANCH   1   2
BRANCH   1  53
ATOM     53  O   UNL     1      27.621  36.621  17.275  1.00  0.00    -0.388 OA
ATOM     54  H   UNL     1      27.486  37.344  16.612  1.00  0.00     0.211 HD
ENDBRANCH   1  53
BRANCH   1  55
ATOM     55  C   UNL     1      28.836  34.618  17.660  1.00  0.00     0.165 C 
BRANCH  55  56
ATOM     56  O   UNL     1      27.519  34.163  17.411  1.00  0.00    -0.388 OA
ATOM     57  H   UNL     1      27.371  33.309  17.887  1.00  0.00     0.211 HD
ENDBRANCH  55  56
BRANCH  55  58
ATOM     58  C   UNL     1      29.096  34.529  19.125  1.00  0.00     0.154 C 
BRANCH  58  59
ATOM     59  N   UNL     1      30.362  33.890  19.419  1.00  0.00    -0.319 N 
ATOM     60  C   UNL     1      31.106  34.253  20.565  1.00  0.00     0.407 C 
ATOM     61  H   UNL     1      30.769  33.138  18.796  1.00  0.00     0.167 HD
ATOM     62  O   UNL     1      30.715  35.140  21.358  1.00  0.00    -0.225 OA
BRANCH  60  63
ATOM     63  O   UNL     1      32.303  33.634  20.863  1.00  0.00    -0.443 OA
BRANCH  63  64
ATOM     64  C   UNL     1      32.680  33.047  22.059  1.00  0.00     0.294 C 
BRANCH  64  65
ATOM     65  C   UNL     1      32.949  31.593  22.003  1.00  0.00     0.120 A 
ATOM     66  C   UNL     1      31.996  30.617  22.084  1.00  0.00     0.138 A 
ATOM     67  N   UNL     1      34.174  31.001  21.877  1.00  0.00    -0.132 NA
ATOM     68  N   UNL     1      32.657  29.448  22.005  1.00  0.00    -0.249 N 
ATOM     69  N   UNL     1      33.939  29.695  21.884  1.00  0.00    -0.067 NA
BRANCH  68  70
ATOM     70  C   UNL     1      32.080  28.123  22.054  1.00  0.00     0.180 C 
BRANCH  70  71
ATOM     71  C   UNL     1      31.342  27.909  20.725  1.00  0.00     0.161 C 
BRANCH  71  72
ATOM     72  O   UNL     1      32.143  27.117  19.938  1.00  0.00    -0.389 OA
ATOM     73  H   UNL     1      32.326  26.238  20.350  1.00  0.00     0.211 HD
ENDBRANCH  71  72
BRANCH  71  74
ATOM     74  C   UNL     1      30.001  27.266  20.987  1.00  0.00     0.189 C 
BRANCH  74  75
ATOM     75  O   UNL     1      29.163  27.462  19.912  1.00  0.00    -0.394 OA
ATOM     76  H   UNL     1      29.685  27.813  19.145  1.00  0.00     0.210 HD
ENDBRANCH  74  75
ENDBRANCH  71  74
ENDBRANCH  70  71
ENDBRANCH  68  70
ENDBRANCH  64  65
ENDBRANCH  63  64
ENDBRANCH  60  63
ENDBRANCH  58  59
ENDBRANCH  55  58
ENDBRANCH   1  55
TORSDOF 34
BEGIN_RES LYS A 131
REMARK  4 active torsions:
REMARK  status: ('A' for Active; 'I' for Inactive)
REMARK    1  A    between atoms: CA   and  CB  
REMARK    2  A    between atoms: CB   and  CG  
REMARK    3  A    between atoms: CG   and  CD  
REMARK    4  A    between atoms: CD   and  CE  
ROOT
ATOM      1  CA  LYS A 131      29.867  25.555  16.977  1.00 20.52     0.186 C 
ENDROOT
BRANCH   1   2
ATOM      2  CB  LYS A 131      28.345  25.722  17.026  1.00 20.94     0.034 C 
BRANCH   2   3
ATOM      3  CG  LYS A 131      27.602  24.399  16.921  1.00 22.96     0.005 C 
BRANCH   3   4
ATOM      4  CD  LYS A 131      26.151  24.533  17.293  1.00 24.33     0.041 C 
BRANCH   4   5
ATOM      5  CE  LYS A 131      26.019  24.598  18.811  1.00 26.91     0.338 C 
ATOM      6  NZ  LYS A 131      25.489  23.319  19.341  1.00 27.40     0.618 N 
ENDBRANCH   4   5
ENDBRANCH   3   4
ENDBRANCH   2   3
ENDBRANCH   1   2
END_RES LYS A 131
BEGIN_RES LYS A 135
REMARK  4 active torsions:
REMARK  status: ('A' for Active; 'I' for Inactive)
REMARK    5  A    between atoms: CA   and  CB  
REMARK    6  A    between atoms: CB   and  CG  
REMARK    7  A    between atoms: CG   and  CD  
REMARK    8  A    between atoms: CD   and  CE  
ROOT
ATOM      7  CA  LYS A 135      33.193  34.663   9.290  1.00 25.02     0.186 C 
ENDROOT
BRANCH   7   8
ATOM      8  CB  LYS A 135      32.060  35.360  10.034  1.00 26.63     0.034 C 
BRANCH   8   9
ATOM      9  CG  LYS A 135      30.806  35.515   9.213  1.00 29.45     0.005 C 
BRANCH   9  10
ATOM     10  CD  LYS A 135      30.096  34.178   9.061  1.00 32.00     0.041 C 
BRANCH  10  11
ATOM     11  CE  LYS A 135      28.646  34.387   8.666  1.00 34.25     0.338 C 
ATOM     12  NZ  LYS A 135      27.731  33.639   9.572  1.00 35.99     0.618 N 
ENDBRANCH  10  11
ENDBRANCH   9  10
ENDBRANCH   8   9
ENDBRANCH   7   8
END_RES LYS A 135
