REMARK VINA RESULT:    -5.494      2.074      6.900
REMARK INTER + INTRA:         -21.750
REMARK INTER:                 -11.333
REMARK INTRA:                 -10.417
REMARK UNBOUND:                -8.226
REMARK SMILES CC(=O)N[C@@H]1[C@@H](O)C[C@](OC[C@H]2O[C@@H](O[C@H]3[C@H](O)[C@@H](O)[C@H](OCCN=[N+]=[N-])O[C@@H]3CO)[C@H](O)[C@@H](O)[C@H]2O)(C(=O)O)O[C@H]1C(O)[C@H](O)CNC(=O)OCc1cn(-c2ccccc2Br)nn1
REMARK SMILES IDX 9 1 8 2 6 3 5 4 42 5 41 6 10 7 11 8 12 9 14 10 13 11 32 12
REMARK SMILES IDX 34 13 36 14 15 15 16 16 29 17 28 18 21 19 17 20 19 21 30 22
REMARK SMILES IDX 31 23 22 25 23 26 24 27 25 28 26 29 27 30 18 31 20 33 33 35
REMARK SMILES IDX 35 37 37 39 38 41 39 42 40 43 7 45 43 47 44 48 45 50 46 51
REMARK SMILES IDX 47 53 48 54 49 55 50 57 51 58 52 59 53 60 54 61 64 62 55 63
REMARK SMILES IDX 63 64 56 65 57 66 61 67 58 68 60 69 62 70 59 71 4 72 2 73
REMARK SMILES IDX 1 75 3 76
REMARK H PARENT 31 24 18 32 20 34 33 36 35 38 37 40 40 44 7 46 44 49 46 52
REMARK H PARENT 48 56 4 74
REMARK Flexibility Score: inf
ROOT
ATOM      1  C   UNL     1      23.569  37.084  10.294  1.00  0.00     0.272 C 
ATOM      2  C   UNL     1      22.834  37.209  11.575  1.00  0.00     0.113 C 
ATOM      3  C   UNL     1      22.886  35.949  12.376  1.00  0.00     0.145 C 
ATOM      4  C   UNL     1      24.216  35.287  12.456  1.00  0.00     0.142 C 
ATOM      5  C   UNL     1      25.181  35.837  11.466  1.00  0.00     0.178 C 
ATOM      6  O   UNL     1      24.687  36.277  10.285  1.00  0.00    -0.332 OA
ENDROOT
BRANCH   1   7
ATOM      7  O   UNL     1      24.006  38.273   9.739  1.00  0.00    -0.338 OA
BRANCH   7   8
ATOM      8  C   UNL     1      23.777  39.412  10.435  1.00  0.00     0.199 C 
BRANCH   8   9
ATOM      9  C   UNL     1      23.785  40.575   9.412  1.00  0.00     0.179 C 
ATOM     10  C   UNL     1      25.047  41.239   7.594  1.00  0.00     0.282 C 
ATOM     11  O   UNL     1      25.002  40.774   8.881  1.00  0.00    -0.341 OA
ATOM     12  C   UNL     1      23.975  42.264   7.299  1.00  0.00     0.202 C 
ATOM     13  C   UNL     1      22.600  41.710   7.608  1.00  0.00     0.179 C 
ATOM     14  C   UNL     1      22.696  40.436   8.425  1.00  0.00     0.177 C 
BRANCH  10  15
ATOM     15  O   UNL     1      25.082  40.222   6.651  1.00  0.00    -0.341 OA
BRANCH  15  16
ATOM     16  C   UNL     1      26.328  39.679   6.441  1.00  0.00     0.184 C 
ATOM     17  C   UNL     1      26.860  39.868   5.041  1.00  0.00     0.178 C 
ATOM     18  O   UNL     1      28.228  39.656   5.110  1.00  0.00    -0.341 OA
ATOM     19  C   UNL     1      28.605  38.438   5.577  1.00  0.00     0.281 C 
ATOM     20  C   UNL     1      26.309  38.168   6.637  1.00  0.00     0.180 C 
ATOM     21  C   UNL     1      27.589  37.581   6.209  1.00  0.00     0.202 C 
BRANCH  17  22
ATOM     22  C   UNL     1      26.594  41.212   4.449  1.00  0.00     0.191 C 
BRANCH  22  23
ATOM     23  O   UNL     1      25.328  41.212   3.870  1.00  0.00    -0.394 OA
ATOM     24  H   UNL     1      24.653  41.057   4.553  1.00  0.00     0.210 HD
ENDBRANCH  22  23
ENDBRANCH  17  22
BRANCH  19  25
ATOM     25  O   UNL     1      29.633  38.677   6.520  1.00  0.00    -0.350 OA
BRANCH  25  26
ATOM     26  C   UNL     1      30.566  39.580   6.094  1.00  0.00     0.169 C 
BRANCH  26  27
ATOM     27  C   UNL     1      31.370  40.235   7.173  1.00  0.00     0.119 C 
BRANCH  27  28
ATOM     28  N   UNL     1      31.138  39.485   8.398  1.00  0.00    -0.092 NA
ATOM     29  N   UNL     1      31.225  40.042   9.482  1.00  0.00     0.001 N 
ATOM     30  N   UNL     1      31.237  40.593  10.576  1.00  0.00    -0.003 NA
ENDBRANCH  27  28
ENDBRANCH  26  27
ENDBRANCH  25  26
ENDBRANCH  19  25
BRANCH  20  31
ATOM     31  O   UNL     1      26.047  37.829   7.955  1.00  0.00    -0.387 OA
ATOM     32  H   UNL     1      25.505  37.012   8.048  1.00  0.00     0.211 HD
ENDBRANCH  20  31
BRANCH  21  33
ATOM     33  O   UNL     1      27.251  36.485   5.360  1.00  0.00    -0.385 OA
ATOM     34  H   UNL     1      26.680  35.837   5.834  1.00  0.00     0.211 HD
ENDBRANCH  21  33
ENDBRANCH  15  16
ENDBRANCH  10  15
BRANCH  12  35
ATOM     35  O   UNL     1      24.220  43.468   7.961  1.00  0.00    -0.385 OA
ATOM     36  H   UNL     1      24.699  43.322   8.814  1.00  0.00     0.211 HD
ENDBRANCH  12  35
BRANCH  13  37
ATOM     37  O   UNL     1      21.853  41.564   6.455  1.00  0.00    -0.387 OA
ATOM     38  H   UNL     1      22.312  41.962   5.688  1.00  0.00     0.211 HD
ENDBRANCH  13  37
BRANCH  14  39
ATOM     39  O   UNL     1      22.854  39.379   7.545  1.00  0.00    -0.387 OA
ATOM     40  H   UNL     1      23.709  38.899   7.667  1.00  0.00     0.211 HD
ENDBRANCH  14  39
ENDBRANCH   8   9
ENDBRANCH   7   8
ENDBRANCH   1   7
BRANCH   1  41
ATOM     41  C   UNL     1      22.616  36.387   9.340  1.00  0.00     0.364 C 
ATOM     42  O   UNL     1      21.707  37.089   8.847  1.00  0.00    -0.246 OA
BRANCH  41  43
ATOM     43  O   UNL     1      22.708  35.068   9.008  1.00  0.00    -0.477 OA
ATOM     44  H   UNL     1      23.368  34.451   9.506  1.00  0.00     0.296 HD
ENDBRANCH  41  43
ENDBRANCH   1  41
BRANCH   3  45
ATOM     45  O   UNL     1      22.383  36.230  13.667  1.00  0.00    -0.391 OA
ATOM     46  H   UNL     1      22.335  35.365  14.159  1.00  0.00     0.211 HD
ENDBRANCH   3  45
BRANCH   5  47
ATOM     47  C   UNL     1      26.191  36.773  12.128  1.00  0.00     0.176 C 
BRANCH  47  48
ATOM     48  O   UNL     1      25.627  37.920  12.628  1.00  0.00    -0.388 OA
ATOM     49  H   UNL     1      25.543  38.627  11.923  1.00  0.00     0.211 HD
ENDBRANCH  47  48
BRANCH  47  50
ATOM     50  C   UNL     1      27.295  37.185  11.140  1.00  0.00     0.165 C 
BRANCH  50  51
ATOM     51  O   UNL     1      28.486  36.705  11.622  1.00  0.00    -0.388 OA
ATOM     52  H   UNL     1      28.875  37.171  12.383  1.00  0.00     0.211 HD
ENDBRANCH  50  51
BRANCH  50  53
ATOM     53  C   UNL     1      27.324  38.670  10.984  1.00  0.00     0.154 C 
BRANCH  53  54
ATOM     54  N   UNL     1      28.429  39.265  11.656  1.00  0.00    -0.319 N 
ATOM     55  C   UNL     1      28.421  39.959  12.884  1.00  0.00     0.407 C 
ATOM     56  H   UNL     1      29.389  39.188  11.192  1.00  0.00     0.167 HD
ATOM     57  O   UNL     1      27.375  40.102  13.523  1.00  0.00    -0.225 OA
BRANCH  55  58
ATOM     58  O   UNL     1      29.599  40.498  13.401  1.00  0.00    -0.443 OA
BRANCH  58  59
ATOM     59  C   UNL     1      30.440  39.848  14.323  1.00  0.00     0.294 C 
BRANCH  59  60
ATOM     60  C   UNL     1      30.670  38.421  13.926  1.00  0.00     0.121 A 
ATOM     61  C   UNL     1      30.453  37.324  14.759  1.00  0.00     0.144 A 
ATOM     62  N   UNL     1      31.112  37.927  12.780  1.00  0.00    -0.131 NA
ATOM     63  N   UNL     1      30.779  36.225  14.064  1.00  0.00    -0.219 N 
ATOM     64  N   UNL     1      31.175  36.594  12.870  1.00  0.00    -0.062 NA
BRANCH  63  65
ATOM     65  C   UNL     1      30.715  34.886  14.524  1.00  0.00     0.081 A 
ATOM     66  C   UNL     1      29.569  34.133  14.398  1.00  0.00     0.029 A 
ATOM     67  C   UNL     1      31.809  34.308  15.110  1.00  0.00     0.043 A 
ATOM     68  C   UNL     1      29.545  32.820  14.861  1.00  0.00     0.002 A 
ATOM     69  C   UNL     1      31.791  33.013  15.570  1.00  0.00     0.018 A 
ATOM     70  Br  UNL     1      33.412  35.318  15.307  1.00  0.00    -0.048 Br
ATOM     71  C   UNL     1      30.653  32.250  15.449  1.00  0.00     0.001 A 
ENDBRANCH  63  65
ENDBRANCH  59  60
ENDBRANCH  58  59
ENDBRANCH  55  58
ENDBRANCH  53  54
ENDBRANCH  50  53
ENDBRANCH  47  50
ENDBRANCH   5  47
BRANCH   4  72
ATOM     72  N   UNL     1      24.143  33.848  12.340  1.00  0.00    -0.348 N 
ATOM     73  C   UNL     1      24.621  33.002  13.370  1.00  0.00     0.217 C 
ATOM     74  H   UNL     1      23.736  33.412  11.490  1.00  0.00     0.163 HD
ATOM     75  C   UNL     1      24.508  31.526  13.167  1.00  0.00     0.114 C 
ATOM     76  O   UNL     1      25.123  33.449  14.418  1.00  0.00    -0.275 OA
ENDBRANCH   4  72
TORSDOF 30
BEGIN_RES LYS A 131
REMARK  4 active torsions:
REMARK  status: ('A' for Active; 'I' for Inactive)
REMARK    1  A    between atoms: CA   and  CB  
REMARK    2  A    between atoms: CB   and  CG  
REMARK    3  A    between atoms: CG   and  CD  
REMARK    4  A    between atoms: CD   and  CE  
ROOT
ATOM      1  CA  LYS A 131      29.867  25.555  16.977  1.00 20.52     0.186 C 
ENDROOT
BRANCH   1   2
ATOM      2  CB  LYS A 131      28.345  25.722  17.026  1.00 20.94     0.034 C 
BRANCH   2   3
ATOM      3  CG  LYS A 131      27.601  24.401  16.898  1.00 22.96     0.005 C 
BRANCH   3   4
ATOM      4  CD  LYS A 131      26.147  24.534  17.255  1.00 24.33     0.041 C 
BRANCH   4   5
ATOM      5  CE  LYS A 131      25.565  23.152  17.538  1.00 26.91     0.338 C 
ATOM      6  NZ  LYS A 131      24.154  23.082  17.089  1.00 27.40     0.618 N 
ENDBRANCH   4   5
ENDBRANCH   3   4
ENDBRANCH   2   3
ENDBRANCH   1   2
END_RES LYS A 131
BEGIN_RES LYS A 135
REMARK  4 active torsions:
REMARK  status: ('A' for Active; 'I' for Inactive)
REMARK    5  A    between atoms: CA   and  CB  
REMARK    6  A    between atoms: CB   and  CG  
REMARK    7  A    between atoms: CG   and  CD  
REMARK    8  A    between atoms: CD   and  CE  
ROOT
ATOM      7  CA  LYS A 135      33.193  34.663   9.290  1.00 25.02     0.186 C 
ENDROOT
BRANCH   7   8
ATOM      8  CB  LYS A 135      32.060  35.360  10.034  1.00 26.63     0.034 C 
BRANCH   8   9
ATOM      9  CG  LYS A 135      30.804  35.510   9.215  1.00 29.45     0.005 C 
BRANCH   9  10
ATOM     10  CD  LYS A 135      29.887  34.313   9.416  1.00 32.00     0.041 C 
BRANCH  10  11
ATOM     11  CE  LYS A 135      28.554  34.542   8.729  1.00 34.25     0.338 C 
ATOM     12  NZ  LYS A 135      27.460  33.808   9.423  1.00 35.99     0.618 N 
ENDBRANCH  10  11
ENDBRANCH   9  10
ENDBRANCH   8   9
ENDBRANCH   7   8
END_RES LYS A 135
