REMARK VINA RESULT:    -3.887      7.184     12.635
REMARK INTER + INTRA:         -23.774
REMARK INTER:                  -7.629
REMARK INTRA:                 -16.145
REMARK UNBOUND:               -13.184
REMARK SMILES CC(=O)N[C@@H]1[C@@H](O)C[C@](OC[C@H]2O[C@@H](O[C@H]3[C@H](O)[C@@H](O)[C@H](OCCN=[N+]=[N-])O[C@@H]3CO)[C@H](O)[C@@H](O)[C@H]2O)(C(=O)O)O[C@H]1C(O)[C@H](O)CNC(=O)OCc1cn(CC(O)Cn2ccnc2[N+](=O)[O-])nn1
REMARK SMILES IDX 43 1 42 2 9 3 8 4 41 5 6 6 5 7 10 8 11 9 12 10 14 11 13 12
REMARK SMILES IDX 32 13 34 14 36 15 15 16 16 17 29 18 28 19 21 20 17 21 19 22
REMARK SMILES IDX 30 23 31 24 22 26 23 27 24 28 25 29 26 30 27 31 18 32 20 34
REMARK SMILES IDX 33 36 35 38 37 40 38 42 39 43 40 44 7 46 4 48 2 49 1 51 3 52
REMARK SMILES IDX 44 53 45 55 46 56 47 58 48 59 49 60 50 62 51 63 52 64 53 65
REMARK SMILES IDX 54 66 69 67 55 68 68 69 56 70 57 71 58 72 59 74 60 75 61 76
REMARK SMILES IDX 64 77 62 78 63 79 65 80 66 81 67 82
REMARK H PARENT 31 25 18 33 20 35 33 37 35 39 37 41 40 45 7 47 4 50 44 54
REMARK H PARENT 46 57 48 61 58 73
REMARK Flexibility Score: inf
ROOT
ATOM      1  C   UNL     1      30.287  38.923   8.035  1.00  0.00     0.176 C 
ENDROOT
BRANCH   1   2
ATOM      2  C   UNL     1      28.834  38.387   8.209  1.00  0.00     0.178 C 
ATOM      3  C   UNL     1      26.813  38.788   7.156  1.00  0.00     0.272 C 
ATOM      4  C   UNL     1      26.111  38.793   8.482  1.00  0.00     0.113 C 
ATOM      5  O   UNL     1      28.136  39.193   7.306  1.00  0.00    -0.332 OA
ATOM      6  C   UNL     1      26.997  39.368   9.579  1.00  0.00     0.145 C 
ATOM      7  C   UNL     1      28.359  38.684   9.570  1.00  0.00     0.142 C 
BRANCH   3   8
ATOM      8  O   UNL     1      26.291  39.712   6.259  1.00  0.00    -0.338 OA
BRANCH   8   9
ATOM      9  C   UNL     1      27.062  40.728   5.836  1.00  0.00     0.199 C 
BRANCH   9  10
ATOM     10  C   UNL     1      26.527  42.095   6.215  1.00  0.00     0.179 C 
ATOM     11  C   UNL     1      24.782  43.159   7.115  1.00  0.00     0.282 C 
ATOM     12  O   UNL     1      25.590  42.007   7.280  1.00  0.00    -0.341 OA
ATOM     13  C   UNL     1      25.616  44.411   7.219  1.00  0.00     0.202 C 
ATOM     14  C   UNL     1      26.976  43.994   7.777  1.00  0.00     0.179 C 
ATOM     15  C   UNL     1      27.585  43.032   6.752  1.00  0.00     0.177 C 
BRANCH  11  16
ATOM     16  O   UNL     1      23.756  43.202   8.036  1.00  0.00    -0.341 OA
BRANCH  16  17
ATOM     17  C   UNL     1      23.427  41.905   8.355  1.00  0.00     0.184 C 
ATOM     18  C   UNL     1      22.021  41.505   7.936  1.00  0.00     0.178 C 
ATOM     19  O   UNL     1      22.031  40.107   7.970  1.00  0.00    -0.341 OA
ATOM     20  C   UNL     1      22.151  39.574   9.223  1.00  0.00     0.281 C 
ATOM     21  C   UNL     1      23.467  41.652   9.855  1.00  0.00     0.180 C 
ATOM     22  C   UNL     1      23.040  40.272  10.185  1.00  0.00     0.202 C 
BRANCH  18  23
ATOM     23  C   UNL     1      21.617  42.009   6.597  1.00  0.00     0.191 C 
BRANCH  23  24
ATOM     24  O   UNL     1      20.302  41.626   6.363  1.00  0.00    -0.394 OA
ATOM     25  H   UNL     1      19.663  42.027   7.004  1.00  0.00     0.210 HD
ENDBRANCH  23  24
ENDBRANCH  18  23
BRANCH  20  26
ATOM     26  O   UNL     1      22.688  38.271   9.042  1.00  0.00    -0.350 OA
BRANCH  26  27
ATOM     27  C   UNL     1      21.930  37.296   9.639  1.00  0.00     0.169 C 
BRANCH  27  28
ATOM     28  C   UNL     1      22.502  35.957   9.154  1.00  0.00     0.119 C 
BRANCH  28  29
ATOM     29  N   UNL     1      23.370  35.357  10.119  1.00  0.00    -0.092 NA
ATOM     30  N   UNL     1      24.543  35.763  10.288  1.00  0.00     0.001 N 
ATOM     31  N   UNL     1      25.511  36.232  10.864  1.00  0.00    -0.003 NA
ENDBRANCH  28  29
ENDBRANCH  27  28
ENDBRANCH  26  27
ENDBRANCH  20  26
BRANCH  21  32
ATOM     32  O   UNL     1      24.786  41.844  10.316  1.00  0.00    -0.387 OA
ATOM     33  H   UNL     1      25.311  42.096   9.536  1.00  0.00     0.211 HD
ENDBRANCH  21  32
BRANCH  22  34
ATOM     34  O   UNL     1      22.323  40.365  11.405  1.00  0.00    -0.385 OA
ATOM     35  H   UNL     1      22.900  40.111  12.173  1.00  0.00     0.211 HD
ENDBRANCH  22  34
ENDBRANCH  16  17
ENDBRANCH  11  16
BRANCH  13  36
ATOM     36  O   UNL     1      25.751  44.962   5.945  1.00  0.00    -0.385 OA
ATOM     37  H   UNL     1      25.533  45.935   5.943  1.00  0.00     0.211 HD
ENDBRANCH  13  36
BRANCH  14  38
ATOM     38  O   UNL     1      26.741  43.243   8.914  1.00  0.00    -0.387 OA
ATOM     39  H   UNL     1      25.790  43.226   9.117  1.00  0.00     0.211 HD
ENDBRANCH  14  38
BRANCH  15  40
ATOM     40  O   UNL     1      28.595  42.374   7.418  1.00  0.00    -0.387 OA
ATOM     41  H   UNL     1      28.950  42.898   8.179  1.00  0.00     0.211 HD
ENDBRANCH  15  40
ENDBRANCH   9  10
ENDBRANCH   8   9
ENDBRANCH   3   8
BRANCH   3  42
ATOM     42  C   UNL     1      26.790  37.452   6.548  1.00  0.00     0.364 C 
ATOM     43  O   UNL     1      26.251  36.449   7.134  1.00  0.00    -0.246 OA
BRANCH  42  44
ATOM     44  O   UNL     1      27.339  37.157   5.316  1.00  0.00    -0.477 OA
ATOM     45  H   UNL     1      26.779  36.957   4.482  1.00  0.00     0.296 HD
ENDBRANCH  42  44
ENDBRANCH   3  42
BRANCH   6  46
ATOM     46  O   UNL     1      27.110  40.741   9.487  1.00  0.00    -0.391 OA
ATOM     47  H   UNL     1      28.021  41.051   9.723  1.00  0.00     0.211 HD
ENDBRANCH   6  46
BRANCH   7  48
ATOM     48  N   UNL     1      28.407  37.644  10.548  1.00  0.00    -0.348 N 
ATOM     49  C   UNL     1      28.638  37.746  11.915  1.00  0.00     0.217 C 
ATOM     50  H   UNL     1      28.230  36.609  10.197  1.00  0.00     0.163 HD
ATOM     51  C   UNL     1      28.618  36.518  12.810  1.00  0.00     0.114 C 
ATOM     52  O   UNL     1      28.868  38.807  12.498  1.00  0.00    -0.275 OA
ENDBRANCH   7  48
ENDBRANCH   1   2
BRANCH   1  53
ATOM     53  O   UNL     1      30.487  39.887   9.054  1.00  0.00    -0.388 OA
ATOM     54  H   UNL     1      29.828  39.820   9.762  1.00  0.00     0.211 HD
ENDBRANCH   1  53
BRANCH   1  55
ATOM     55  C   UNL     1      30.594  39.487   6.727  1.00  0.00     0.165 C 
BRANCH  55  56
ATOM     56  O   UNL     1      30.265  38.748   5.620  1.00  0.00    -0.388 OA
ATOM     57  H   UNL     1      29.462  39.063   5.148  1.00  0.00     0.211 HD
ENDBRANCH  55  56
BRANCH  55  58
ATOM     58  C   UNL     1      32.066  39.947   6.598  1.00  0.00     0.154 C 
BRANCH  58  59
ATOM     59  N   UNL     1      32.084  41.335   7.046  1.00  0.00    -0.319 N 
ATOM     60  C   UNL     1      33.084  41.820   7.950  1.00  0.00     0.407 C 
ATOM     61  H   UNL     1      31.359  42.008   6.710  1.00  0.00     0.167 HD
ATOM     62  O   UNL     1      33.968  41.042   8.369  1.00  0.00    -0.225 OA
BRANCH  60  63
ATOM     63  O   UNL     1      33.092  43.132   8.374  1.00  0.00    -0.443 OA
BRANCH  63  64
ATOM     64  C   UNL     1      32.886  43.601   9.672  1.00  0.00     0.294 C 
BRANCH  64  65
ATOM     65  C   UNL     1      31.556  43.164  10.165  1.00  0.00     0.120 A 
ATOM     66  C   UNL     1      31.172  43.012  11.484  1.00  0.00     0.138 A 
ATOM     67  N   UNL     1      30.466  42.837   9.455  1.00  0.00    -0.132 NA
ATOM     68  N   UNL     1      29.879  42.605  11.517  1.00  0.00    -0.249 N 
ATOM     69  N   UNL     1      29.479  42.507  10.276  1.00  0.00    -0.067 NA
BRANCH  68  70
ATOM     70  C   UNL     1      29.144  42.388  12.760  1.00  0.00     0.181 C 
BRANCH  70  71
ATOM     71  C   UNL     1      27.672  42.556  12.389  1.00  0.00     0.170 C 
BRANCH  71  72
ATOM     72  O   UNL     1      27.084  41.314  12.360  1.00  0.00    -0.388 OA
ATOM     73  H   UNL     1      26.715  41.090  13.248  1.00  0.00     0.211 HD
ENDBRANCH  71  72
BRANCH  71  74
ATOM     74  C   UNL     1      27.002  43.511  13.328  1.00  0.00     0.239 C 
BRANCH  74  75
ATOM     75  N   UNL     1      25.815  44.064  12.699  1.00  0.00    -0.227 N 
ATOM     76  C   UNL     1      25.882  45.119  11.822  1.00  0.00     0.204 A 
ATOM     77  C   UNL     1      24.546  43.674  12.824  1.00  0.00     0.434 A 
ATOM     78  C   UNL     1      24.597  45.374  11.399  1.00  0.00     0.245 A 
ATOM     79  N   UNL     1      23.799  44.483  12.021  1.00  0.00    -0.074 NA
BRANCH  77  80
ATOM     80  N   UNL     1      24.055  42.628  13.644  1.00  0.00    -0.047 N 
ATOM     81  O   UNL     1      24.230  41.411  13.322  1.00  0.00    -0.390 OA
ATOM     82  O   UNL     1      23.367  42.837  14.807  1.00  0.00    -0.390 OA
ENDBRANCH  77  80
ENDBRANCH  74  75
ENDBRANCH  71  74
ENDBRANCH  70  71
ENDBRANCH  68  70
ENDBRANCH  64  65
ENDBRANCH  63  64
ENDBRANCH  60  63
ENDBRANCH  58  59
ENDBRANCH  55  58
ENDBRANCH   1  55
TORSDOF 35
BEGIN_RES LYS A 131
REMARK  4 active torsions:
REMARK  status: ('A' for Active; 'I' for Inactive)
REMARK    1  A    between atoms: CA   and  CB  
REMARK    2  A    between atoms: CB   and  CG  
REMARK    3  A    between atoms: CG   and  CD  
REMARK    4  A    between atoms: CD   and  CE  
ROOT
ATOM      1  CA  LYS A 131      29.867  25.555  16.977  1.00 20.52     0.186 C 
ENDROOT
BRANCH   1   2
ATOM      2  CB  LYS A 131      28.345  25.722  17.026  1.00 20.94     0.034 C 
BRANCH   2   3
ATOM      3  CG  LYS A 131      27.602  24.399  16.926  1.00 22.96     0.005 C 
BRANCH   3   4
ATOM      4  CD  LYS A 131      26.636  24.204  18.062  1.00 24.33     0.041 C 
BRANCH   4   5
ATOM      5  CE  LYS A 131      26.386  25.541  18.752  1.00 26.91     0.338 C 
ATOM      6  NZ  LYS A 131      25.531  25.356  19.949  1.00 27.40     0.618 N 
ENDBRANCH   4   5
ENDBRANCH   3   4
ENDBRANCH   2   3
ENDBRANCH   1   2
END_RES LYS A 131
BEGIN_RES LYS A 135
REMARK  4 active torsions:
REMARK  status: ('A' for Active; 'I' for Inactive)
REMARK    5  A    between atoms: CA   and  CB  
REMARK    6  A    between atoms: CB   and  CG  
REMARK    7  A    between atoms: CG   and  CD  
REMARK    8  A    between atoms: CD   and  CE  
ROOT
ATOM      7  CA  LYS A 135      33.193  34.663   9.290  1.00 25.02     0.186 C 
ENDROOT
BRANCH   7   8
ATOM      8  CB  LYS A 135      32.060  35.360  10.034  1.00 26.63     0.034 C 
BRANCH   8   9
ATOM      9  CG  LYS A 135      30.784  35.454   9.237  1.00 29.45     0.005 C 
BRANCH   9  10
ATOM     10  CD  LYS A 135      29.825  34.340   9.626  1.00 32.00     0.041 C 
BRANCH  10  11
ATOM     11  CE  LYS A 135      28.566  34.402   8.783  1.00 34.25     0.338 C 
ATOM     12  NZ  LYS A 135      27.442  33.683   9.443  1.00 35.99     0.618 N 
ENDBRANCH  10  11
ENDBRANCH   9  10
ENDBRANCH   8   9
ENDBRANCH   7   8
END_RES LYS A 135
