REMARK VINA RESULT:    -5.524      0.000      0.000
REMARK INTER + INTRA:         -23.649
REMARK INTER:                 -11.944
REMARK INTRA:                 -11.706
REMARK UNBOUND:                -9.729
REMARK SMILES CC(=O)N[C@@H]1[C@@H](O)C[C@](OC[C@H]2O[C@@H](O[C@H]3[C@H](O)[C@@H](O)[C@H](OCCN=[N+]=[N-])O[C@@H]3CO)[C@H](O)[C@@H](O)[C@H]2O)(C(=O)O)O[C@H]1C(O)[C@H](O)CNC(=O)OCc1cn(-c2ncccc2C#N)nn1
REMARK SMILES IDX 9 1 8 2 6 3 5 4 42 5 41 6 10 7 11 8 12 9 14 10 13 11 32 12
REMARK SMILES IDX 34 13 36 14 15 15 16 16 29 17 28 18 21 19 17 20 19 21 30 22
REMARK SMILES IDX 31 23 22 25 23 26 24 27 25 28 26 29 27 30 18 31 20 33 33 35
REMARK SMILES IDX 35 37 37 39 38 41 39 42 40 43 7 45 43 47 44 48 45 50 46 51
REMARK SMILES IDX 47 53 48 54 49 55 50 57 51 58 52 59 53 60 54 61 65 62 55 63
REMARK SMILES IDX 64 64 56 65 57 66 61 67 58 68 60 69 59 70 62 71 63 72 4 73
REMARK SMILES IDX 2 74 1 76 3 77
REMARK H PARENT 31 24 18 32 20 34 33 36 35 38 37 40 40 44 7 46 44 49 46 52
REMARK H PARENT 48 56 4 75
REMARK Flexibility Score: inf
ROOT
ATOM      1  C   UNL     1      32.352  31.906  22.972  1.00  0.00     0.272 C 
ATOM      2  C   UNL     1      33.775  32.005  22.620  1.00  0.00     0.113 C 
ATOM      3  C   UNL     1      34.560  30.805  22.981  1.00  0.00     0.145 C 
ATOM      4  C   UNL     1      33.828  29.504  22.994  1.00  0.00     0.142 C 
ATOM      5  C   UNL     1      32.393  29.542  22.552  1.00  0.00     0.178 C 
ATOM      6  O   UNL     1      31.768  30.680  22.751  1.00  0.00    -0.332 OA
ENDROOT
BRANCH   1   7
ATOM      7  O   UNL     1      31.458  32.780  22.497  1.00  0.00    -0.338 OA
BRANCH   7   8
ATOM      8  C   UNL     1      31.498  33.999  22.055  1.00  0.00     0.199 C 
BRANCH   8   9
ATOM      9  C   UNL     1      30.730  34.026  20.729  1.00  0.00     0.179 C 
ATOM     10  C   UNL     1      30.339  32.905  18.797  1.00  0.00     0.282 C 
ATOM     11  O   UNL     1      31.318  33.191  19.818  1.00  0.00    -0.341 OA
ATOM     12  C   UNL     1      29.306  31.988  19.344  1.00  0.00     0.202 C 
ATOM     13  C   UNL     1      28.723  32.535  20.651  1.00  0.00     0.179 C 
ATOM     14  C   UNL     1      29.258  33.901  20.862  1.00  0.00     0.177 C 
BRANCH  10  15
ATOM     15  O   UNL     1      30.938  32.413  17.691  1.00  0.00    -0.341 OA
BRANCH  15  16
ATOM     16  C   UNL     1      31.494  33.340  16.854  1.00  0.00     0.184 C 
ATOM     17  C   UNL     1      30.643  34.644  16.876  1.00  0.00     0.178 C 
ATOM     18  O   UNL     1      30.009  34.764  15.641  1.00  0.00    -0.341 OA
ATOM     19  C   UNL     1      29.278  33.603  15.345  1.00  0.00     0.281 C 
ATOM     20  C   UNL     1      31.622  32.899  15.419  1.00  0.00     0.180 C 
ATOM     21  C   UNL     1      30.235  32.547  14.868  1.00  0.00     0.202 C 
BRANCH  17  22
ATOM     22  C   UNL     1      31.547  35.797  17.173  1.00  0.00     0.191 C 
BRANCH  22  23
ATOM     23  O   UNL     1      32.895  35.400  17.257  1.00  0.00    -0.394 OA
ATOM     24  H   UNL     1      33.435  35.771  16.519  1.00  0.00     0.210 HD
ENDBRANCH  22  23
ENDBRANCH  17  22
BRANCH  19  25
ATOM     25  O   UNL     1      28.347  33.955  14.395  1.00  0.00    -0.350 OA
BRANCH  25  26
ATOM     26  C   UNL     1      28.678  35.173  13.774  1.00  0.00     0.169 C 
BRANCH  26  27
ATOM     27  C   UNL     1      28.714  35.005  12.269  1.00  0.00     0.119 C 
BRANCH  27  28
ATOM     28  N   UNL     1      27.340  34.683  11.859  1.00  0.00    -0.092 NA
ATOM     29  N   UNL     1      26.543  35.656  11.839  1.00  0.00     0.001 N 
ATOM     30  N   UNL     1      25.641  36.455  12.133  1.00  0.00    -0.003 NA
ENDBRANCH  27  28
ENDBRANCH  26  27
ENDBRANCH  25  26
ENDBRANCH  19  25
BRANCH  20  31
ATOM     31  O   UNL     1      32.214  33.845  14.615  1.00  0.00    -0.387 OA
ATOM     32  H   UNL     1      31.768  34.069  13.782  1.00  0.00     0.211 HD
ENDBRANCH  20  31
BRANCH  21  33
ATOM     33  O   UNL     1      29.870  31.274  15.292  1.00  0.00    -0.385 OA
ATOM     34  H   UNL     1      29.183  31.393  16.003  1.00  0.00     0.211 HD
ENDBRANCH  21  33
ENDBRANCH  15  16
ENDBRANCH  10  15
BRANCH  12  35
ATOM     35  O   UNL     1      28.277  31.805  18.437  1.00  0.00    -0.385 OA
ATOM     36  H   UNL     1      27.880  30.889  18.615  1.00  0.00     0.211 HD
ENDBRANCH  12  35
BRANCH  13  37
ATOM     37  O   UNL     1      29.076  31.666  21.710  1.00  0.00    -0.387 OA
ATOM     38  H   UNL     1      29.357  30.781  21.344  1.00  0.00     0.211 HD
ENDBRANCH  13  37
BRANCH  14  39
ATOM     39  O   UNL     1      28.839  34.488  22.060  1.00  0.00    -0.387 OA
ATOM     40  H   UNL     1      29.203  35.429  22.128  1.00  0.00     0.211 HD
ENDBRANCH  14  39
ENDBRANCH   8   9
ENDBRANCH   7   8
ENDBRANCH   1   7
BRANCH   1  41
ATOM     41  C   UNL     1      32.302  32.086  24.489  1.00  0.00     0.364 C 
ATOM     42  O   UNL     1      32.733  33.056  25.089  1.00  0.00    -0.246 OA
BRANCH  41  43
ATOM     43  O   UNL     1      31.720  31.070  25.272  1.00  0.00    -0.477 OA
ATOM     44  H   UNL     1      30.830  31.181  25.732  1.00  0.00     0.296 HD
ENDBRANCH  41  43
ENDBRANCH   1  41
BRANCH   3  45
ATOM     45  O   UNL     1      35.732  30.728  22.204  1.00  0.00    -0.391 OA
ATOM     46  H   UNL     1      35.485  30.109  21.441  1.00  0.00     0.211 HD
ENDBRANCH   3  45
BRANCH   5  47
ATOM     47  C   UNL     1      32.240  29.003  21.101  1.00  0.00     0.176 C 
BRANCH  47  48
ATOM     48  O   UNL     1      31.155  29.733  20.532  1.00  0.00    -0.388 OA
ATOM     49  H   UNL     1      30.357  29.654  21.082  1.00  0.00     0.211 HD
ENDBRANCH  47  48
BRANCH  47  50
ATOM     50  C   UNL     1      31.915  27.607  20.966  1.00  0.00     0.165 C 
BRANCH  50  51
ATOM     51  O   UNL     1      32.111  27.016  19.693  1.00  0.00    -0.388 OA
ATOM     52  H   UNL     1      31.208  26.840  19.279  1.00  0.00     0.211 HD
ENDBRANCH  50  51
BRANCH  50  53
ATOM     53  C   UNL     1      30.502  27.250  21.297  1.00  0.00     0.154 C 
BRANCH  53  54
ATOM     54  N   UNL     1      29.557  27.046  20.271  1.00  0.00    -0.319 N 
ATOM     55  C   UNL     1      28.456  27.818  19.903  1.00  0.00     0.407 C 
ATOM     56  H   UNL     1      29.684  26.148  19.662  1.00  0.00     0.167 HD
ATOM     57  O   UNL     1      28.237  28.873  20.549  1.00  0.00    -0.225 OA
BRANCH  55  58
ATOM     58  O   UNL     1      27.639  27.405  18.832  1.00  0.00    -0.443 OA
BRANCH  58  59
ATOM     59  C   UNL     1      26.438  28.079  18.603  1.00  0.00     0.294 C 
BRANCH  59  60
ATOM     60  C   UNL     1      26.530  29.043  17.523  1.00  0.00     0.121 A 
ATOM     61  C   UNL     1      25.513  29.744  16.993  1.00  0.00     0.146 A 
ATOM     62  N   UNL     1      27.681  29.372  16.792  1.00  0.00    -0.131 NA
ATOM     63  N   UNL     1      25.949  30.484  15.983  1.00  0.00    -0.201 N 
ATOM     64  N   UNL     1      27.219  30.219  15.922  1.00  0.00    -0.060 NA
BRANCH  63  65
ATOM     65  C   UNL     1      25.279  31.418  15.163  1.00  0.00     0.173 A 
ATOM     66  N   UNL     1      24.745  30.918  14.018  1.00  0.00    -0.236 NA
ATOM     67  C   UNL     1      25.294  32.793  15.433  1.00  0.00     0.097 A 
ATOM     68  C   UNL     1      24.193  31.859  13.069  1.00  0.00     0.113 A 
ATOM     69  C   UNL     1      24.758  33.629  14.478  1.00  0.00     0.025 A 
ATOM     70  C   UNL     1      24.239  33.137  13.354  1.00  0.00     0.022 A 
BRANCH  67  71
ATOM     71  C   UNL     1      25.740  33.380  16.656  1.00  0.00     0.103 C 
ATOM     72  N   UNL     1      26.102  33.870  17.701  1.00  0.00    -0.192 NA
ENDBRANCH  67  71
ENDBRANCH  63  65
ENDBRANCH  59  60
ENDBRANCH  58  59
ENDBRANCH  55  58
ENDBRANCH  53  54
ENDBRANCH  50  53
ENDBRANCH  47  50
ENDBRANCH   5  47
BRANCH   4  73
ATOM     73  N   UNL     1      34.104  28.908  24.283  1.00  0.00    -0.348 N 
ATOM     74  C   UNL     1      34.109  27.553  24.622  1.00  0.00     0.217 C 
ATOM     75  H   UNL     1      34.323  29.578  25.107  1.00  0.00     0.163 HD
ATOM     76  C   UNL     1      34.474  27.109  26.026  1.00  0.00     0.114 C 
ATOM     77  O   UNL     1      33.833  26.615  23.841  1.00  0.00    -0.275 OA
ENDBRANCH   4  73
TORSDOF 31
BEGIN_RES LYS A 131
REMARK  4 active torsions:
REMARK  status: ('A' for Active; 'I' for Inactive)
REMARK    1  A    between atoms: CA   and  CB  
REMARK    2  A    between atoms: CB   and  CG  
REMARK    3  A    between atoms: CG   and  CD  
REMARK    4  A    between atoms: CD   and  CE  
ROOT
ATOM      1  CA  LYS A 131      29.867  25.555  16.977  1.00 20.52     0.186 C 
ENDROOT
BRANCH   1   2
ATOM      2  CB  LYS A 131      28.345  25.722  17.026  1.00 20.94     0.034 C 
BRANCH   2   3
ATOM      3  CG  LYS A 131      27.600  24.410  16.834  1.00 22.96     0.005 C 
BRANCH   3   4
ATOM      4  CD  LYS A 131      26.770  24.049  18.035  1.00 24.33     0.041 C 
BRANCH   4   5
ATOM      5  CE  LYS A 131      25.482  23.371  17.578  1.00 26.91     0.338 C 
ATOM      6  NZ  LYS A 131      24.597  24.343  16.894  1.00 27.40     0.618 N 
ENDBRANCH   4   5
ENDBRANCH   3   4
ENDBRANCH   2   3
ENDBRANCH   1   2
END_RES LYS A 131
BEGIN_RES LYS A 135
REMARK  4 active torsions:
REMARK  status: ('A' for Active; 'I' for Inactive)
REMARK    5  A    between atoms: CA   and  CB  
REMARK    6  A    between atoms: CB   and  CG  
REMARK    7  A    between atoms: CG   and  CD  
REMARK    8  A    between atoms: CD   and  CE  
ROOT
ATOM      7  CA  LYS A 135      33.193  34.663   9.290  1.00 25.02     0.186 C 
ENDROOT
BRANCH   7   8
ATOM      8  CB  LYS A 135      32.060  35.360  10.034  1.00 26.63     0.034 C 
BRANCH   8   9
ATOM      9  CG  LYS A 135      30.809  35.524   9.210  1.00 29.45     0.005 C 
BRANCH   9  10
ATOM     10  CD  LYS A 135      30.317  34.176   8.706  1.00 32.00     0.041 C 
BRANCH  10  11
ATOM     11  CE  LYS A 135      28.801  34.136   8.684  1.00 34.25     0.338 C 
ATOM     12  NZ  LYS A 135      28.254  35.095   7.684  1.00 35.99     0.618 N 
ENDBRANCH  10  11
ENDBRANCH   9  10
ENDBRANCH   8   9
ENDBRANCH   7   8
END_RES LYS A 135
