REMARK VINA RESULT:    -5.041      2.507      6.530
REMARK INTER + INTRA:         -22.113
REMARK INTER:                 -10.811
REMARK INTRA:                 -11.302
REMARK UNBOUND:                -9.116
REMARK SMILES CC(=O)N[C@@H]1[C@@H](O)C[C@](OC[C@H]2O[C@@H](O[C@H]3[C@H](O)[C@@H](O)[C@H](OCCN=[N+]=[N-])O[C@@H]3CO)[C@H](O)[C@@H](O)[C@H]2O)(C(=O)O)O[C@H]1C(O)[C@H](O)CNC(=O)OCc1cn(CCC2OCCO2)nn1
REMARK SMILES IDX 9 1 8 2 6 3 5 4 42 5 41 6 10 7 11 8 12 9 14 10 13 11 32 12
REMARK SMILES IDX 34 13 36 14 15 15 16 16 29 17 28 18 21 19 17 20 19 21 30 22
REMARK SMILES IDX 31 23 22 25 23 26 24 27 25 28 26 29 27 30 18 31 20 33 33 35
REMARK SMILES IDX 35 37 37 39 38 41 39 42 40 43 7 45 43 47 44 48 45 50 46 51
REMARK SMILES IDX 47 53 48 54 49 55 50 57 51 58 52 59 53 60 54 61 64 62 55 63
REMARK SMILES IDX 63 64 56 65 57 66 58 67 59 68 62 69 60 70 61 71 4 72 2 73
REMARK SMILES IDX 1 75 3 76
REMARK H PARENT 31 24 18 32 20 34 33 36 35 38 37 40 40 44 7 46 44 49 46 52
REMARK H PARENT 48 56 4 74
REMARK Flexibility Score: inf
ROOT
ATOM      1  C   UNL     1      29.384  35.451  13.088  1.00  0.00     0.272 C 
ATOM      2  C   UNL     1      30.740  35.041  12.405  1.00  0.00     0.113 C 
ATOM      3  C   UNL     1      31.889  35.386  13.253  1.00  0.00     0.145 C 
ATOM      4  C   UNL     1      31.764  34.689  14.593  1.00  0.00     0.142 C 
ATOM      5  C   UNL     1      30.356  34.317  14.909  1.00  0.00     0.178 C 
ATOM      6  O   UNL     1      29.374  35.101  14.415  1.00  0.00    -0.332 OA
ENDROOT
BRANCH   1   7
ATOM      7  O   UNL     1      28.490  34.735  12.405  1.00  0.00    -0.338 OA
BRANCH   7   8
ATOM      8  C   UNL     1      28.053  34.901  11.177  1.00  0.00     0.199 C 
BRANCH   8   9
ATOM      9  C   UNL     1      26.614  35.171  10.875  1.00  0.00     0.179 C 
ATOM     10  C   UNL     1      24.469  34.617  11.629  1.00  0.00     0.282 C 
ATOM     11  O   UNL     1      25.804  34.282  11.543  1.00  0.00    -0.341 OA
ATOM     12  C   UNL     1      24.020  35.724  10.748  1.00  0.00     0.202 C 
ATOM     13  C   UNL     1      24.927  36.924  10.766  1.00  0.00     0.179 C 
ATOM     14  C   UNL     1      26.213  36.561  11.429  1.00  0.00     0.177 C 
BRANCH  10  15
ATOM     15  O   UNL     1      24.134  34.745  12.976  1.00  0.00    -0.341 OA
BRANCH  15  16
ATOM     16  C   UNL     1      24.141  33.542  13.670  1.00  0.00     0.184 C 
ATOM     17  C   UNL     1      22.835  33.194  14.315  1.00  0.00     0.178 C 
ATOM     18  O   UNL     1      22.971  31.932  14.898  1.00  0.00    -0.341 OA
ATOM     19  C   UNL     1      23.844  31.914  15.976  1.00  0.00     0.281 C 
ATOM     20  C   UNL     1      25.151  33.648  14.848  1.00  0.00     0.180 C 
ATOM     21  C   UNL     1      25.226  32.235  15.412  1.00  0.00     0.202 C 
BRANCH  17  22
ATOM     22  C   UNL     1      21.770  33.036  13.245  1.00  0.00     0.191 C 
BRANCH  22  23
ATOM     23  O   UNL     1      22.300  32.091  12.330  1.00  0.00    -0.394 OA
ATOM     24  H   UNL     1      21.673  31.363  12.135  1.00  0.00     0.210 HD
ENDBRANCH  22  23
ENDBRANCH  17  22
BRANCH  19  25
ATOM     25  O   UNL     1      23.821  30.671  16.543  1.00  0.00    -0.350 OA
BRANCH  25  26
ATOM     26  C   UNL     1      24.098  29.623  15.713  1.00  0.00     0.169 C 
BRANCH  26  27
ATOM     27  C   UNL     1      23.121  28.471  15.794  1.00  0.00     0.119 C 
BRANCH  27  28
ATOM     28  N   UNL     1      22.157  28.553  14.712  1.00  0.00    -0.092 NA
ATOM     29  N   UNL     1      22.464  28.878  13.568  1.00  0.00     0.001 N 
ATOM     30  N   UNL     1      22.708  29.033  12.374  1.00  0.00    -0.003 NA
ENDBRANCH  27  28
ENDBRANCH  26  27
ENDBRANCH  25  26
ENDBRANCH  19  25
BRANCH  20  31
ATOM     31  O   UNL     1      26.371  34.025  14.345  1.00  0.00    -0.387 OA
ATOM     32  H   UNL     1      26.866  34.526  15.050  1.00  0.00     0.211 HD
ENDBRANCH  20  31
BRANCH  21  33
ATOM     33  O   UNL     1      26.199  32.232  16.388  1.00  0.00    -0.385 OA
ATOM     34  H   UNL     1      26.967  31.698  16.060  1.00  0.00     0.211 HD
ENDBRANCH  21  33
ENDBRANCH  15  16
ENDBRANCH  10  15
BRANCH  12  35
ATOM     35  O   UNL     1      23.861  35.233   9.428  1.00  0.00    -0.385 OA
ATOM     36  H   UNL     1      23.797  34.246   9.529  1.00  0.00     0.211 HD
ENDBRANCH  12  35
BRANCH  13  37
ATOM     37  O   UNL     1      24.312  38.034  11.345  1.00  0.00    -0.387 OA
ATOM     38  H   UNL     1      23.530  38.272  10.781  1.00  0.00     0.211 HD
ENDBRANCH  13  37
BRANCH  14  39
ATOM     39  O   UNL     1      26.142  36.485  12.804  1.00  0.00    -0.387 OA
ATOM     40  H   UNL     1      25.296  36.832  13.184  1.00  0.00     0.211 HD
ENDBRANCH  14  39
ENDBRANCH   8   9
ENDBRANCH   7   8
ENDBRANCH   1   7
BRANCH   1  41
ATOM     41  C   UNL     1      29.408  36.911  13.009  1.00  0.00     0.364 C 
ATOM     42  O   UNL     1      28.842  37.605  13.951  1.00  0.00    -0.246 OA
BRANCH  41  43
ATOM     43  O   UNL     1      29.973  37.707  12.039  1.00  0.00    -0.477 OA
ATOM     44  H   UNL     1      30.842  38.188  12.224  1.00  0.00     0.296 HD
ENDBRANCH  41  43
ENDBRANCH   1  41
BRANCH   3  45
ATOM     45  O   UNL     1      33.047  34.910  12.571  1.00  0.00    -0.391 OA
ATOM     46  H   UNL     1      33.176  35.527  11.788  1.00  0.00     0.211 HD
ENDBRANCH   3  45
BRANCH   5  47
ATOM     47  C   UNL     1      30.153  32.845  14.711  1.00  0.00     0.176 C 
BRANCH  47  48
ATOM     48  O   UNL     1      31.335  32.103  14.861  1.00  0.00    -0.388 OA
ATOM     49  H   UNL     1      31.333  31.605  15.730  1.00  0.00     0.211 HD
ENDBRANCH  47  48
BRANCH  47  50
ATOM     50  C   UNL     1      29.245  32.284  15.842  1.00  0.00     0.165 C 
BRANCH  50  51
ATOM     51  O   UNL     1      29.057  33.273  16.777  1.00  0.00    -0.388 OA
ATOM     52  H   UNL     1      29.570  34.085  16.610  1.00  0.00     0.211 HD
ENDBRANCH  50  51
BRANCH  50  53
ATOM     53  C   UNL     1      29.821  31.006  16.301  1.00  0.00     0.154 C 
BRANCH  53  54
ATOM     54  N   UNL     1      29.400  30.665  17.624  1.00  0.00    -0.319 N 
ATOM     55  C   UNL     1      28.224  29.983  17.932  1.00  0.00     0.407 C 
ATOM     56  H   UNL     1      30.035  30.956  18.409  1.00  0.00     0.167 HD
ATOM     57  O   UNL     1      27.433  29.627  17.045  1.00  0.00    -0.225 OA
BRANCH  55  58
ATOM     58  O   UNL     1      27.848  29.654  19.242  1.00  0.00    -0.443 OA
BRANCH  58  59
ATOM     59  C   UNL     1      27.732  30.652  20.240  1.00  0.00     0.294 C 
BRANCH  59  60
ATOM     60  C   UNL     1      26.906  31.802  19.806  1.00  0.00     0.120 A 
ATOM     61  C   UNL     1      27.351  33.126  19.734  1.00  0.00     0.138 A 
ATOM     62  N   UNL     1      25.625  31.851  19.410  1.00  0.00    -0.132 NA
ATOM     63  N   UNL     1      26.331  33.915  19.300  1.00  0.00    -0.252 N 
ATOM     64  N   UNL     1      25.305  33.118  19.113  1.00  0.00    -0.067 NA
BRANCH  63  65
ATOM     65  C   UNL     1      26.475  35.351  19.111  1.00  0.00     0.151 C 
BRANCH  65  66
ATOM     66  C   UNL     1      26.359  35.707  17.635  1.00  0.00     0.086 C 
BRANCH  66  67
ATOM     67  C   UNL     1      27.547  36.498  17.165  1.00  0.00     0.251 C 
ATOM     68  O   UNL     1      27.407  37.826  17.571  1.00  0.00    -0.350 OA
ATOM     69  O   UNL     1      28.743  36.069  17.706  1.00  0.00    -0.350 OA
ATOM     70  C   UNL     1      28.687  38.358  17.481  1.00  0.00     0.192 C 
ATOM     71  C   UNL     1      29.588  37.143  17.338  1.00  0.00     0.192 C 
ENDBRANCH  66  67
ENDBRANCH  65  66
ENDBRANCH  63  65
ENDBRANCH  59  60
ENDBRANCH  58  59
ENDBRANCH  55  58
ENDBRANCH  53  54
ENDBRANCH  50  53
ENDBRANCH  47  50
ENDBRANCH   5  47
BRANCH   4  72
ATOM     72  N   UNL     1      32.398  35.480  15.645  1.00  0.00    -0.348 N 
ATOM     73  C   UNL     1      32.493  35.060  16.975  1.00  0.00     0.217 C 
ATOM     74  H   UNL     1      32.797  36.418  15.351  1.00  0.00     0.163 HD
ATOM     75  C   UNL     1      33.159  35.930  17.998  1.00  0.00     0.114 C 
ATOM     76  O   UNL     1      32.002  33.936  17.271  1.00  0.00    -0.275 OA
ENDBRANCH   4  72
TORSDOF 32
BEGIN_RES LYS A 131
REMARK  4 active torsions:
REMARK  status: ('A' for Active; 'I' for Inactive)
REMARK    1  A    between atoms: CA   and  CB  
REMARK    2  A    between atoms: CB   and  CG  
REMARK    3  A    between atoms: CG   and  CD  
REMARK    4  A    between atoms: CD   and  CE  
ROOT
ATOM      1  CA  LYS A 131      29.867  25.555  16.977  1.00 20.52     0.186 C 
ENDROOT
BRANCH   1   2
ATOM      2  CB  LYS A 131      28.345  25.722  17.026  1.00 20.94     0.034 C 
BRANCH   2   3
ATOM      3  CG  LYS A 131      27.850  26.234  18.370  1.00 22.96     0.005 C 
BRANCH   3   4
ATOM      4  CD  LYS A 131      26.354  26.379  18.404  1.00 24.33     0.041 C 
BRANCH   4   5
ATOM      5  CE  LYS A 131      25.778  25.463  19.481  1.00 26.91     0.338 C 
ATOM      6  NZ  LYS A 131      25.756  24.058  19.009  1.00 27.40     0.618 N 
ENDBRANCH   4   5
ENDBRANCH   3   4
ENDBRANCH   2   3
ENDBRANCH   1   2
END_RES LYS A 131
BEGIN_RES LYS A 135
REMARK  4 active torsions:
REMARK  status: ('A' for Active; 'I' for Inactive)
REMARK    5  A    between atoms: CA   and  CB  
REMARK    6  A    between atoms: CB   and  CG  
REMARK    7  A    between atoms: CG   and  CD  
REMARK    8  A    between atoms: CD   and  CE  
ROOT
ATOM      7  CA  LYS A 135      33.193  34.663   9.290  1.00 25.02     0.186 C 
ENDROOT
BRANCH   7   8
ATOM      8  CB  LYS A 135      32.060  35.360  10.034  1.00 26.63     0.034 C 
BRANCH   8   9
ATOM      9  CG  LYS A 135      30.924  35.786   9.140  1.00 29.45     0.005 C 
BRANCH   9  10
ATOM     10  CD  LYS A 135      30.410  34.607   8.328  1.00 32.00     0.041 C 
BRANCH  10  11
ATOM     11  CE  LYS A 135      29.173  35.000   7.543  1.00 34.25     0.338 C 
ATOM     12  NZ  LYS A 135      28.780  36.407   7.831  1.00 35.99     0.618 N 
ENDBRANCH  10  11
ENDBRANCH   9  10
ENDBRANCH   8   9
ENDBRANCH   7   8
END_RES LYS A 135
