REMARK VINA RESULT:    -4.609      3.156      6.719
REMARK INTER + INTRA:         -21.680
REMARK INTER:                 -10.731
REMARK INTRA:                 -10.948
REMARK UNBOUND:                -9.660
REMARK SMILES CC(=O)N[C@@H]1[C@@H](O)C[C@](OC[C@H]2O[C@@H](O[C@H]3[C@H](O)[C@@H](O)[C@H](OCCN=[N+]=[N-])O[C@@H]3CO)[C@H](O)[C@@H](O)[C@H]2O)(C(=O)O)O[C@H]1C(O)[C@H](O)CNC(=O)OCc1cn(CCC(=O)O)nn1
REMARK SMILES IDX 43 1 42 2 9 3 8 4 41 5 6 6 5 7 10 8 11 9 12 10 14 11 13 12
REMARK SMILES IDX 32 13 34 14 36 15 15 16 16 17 29 18 28 19 21 20 17 21 19 22
REMARK SMILES IDX 30 23 31 24 22 26 23 27 24 28 25 29 26 30 27 31 18 32 20 34
REMARK SMILES IDX 33 36 35 38 37 40 38 42 39 43 40 44 7 46 4 48 2 49 1 51 3 52
REMARK SMILES IDX 44 53 45 55 46 56 47 58 48 59 49 60 50 62 51 63 52 64 53 65
REMARK SMILES IDX 54 66 62 67 55 68 61 69 56 70 57 71 58 72 59 73 60 74
REMARK H PARENT 31 25 18 33 20 35 33 37 35 39 37 41 40 45 7 47 4 50 44 54
REMARK H PARENT 46 57 48 61 60 75
REMARK Flexibility Score: inf
ROOT
ATOM      1  C   UNL     1      30.998  35.596  14.125  1.00  0.00     0.176 C 
ENDROOT
BRANCH   1   2
ATOM      2  C   UNL     1      30.374  36.930  13.787  1.00  0.00     0.178 C 
ATOM      3  C   UNL     1      29.253  38.040  12.050  1.00  0.00     0.272 C 
ATOM      4  C   UNL     1      29.163  38.995  13.227  1.00  0.00     0.113 C 
ATOM      5  O   UNL     1      30.354  37.188  12.441  1.00  0.00    -0.332 OA
ATOM      6  C   UNL     1      30.563  39.337  13.776  1.00  0.00     0.145 C 
ATOM      7  C   UNL     1      31.130  38.084  14.432  1.00  0.00     0.142 C 
BRANCH   3   8
ATOM      8  O   UNL     1      29.590  38.697  10.925  1.00  0.00    -0.338 OA
BRANCH   8   9
ATOM      9  C   UNL     1      29.804  38.231   9.726  1.00  0.00     0.199 C 
BRANCH   9  10
ATOM     10  C   UNL     1      28.899  38.290   8.572  1.00  0.00     0.179 C 
ATOM     11  C   UNL     1      26.868  37.829   7.603  1.00  0.00     0.282 C 
ATOM     12  O   UNL     1      27.708  37.623   8.660  1.00  0.00    -0.341 OA
ATOM     13  C   UNL     1      27.392  38.714   6.508  1.00  0.00     0.202 C 
ATOM     14  C   UNL     1      28.026  39.980   7.054  1.00  0.00     0.179 C 
ATOM     15  C   UNL     1      28.460  39.798   8.491  1.00  0.00     0.177 C 
BRANCH  11  16
ATOM     16  O   UNL     1      25.627  38.349   7.970  1.00  0.00    -0.341 OA
BRANCH  16  17
ATOM     17  C   UNL     1      25.069  37.720   9.081  1.00  0.00     0.184 C 
ATOM     18  C   UNL     1      24.715  36.322   8.711  1.00  0.00     0.178 C 
ATOM     19  O   UNL     1      23.333  36.067   8.707  1.00  0.00    -0.341 OA
ATOM     20  C   UNL     1      22.784  37.078   7.891  1.00  0.00     0.281 C 
ATOM     21  C   UNL     1      23.908  38.556   9.532  1.00  0.00     0.180 C 
ATOM     22  C   UNL     1      22.639  38.287   8.786  1.00  0.00     0.202 C 
BRANCH  18  23
ATOM     23  C   UNL     1      25.372  35.318   9.646  1.00  0.00     0.191 C 
BRANCH  23  24
ATOM     24  O   UNL     1      24.880  35.470  10.939  1.00  0.00    -0.394 OA
ATOM     25  H   UNL     1      25.587  35.207  11.574  1.00  0.00     0.210 HD
ENDBRANCH  23  24
ENDBRANCH  18  23
BRANCH  20  26
ATOM     26  O   UNL     1      21.588  36.693   7.333  1.00  0.00    -0.350 OA
BRANCH  26  27
ATOM     27  C   UNL     1      21.104  35.575   8.007  1.00  0.00     0.169 C 
BRANCH  27  28
ATOM     28  C   UNL     1      19.801  35.938   8.707  1.00  0.00     0.119 C 
BRANCH  28  29
ATOM     29  N   UNL     1      19.905  35.421  10.056  1.00  0.00    -0.092 NA
ATOM     30  N   UNL     1      20.905  35.699  10.715  1.00  0.00     0.001 N 
ATOM     31  N   UNL     1      21.744  35.900  11.619  1.00  0.00    -0.003 NA
ENDBRANCH  28  29
ENDBRANCH  27  28
ENDBRANCH  26  27
ENDBRANCH  20  26
BRANCH  21  32
ATOM     32  O   UNL     1      23.696  38.279  10.879  1.00  0.00    -0.387 OA
ATOM     33  H   UNL     1      24.527  38.452  11.364  1.00  0.00     0.211 HD
ENDBRANCH  21  32
BRANCH  22  34
ATOM     34  O   UNL     1      22.241  39.408   8.055  1.00  0.00    -0.385 OA
ATOM     35  H   UNL     1      21.502  39.882   8.527  1.00  0.00     0.211 HD
ENDBRANCH  22  34
ENDBRANCH  16  17
ENDBRANCH  11  16
BRANCH  13  36
ATOM     36  O   UNL     1      28.245  38.047   5.617  1.00  0.00    -0.385 OA
ATOM     37  H   UNL     1      28.160  38.433   4.731  1.00  0.00     0.211 HD
ENDBRANCH  13  36
BRANCH  14  38
ATOM     38  O   UNL     1      27.188  41.057   6.873  1.00  0.00    -0.387 OA
ATOM     39  H   UNL     1      27.170  41.628   7.668  1.00  0.00     0.211 HD
ENDBRANCH  14  38
BRANCH  15  40
ATOM     40  O   UNL     1      27.419  39.922   9.381  1.00  0.00    -0.387 OA
ATOM     41  H   UNL     1      26.590  40.296   9.004  1.00  0.00     0.211 HD
ENDBRANCH  15  40
ENDBRANCH   9  10
ENDBRANCH   8   9
ENDBRANCH   3   8
BRANCH   3  42
ATOM     42  C   UNL     1      28.097  37.150  11.914  1.00  0.00     0.364 C 
ATOM     43  O   UNL     1      28.247  35.906  11.985  1.00  0.00    -0.246 OA
BRANCH  42  44
ATOM     44  O   UNL     1      26.834  37.643  11.708  1.00  0.00    -0.477 OA
ATOM     45  H   UNL     1      25.987  37.111  11.723  1.00  0.00     0.296 HD
ENDBRANCH  42  44
ENDBRANCH   3  42
BRANCH   6  46
ATOM     46  O   UNL     1      31.354  39.657  12.694  1.00  0.00    -0.391 OA
ATOM     47  H   UNL     1      32.304  39.450  12.934  1.00  0.00     0.211 HD
ENDBRANCH   6  46
BRANCH   7  48
ATOM     48  N   UNL     1      30.949  38.129  15.847  1.00  0.00    -0.348 N 
ATOM     49  C   UNL     1      32.073  37.979  16.701  1.00  0.00     0.217 C 
ATOM     50  H   UNL     1      30.017  38.267  16.293  1.00  0.00     0.163 HD
ATOM     51  C   UNL     1      31.975  38.010  18.180  1.00  0.00     0.114 C 
ATOM     52  O   UNL     1      33.233  37.808  16.222  1.00  0.00    -0.275 OA
ENDBRANCH   7  48
ENDBRANCH   1   2
BRANCH   1  53
ATOM     53  O   UNL     1      30.308  34.607  13.423  1.00  0.00    -0.388 OA
ATOM     54  H   UNL     1      29.797  34.030  14.026  1.00  0.00     0.211 HD
ENDBRANCH   1  53
BRANCH   1  55
ATOM     55  C   UNL     1      32.453  35.486  13.801  1.00  0.00     0.165 C 
BRANCH  55  56
ATOM     56  O   UNL     1      32.587  34.899  12.539  1.00  0.00    -0.388 OA
ATOM     57  H   UNL     1      32.982  35.563  11.924  1.00  0.00     0.211 HD
ENDBRANCH  55  56
BRANCH  55  58
ATOM     58  C   UNL     1      33.058  34.512  14.818  1.00  0.00     0.154 C 
BRANCH  58  59
ATOM     59  N   UNL     1      32.197  34.364  15.959  1.00  0.00    -0.319 N 
ATOM     60  C   UNL     1      31.428  33.202  16.244  1.00  0.00     0.407 C 
ATOM     61  H   UNL     1      32.101  35.152  16.667  1.00  0.00     0.167 HD
ATOM     62  O   UNL     1      31.508  32.238  15.440  1.00  0.00    -0.225 OA
BRANCH  60  63
ATOM     63  O   UNL     1      30.612  33.106  17.356  1.00  0.00    -0.443 OA
BRANCH  63  64
ATOM     64  C   UNL     1      29.522  33.984  17.487  1.00  0.00     0.294 C 
BRANCH  64  65
ATOM     65  C   UNL     1      28.410  33.577  16.608  1.00  0.00     0.120 A 
ATOM     66  C   UNL     1      27.766  34.455  15.746  1.00  0.00     0.138 A 
ATOM     67  N   UNL     1      27.847  32.353  16.466  1.00  0.00    -0.132 NA
ATOM     68  N   UNL     1      26.828  33.716  15.106  1.00  0.00    -0.252 N 
ATOM     69  N   UNL     1      26.901  32.472  15.557  1.00  0.00    -0.067 NA
BRANCH  68  70
ATOM     70  C   UNL     1      25.905  34.191  14.098  1.00  0.00     0.158 C 
BRANCH  70  71
ATOM     71  C   UNL     1      24.719  34.929  14.676  1.00  0.00     0.146 C 
BRANCH  71  72
ATOM     72  C   UNL     1      24.759  36.314  14.188  1.00  0.00     0.305 C 
ATOM     73  O   UNL     1      25.758  37.026  14.427  1.00  0.00    -0.252 OA
BRANCH  72  74
ATOM     74  O   UNL     1      23.706  36.869  13.462  1.00  0.00    -0.481 OA
ATOM     75  H   UNL     1      23.645  37.855  13.232  1.00  0.00     0.296 HD
ENDBRANCH  72  74
ENDBRANCH  71  72
ENDBRANCH  70  71
ENDBRANCH  68  70
ENDBRANCH  64  65
ENDBRANCH  63  64
ENDBRANCH  60  63
ENDBRANCH  58  59
ENDBRANCH  55  58
ENDBRANCH   1  55
TORSDOF 33
BEGIN_RES LYS A 131
REMARK  4 active torsions:
REMARK  status: ('A' for Active; 'I' for Inactive)
REMARK    1  A    between atoms: CA   and  CB  
REMARK    2  A    between atoms: CB   and  CG  
REMARK    3  A    between atoms: CG   and  CD  
REMARK    4  A    between atoms: CD   and  CE  
ROOT
ATOM      1  CA  LYS A 131      29.867  25.555  16.977  1.00 20.52     0.186 C 
ENDROOT
BRANCH   1   2
ATOM      2  CB  LYS A 131      28.345  25.722  17.026  1.00 20.94     0.034 C 
BRANCH   2   3
ATOM      3  CG  LYS A 131      27.601  24.404  16.878  1.00 22.96     0.005 C 
BRANCH   3   4
ATOM      4  CD  LYS A 131      26.147  24.531  17.239  1.00 24.33     0.041 C 
BRANCH   4   5
ATOM      5  CE  LYS A 131      25.995  24.502  18.756  1.00 26.91     0.338 C 
ATOM      6  NZ  LYS A 131      25.520  23.172  19.206  1.00 27.40     0.618 N 
ENDBRANCH   4   5
ENDBRANCH   3   4
ENDBRANCH   2   3
ENDBRANCH   1   2
END_RES LYS A 131
BEGIN_RES LYS A 135
REMARK  4 active torsions:
REMARK  status: ('A' for Active; 'I' for Inactive)
REMARK    5  A    between atoms: CA   and  CB  
REMARK    6  A    between atoms: CB   and  CG  
REMARK    7  A    between atoms: CG   and  CD  
REMARK    8  A    between atoms: CD   and  CE  
ROOT
ATOM      7  CA  LYS A 135      33.193  34.663   9.290  1.00 25.02     0.186 C 
ENDROOT
BRANCH   7   8
ATOM      8  CB  LYS A 135      32.060  35.360  10.034  1.00 26.63     0.034 C 
BRANCH   8   9
ATOM      9  CG  LYS A 135      30.727  34.674   9.882  1.00 29.45     0.005 C 
BRANCH   9  10
ATOM     10  CD  LYS A 135      30.321  34.609   8.417  1.00 32.00     0.041 C 
BRANCH  10  11
ATOM     11  CE  LYS A 135      28.819  34.450   8.288  1.00 34.25     0.338 C 
ATOM     12  NZ  LYS A 135      28.267  33.635   9.406  1.00 35.99     0.618 N 
ENDBRANCH  10  11
ENDBRANCH   9  10
ENDBRANCH   8   9
ENDBRANCH   7   8
END_RES LYS A 135
