REMARK VINA RESULT:    -3.570      5.205     10.052
REMARK INTER + INTRA:         -20.791
REMARK INTER:                 -11.182
REMARK INTRA:                  -9.610
REMARK UNBOUND:               -11.690
REMARK SMILES CC(=O)N[C@@H]1[C@@H](O)C[C@](OC[C@H]2O[C@@H](O[C@H]3[C@H](O)[C@@H](O)[C@H](OCCN=[N+]=[N-])O[C@@H]3CO)[C@H](O)[C@@H](O)[C@H]2O)(C(=O)O)O[C@H]1C(O)[C@H](O)CNC(=O)OCc1cn(CCO)nn1
REMARK SMILES IDX 9 1 8 2 6 3 5 4 42 5 41 6 10 7 11 8 12 9 14 10 13 11 32 12
REMARK SMILES IDX 34 13 36 14 15 15 16 16 29 17 28 18 21 19 17 20 19 21 30 22
REMARK SMILES IDX 31 23 22 25 23 26 24 27 25 28 26 29 27 30 18 31 20 33 33 35
REMARK SMILES IDX 35 37 37 39 38 41 39 42 40 43 7 45 43 47 44 48 45 50 46 51
REMARK SMILES IDX 47 53 48 54 49 55 50 57 51 58 52 59 53 60 54 61 60 62 55 63
REMARK SMILES IDX 59 64 56 65 57 66 58 67 4 69 2 70 1 72 3 73
REMARK H PARENT 31 24 18 32 20 34 33 36 35 38 37 40 40 44 7 46 44 49 46 52
REMARK H PARENT 48 56 58 68 4 71
REMARK Flexibility Score: inf
ROOT
ATOM      1  C   UNL     1      30.353  36.311  13.944  1.00  0.00     0.272 C 
ATOM      2  C   UNL     1      30.984  37.661  14.053  1.00  0.00     0.113 C 
ATOM      3  C   UNL     1      31.042  38.316  12.701  1.00  0.00     0.145 C 
ATOM      4  C   UNL     1      29.602  38.348  12.189  1.00  0.00     0.142 C 
ATOM      5  C   UNL     1      29.201  36.892  11.977  1.00  0.00     0.178 C 
ATOM      6  O   UNL     1      29.157  36.372  13.292  1.00  0.00    -0.332 OA
ENDROOT
BRANCH   1   7
ATOM      7  O   UNL     1      30.113  35.757  15.223  1.00  0.00    -0.338 OA
BRANCH   7   8
ATOM      8  C   UNL     1      31.215  35.425  15.938  1.00  0.00     0.199 C 
BRANCH   8   9
ATOM      9  C   UNL     1      30.948  34.203  16.831  1.00  0.00     0.179 C 
ATOM     10  C   UNL     1      29.244  32.937  17.766  1.00  0.00     0.282 C 
ATOM     11  O   UNL     1      29.602  34.115  17.112  1.00  0.00    -0.341 OA
ATOM     12  C   UNL     1      29.511  31.715  16.927  1.00  0.00     0.202 C 
ATOM     13  C   UNL     1      30.531  31.937  15.839  1.00  0.00     0.179 C 
ATOM     14  C   UNL     1      31.546  32.947  16.295  1.00  0.00     0.177 C 
BRANCH  10  15
ATOM     15  O   UNL     1      27.927  33.024  18.014  1.00  0.00    -0.341 OA
BRANCH  15  16
ATOM     16  C   UNL     1      27.020  32.468  17.195  1.00  0.00     0.184 C 
ATOM     17  C   UNL     1      26.130  33.266  16.352  1.00  0.00     0.178 C 
ATOM     18  O   UNL     1      24.890  32.662  16.241  1.00  0.00    -0.341 OA
ATOM     19  C   UNL     1      24.848  31.315  16.076  1.00  0.00     0.281 C 
ATOM     20  C   UNL     1      26.108  31.630  18.128  1.00  0.00     0.180 C 
ATOM     21  C   UNL     1      25.529  30.560  17.228  1.00  0.00     0.202 C 
BRANCH  17  22
ATOM     22  C   UNL     1      26.658  33.479  14.937  1.00  0.00     0.191 C 
BRANCH  22  23
ATOM     23  O   UNL     1      27.840  34.222  14.930  1.00  0.00    -0.394 OA
ATOM     24  H   UNL     1      28.546  33.669  14.545  1.00  0.00     0.210 HD
ENDBRANCH  22  23
ENDBRANCH  17  22
BRANCH  19  25
ATOM     25  O   UNL     1      25.227  30.823  14.860  1.00  0.00    -0.350 OA
BRANCH  25  26
ATOM     26  C   UNL     1      24.336  30.031  14.201  1.00  0.00     0.169 C 
BRANCH  26  27
ATOM     27  C   UNL     1      22.998  30.684  14.102  1.00  0.00     0.119 C 
BRANCH  27  28
ATOM     28  N   UNL     1      22.913  31.417  12.828  1.00  0.00    -0.092 NA
ATOM     29  N   UNL     1      23.064  32.649  12.926  1.00  0.00     0.001 N 
ATOM     30  N   UNL     1      23.721  33.697  12.803  1.00  0.00    -0.003 NA
ENDBRANCH  27  28
ENDBRANCH  26  27
ENDBRANCH  25  26
ENDBRANCH  19  25
BRANCH  20  31
ATOM     31  O   UNL     1      26.818  31.127  19.186  1.00  0.00    -0.387 OA
ATOM     32  H   UNL     1      26.726  31.674  20.007  1.00  0.00     0.211 HD
ENDBRANCH  20  31
BRANCH  21  33
ATOM     33  O   UNL     1      24.680  29.736  17.918  1.00  0.00    -0.385 OA
ATOM     34  H   UNL     1      24.803  28.781  17.694  1.00  0.00     0.211 HD
ENDBRANCH  21  33
ENDBRANCH  15  16
ENDBRANCH  10  15
BRANCH  12  35
ATOM     35  O   UNL     1      30.061  30.734  17.768  1.00  0.00    -0.385 OA
ATOM     36  H   UNL     1      31.021  30.602  17.631  1.00  0.00     0.211 HD
ENDBRANCH  12  35
BRANCH  13  37
ATOM     37  O   UNL     1      29.894  32.278  14.675  1.00  0.00    -0.387 OA
ATOM     38  H   UNL     1      28.934  32.544  14.834  1.00  0.00     0.211 HD
ENDBRANCH  13  37
BRANCH  14  39
ATOM     39  O   UNL     1      32.315  33.297  15.163  1.00  0.00    -0.387 OA
ATOM     40  H   UNL     1      31.765  33.784  14.501  1.00  0.00     0.211 HD
ENDBRANCH  14  39
ENDBRANCH   8   9
ENDBRANCH   7   8
ENDBRANCH   1   7
BRANCH   1  41
ATOM     41  C   UNL     1      31.323  35.381  13.326  1.00  0.00     0.364 C 
ATOM     42  O   UNL     1      32.529  35.655  13.185  1.00  0.00    -0.246 OA
BRANCH  41  43
ATOM     43  O   UNL     1      30.917  34.139  12.870  1.00  0.00    -0.477 OA
ATOM     44  H   UNL     1      31.318  33.694  12.026  1.00  0.00     0.296 HD
ENDBRANCH  41  43
ENDBRANCH   1  41
BRANCH   3  45
ATOM     45  O   UNL     1      31.444  39.665  12.819  1.00  0.00    -0.391 OA
ATOM     46  H   UNL     1      32.438  39.704  12.801  1.00  0.00     0.211 HD
ENDBRANCH   3  45
BRANCH   5  47
ATOM     47  C   UNL     1      27.782  36.843  11.510  1.00  0.00     0.176 C 
BRANCH  47  48
ATOM     48  O   UNL     1      27.662  37.225  10.173  1.00  0.00    -0.388 OA
ATOM     49  H   UNL     1      27.833  36.467   9.552  1.00  0.00     0.211 HD
ENDBRANCH  47  48
BRANCH  47  50
ATOM     50  C   UNL     1      26.987  35.623  11.769  1.00  0.00     0.165 C 
BRANCH  50  51
ATOM     51  O   UNL     1      28.014  34.581  11.772  1.00  0.00    -0.388 OA
ATOM     52  H   UNL     1      28.670  34.799  11.071  1.00  0.00     0.211 HD
ENDBRANCH  50  51
BRANCH  50  53
ATOM     53  C   UNL     1      26.130  35.173  10.599  1.00  0.00     0.154 C 
BRANCH  53  54
ATOM     54  N   UNL     1      24.866  35.832  10.522  1.00  0.00    -0.319 N 
ATOM     55  C   UNL     1      24.491  36.551   9.359  1.00  0.00     0.407 C 
ATOM     56  H   UNL     1      24.179  35.815  11.328  1.00  0.00     0.167 HD
ATOM     57  O   UNL     1      25.347  36.573   8.411  1.00  0.00    -0.225 OA
BRANCH  55  58
ATOM     58  O   UNL     1      23.308  37.211   9.162  1.00  0.00    -0.443 OA
BRANCH  58  59
ATOM     59  C   UNL     1      22.684  37.146   7.894  1.00  0.00     0.294 C 
BRANCH  59  60
ATOM     60  C   UNL     1      21.340  36.567   7.946  1.00  0.00     0.120 A 
ATOM     61  C   UNL     1      20.175  37.272   8.124  1.00  0.00     0.138 A 
ATOM     62  N   UNL     1      20.969  35.281   7.837  1.00  0.00    -0.132 NA
ATOM     63  N   UNL     1      19.134  36.415   8.120  1.00  0.00    -0.250 N 
ATOM     64  N   UNL     1      19.635  35.214   7.944  1.00  0.00    -0.067 NA
BRANCH  63  65
ATOM     65  C   UNL     1      17.721  36.787   8.282  1.00  0.00     0.174 C 
BRANCH  65  66
ATOM     66  C   UNL     1      17.530  38.171   7.714  1.00  0.00     0.179 C 
BRANCH  66  67
ATOM     67  O   UNL     1      17.332  38.034   6.330  1.00  0.00    -0.394 OA
ATOM     68  H   UNL     1      18.036  37.531   5.886  1.00  0.00     0.210 HD
ENDBRANCH  66  67
ENDBRANCH  65  66
ENDBRANCH  63  65
ENDBRANCH  59  60
ENDBRANCH  58  59
ENDBRANCH  55  58
ENDBRANCH  53  54
ENDBRANCH  50  53
ENDBRANCH  47  50
ENDBRANCH   5  47
BRANCH   4  69
ATOM     69  N   UNL     1      29.409  39.224  11.102  1.00  0.00    -0.348 N 
ATOM     70  C   UNL     1      28.916  40.547  11.189  1.00  0.00     0.217 C 
ATOM     71  H   UNL     1      29.658  38.904  10.132  1.00  0.00     0.163 HD
ATOM     72  C   UNL     1      28.761  41.354   9.961  1.00  0.00     0.114 C 
ATOM     73  O   UNL     1      28.610  41.043  12.284  1.00  0.00    -0.275 OA
ENDBRANCH   4  69
TORSDOF 32
BEGIN_RES LYS A 131
REMARK  4 active torsions:
REMARK  status: ('A' for Active; 'I' for Inactive)
REMARK    1  A    between atoms: CA   and  CB  
REMARK    2  A    between atoms: CB   and  CG  
REMARK    3  A    between atoms: CG   and  CD  
REMARK    4  A    between atoms: CD   and  CE  
ROOT
ATOM      1  CA  LYS A 131      29.867  25.555  16.977  1.00 20.52     0.186 C 
ENDROOT
BRANCH   1   2
ATOM      2  CB  LYS A 131      28.345  25.722  17.026  1.00 20.94     0.034 C 
BRANCH   2   3
ATOM      3  CG  LYS A 131      27.601  24.403  16.883  1.00 22.96     0.005 C 
BRANCH   3   4
ATOM      4  CD  LYS A 131      26.676  24.146  18.041  1.00 24.33     0.041 C 
BRANCH   4   5
ATOM      5  CE  LYS A 131      25.603  23.147  17.623  1.00 26.91     0.338 C 
ATOM      6  NZ  LYS A 131      24.485  23.841  16.941  1.00 27.40     0.618 N 
ENDBRANCH   4   5
ENDBRANCH   3   4
ENDBRANCH   2   3
ENDBRANCH   1   2
END_RES LYS A 131
BEGIN_RES LYS A 135
REMARK  4 active torsions:
REMARK  status: ('A' for Active; 'I' for Inactive)
REMARK    5  A    between atoms: CA   and  CB  
REMARK    6  A    between atoms: CB   and  CG  
REMARK    7  A    between atoms: CG   and  CD  
REMARK    8  A    between atoms: CD   and  CE  
ROOT
ATOM      7  CA  LYS A 135      33.193  34.663   9.290  1.00 25.02     0.186 C 
ENDROOT
BRANCH   7   8
ATOM      8  CB  LYS A 135      32.060  35.360  10.034  1.00 26.63     0.034 C 
BRANCH   8   9
ATOM      9  CG  LYS A 135      30.690  34.876   9.635  1.00 29.45     0.005 C 
BRANCH   9  10
ATOM     10  CD  LYS A 135      30.591  34.728   8.125  1.00 32.00     0.041 C 
BRANCH  10  11
ATOM     11  CE  LYS A 135      29.158  34.913   7.664  1.00 34.25     0.338 C 
ATOM     12  NZ  LYS A 135      28.945  36.278   7.109  1.00 35.99     0.618 N 
ENDBRANCH  10  11
ENDBRANCH   9  10
ENDBRANCH   8   9
ENDBRANCH   7   8
END_RES LYS A 135
