REMARK VINA RESULT:    -5.249      2.916      7.343
REMARK INTER + INTRA:         -23.345
REMARK INTER:                 -13.841
REMARK INTRA:                  -9.504
REMARK UNBOUND:                -9.504
REMARK SMILES CC(=O)N[C@@H]1[C@@H](O)C[C@](OC[C@H]2O[C@@H](O[C@H]3[C@H](O)[C@@H](O)[C@H](OCCN=[N+]=[N-])O[C@@H]3CO)[C@H](O)[C@@H](O)[C@H]2O)(C(=O)O)O[C@H]1C(O)[C@H](O)CNC(=O)OCc1cn(COCc2ccccc2)nn1
REMARK SMILES IDX 43 1 42 2 9 3 8 4 41 5 6 6 5 7 10 8 11 9 12 10 14 11 13 12
REMARK SMILES IDX 32 13 34 14 36 15 15 16 16 17 29 18 28 19 21 20 17 21 19 22
REMARK SMILES IDX 30 23 31 24 22 26 23 27 24 28 25 29 26 30 27 31 18 32 20 34
REMARK SMILES IDX 33 36 35 38 37 40 38 42 39 43 40 44 7 46 4 48 2 49 1 51 3 52
REMARK SMILES IDX 44 53 45 55 46 56 47 58 48 59 49 60 50 62 51 63 52 64 53 65
REMARK SMILES IDX 54 66 66 67 55 68 65 69 56 70 57 71 58 72 59 73 60 74 64 75
REMARK SMILES IDX 61 76 63 77 62 78
REMARK H PARENT 31 25 18 33 20 35 33 37 35 39 37 41 40 45 7 47 4 50 44 54
REMARK H PARENT 46 57 48 61
REMARK Flexibility Score: inf
ROOT
ATOM      1  C   UNL     1      25.254  40.428   7.692  1.00  0.00     0.176 C 
ENDROOT
BRANCH   1   2
ATOM      2  C   UNL     1      26.387  40.385   6.642  1.00  0.00     0.178 C 
ATOM      3  C   UNL     1      28.294  39.108   6.271  1.00  0.00     0.272 C 
ATOM      4  C   UNL     1      29.051  40.374   5.881  1.00  0.00     0.113 C 
ATOM      5  O   UNL     1      27.341  39.506   7.158  1.00  0.00    -0.332 OA
ATOM      6  C   UNL     1      28.553  41.537   6.705  1.00  0.00     0.145 C 
ATOM      7  C   UNL     1      27.027  41.722   6.445  1.00  0.00     0.142 C 
BRANCH   3   8
ATOM      8  O   UNL     1      29.181  38.186   6.861  1.00  0.00    -0.338 OA
BRANCH   8   9
ATOM      9  C   UNL     1      29.392  38.291   8.182  1.00  0.00     0.199 C 
BRANCH   9  10
ATOM     10  C   UNL     1      28.916  37.048   8.896  1.00  0.00     0.179 C 
ATOM     11  C   UNL     1      27.237  35.559   9.211  1.00  0.00     0.282 C 
ATOM     12  O   UNL     1      27.619  36.699   8.467  1.00  0.00    -0.341 OA
ATOM     13  C   UNL     1      27.960  34.321   8.690  1.00  0.00     0.202 C 
ATOM     14  C   UNL     1      29.136  34.853   7.857  1.00  0.00     0.179 C 
ATOM     15  C   UNL     1      29.818  35.879   8.738  1.00  0.00     0.177 C 
BRANCH  11  16
ATOM     16  O   UNL     1      25.895  35.370   9.026  1.00  0.00    -0.341 OA
BRANCH  16  17
ATOM     17  C   UNL     1      25.177  35.225  10.204  1.00  0.00     0.184 C 
ATOM     18  C   UNL     1      24.014  36.145  10.309  1.00  0.00     0.178 C 
ATOM     19  O   UNL     1      24.448  37.417  10.531  1.00  0.00    -0.341 OA
ATOM     20  C   UNL     1      25.034  37.630  11.756  1.00  0.00     0.281 C 
ATOM     21  C   UNL     1      26.106  35.367  11.360  1.00  0.00     0.180 C 
ATOM     22  C   UNL     1      25.914  36.546  12.241  1.00  0.00     0.202 C 
BRANCH  18  23
ATOM     23  C   UNL     1      23.047  35.630  11.350  1.00  0.00     0.191 C 
BRANCH  23  24
ATOM     24  O   UNL     1      21.885  36.410  11.394  1.00  0.00    -0.394 OA
ATOM     25  H   UNL     1      21.794  36.911  10.545  1.00  0.00     0.210 HD
ENDBRANCH  23  24
ENDBRANCH  18  23
BRANCH  20  26
ATOM     26  O   UNL     1      23.996  37.820  12.675  1.00  0.00    -0.350 OA
BRANCH  26  27
ATOM     27  C   UNL     1      23.828  39.121  13.075  1.00  0.00     0.169 C 
BRANCH  27  28
ATOM     28  C   UNL     1      22.332  39.383  13.098  1.00  0.00     0.119 C 
BRANCH  28  29
ATOM     29  N   UNL     1      21.782  39.525  11.769  1.00  0.00    -0.092 NA
ATOM     30  N   UNL     1      22.380  40.203  10.913  1.00  0.00     0.001 N 
ATOM     31  N   UNL     1      22.673  41.260  10.322  1.00  0.00    -0.003 NA
ENDBRANCH  28  29
ENDBRANCH  27  28
ENDBRANCH  26  27
ENDBRANCH  20  26
BRANCH  21  32
ATOM     32  O   UNL     1      26.011  34.219  12.195  1.00  0.00    -0.387 OA
ATOM     33  H   UNL     1      26.602  34.276  12.961  1.00  0.00     0.211 HD
ENDBRANCH  21  32
BRANCH  22  34
ATOM     34  O   UNL     1      27.189  37.131  12.459  1.00  0.00    -0.385 OA
ATOM     35  H   UNL     1      27.830  36.374  12.487  1.00  0.00     0.211 HD
ENDBRANCH  22  34
ENDBRANCH  16  17
ENDBRANCH  11  16
BRANCH  13  36
ATOM     36  O   UNL     1      28.537  33.581   9.722  1.00  0.00    -0.385 OA
ATOM     37  H   UNL     1      28.580  34.170  10.516  1.00  0.00     0.211 HD
ENDBRANCH  13  36
BRANCH  14  38
ATOM     38  O   UNL     1      28.552  35.512   6.783  1.00  0.00    -0.387 OA
ATOM     39  H   UNL     1      28.203  36.410   7.011  1.00  0.00     0.211 HD
ENDBRANCH  14  38
BRANCH  15  40
ATOM     40  O   UNL     1      31.088  36.199   8.285  1.00  0.00    -0.387 OA
ATOM     41  H   UNL     1      31.086  36.867   7.552  1.00  0.00     0.211 HD
ENDBRANCH  15  40
ENDBRANCH   9  10
ENDBRANCH   8   9
ENDBRANCH   3   8
BRANCH   3  42
ATOM     42  C   UNL     1      27.714  38.412   5.123  1.00  0.00     0.364 C 
ATOM     43  O   UNL     1      27.767  38.754   3.913  1.00  0.00    -0.246 OA
BRANCH  42  44
ATOM     44  O   UNL     1      27.002  37.208   5.347  1.00  0.00    -0.477 OA
ATOM     45  H   UNL     1      26.104  37.046   4.893  1.00  0.00     0.296 HD
ENDBRANCH  42  44
ENDBRANCH   3  42
BRANCH   6  46
ATOM     46  O   UNL     1      28.720  41.466   8.043  1.00  0.00    -0.391 OA
ATOM     47  H   UNL     1      29.514  41.992   8.369  1.00  0.00     0.211 HD
ENDBRANCH   6  46
BRANCH   7  48
ATOM     48  N   UNL     1      26.965  42.181   5.078  1.00  0.00    -0.348 N 
ATOM     49  C   UNL     1      25.944  43.082   4.710  1.00  0.00     0.217 C 
ATOM     50  H   UNL     1      27.644  41.859   4.386  1.00  0.00     0.163 HD
ATOM     51  C   UNL     1      25.867  43.580   3.310  1.00  0.00     0.114 C 
ATOM     52  O   UNL     1      25.086  43.481   5.560  1.00  0.00    -0.275 OA
ENDBRANCH   7  48
ENDBRANCH   1   2
BRANCH   1  53
ATOM     53  O   UNL     1      25.917  40.675   8.955  1.00  0.00    -0.388 OA
ATOM     54  H   UNL     1      26.234  39.776   9.264  1.00  0.00     0.211 HD
ENDBRANCH   1  53
BRANCH   1  55
ATOM     55  C   UNL     1      24.512  39.151   7.871  1.00  0.00     0.165 C 
BRANCH  55  56
ATOM     56  O   UNL     1      25.181  37.988   7.614  1.00  0.00    -0.388 OA
ATOM     57  H   UNL     1      25.905  37.779   8.244  1.00  0.00     0.211 HD
ENDBRANCH  55  56
BRANCH  55  58
ATOM     58  C   UNL     1      23.080  39.073   7.507  1.00  0.00     0.154 C 
BRANCH  58  59
ATOM     59  N   UNL     1      22.533  37.783   7.193  1.00  0.00    -0.319 N 
ATOM     60  C   UNL     1      21.499  37.144   7.927  1.00  0.00     0.407 C 
ATOM     61  H   UNL     1      22.889  37.253   6.366  1.00  0.00     0.167 HD
ATOM     62  O   UNL     1      20.996  37.705   8.907  1.00  0.00    -0.225 OA
BRANCH  60  63
ATOM     63  O   UNL     1      20.985  35.881   7.611  1.00  0.00    -0.443 OA
BRANCH  63  64
ATOM     64  C   UNL     1      19.574  35.704   7.476  1.00  0.00     0.294 C 
BRANCH  64  65
ATOM     65  C   UNL     1      19.026  34.749   8.467  1.00  0.00     0.120 A 
ATOM     66  C   UNL     1      19.445  34.686   9.779  1.00  0.00     0.141 A 
ATOM     67  N   UNL     1      18.089  33.805   8.325  1.00  0.00    -0.132 NA
ATOM     68  N   UNL     1      18.744  33.700  10.389  1.00  0.00    -0.226 N 
ATOM     69  N   UNL     1      17.931  33.186   9.479  1.00  0.00    -0.065 NA
BRANCH  68  70
ATOM     70  C   UNL     1      18.827  33.261  11.764  1.00  0.00     0.307 C 
BRANCH  70  71
ATOM     71  O   UNL     1      19.681  32.203  11.919  1.00  0.00    -0.355 OA
BRANCH  71  72
ATOM     72  C   UNL     1      20.798  32.597  12.637  1.00  0.00     0.198 C 
BRANCH  72  73
ATOM     73  C   UNL     1      21.786  31.460  12.661  1.00  0.00    -0.022 A 
ATOM     74  C   UNL     1      21.329  30.203  12.323  1.00  0.00     0.006 A 
ATOM     75  C   UNL     1      23.095  31.673  13.011  1.00  0.00     0.006 A 
ATOM     76  C   UNL     1      22.202  29.136  12.334  1.00  0.00     0.000 A 
ATOM     77  C   UNL     1      23.940  30.603  13.015  1.00  0.00     0.000 A 
ATOM     78  C   UNL     1      23.523  29.324  12.682  1.00  0.00     0.000 A 
ENDBRANCH  72  73
ENDBRANCH  71  72
ENDBRANCH  70  71
ENDBRANCH  68  70
ENDBRANCH  64  65
ENDBRANCH  63  64
ENDBRANCH  60  63
ENDBRANCH  58  59
ENDBRANCH  55  58
ENDBRANCH   1  55
TORSDOF 33
BEGIN_RES LYS A 131
REMARK  4 active torsions:
REMARK  status: ('A' for Active; 'I' for Inactive)
REMARK    1  A    between atoms: CA   and  CB  
REMARK    2  A    between atoms: CB   and  CG  
REMARK    3  A    between atoms: CG   and  CD  
REMARK    4  A    between atoms: CD   and  CE  
ROOT
ATOM      1  CA  LYS A 131      29.867  25.555  16.977  1.00 20.52     0.186 C 
ENDROOT
BRANCH   1   2
ATOM      2  CB  LYS A 131      28.345  25.722  17.026  1.00 20.94     0.034 C 
BRANCH   2   3
ATOM      3  CG  LYS A 131      27.619  24.428  17.362  1.00 22.96     0.005 C 
BRANCH   3   4
ATOM      4  CD  LYS A 131      26.167  24.477  16.977  1.00 24.33     0.041 C 
BRANCH   4   5
ATOM      5  CE  LYS A 131      25.325  24.803  18.206  1.00 26.91     0.338 C 
ATOM      6  NZ  LYS A 131      24.124  25.582  17.821  1.00 27.40     0.618 N 
ENDBRANCH   4   5
ENDBRANCH   3   4
ENDBRANCH   2   3
ENDBRANCH   1   2
END_RES LYS A 131
BEGIN_RES LYS A 135
REMARK  4 active torsions:
REMARK  status: ('A' for Active; 'I' for Inactive)
REMARK    5  A    between atoms: CA   and  CB  
REMARK    6  A    between atoms: CB   and  CG  
REMARK    7  A    between atoms: CG   and  CD  
REMARK    8  A    between atoms: CD   and  CE  
ROOT
ATOM      7  CA  LYS A 135      33.193  34.663   9.290  1.00 25.02     0.186 C 
ENDROOT
BRANCH   7   8
ATOM      8  CB  LYS A 135      32.060  35.360  10.034  1.00 26.63     0.034 C 
BRANCH   8   9
ATOM      9  CG  LYS A 135      32.504  36.048  11.299  1.00 29.45     0.005 C 
BRANCH   9  10
ATOM     10  CD  LYS A 135      32.010  35.291  12.523  1.00 32.00     0.041 C 
BRANCH  10  11
ATOM     11  CE  LYS A 135      31.049  36.146  13.326  1.00 34.25     0.338 C 
ATOM     12  NZ  LYS A 135      29.787  35.409  13.613  1.00 35.99     0.618 N 
ENDBRANCH  10  11
ENDBRANCH   9  10
ENDBRANCH   8   9
ENDBRANCH   7   8
END_RES LYS A 135
