REMARK VINA RESULT:    -4.267      4.039      7.637
REMARK INTER + INTRA:         -22.369
REMARK INTER:                 -11.892
REMARK INTRA:                 -10.478
REMARK UNBOUND:               -11.119
REMARK SMILES CC(=O)N[C@@H]1[C@@H](O)C[C@](OC[C@H]2O[C@@H](O[C@H]3[C@H](O)[C@@H](O)[C@H](OCCN=[N+]=[N-])O[C@@H]3CO)[C@H](O)[C@@H](O)[C@H]2O)(C(=O)O)O[C@H]1C(O)[C@H](O)CNC(=O)OCc1cn(CC(O)CO)nn1
REMARK SMILES IDX 43 1 42 2 9 3 8 4 41 5 6 6 5 7 10 8 11 9 12 10 14 11 13 12
REMARK SMILES IDX 32 13 34 14 36 15 15 16 16 17 29 18 28 19 21 20 17 21 19 22
REMARK SMILES IDX 30 23 31 24 22 26 23 27 24 28 25 29 26 30 27 31 18 32 20 34
REMARK SMILES IDX 33 36 35 38 37 40 38 42 39 43 40 44 7 46 4 48 2 49 1 51 3 52
REMARK SMILES IDX 44 53 45 55 46 56 47 58 48 59 49 60 50 62 51 63 52 64 53 65
REMARK SMILES IDX 54 66 62 67 55 68 61 69 56 70 57 71 58 72 59 74 60 75
REMARK H PARENT 31 25 18 33 20 35 33 37 35 39 37 41 40 45 7 47 4 50 44 54
REMARK H PARENT 46 57 48 61 58 73 60 76
REMARK Flexibility Score: inf
ROOT
ATOM      1  C   UNL     1      28.333  37.649  11.324  1.00  0.00     0.176 C 
ENDROOT
BRANCH   1   2
ATOM      2  C   UNL     1      28.707  36.327  10.627  1.00  0.00     0.178 C 
ATOM      3  C   UNL     1      28.683  35.238   8.531  1.00  0.00     0.272 C 
ATOM      4  C   UNL     1      28.030  34.031   9.144  1.00  0.00     0.113 C 
ATOM      5  O   UNL     1      28.413  36.359   9.331  1.00  0.00    -0.332 OA
ATOM      6  C   UNL     1      27.458  34.186  10.503  1.00  0.00     0.145 C 
ATOM      7  C   UNL     1      28.087  35.207  11.376  1.00  0.00     0.142 C 
BRANCH   3   8
ATOM      8  O   UNL     1      28.199  35.478   7.330  1.00  0.00    -0.338 OA
BRANCH   8   9
ATOM      9  C   UNL     1      28.411  36.041   6.217  1.00  0.00     0.199 C 
BRANCH   9  10
ATOM     10  C   UNL     1      28.147  37.479   5.914  1.00  0.00     0.179 C 
ATOM     11  C   UNL     1      26.631  39.139   6.343  1.00  0.00     0.282 C 
ATOM     12  O   UNL     1      27.197  37.988   6.881  1.00  0.00    -0.341 OA
ATOM     13  C   UNL     1      27.474  39.856   5.345  1.00  0.00     0.202 C 
ATOM     14  C   UNL     1      28.954  39.732   5.542  1.00  0.00     0.179 C 
ATOM     15  C   UNL     1      29.334  38.406   6.181  1.00  0.00     0.177 C 
BRANCH  11  16
ATOM     16  O   UNL     1      26.164  40.039   7.278  1.00  0.00    -0.341 OA
BRANCH  16  17
ATOM     17  C   UNL     1      24.858  39.797   7.696  1.00  0.00     0.184 C 
ATOM     18  C   UNL     1      24.677  40.308   9.093  1.00  0.00     0.178 C 
ATOM     19  O   UNL     1      24.399  39.310  10.013  1.00  0.00    -0.341 OA
ATOM     20  C   UNL     1      25.217  38.188   9.800  1.00  0.00     0.281 C 
ATOM     21  C   UNL     1      24.505  38.385   7.475  1.00  0.00     0.180 C 
ATOM     22  C   UNL     1      24.594  37.457   8.636  1.00  0.00     0.202 C 
BRANCH  18  23
ATOM     23  C   UNL     1      23.568  41.336   9.185  1.00  0.00     0.191 C 
BRANCH  23  24
ATOM     24  O   UNL     1      22.460  40.840   9.857  1.00  0.00    -0.394 OA
ATOM     25  H   UNL     1      21.799  41.602   9.924  1.00  0.00     0.210 HD
ENDBRANCH  23  24
ENDBRANCH  18  23
BRANCH  20  26
ATOM     26  O   UNL     1      25.149  37.433  10.961  1.00  0.00    -0.350 OA
BRANCH  26  27
ATOM     27  C   UNL     1      24.010  37.656  11.720  1.00  0.00     0.169 C 
BRANCH  27  28
ATOM     28  C   UNL     1      23.049  36.489  11.698  1.00  0.00     0.119 C 
BRANCH  28  29
ATOM     29  N   UNL     1      21.713  36.881  11.339  1.00  0.00    -0.092 NA
ATOM     30  N   UNL     1      21.398  37.482  10.319  1.00  0.00     0.001 N 
ATOM     31  N   UNL     1      21.236  38.166   9.309  1.00  0.00    -0.003 NA
ENDBRANCH  28  29
ENDBRANCH  27  28
ENDBRANCH  26  27
ENDBRANCH  20  26
BRANCH  21  32
ATOM     32  O   UNL     1      23.211  38.247   6.914  1.00  0.00    -0.387 OA
ATOM     33  H   UNL     1      22.615  38.107   7.718  1.00  0.00     0.211 HD
ENDBRANCH  21  32
BRANCH  22  34
ATOM     34  O   UNL     1      25.258  36.265   8.353  1.00  0.00    -0.385 OA
ATOM     35  H   UNL     1      25.949  36.046   8.999  1.00  0.00     0.211 HD
ENDBRANCH  22  34
ENDBRANCH  16  17
ENDBRANCH  11  16
BRANCH  13  36
ATOM     36  O   UNL     1      27.074  39.581   4.016  1.00  0.00    -0.385 OA
ATOM     37  H   UNL     1      27.284  40.304   3.398  1.00  0.00     0.211 HD
ENDBRANCH  13  36
BRANCH  14  38
ATOM     38  O   UNL     1      29.513  40.799   6.241  1.00  0.00    -0.387 OA
ATOM     39  H   UNL     1      28.827  41.496   6.370  1.00  0.00     0.211 HD
ENDBRANCH  14  38
BRANCH  15  40
ATOM     40  O   UNL     1      29.344  38.629   7.585  1.00  0.00    -0.387 OA
ATOM     41  H   UNL     1      28.447  38.468   7.967  1.00  0.00     0.211 HD
ENDBRANCH  15  40
ENDBRANCH   9  10
ENDBRANCH   8   9
ENDBRANCH   3   8
BRANCH   3  42
ATOM     42  C   UNL     1      30.174  35.080   8.488  1.00  0.00     0.364 C 
ATOM     43  O   UNL     1      30.619  33.900   8.645  1.00  0.00    -0.246 OA
BRANCH  42  44
ATOM     44  O   UNL     1      31.046  36.119   8.295  1.00  0.00    -0.477 OA
ATOM     45  H   UNL     1      32.058  36.010   8.420  1.00  0.00     0.296 HD
ENDBRANCH  42  44
ENDBRANCH   3  42
BRANCH   6  46
ATOM     46  O   UNL     1      26.093  34.523  10.342  1.00  0.00    -0.391 OA
ATOM     47  H   UNL     1      25.949  34.874   9.442  1.00  0.00     0.211 HD
ENDBRANCH   6  46
BRANCH   7  48
ATOM     48  N   UNL     1      29.002  34.548  12.303  1.00  0.00    -0.348 N 
ATOM     49  C   UNL     1      28.815  34.598  13.708  1.00  0.00     0.217 C 
ATOM     50  H   UNL     1      29.829  34.016  11.965  1.00  0.00     0.163 HD
ATOM     51  C   UNL     1      29.743  33.930  14.656  1.00  0.00     0.114 C 
ATOM     52  O   UNL     1      27.823  35.236  14.140  1.00  0.00    -0.275 OA
ENDBRANCH   7  48
ENDBRANCH   1   2
BRANCH   1  53
ATOM     53  O   UNL     1      28.938  37.695  12.565  1.00  0.00    -0.388 OA
ATOM     54  H   UNL     1      29.923  37.694  12.473  1.00  0.00     0.211 HD
ENDBRANCH   1  53
BRANCH   1  55
ATOM     55  C   UNL     1      28.797  38.827  10.482  1.00  0.00     0.165 C 
BRANCH  55  56
ATOM     56  O   UNL     1      30.171  38.576  10.242  1.00  0.00    -0.388 OA
ATOM     57  H   UNL     1      30.710  39.313  10.618  1.00  0.00     0.211 HD
ENDBRANCH  55  56
BRANCH  55  58
ATOM     58  C   UNL     1      28.672  40.145  11.164  1.00  0.00     0.154 C 
BRANCH  58  59
ATOM     59  N   UNL     1      29.648  41.103  10.689  1.00  0.00    -0.319 N 
ATOM     60  C   UNL     1      29.379  41.913   9.562  1.00  0.00     0.407 C 
ATOM     61  H   UNL     1      30.585  41.231  11.164  1.00  0.00     0.167 HD
ATOM     62  O   UNL     1      28.304  41.828   8.925  1.00  0.00    -0.225 OA
BRANCH  60  63
ATOM     63  O   UNL     1      30.296  42.842   9.116  1.00  0.00    -0.443 OA
BRANCH  63  64
ATOM     64  C   UNL     1      31.666  42.850   9.322  1.00  0.00     0.294 C 
BRANCH  64  65
ATOM     65  C   UNL     1      32.410  41.717   8.727  1.00  0.00     0.120 A 
ATOM     66  C   UNL     1      33.222  41.803   7.632  1.00  0.00     0.138 A 
ATOM     67  N   UNL     1      32.397  40.422   9.164  1.00  0.00    -0.132 NA
ATOM     68  N   UNL     1      33.689  40.559   7.421  1.00  0.00    -0.249 N 
ATOM     69  N   UNL     1      33.191  39.760   8.333  1.00  0.00    -0.067 NA
BRANCH  68  70
ATOM     70  C   UNL     1      34.583  40.139   6.364  1.00  0.00     0.180 C 
BRANCH  70  71
ATOM     71  C   UNL     1      33.706  39.773   5.158  1.00  0.00     0.161 C 
BRANCH  71  72
ATOM     72  O   UNL     1      32.445  39.515   5.637  1.00  0.00    -0.389 OA
ATOM     73  H   UNL     1      31.795  40.214   5.383  1.00  0.00     0.211 HD
ENDBRANCH  71  72
BRANCH  71  74
ATOM     74  C   UNL     1      33.709  40.911   4.166  1.00  0.00     0.189 C 
BRANCH  74  75
ATOM     75  O   UNL     1      34.883  41.623   4.264  1.00  0.00    -0.394 OA
ATOM     76  H   UNL     1      35.594  41.162   3.748  1.00  0.00     0.210 HD
ENDBRANCH  74  75
ENDBRANCH  71  74
ENDBRANCH  70  71
ENDBRANCH  68  70
ENDBRANCH  64  65
ENDBRANCH  63  64
ENDBRANCH  60  63
ENDBRANCH  58  59
ENDBRANCH  55  58
ENDBRANCH   1  55
TORSDOF 34
BEGIN_RES LYS A 131
REMARK  4 active torsions:
REMARK  status: ('A' for Active; 'I' for Inactive)
REMARK    1  A    between atoms: CA   and  CB  
REMARK    2  A    between atoms: CB   and  CG  
REMARK    3  A    between atoms: CG   and  CD  
REMARK    4  A    between atoms: CD   and  CE  
ROOT
ATOM      1  CA  LYS A 131      29.867  25.555  16.977  1.00 20.52     0.186 C 
ENDROOT
BRANCH   1   2
ATOM      2  CB  LYS A 131      28.345  25.722  17.026  1.00 20.94     0.034 C 
BRANCH   2   3
ATOM      3  CG  LYS A 131      27.603  24.396  16.965  1.00 22.96     0.005 C 
BRANCH   3   4
ATOM      4  CD  LYS A 131      26.554  24.284  18.037  1.00 24.33     0.041 C 
BRANCH   4   5
ATOM      5  CE  LYS A 131      25.217  23.911  17.405  1.00 26.91     0.338 C 
ATOM      6  NZ  LYS A 131      24.994  22.448  17.487  1.00 27.40     0.618 N 
ENDBRANCH   4   5
ENDBRANCH   3   4
ENDBRANCH   2   3
ENDBRANCH   1   2
END_RES LYS A 131
BEGIN_RES LYS A 135
REMARK  4 active torsions:
REMARK  status: ('A' for Active; 'I' for Inactive)
REMARK    5  A    between atoms: CA   and  CB  
REMARK    6  A    between atoms: CB   and  CG  
REMARK    7  A    between atoms: CG   and  CD  
REMARK    8  A    between atoms: CD   and  CE  
ROOT
ATOM      7  CA  LYS A 135      33.193  34.663   9.290  1.00 25.02     0.186 C 
ENDROOT
BRANCH   7   8
ATOM      8  CB  LYS A 135      32.060  35.360  10.034  1.00 26.63     0.034 C 
BRANCH   8   9
ATOM      9  CG  LYS A 135      32.183  35.277  11.534  1.00 29.45     0.005 C 
BRANCH   9  10
ATOM     10  CD  LYS A 135      32.271  36.669  12.142  1.00 32.00     0.041 C 
BRANCH  10  11
ATOM     11  CE  LYS A 135      32.133  36.599  13.651  1.00 34.25     0.338 C 
ATOM     12  NZ  LYS A 135      32.964  35.500  14.216  1.00 35.99     0.618 N 
ENDBRANCH  10  11
ENDBRANCH   9  10
ENDBRANCH   8   9
ENDBRANCH   7   8
END_RES LYS A 135
