REMARK VINA RESULT:    -4.430      1.335      1.769
REMARK INTER + INTRA:         -21.848
REMARK INTER:                 -10.901
REMARK INTRA:                 -10.947
REMARK UNBOUND:               -10.944
REMARK SMILES CC(=O)N[C@@H]1[C@@H](O)C[C@](OC[C@H]2O[C@@H](O[C@H]3[C@H](O)[C@@H](O)[C@H](OCCN=[N+]=[N-])O[C@@H]3CO)[C@H](O)[C@@H](O)[C@H]2O)(C(=O)O)O[C@H]1C(O)[C@H](O)CNC(=O)OCc1cn(-c2cccnc2)nn1
REMARK SMILES IDX 9 1 8 2 6 3 5 4 42 5 41 6 10 7 11 8 12 9 14 10 13 11 32 12
REMARK SMILES IDX 34 13 36 14 15 15 16 16 29 17 28 18 21 19 17 20 19 21 30 22
REMARK SMILES IDX 31 23 22 25 23 26 24 27 25 28 26 29 27 30 18 31 20 33 33 35
REMARK SMILES IDX 35 37 37 39 38 41 39 42 40 43 7 45 43 47 44 48 45 50 46 51
REMARK SMILES IDX 47 53 48 54 49 55 50 57 51 58 52 59 53 60 54 61 63 62 55 63
REMARK SMILES IDX 62 64 56 65 57 66 61 67 58 68 60 69 59 70 4 71 2 72 1 74
REMARK SMILES IDX 3 75
REMARK H PARENT 31 24 18 32 20 34 33 36 35 38 37 40 40 44 7 46 44 49 46 52
REMARK H PARENT 48 56 4 73
REMARK Flexibility Score: inf
ROOT
ATOM      1  C   UNL     1      31.217  32.506  21.707  1.00  0.00     0.272 C 
ATOM      2  C   UNL     1      32.352  31.645  21.326  1.00  0.00     0.113 C 
ATOM      3  C   UNL     1      32.766  30.736  22.430  1.00  0.00     0.145 C 
ATOM      4  C   UNL     1      31.616  30.149  23.210  1.00  0.00     0.142 C 
ATOM      5  C   UNL     1      30.283  30.586  22.720  1.00  0.00     0.178 C 
ATOM      6  O   UNL     1      30.212  31.951  22.480  1.00  0.00    -0.332 OA
ENDROOT
BRANCH   1   7
ATOM      7  O   UNL     1      30.552  33.028  20.599  1.00  0.00    -0.338 OA
BRANCH   7   8
ATOM      8  C   UNL     1      30.903  32.538  19.382  1.00  0.00     0.199 C 
BRANCH   8   9
ATOM      9  C   UNL     1      29.633  32.549  18.509  1.00  0.00     0.179 C 
ATOM     10  C   UNL     1      30.659  33.403  16.584  1.00  0.00     0.282 C 
ATOM     11  O   UNL     1      29.713  33.514  17.580  1.00  0.00    -0.341 OA
ATOM     12  C   UNL     1      30.718  32.003  16.077  1.00  0.00     0.202 C 
ATOM     13  C   UNL     1      29.391  31.322  16.441  1.00  0.00     0.179 C 
ATOM     14  C   UNL     1      29.335  31.168  17.954  1.00  0.00     0.177 C 
BRANCH  10  15
ATOM     15  O   UNL     1      31.855  33.872  17.123  1.00  0.00    -0.341 OA
BRANCH  15  16
ATOM     16  C   UNL     1      32.011  35.218  17.067  1.00  0.00     0.184 C 
ATOM     17  C   UNL     1      33.112  35.717  16.183  1.00  0.00     0.178 C 
ATOM     18  O   UNL     1      32.779  37.016  15.798  1.00  0.00    -0.341 OA
ATOM     19  C   UNL     1      32.305  37.803  16.843  1.00  0.00     0.281 C 
ATOM     20  C   UNL     1      32.299  35.851  18.424  1.00  0.00     0.180 C 
ATOM     21  C   UNL     1      32.736  37.306  18.203  1.00  0.00     0.202 C 
BRANCH  17  22
ATOM     22  C   UNL     1      33.414  34.907  14.977  1.00  0.00     0.191 C 
BRANCH  22  23
ATOM     23  O   UNL     1      32.302  34.648  14.219  1.00  0.00    -0.394 OA
ATOM     24  H   UNL     1      32.482  33.830  13.689  1.00  0.00     0.210 HD
ENDBRANCH  22  23
ENDBRANCH  17  22
BRANCH  19  25
ATOM     25  O   UNL     1      30.949  37.962  16.835  1.00  0.00    -0.350 OA
BRANCH  25  26
ATOM     26  C   UNL     1      30.284  38.029  15.664  1.00  0.00     0.169 C 
BRANCH  26  27
ATOM     27  C   UNL     1      29.336  36.933  15.319  1.00  0.00     0.119 C 
BRANCH  27  28
ATOM     28  N   UNL     1      29.705  36.073  14.249  1.00  0.00    -0.092 NA
ATOM     29  N   UNL     1      29.497  36.359  13.051  1.00  0.00     0.001 N 
ATOM     30  N   UNL     1      28.802  36.458  12.026  1.00  0.00    -0.003 NA
ENDBRANCH  27  28
ENDBRANCH  26  27
ENDBRANCH  25  26
ENDBRANCH  19  25
BRANCH  20  31
ATOM     31  O   UNL     1      31.130  35.889  19.171  1.00  0.00    -0.387 OA
ATOM     32  H   UNL     1      31.017  36.741  19.668  1.00  0.00     0.211 HD
ENDBRANCH  20  31
BRANCH  21  33
ATOM     33  O   UNL     1      34.110  37.461  18.369  1.00  0.00    -0.385 OA
ATOM     34  H   UNL     1      34.374  38.324  17.967  1.00  0.00     0.211 HD
ENDBRANCH  21  33
ENDBRANCH  15  16
ENDBRANCH  10  15
BRANCH  12  35
ATOM     35  O   UNL     1      30.713  32.012  14.669  1.00  0.00    -0.385 OA
ATOM     36  H   UNL     1      31.667  32.065  14.355  1.00  0.00     0.211 HD
ENDBRANCH  12  35
BRANCH  13  37
ATOM     37  O   UNL     1      29.200  30.137  15.780  1.00  0.00    -0.387 OA
ATOM     38  H   UNL     1      28.783  29.476  16.387  1.00  0.00     0.211 HD
ENDBRANCH  13  37
BRANCH  14  39
ATOM     39  O   UNL     1      30.220  30.204  18.394  1.00  0.00    -0.387 OA
ATOM     40  H   UNL     1      30.454  29.633  17.615  1.00  0.00     0.211 HD
ENDBRANCH  14  39
ENDBRANCH   8   9
ENDBRANCH   7   8
ENDBRANCH   1   7
BRANCH   1  41
ATOM     41  C   UNL     1      31.795  33.688  22.459  1.00  0.00     0.364 C 
ATOM     42  O   UNL     1      31.775  33.667  23.701  1.00  0.00    -0.246 OA
BRANCH  41  43
ATOM     43  O   UNL     1      32.339  34.780  21.828  1.00  0.00    -0.477 OA
ATOM     44  H   UNL     1      32.641  34.806  20.862  1.00  0.00     0.296 HD
ENDBRANCH  41  43
ENDBRANCH   1  41
BRANCH   3  45
ATOM     45  O   UNL     1      33.524  29.704  21.830  1.00  0.00    -0.391 OA
ATOM     46  H   UNL     1      33.499  28.877  22.349  1.00  0.00     0.211 HD
ENDBRANCH   3  45
BRANCH   5  47
ATOM     47  C   UNL     1      29.709  29.787  21.600  1.00  0.00     0.176 C 
BRANCH  47  48
ATOM     48  O   UNL     1      28.303  29.735  21.787  1.00  0.00    -0.388 OA
ATOM     49  H   UNL     1      28.067  30.310  22.565  1.00  0.00     0.211 HD
ENDBRANCH  47  48
BRANCH  47  50
ATOM     50  C   UNL     1      30.158  28.364  21.485  1.00  0.00     0.165 C 
BRANCH  50  51
ATOM     51  O   UNL     1      31.117  28.443  20.386  1.00  0.00    -0.388 OA
ATOM     52  H   UNL     1      31.011  27.588  19.905  1.00  0.00     0.211 HD
ENDBRANCH  50  51
BRANCH  50  53
ATOM     53  C   UNL     1      29.146  27.404  20.949  1.00  0.00     0.154 C 
BRANCH  53  54
ATOM     54  N   UNL     1      28.858  27.478  19.552  1.00  0.00    -0.319 N 
ATOM     55  C   UNL     1      27.517  27.845  19.161  1.00  0.00     0.407 C 
ATOM     56  H   UNL     1      29.505  27.315  18.788  1.00  0.00     0.167 HD
ATOM     57  O   UNL     1      26.686  28.081  20.062  1.00  0.00    -0.225 OA
BRANCH  55  58
ATOM     58  O   UNL     1      27.151  27.936  17.841  1.00  0.00    -0.443 OA
BRANCH  58  59
ATOM     59  C   UNL     1      25.831  28.281  17.500  1.00  0.00     0.294 C 
BRANCH  59  60
ATOM     60  C   UNL     1      25.802  29.697  17.077  1.00  0.00     0.121 A 
ATOM     61  C   UNL     1      25.751  30.228  15.809  1.00  0.00     0.144 A 
ATOM     62  N   UNL     1      25.819  30.779  17.912  1.00  0.00    -0.131 NA
ATOM     63  N   UNL     1      25.738  31.568  15.891  1.00  0.00    -0.219 N 
ATOM     64  N   UNL     1      25.781  31.870  17.176  1.00  0.00    -0.062 NA
BRANCH  63  65
ATOM     65  C   UNL     1      25.688  32.564  14.874  1.00  0.00     0.085 A 
ATOM     66  C   UNL     1      24.792  32.513  13.827  1.00  0.00     0.031 A 
ATOM     67  C   UNL     1      26.555  33.640  14.889  1.00  0.00     0.139 A 
ATOM     68  C   UNL     1      24.767  33.485  12.851  1.00  0.00     0.022 A 
ATOM     69  N   UNL     1      26.521  34.590  13.922  1.00  0.00    -0.262 NA
ATOM     70  C   UNL     1      25.648  34.541  12.901  1.00  0.00     0.111 A 
ENDBRANCH  63  65
ENDBRANCH  59  60
ENDBRANCH  58  59
ENDBRANCH  55  58
ENDBRANCH  53  54
ENDBRANCH  50  53
ENDBRANCH  47  50
ENDBRANCH   5  47
BRANCH   4  71
ATOM     71  N   UNL     1      31.748  30.458  24.631  1.00  0.00    -0.348 N 
ATOM     72  C   UNL     1      31.382  29.570  25.672  1.00  0.00     0.217 C 
ATOM     73  H   UNL     1      32.135  31.392  24.939  1.00  0.00     0.163 HD
ATOM     74  C   UNL     1      31.530  29.935  27.116  1.00  0.00     0.114 C 
ATOM     75  O   UNL     1      30.916  28.431  25.398  1.00  0.00    -0.275 OA
ENDBRANCH   4  71
TORSDOF 30
BEGIN_RES LYS A 131
REMARK  4 active torsions:
REMARK  status: ('A' for Active; 'I' for Inactive)
REMARK    1  A    between atoms: CA   and  CB  
REMARK    2  A    between atoms: CB   and  CG  
REMARK    3  A    between atoms: CG   and  CD  
REMARK    4  A    between atoms: CD   and  CE  
ROOT
ATOM      1  CA  LYS A 131      29.867  25.555  16.977  1.00 20.52     0.186 C 
ENDROOT
BRANCH   1   2
ATOM      2  CB  LYS A 131      28.345  25.722  17.026  1.00 20.94     0.034 C 
BRANCH   2   3
ATOM      3  CG  LYS A 131      27.602  24.400  16.913  1.00 22.96     0.005 C 
BRANCH   3   4
ATOM      4  CD  LYS A 131      26.149  24.534  17.278  1.00 24.33     0.041 C 
BRANCH   4   5
ATOM      5  CE  LYS A 131      26.001  24.514  18.796  1.00 26.91     0.338 C 
ATOM      6  NZ  LYS A 131      25.519  23.190  19.253  1.00 27.40     0.618 N 
ENDBRANCH   4   5
ENDBRANCH   3   4
ENDBRANCH   2   3
ENDBRANCH   1   2
END_RES LYS A 131
BEGIN_RES LYS A 135
REMARK  4 active torsions:
REMARK  status: ('A' for Active; 'I' for Inactive)
REMARK    5  A    between atoms: CA   and  CB  
REMARK    6  A    between atoms: CB   and  CG  
REMARK    7  A    between atoms: CG   and  CD  
REMARK    8  A    between atoms: CD   and  CE  
ROOT
ATOM      7  CA  LYS A 135      33.193  34.663   9.290  1.00 25.02     0.186 C 
ENDROOT
BRANCH   7   8
ATOM      8  CB  LYS A 135      32.060  35.360  10.034  1.00 26.63     0.034 C 
BRANCH   8   9
ATOM      9  CG  LYS A 135      30.821  35.556   9.198  1.00 29.45     0.005 C 
BRANCH   9  10
ATOM     10  CD  LYS A 135      30.041  34.256   9.083  1.00 32.00     0.041 C 
BRANCH  10  11
ATOM     11  CE  LYS A 135      28.736  34.482   8.344  1.00 34.25     0.338 C 
ATOM     12  NZ  LYS A 135      28.690  35.842   7.740  1.00 35.99     0.618 N 
ENDBRANCH  10  11
ENDBRANCH   9  10
ENDBRANCH   8   9
ENDBRANCH   7   8
END_RES LYS A 135
