REMARK VINA RESULT:    -5.096      5.046      8.758
REMARK INTER + INTRA:         -24.058
REMARK INTER:                 -12.538
REMARK INTRA:                 -11.520
REMARK UNBOUND:               -11.068
REMARK SMILES CC(=O)N[C@@H]1[C@@H](O)C[C@](OC[C@H]2O[C@@H](O[C@H]3[C@H](O)[C@@H](O)[C@H](OCCN=[N+]=[N-])O[C@@H]3CO)[C@H](O)[C@@H](O)[C@H]2O)(C(=O)O)O[C@H]1C(O)[C@H](O)CNC(=O)OCc1cn(Cc2cc(Br)cc(Br)c2O)nn1
REMARK SMILES IDX 9 1 8 2 6 3 5 4 42 5 41 6 10 7 11 8 12 9 14 10 13 11 32 12
REMARK SMILES IDX 34 13 36 14 15 15 16 16 29 17 28 18 21 19 17 20 19 21 30 22
REMARK SMILES IDX 31 23 22 25 23 26 24 27 25 28 26 29 27 30 18 31 20 33 33 35
REMARK SMILES IDX 35 37 37 39 38 41 39 42 40 43 7 45 43 47 44 48 45 50 46 51
REMARK SMILES IDX 47 53 48 54 49 55 50 57 51 58 52 59 53 60 54 61 67 62 55 63
REMARK SMILES IDX 66 64 56 65 57 66 58 67 64 68 59 69 62 70 60 71 61 72 63 73
REMARK SMILES IDX 65 74 4 76 2 77 1 79 3 80
REMARK H PARENT 31 24 18 32 20 34 33 36 35 38 37 40 40 44 7 46 44 49 46 52
REMARK H PARENT 48 56 65 75 4 78
REMARK Flexibility Score: inf
ROOT
ATOM      1  C   UNL     1      31.123  31.030  22.002  1.00  0.00     0.272 C 
ATOM      2  C   UNL     1      32.641  31.483  21.754  1.00  0.00     0.113 C 
ATOM      3  C   UNL     1      33.443  31.245  22.968  1.00  0.00     0.145 C 
ATOM      4  C   UNL     1      33.338  29.803  23.390  1.00  0.00     0.142 C 
ATOM      5  C   UNL     1      32.150  29.062  22.856  1.00  0.00     0.178 C 
ATOM      6  O   UNL     1      31.143  29.711  22.282  1.00  0.00    -0.332 OA
ENDROOT
BRANCH   1   7
ATOM      7  O   UNL     1      30.618  31.259  20.767  1.00  0.00    -0.338 OA
BRANCH   7   8
ATOM      8  C   UNL     1      29.913  30.415  20.038  1.00  0.00     0.199 C 
BRANCH   8   9
ATOM      9  C   UNL     1      28.532  30.734  19.581  1.00  0.00     0.179 C 
ATOM     10  C   UNL     1      29.086  31.772  17.570  1.00  0.00     0.282 C 
ATOM     11  O   UNL     1      28.463  31.818  18.775  1.00  0.00    -0.341 OA
ATOM     12  C   UNL     1      28.884  30.472  16.863  1.00  0.00     0.202 C 
ATOM     13  C   UNL     1      27.728  29.715  17.460  1.00  0.00     0.179 C 
ATOM     14  C   UNL     1      27.852  29.522  18.942  1.00  0.00     0.177 C 
BRANCH  10  15
ATOM     15  O   UNL     1      30.435  32.144  17.684  1.00  0.00    -0.341 OA
BRANCH  15  16
ATOM     16  C   UNL     1      30.671  33.484  17.475  1.00  0.00     0.184 C 
ATOM     17  C   UNL     1      31.755  33.703  16.444  1.00  0.00     0.178 C 
ATOM     18  O   UNL     1      32.216  34.987  16.373  1.00  0.00    -0.341 OA
ATOM     19  C   UNL     1      31.450  35.950  17.004  1.00  0.00     0.281 C 
ATOM     20  C   UNL     1      31.216  34.157  18.740  1.00  0.00     0.180 C 
ATOM     21  C   UNL     1      31.189  35.639  18.453  1.00  0.00     0.202 C 
BRANCH  17  22
ATOM     22  C   UNL     1      31.360  33.210  15.068  1.00  0.00     0.191 C 
BRANCH  22  23
ATOM     23  O   UNL     1      31.437  31.837  14.982  1.00  0.00    -0.394 OA
ATOM     24  H   UNL     1      30.957  31.549  14.170  1.00  0.00     0.210 HD
ENDBRANCH  22  23
ENDBRANCH  17  22
BRANCH  19  25
ATOM     25  O   UNL     1      30.285  36.142  16.279  1.00  0.00    -0.350 OA
BRANCH  25  26
ATOM     26  C   UNL     1      30.449  37.107  15.322  1.00  0.00     0.169 C 
BRANCH  26  27
ATOM     27  C   UNL     1      29.707  36.899  14.047  1.00  0.00     0.119 C 
BRANCH  27  28
ATOM     28  N   UNL     1      30.342  35.933  13.174  1.00  0.00    -0.092 NA
ATOM     29  N   UNL     1      31.472  36.072  12.750  1.00  0.00     0.001 N 
ATOM     30  N   UNL     1      32.659  35.941  12.461  1.00  0.00    -0.003 NA
ENDBRANCH  27  28
ENDBRANCH  26  27
ENDBRANCH  25  26
ENDBRANCH  19  25
BRANCH  20  31
ATOM     31  O   UNL     1      30.543  33.811  19.879  1.00  0.00    -0.387 OA
ATOM     32  H   UNL     1      29.595  33.609  19.593  1.00  0.00     0.211 HD
ENDBRANCH  20  31
BRANCH  21  33
ATOM     33  O   UNL     1      32.099  36.331  19.244  1.00  0.00    -0.385 OA
ATOM     34  H   UNL     1      31.957  36.133  20.186  1.00  0.00     0.211 HD
ENDBRANCH  21  33
ENDBRANCH  15  16
ENDBRANCH  10  15
BRANCH  12  35
ATOM     35  O   UNL     1      28.618  30.765  15.503  1.00  0.00    -0.385 OA
ATOM     36  H   UNL     1      29.455  30.543  15.031  1.00  0.00     0.211 HD
ENDBRANCH  12  35
BRANCH  13  37
ATOM     37  O   UNL     1      27.510  28.499  16.812  1.00  0.00    -0.387 OA
ATOM     38  H   UNL     1      27.711  27.797  17.480  1.00  0.00     0.211 HD
ENDBRANCH  13  37
BRANCH  14  39
ATOM     39  O   UNL     1      28.598  28.387  19.205  1.00  0.00    -0.387 OA
ATOM     40  H   UNL     1      28.014  27.584  19.257  1.00  0.00     0.211 HD
ENDBRANCH  14  39
ENDBRANCH   8   9
ENDBRANCH   7   8
ENDBRANCH   1   7
BRANCH   1  41
ATOM     41  C   UNL     1      30.653  31.869  23.099  1.00  0.00     0.364 C 
ATOM     42  O   UNL     1      30.581  33.149  22.972  1.00  0.00    -0.246 OA
BRANCH  41  43
ATOM     43  O   UNL     1      30.250  31.403  24.323  1.00  0.00    -0.477 OA
ATOM     44  H   UNL     1      29.958  30.444  24.445  1.00  0.00     0.296 HD
ENDBRANCH  41  43
ENDBRANCH   1  41
BRANCH   3  45
ATOM     45  O   UNL     1      34.777  31.608  22.705  1.00  0.00    -0.391 OA
ATOM     46  H   UNL     1      34.798  32.447  22.190  1.00  0.00     0.211 HD
ENDBRANCH   3  45
BRANCH   5  47
ATOM     47  C   UNL     1      32.669  27.879  22.061  1.00  0.00     0.176 C 
BRANCH  47  48
ATOM     48  O   UNL     1      33.642  27.191  22.830  1.00  0.00    -0.388 OA
ATOM     49  H   UNL     1      33.553  27.411  23.779  1.00  0.00     0.211 HD
ENDBRANCH  47  48
BRANCH  47  50
ATOM     50  C   UNL     1      31.648  26.964  21.523  1.00  0.00     0.165 C 
BRANCH  50  51
ATOM     51  O   UNL     1      31.244  27.308  20.251  1.00  0.00    -0.388 OA
ATOM     52  H   UNL     1      31.579  26.695  19.550  1.00  0.00     0.211 HD
ENDBRANCH  50  51
BRANCH  50  53
ATOM     53  C   UNL     1      30.472  26.643  22.379  1.00  0.00     0.154 C 
BRANCH  53  54
ATOM     54  N   UNL     1      29.188  26.782  21.783  1.00  0.00    -0.319 N 
ATOM     55  C   UNL     1      28.237  27.632  22.444  1.00  0.00     0.407 C 
ATOM     56  H   UNL     1      28.884  26.299  20.923  1.00  0.00     0.167 HD
ATOM     57  O   UNL     1      28.585  28.220  23.526  1.00  0.00    -0.225 OA
BRANCH  55  58
ATOM     58  O   UNL     1      26.989  27.804  21.917  1.00  0.00    -0.443 OA
BRANCH  58  59
ATOM     59  C   UNL     1      26.129  26.732  21.631  1.00  0.00     0.294 C 
BRANCH  59  60
ATOM     60  C   UNL     1      25.518  26.897  20.293  1.00  0.00     0.120 A 
ATOM     61  C   UNL     1      24.256  27.364  19.949  1.00  0.00     0.138 A 
ATOM     62  N   UNL     1      26.099  26.622  19.114  1.00  0.00    -0.132 NA
ATOM     63  N   UNL     1      24.107  27.358  18.616  1.00  0.00    -0.248 N 
ATOM     64  N   UNL     1      25.263  26.895  18.132  1.00  0.00    -0.067 NA
BRANCH  63  65
ATOM     65  C   UNL     1      22.958  27.757  17.795  1.00  0.00     0.185 C 
BRANCH  65  66
ATOM     66  C   UNL     1      23.417  28.825  16.878  1.00  0.00     0.018 A 
ATOM     67  C   UNL     1      23.980  29.967  17.414  1.00  0.00     0.025 A 
ATOM     68  C   UNL     1      23.300  28.722  15.497  1.00  0.00     0.134 A 
ATOM     69  C   UNL     1      24.432  31.006  16.615  1.00  0.00     0.019 A 
ATOM     70  C   UNL     1      23.742  29.743  14.671  1.00  0.00     0.061 A 
ATOM     71  Br  UNL     1      25.202  32.561  17.399  1.00  0.00    -0.051 Br
ATOM     72  C   UNL     1      24.306  30.879  15.253  1.00  0.00     0.035 A 
ATOM     73  Br  UNL     1      23.574  29.577  12.798  1.00  0.00    -0.047 Br
BRANCH  68  74
ATOM     74  O   UNL     1      22.727  27.557  15.024  1.00  0.00    -0.506 OA
ATOM     75  H   UNL     1      23.286  26.912  14.491  1.00  0.00     0.293 HD
ENDBRANCH  68  74
ENDBRANCH  65  66
ENDBRANCH  63  65
ENDBRANCH  59  60
ENDBRANCH  58  59
ENDBRANCH  55  58
ENDBRANCH  53  54
ENDBRANCH  50  53
ENDBRANCH  47  50
ENDBRANCH   5  47
BRANCH   4  76
ATOM     76  N   UNL     1      33.508  29.701  24.824  1.00  0.00    -0.348 N 
ATOM     77  C   UNL     1      34.760  29.278  25.340  1.00  0.00     0.217 C 
ATOM     78  H   UNL     1      32.747  29.922  25.507  1.00  0.00     0.163 HD
ATOM     79  C   UNL     1      34.935  29.173  26.823  1.00  0.00     0.114 C 
ATOM     80  O   UNL     1      35.716  28.995  24.543  1.00  0.00    -0.275 OA
ENDBRANCH   4  76
TORSDOF 32
BEGIN_RES LYS A 131
REMARK  4 active torsions:
REMARK  status: ('A' for Active; 'I' for Inactive)
REMARK    1  A    between atoms: CA   and  CB  
REMARK    2  A    between atoms: CB   and  CG  
REMARK    3  A    between atoms: CG   and  CD  
REMARK    4  A    between atoms: CD   and  CE  
ROOT
ATOM      1  CA  LYS A 131      29.867  25.555  16.977  1.00 20.52     0.186 C 
ENDROOT
BRANCH   1   2
ATOM      2  CB  LYS A 131      28.345  25.722  17.026  1.00 20.94     0.034 C 
BRANCH   2   3
ATOM      3  CG  LYS A 131      27.599  24.489  16.539  1.00 22.96     0.005 C 
BRANCH   3   4
ATOM      4  CD  LYS A 131      27.293  23.534  17.659  1.00 24.33     0.041 C 
BRANCH   4   5
ATOM      5  CE  LYS A 131      25.793  23.258  17.696  1.00 26.91     0.338 C 
ATOM      6  NZ  LYS A 131      25.309  23.212  19.096  1.00 27.40     0.618 N 
ENDBRANCH   4   5
ENDBRANCH   3   4
ENDBRANCH   2   3
ENDBRANCH   1   2
END_RES LYS A 131
BEGIN_RES LYS A 135
REMARK  4 active torsions:
REMARK  status: ('A' for Active; 'I' for Inactive)
REMARK    5  A    between atoms: CA   and  CB  
REMARK    6  A    between atoms: CB   and  CG  
REMARK    7  A    between atoms: CG   and  CD  
REMARK    8  A    between atoms: CD   and  CE  
ROOT
ATOM      7  CA  LYS A 135      33.193  34.663   9.290  1.00 25.02     0.186 C 
ENDROOT
BRANCH   7   8
ATOM      8  CB  LYS A 135      32.060  35.360  10.034  1.00 26.63     0.034 C 
BRANCH   8   9
ATOM      9  CG  LYS A 135      30.833  35.586   9.188  1.00 29.45     0.005 C 
BRANCH   9  10
ATOM     10  CD  LYS A 135      30.213  34.260   8.777  1.00 32.00     0.041 C 
BRANCH  10  11
ATOM     11  CE  LYS A 135      28.723  34.419   8.544  1.00 34.25     0.338 C 
ATOM     12  NZ  LYS A 135      27.938  33.702   9.587  1.00 35.99     0.618 N 
ENDBRANCH  10  11
ENDBRANCH   9  10
ENDBRANCH   8   9
ENDBRANCH   7   8
END_RES LYS A 135
