REMARK VINA RESULT:    -3.606      5.262      9.612
REMARK INTER + INTRA:         -22.028
REMARK INTER:                  -8.817
REMARK INTRA:                 -13.210
REMARK UNBOUND:               -13.046
REMARK SMILES CC(=O)N[C@@H]1[C@@H](O)C[C@](OC[C@H]2O[C@@H](O[C@H]3[C@H](O)[C@@H](O)[C@H](OCCN=[N+]=[N-])O[C@@H]3CO)[C@H](O)[C@@H](O)[C@H]2O)(C(=O)O)O[C@H]1C(O)[C@H](O)CNC(=O)OCc1cn(-c2nc(C)nc(N)n2)nn1
REMARK SMILES IDX 9 1 8 2 6 3 5 4 42 5 41 6 10 7 11 8 12 9 14 10 13 11 32 12
REMARK SMILES IDX 34 13 36 14 15 15 16 16 29 17 28 18 21 19 17 20 19 21 30 22
REMARK SMILES IDX 31 23 22 25 23 26 24 27 25 28 26 29 27 30 18 31 20 33 33 35
REMARK SMILES IDX 35 37 37 39 38 41 39 42 40 43 7 45 43 47 44 48 45 50 46 51
REMARK SMILES IDX 47 53 48 54 49 55 50 57 51 58 52 59 53 60 54 61 65 62 55 63
REMARK SMILES IDX 64 64 56 65 63 66 57 67 61 68 58 69 60 70 59 71 62 72 4 75
REMARK SMILES IDX 2 76 1 78 3 79
REMARK H PARENT 31 24 18 32 20 34 33 36 35 38 37 40 40 44 7 46 44 49 46 52
REMARK H PARENT 48 56 62 73 62 74 4 77
REMARK Flexibility Score: inf
ROOT
ATOM      1  C   UNL     1      23.338  36.451   8.970  1.00  0.00     0.272 C 
ATOM      2  C   UNL     1      22.452  35.287   8.685  1.00  0.00     0.113 C 
ATOM      3  C   UNL     1      21.107  35.726   8.195  1.00  0.00     0.145 C 
ATOM      4  C   UNL     1      20.503  36.654   9.216  1.00  0.00     0.142 C 
ATOM      5  C   UNL     1      21.477  37.693   9.722  1.00  0.00     0.178 C 
ATOM      6  O   UNL     1      22.711  37.231   9.979  1.00  0.00    -0.332 OA
ENDROOT
BRANCH   1   7
ATOM      7  O   UNL     1      23.826  37.133   7.994  1.00  0.00    -0.338 OA
BRANCH   7   8
ATOM      8  C   UNL     1      24.824  37.835   7.618  1.00  0.00     0.199 C 
BRANCH   8   9
ATOM      9  C   UNL     1      25.448  39.007   8.296  1.00  0.00     0.179 C 
ATOM     10  C   UNL     1      26.749  39.785   9.921  1.00  0.00     0.282 C 
ATOM     11  O   UNL     1      26.428  38.631   9.156  1.00  0.00    -0.341 OA
ATOM     12  C   UNL     1      27.645  40.584   9.008  1.00  0.00     0.202 C 
ATOM     13  C   UNL     1      26.844  41.056   7.820  1.00  0.00     0.179 C 
ATOM     14  C   UNL     1      25.682  40.218   7.454  1.00  0.00     0.177 C 
BRANCH  10  15
ATOM     15  O   UNL     1      27.387  39.452  11.086  1.00  0.00    -0.341 OA
BRANCH  15  16
ATOM     16  C   UNL     1      26.692  38.546  11.869  1.00  0.00     0.184 C 
ATOM     17  C   UNL     1      26.175  39.086  13.159  1.00  0.00     0.178 C 
ATOM     18  O   UNL     1      26.572  38.345  14.264  1.00  0.00    -0.341 OA
ATOM     19  C   UNL     1      26.321  36.982  14.159  1.00  0.00     0.281 C 
ATOM     20  C   UNL     1      27.705  37.426  12.172  1.00  0.00     0.180 C 
ATOM     21  C   UNL     1      26.961  36.366  12.950  1.00  0.00     0.202 C 
BRANCH  17  22
ATOM     22  C   UNL     1      24.693  39.354  13.184  1.00  0.00     0.191 C 
BRANCH  22  23
ATOM     23  O   UNL     1      24.131  38.617  12.118  1.00  0.00    -0.394 OA
ATOM     24  H   UNL     1      24.681  38.652  11.306  1.00  0.00     0.210 HD
ENDBRANCH  22  23
ENDBRANCH  17  22
BRANCH  19  25
ATOM     25  O   UNL     1      24.990  36.669  14.170  1.00  0.00    -0.350 OA
BRANCH  25  26
ATOM     26  C   UNL     1      24.457  36.224  15.342  1.00  0.00     0.169 C 
BRANCH  26  27
ATOM     27  C   UNL     1      24.950  34.864  15.753  1.00  0.00     0.119 C 
BRANCH  27  28
ATOM     28  N   UNL     1      24.363  33.873  14.840  1.00  0.00    -0.092 NA
ATOM     29  N   UNL     1      25.058  33.518  13.890  1.00  0.00     0.001 N 
ATOM     30  N   UNL     1      25.302  33.310  12.682  1.00  0.00    -0.003 NA
ENDBRANCH  27  28
ENDBRANCH  26  27
ENDBRANCH  25  26
ENDBRANCH  19  25
BRANCH  20  31
ATOM     31  O   UNL     1      28.243  36.951  10.995  1.00  0.00    -0.387 OA
ATOM     32  H   UNL     1      28.983  37.536  10.673  1.00  0.00     0.211 HD
ENDBRANCH  20  31
BRANCH  21  33
ATOM     33  O   UNL     1      27.889  35.383  13.293  1.00  0.00    -0.385 OA
ATOM     34  H   UNL     1      27.871  35.196  14.265  1.00  0.00     0.211 HD
ENDBRANCH  21  33
ENDBRANCH  15  16
ENDBRANCH  10  15
BRANCH  12  35
ATOM     35  O   UNL     1      28.258  41.655   9.654  1.00  0.00    -0.385 OA
ATOM     36  H   UNL     1      28.677  42.226   8.961  1.00  0.00     0.211 HD
ENDBRANCH  12  35
BRANCH  13  37
ATOM     37  O   UNL     1      27.750  41.252   6.774  1.00  0.00    -0.387 OA
ATOM     38  H   UNL     1      28.414  41.959   6.969  1.00  0.00     0.211 HD
ENDBRANCH  13  37
BRANCH  14  39
ATOM     39  O   UNL     1      25.669  39.997   6.081  1.00  0.00    -0.387 OA
ATOM     40  H   UNL     1      25.062  40.699   5.698  1.00  0.00     0.211 HD
ENDBRANCH  14  39
ENDBRANCH   8   9
ENDBRANCH   7   8
ENDBRANCH   1   7
BRANCH   1  41
ATOM     41  C   UNL     1      24.469  35.808   9.823  1.00  0.00     0.364 C 
ATOM     42  O   UNL     1      25.348  35.224   9.203  1.00  0.00    -0.246 OA
BRANCH  41  43
ATOM     43  O   UNL     1      24.447  35.908  11.179  1.00  0.00    -0.477 OA
ATOM     44  H   UNL     1      25.295  35.935  11.762  1.00  0.00     0.296 HD
ENDBRANCH  41  43
ENDBRANCH   1  41
BRANCH   3  45
ATOM     45  O   UNL     1      21.131  36.406   6.998  1.00  0.00    -0.391 OA
ATOM     46  H   UNL     1      20.752  37.300   7.060  1.00  0.00     0.211 HD
ENDBRANCH   3  45
BRANCH   5  47
ATOM     47  C   UNL     1      21.433  38.986   8.945  1.00  0.00     0.176 C 
BRANCH  47  48
ATOM     48  O   UNL     1      20.293  39.050   8.162  1.00  0.00    -0.388 OA
ATOM     49  H   UNL     1      20.196  38.336   7.507  1.00  0.00     0.211 HD
ENDBRANCH  47  48
BRANCH  47  50
ATOM     50  C   UNL     1      21.502  40.137   9.898  1.00  0.00     0.165 C 
BRANCH  50  51
ATOM     51  O   UNL     1      22.825  40.256  10.362  1.00  0.00    -0.388 OA
ATOM     52  H   UNL     1      23.056  39.444  10.846  1.00  0.00     0.211 HD
ENDBRANCH  50  51
BRANCH  50  53
ATOM     53  C   UNL     1      20.605  40.040  11.085  1.00  0.00     0.154 C 
BRANCH  53  54
ATOM     54  N   UNL     1      21.218  39.333  12.187  1.00  0.00    -0.319 N 
ATOM     55  C   UNL     1      20.574  38.340  12.950  1.00  0.00     0.407 C 
ATOM     56  H   UNL     1      22.220  39.551  12.466  1.00  0.00     0.167 HD
ATOM     57  O   UNL     1      19.410  38.014  12.701  1.00  0.00    -0.225 OA
BRANCH  55  58
ATOM     58  O   UNL     1      21.210  37.693  14.005  1.00  0.00    -0.443 OA
BRANCH  58  59
ATOM     59  C   UNL     1      20.818  36.441  14.507  1.00  0.00     0.294 C 
BRANCH  59  60
ATOM     60  C   UNL     1      21.241  35.325  13.609  1.00  0.00     0.121 A 
ATOM     61  C   UNL     1      20.922  33.991  13.756  1.00  0.00     0.148 A 
ATOM     62  N   UNL     1      22.003  35.413  12.501  1.00  0.00    -0.131 NA
ATOM     63  N   UNL     1      21.495  33.314  12.746  1.00  0.00    -0.185 N 
ATOM     64  N   UNL     1      22.138  34.195  12.007  1.00  0.00    -0.059 NA
BRANCH  63  65
ATOM     65  C   UNL     1      21.385  31.909  12.567  1.00  0.00     0.257 A 
ATOM     66  N   UNL     1      22.477  31.135  12.717  1.00  0.00    -0.175 NA
ATOM     67  N   UNL     1      20.238  31.280  12.253  1.00  0.00    -0.196 NA
ATOM     68  C   UNL     1      22.430  29.788  12.561  1.00  0.00     0.225 A 
ATOM     69  C   UNL     1      20.153  29.955  12.091  1.00  0.00     0.133 A 
ATOM     70  N   UNL     1      21.247  29.216  12.245  1.00  0.00    -0.198 NA
ATOM     71  C   UNL     1      18.848  29.293  11.740  1.00  0.00     0.090 C 
BRANCH  68  72
ATOM     72  N   UNL     1      23.606  29.022  12.730  1.00  0.00    -0.368 N 
ATOM     73  H   UNL     1      24.005  28.461  11.952  1.00  0.00     0.159 HD
ATOM     74  H   UNL     1      24.098  29.006  13.644  1.00  0.00     0.159 HD
ENDBRANCH  68  72
ENDBRANCH  63  65
ENDBRANCH  59  60
ENDBRANCH  58  59
ENDBRANCH  55  58
ENDBRANCH  53  54
ENDBRANCH  50  53
ENDBRANCH  47  50
ENDBRANCH   5  47
BRANCH   4  75
ATOM     75  N   UNL     1      19.999  35.865  10.320  1.00  0.00    -0.348 N 
ATOM     76  C   UNL     1      18.643  35.434  10.350  1.00  0.00     0.217 C 
ATOM     77  H   UNL     1      20.603  35.580  11.132  1.00  0.00     0.163 HD
ATOM     78  C   UNL     1      18.148  34.634  11.478  1.00  0.00     0.114 C 
ATOM     79  O   UNL     1      17.877  35.741   9.411  1.00  0.00    -0.275 OA
ENDBRANCH   4  75
TORSDOF 31
BEGIN_RES LYS A 131
REMARK  4 active torsions:
REMARK  status: ('A' for Active; 'I' for Inactive)
REMARK    1  A    between atoms: CA   and  CB  
REMARK    2  A    between atoms: CB   and  CG  
REMARK    3  A    between atoms: CG   and  CD  
REMARK    4  A    between atoms: CD   and  CE  
ROOT
ATOM      1  CA  LYS A 131      29.867  25.555  16.977  1.00 20.52     0.186 C 
ENDROOT
BRANCH   1   2
ATOM      2  CB  LYS A 131      28.345  25.722  17.026  1.00 20.94     0.034 C 
BRANCH   2   3
ATOM      3  CG  LYS A 131      27.601  24.402  16.891  1.00 22.96     0.005 C 
BRANCH   3   4
ATOM      4  CD  LYS A 131      26.681  24.149  18.053  1.00 24.33     0.041 C 
BRANCH   4   5
ATOM      5  CE  LYS A 131      25.346  24.842  17.806  1.00 26.91     0.338 C 
ATOM      6  NZ  LYS A 131      24.508  24.040  16.883  1.00 27.40     0.618 N 
ENDBRANCH   4   5
ENDBRANCH   3   4
ENDBRANCH   2   3
ENDBRANCH   1   2
END_RES LYS A 131
BEGIN_RES LYS A 135
REMARK  4 active torsions:
REMARK  status: ('A' for Active; 'I' for Inactive)
REMARK    5  A    between atoms: CA   and  CB  
REMARK    6  A    between atoms: CB   and  CG  
REMARK    7  A    between atoms: CG   and  CD  
REMARK    8  A    between atoms: CD   and  CE  
ROOT
ATOM      7  CA  LYS A 135      33.193  34.663   9.290  1.00 25.02     0.186 C 
ENDROOT
BRANCH   7   8
ATOM      8  CB  LYS A 135      32.060  35.360  10.034  1.00 26.63     0.034 C 
BRANCH   8   9
ATOM      9  CG  LYS A 135      30.858  35.646   9.171  1.00 29.45     0.005 C 
BRANCH   9  10
ATOM     10  CD  LYS A 135      30.212  34.350   8.705  1.00 32.00     0.041 C 
BRANCH  10  11
ATOM     11  CE  LYS A 135      28.839  34.621   8.120  1.00 34.25     0.338 C 
ATOM     12  NZ  LYS A 135      28.694  36.051   7.730  1.00 35.99     0.618 N 
ENDBRANCH  10  11
ENDBRANCH   9  10
ENDBRANCH   8   9
ENDBRANCH   7   8
END_RES LYS A 135
