REMARK VINA RESULT:    -4.954      0.000      0.000
REMARK INTER + INTRA:         -12.488
REMARK INTER:                  -9.543
REMARK INTRA:                  -2.945
REMARK UNBOUND:                -3.914
REMARK  Name = lig_assembled_20.pdb
REMARK  16 active torsions:
REMARK  status: ('A' for Active; 'I' for Inactive)
REMARK    1  A    between atoms: _2  and  _11
REMARK    2  A    between atoms: _6  and  _21
REMARK    3  A    between atoms: _8  and  _9
REMARK    4  A    between atoms: _8  and  _21
REMARK    5  A    between atoms: _17  and  _37
REMARK    6  A    between atoms: _19  and  _25
REMARK    7  A    between atoms: _20  and  _24
REMARK    8  A    between atoms: _24  and  _25
REMARK    9  A    between atoms: _27  and  _28
REMARK   10  A    between atoms: _29  and  _30
REMARK   11  A    between atoms: _31  and  _33
REMARK   12  A    between atoms: _33  and  _34
REMARK   13  A    between atoms: _33  and  _35
REMARK   14  A    between atoms: _35  and  _36
REMARK   15  A    between atoms: _35  and  _37
REMARK   16  A    between atoms: _38  and  _40
REMARK                            x       y       z     vdW  Elec       q    Type
REMARK                         _______ _______ _______ _____ _____    ______ ____
ROOT
ATOM      1  C   UNL     1      -6.585   8.845  23.510  0.00  0.00    +0.163 C 
ENDROOT
BRANCH   1   2
ATOM      2  O   UNL     1      -5.867   9.049  24.738  0.00  0.00    -0.388 OA
ATOM      3  H   UNL     1      -5.271   9.796  24.640  0.00  0.00    +0.210 HD
ENDBRANCH   1   2
BRANCH   1   4
ATOM      4  C   UNL     1      -6.152   7.532  22.865  0.00  0.00    +0.141 C 
BRANCH   4   7
ATOM      5  C   UNL     1      -3.833   6.912  23.450  0.00  0.00    +0.401 C 
ATOM      6  O   UNL     1      -3.327   7.573  22.541  0.00  0.00    -0.226 OA
ATOM      7  N   UNL     1      -5.145   6.831  23.671  0.00  0.00    -0.279 N 
ATOM      8  H   UNL     1      -5.466   6.255  24.437  0.00  0.00    +0.152 HD
BRANCH   5   9
ATOM      9  O   UNL     1      -2.980   6.176  24.332  0.00  0.00    -0.444 OA
BRANCH   9  10
ATOM     10  C   UNL     1      -3.609   6.051  25.610  0.00  0.00    +0.292 C 
BRANCH  10  12
ATOM     11  N   UNL     1      -1.790   7.408  26.609  0.00  0.00    -0.131 NA
ATOM     12  C   UNL     1      -3.114   7.088  26.535  0.00  0.00    +0.121 A 
ATOM     13  C   UNL     1      -3.814   7.868  27.423  0.00  0.00    +0.143 A 
ATOM     14  N   UNL     1      -2.868   8.663  28.028  0.00  0.00    -0.220 N 
ATOM     15  N   UNL     1      -1.647   8.365  27.518  0.00  0.00    -0.060 NA
BRANCH  14  16
ATOM     16  C   UNL     1      -3.055   9.653  29.027  0.00  0.00    +0.068 A 
ATOM     17  C   UNL     1      -2.685   9.385  30.355  0.00  0.00    +0.030 A 
ATOM     18  C   UNL     1      -2.851  10.343  31.365  0.00  0.00    +0.030 A 
ATOM     19  C   UNL     1      -3.400  11.574  30.993  0.00  0.00    +0.066 A 
ATOM     20  C   UNL     1      -3.778  11.869  29.690  0.00  0.00    +0.021 A 
ATOM     21  C   UNL     1      -4.275  13.189  29.752  0.00  0.00    +0.142 A 
ATOM     22  N   UNL     1      -4.221  13.701  30.984  0.00  0.00    -0.181 NA
ATOM     23  N   UNL     1      -3.687  12.705  31.713  0.00  0.00    -0.277 N 
ATOM     24  H   UNL     1      -3.545  12.857  32.705  0.00  0.00    +0.189 HD
ATOM     25  C   UNL     1      -3.607  10.902  28.684  0.00  0.00    +0.039 A 
ENDBRANCH  14  16
ENDBRANCH  10  12
ENDBRANCH   9  10
ENDBRANCH   5   9
ENDBRANCH   4   7
ENDBRANCH   1   4
BRANCH   1  26
ATOM     26  C   UNL     1      -6.340  10.005  22.530  0.00  0.00    +0.175 C 
BRANCH  26  27
ATOM     27  C   UNL     1      -5.012  10.724  22.806  0.00  0.00    +0.176 C 
ATOM     28  O   UNL     1      -5.195  11.566  23.978  0.00  0.00    -0.332 OA
ATOM     29  C   UNL     1      -3.993  12.255  24.457  0.00  0.00    +0.277 C 
ATOM     30  C   UNL     1      -3.350  13.080  23.315  0.00  0.00    +0.110 C 
ATOM     31  C   UNL     1      -3.165  12.235  22.037  0.00  0.00    +0.143 C 
ATOM     32  C   UNL     1      -4.476  11.561  21.630  0.00  0.00    +0.133 C 
BRANCH  32  33
ATOM     33  N   UNL     1      -4.267  10.691  20.462  0.00  0.00    -0.308 N 
ATOM     34  H   UNL     1      -3.606   9.931  20.552  0.00  0.00    +0.149 HD
ATOM     35  C   UNL     1      -4.892  10.839  19.291  0.00  0.00    +0.210 C 
ATOM     36  C   UNL     1      -5.873  12.021  19.178  0.00  0.00    +0.109 C 
ATOM     37  O   UNL     1      -4.708  10.085  18.335  0.00  0.00    -0.276 OA
ENDBRANCH  32  33
BRANCH  29  38
ATOM     38  C   UNL     1      -2.964  11.244  25.005  0.00  0.00    +0.414 C 
ATOM     39  O   UNL     1      -3.103  10.040  24.788  0.00  0.00    -0.240 OA
ATOM     40  O   UNL     1      -1.997  11.630  25.662  0.00  0.00    -0.240 OA
ENDBRANCH  29  38
BRANCH  31  41
ATOM     41  O   UNL     1      -2.713  13.069  20.969  0.00  0.00    -0.390 OA
ATOM     42  H   UNL     1      -2.025  12.615  20.477  0.00  0.00    +0.210 HD
ENDBRANCH  31  41
BRANCH  29  43
ATOM     43  O   UNL     1      -4.389  13.168  25.513  0.00  0.00    -0.343 OA
ATOM     44  C   UNL     1      -5.812  13.439  25.585  0.00  0.00    +0.198 C 
ENDBRANCH  29  43
ENDBRANCH  26  27
BRANCH  26  45
ATOM     45  O   UNL     1      -7.434  10.942  22.586  0.00  0.00    -0.387 OA
ATOM     46  H   UNL     1      -7.726  11.039  23.496  0.00  0.00    +0.210 HD
ENDBRANCH  26  45
ENDBRANCH   1  26
TORSDOF 14
