REMARK VINA RESULT:    -5.068      0.000      0.000
REMARK INTER + INTRA:         -13.463
REMARK INTER:                  -9.600
REMARK INTRA:                  -3.863
REMARK UNBOUND:                -3.062
REMARK  Name = lig_assembled_74.pdb
REMARK  24 active torsions:
REMARK  status: ('A' for Active; 'I' for Inactive)
REMARK    1  A    between atoms: _2  and  _9
REMARK    2  A    between atoms: _4  and  _22
REMARK    3  A    between atoms: _5  and  _14
REMARK    4  A    between atoms: _6  and  _7
REMARK    5  A    between atoms: _6  and  _22
REMARK    6  A    between atoms: _9  and  _10
REMARK    7  A    between atoms: _10  and  _11
REMARK    8  A    between atoms: _10  and  _13
REMARK    9  A    between atoms: _11  and  _12
REMARK   10  A    between atoms: _12  and  _16
REMARK   11  A    between atoms: _13  and  _14
REMARK   12  A    between atoms: _14  and  _15
REMARK   13  A    between atoms: _18  and  _38
REMARK   14  A    between atoms: _20  and  _26
REMARK   15  A    between atoms: _21  and  _25
REMARK   16  A    between atoms: _25  and  _26
REMARK   17  A    between atoms: _28  and  _29
REMARK   18  A    between atoms: _30  and  _31
REMARK   19  A    between atoms: _32  and  _34
REMARK   20  A    between atoms: _34  and  _35
REMARK   21  A    between atoms: _34  and  _36
REMARK   22  A    between atoms: _36  and  _37
REMARK   23  A    between atoms: _36  and  _38
REMARK   24  A    between atoms: _39  and  _41
REMARK                            x       y       z     vdW  Elec       q    Type
REMARK                         _______ _______ _______ _____ _____    ______ ____
ROOT
ATOM      1  C   UNL     1      -3.375  12.154  26.530  0.00  0.00    +0.163 C 
ENDROOT
BRANCH   1   2
ATOM      2  O   UNL     1      -4.099  12.933  25.564  0.00  0.00    -0.388 OA
ATOM      3  H   UNL     1      -3.733  13.820  25.528  0.00  0.00    +0.210 HD
ENDBRANCH   1   2
BRANCH   1   4
ATOM      4  C   UNL     1      -4.278  11.770  27.715  0.00  0.00    +0.175 C 
BRANCH   4   5
ATOM      5  C   UNL     1      -3.562  10.846  28.711  0.00  0.00    +0.176 C 
ATOM      6  O   UNL     1      -4.164   9.526  28.610  0.00  0.00    -0.332 OA
ATOM      7  C   UNL     1      -3.534   8.478  29.419  0.00  0.00    +0.277 C 
ATOM      8  C   UNL     1      -3.466   8.909  30.904  0.00  0.00    +0.110 C 
ATOM      9  C   UNL     1      -2.861  10.321  31.060  0.00  0.00    +0.143 C 
ATOM     10  C   UNL     1      -3.590  11.331  30.173  0.00  0.00    +0.133 C 
BRANCH  10  11
ATOM     11  N   UNL     1      -2.950  12.653  30.265  0.00  0.00    -0.308 N 
ATOM     12  H   UNL     1      -2.010  12.748  29.906  0.00  0.00    +0.149 HD
ATOM     13  C   UNL     1      -3.530  13.735  30.791  0.00  0.00    +0.210 C 
ATOM     14  C   UNL     1      -4.953  13.551  31.352  0.00  0.00    +0.109 C 
ATOM     15  O   UNL     1      -2.976  14.833  30.841  0.00  0.00    -0.276 OA
ENDBRANCH  10  11
BRANCH   7  16
ATOM     16  C   UNL     1      -2.112   8.171  28.904  0.00  0.00    +0.414 C 
ATOM     17  O   UNL     1      -1.533   7.145  29.259  0.00  0.00    -0.240 OA
ATOM     18  O   UNL     1      -1.545   8.949  28.136  0.00  0.00    -0.240 OA
ENDBRANCH   7  16
BRANCH   9  19
ATOM     19  O   UNL     1      -2.956  10.737  32.423  0.00  0.00    -0.390 OA
ATOM     20  H   UNL     1      -2.100  10.645  32.847  0.00  0.00    +0.210 HD
ENDBRANCH   9  19
BRANCH   7  21
ATOM     21  O   UNL     1      -4.355   7.286  29.326  0.00  0.00    -0.343 OA
ATOM     22  C   UNL     1      -5.221   7.227  28.164  0.00  0.00    +0.198 C 
ENDBRANCH   7  21
ENDBRANCH   4   5
BRANCH   4  23
ATOM     23  O   UNL     1      -5.486  11.144  27.237  0.00  0.00    -0.387 OA
ATOM     24  H   UNL     1      -5.803  10.519  27.892  0.00  0.00    +0.210 HD
ENDBRANCH   4  23
ENDBRANCH   1   4
BRANCH   1  25
ATOM     25  C   UNL     1      -2.828  10.889  25.876  0.00  0.00    +0.141 C 
BRANCH  25  28
ATOM     26  C   UNL     1      -3.922   8.911  24.878  0.00  0.00    +0.401 C 
ATOM     27  O   UNL     1      -3.168   8.102  25.424  0.00  0.00    -0.226 OA
ATOM     28  N   UNL     1      -3.831  10.233  25.028  0.00  0.00    -0.279 N 
ATOM     29  H   UNL     1      -4.489  10.816  24.531  0.00  0.00    +0.152 HD
BRANCH  26  30
ATOM     30  O   UNL     1      -4.961   8.426  24.024  0.00  0.00    -0.444 OA
BRANCH  30  31
ATOM     31  C   UNL     1      -6.190   9.082  24.345  0.00  0.00    +0.292 C 
BRANCH  31  33
ATOM     32  N   UNL     1      -6.181  11.543  24.014  0.00  0.00    -0.131 NA
ATOM     33  C   UNL     1      -6.374  10.285  23.509  0.00  0.00    +0.120 A 
ATOM     34  C   UNL     1      -6.659  10.380  22.164  0.00  0.00    +0.137 A 
ATOM     35  N   UNL     1      -6.442  11.699  21.883  0.00  0.00    -0.251 N 
ATOM     36  N   UNL     1      -6.251  12.407  23.011  0.00  0.00    -0.065 NA
BRANCH  35  37
ATOM     37  C   UNL     1      -6.087  12.268  20.597  0.00  0.00    +0.149 C 
BRANCH  37  38
ATOM     38  C   UNL     1      -4.844  11.655  19.917  0.00  0.00    +0.021 C 
BRANCH  38  39
ATOM     39  C   UNL     1      -3.512  12.117  20.542  0.00  0.00    +0.125 C 
BRANCH  39  40
ATOM     40  C   UNL     1      -3.135  11.410  21.828  0.00  0.00    +0.305 C 
ATOM     41  O   UNL     1      -2.871  10.222  21.921  0.00  0.00    -0.251 OA
BRANCH  40  42
ATOM     42  O   UNL     1      -3.049  12.244  22.880  0.00  0.00    -0.481 OA
ATOM     43  H   UNL     1      -2.458  13.010  22.762  0.00  0.00    +0.295 HD
ENDBRANCH  40  42
ENDBRANCH  39  40
ENDBRANCH  38  39
BRANCH  38  44
ATOM     44  C   UNL     1      -4.921  11.917  18.384  0.00  0.00    +0.009 C 
BRANCH  44  45
ATOM     45  C   UNL     1      -5.134  10.672  17.497  0.00  0.00    -0.017 C 
ATOM     46  C   UNL     1      -4.087  10.566  16.387  0.00  0.00    +0.007 C 
ATOM     47  C   UNL     1      -5.095   9.394  18.344  0.00  0.00    +0.007 C 
ENDBRANCH  44  45
ENDBRANCH  38  44
ENDBRANCH  37  38
ENDBRANCH  35  37
ENDBRANCH  31  33
ENDBRANCH  30  31
ENDBRANCH  26  30
ENDBRANCH  25  28
ENDBRANCH   1  25
TORSDOF 20
