REMARK VINA RESULT:    -5.794      0.000      0.000
REMARK INTER + INTRA:         -11.865
REMARK INTER:                  -8.780
REMARK INTRA:                  -3.085
REMARK UNBOUND:                -1.837
REMARK  Name = lig_assembled_2.pdb
REMARK  16 active torsions:
REMARK  status: ('A' for Active; 'I' for Inactive)
REMARK    1  A    between atoms: _2  and  _9
REMARK    2  A    between atoms: _4  and  _18
REMARK    3  A    between atoms: _6  and  _7
REMARK    4  A    between atoms: _6  and  _18
REMARK    5  A    between atoms: _14  and  _34
REMARK    6  A    between atoms: _16  and  _22
REMARK    7  A    between atoms: _17  and  _21
REMARK    8  A    between atoms: _21  and  _22
REMARK    9  A    between atoms: _24  and  _25
REMARK   10  A    between atoms: _26  and  _27
REMARK   11  A    between atoms: _28  and  _30
REMARK   12  A    between atoms: _30  and  _31
REMARK   13  A    between atoms: _30  and  _32
REMARK   14  A    between atoms: _32  and  _33
REMARK   15  A    between atoms: _32  and  _34
REMARK   16  A    between atoms: _35  and  _37
REMARK                            x       y       z     vdW  Elec       q    Type
REMARK                         _______ _______ _______ _____ _____    ______ ____
ROOT
ATOM      1  C   UNL     1      -1.872   8.538  13.621  0.00  0.00    +0.163 C 
ENDROOT
BRANCH   1   2
ATOM      2  O   UNL     1      -2.049   8.211  12.233  0.00  0.00    -0.388 OA
ATOM      3  H   UNL     1      -2.431   8.962  11.772  0.00  0.00    +0.210 HD
ENDBRANCH   1   2
BRANCH   1   4
ATOM      4  C   UNL     1      -1.925   7.270  14.467  0.00  0.00    +0.141 C 
BRANCH   4   7
ATOM      5  C   UNL     1      -3.171   6.716  16.528  0.00  0.00    +0.401 C 
ATOM      6  O   UNL     1      -2.189   6.247  17.107  0.00  0.00    -0.226 OA
ATOM      7  N   UNL     1      -3.139   7.211  15.290  0.00  0.00    -0.279 N 
ATOM      8  H   UNL     1      -3.999   7.566  14.896  0.00  0.00    +0.152 HD
BRANCH   5   9
ATOM      9  O   UNL     1      -4.431   6.738  17.203  0.00  0.00    -0.444 OA
BRANCH   9  10
ATOM     10  C   UNL     1      -5.259   7.757  16.636  0.00  0.00    +0.292 C 
BRANCH  10  12
ATOM     11  N   UNL     1      -6.805   8.924  18.176  0.00  0.00    -0.131 NA
ATOM     12  C   UNL     1      -5.556   8.795  17.642  0.00  0.00    +0.121 A 
ATOM     13  C   UNL     1      -4.727   9.740  18.201  0.00  0.00    +0.143 A 
ATOM     14  N   UNL     1      -5.517  10.414  19.104  0.00  0.00    -0.220 N 
ATOM     15  N   UNL     1      -6.775   9.913  19.058  0.00  0.00    -0.060 NA
BRANCH  14  16
ATOM     16  C   UNL     1      -5.152  11.453  20.001  0.00  0.00    +0.067 A 
ATOM     17  C   UNL     1      -6.120  12.313  20.540  0.00  0.00    +0.029 A 
ATOM     18  C   UNL     1      -5.735  13.353  21.392  0.00  0.00    +0.022 A 
ATOM     19  C   UNL     1      -4.390  13.536  21.708  0.00  0.00    +0.041 A 
ATOM     20 CL   UNL     1      -3.924  14.832  22.738  0.00  0.00    -0.084 Cl
ATOM     21  C   UNL     1      -3.423  12.679  21.189  0.00  0.00    +0.022 A 
ATOM     22  C   UNL     1      -3.800  11.636  20.338  0.00  0.00    +0.029 A 
ENDBRANCH  14  16
ENDBRANCH  10  12
ENDBRANCH   9  10
ENDBRANCH   5   9
ENDBRANCH   4   7
ENDBRANCH   1   4
BRANCH   1  23
ATOM     23  C   UNL     1      -2.957   9.519  14.097  0.00  0.00    +0.175 C 
BRANCH  23  24
ATOM     24  C   UNL     1      -3.247  10.611  13.056  0.00  0.00    +0.176 C 
ATOM     25  O   UNL     1      -1.974  11.069  12.523  0.00  0.00    -0.332 OA
ATOM     26  C   UNL     1      -2.058  12.045  11.432  0.00  0.00    +0.277 C 
ATOM     27  C   UNL     1      -2.915  13.261  11.859  0.00  0.00    +0.110 C 
ATOM     28  C   UNL     1      -4.266  12.823  12.462  0.00  0.00    +0.143 C 
ATOM     29  C   UNL     1      -4.061  11.806  13.585  0.00  0.00    +0.133 C 
BRANCH  29  30
ATOM     30  N   UNL     1      -5.358  11.331  14.093  0.00  0.00    -0.308 N 
ATOM     31  H   UNL     1      -5.912  10.739  13.490  0.00  0.00    +0.149 HD
ATOM     32  C   UNL     1      -5.851  11.631  15.298  0.00  0.00    +0.210 C 
ATOM     33  C   UNL     1      -4.994  12.556  16.182  0.00  0.00    +0.109 C 
ATOM     34  O   UNL     1      -6.934  11.206  15.702  0.00  0.00    -0.276 OA
ENDBRANCH  29  30
BRANCH  26  35
ATOM     35  C   UNL     1      -2.668  11.402  10.169  0.00  0.00    +0.414 C 
ATOM     36  O   UNL     1      -3.150  12.108   9.285  0.00  0.00    -0.240 OA
ATOM     37  O   UNL     1      -2.679  10.177  10.035  0.00  0.00    -0.240 OA
ENDBRANCH  26  35
BRANCH  28  38
ATOM     38  O   UNL     1      -4.955  13.962  12.978  0.00  0.00    -0.390 OA
ATOM     39  H   UNL     1      -4.528  14.257  13.786  0.00  0.00    +0.210 HD
ENDBRANCH  28  38
BRANCH  26  40
ATOM     40  O   UNL     1      -0.715  12.510  11.142  0.00  0.00    -0.343 OA
ATOM     41  C   UNL     1      -0.519  13.940  11.283  0.00  0.00    +0.198 C 
ENDBRANCH  26  40
ENDBRANCH  23  24
BRANCH  23  42
ATOM     42  O   UNL     1      -2.570  10.118  15.350  0.00  0.00    -0.387 OA
ATOM     43  H   UNL     1      -2.285   9.432  15.958  0.00  0.00    +0.210 HD
ENDBRANCH  23  42
ENDBRANCH   1  23
TORSDOF 14
