REMARK VINA RESULT:    -4.995      0.000      0.000
REMARK INTER + INTRA:         -12.018
REMARK INTER:                  -8.260
REMARK INTRA:                  -3.759
REMARK UNBOUND:                -2.934
REMARK  Name = lig_assembled_72.pdb
REMARK  20 active torsions:
REMARK  status: ('A' for Active; 'I' for Inactive)
REMARK    1  A    between atoms: _2  and  _9
REMARK    2  A    between atoms: _4  and  _17
REMARK    3  A    between atoms: _5  and  _9
REMARK    4  A    between atoms: _5  and  _12
REMARK    5  A    between atoms: _6  and  _7
REMARK    6  A    between atoms: _6  and  _17
REMARK    7  A    between atoms: _9  and  _10
REMARK    8  A    between atoms: _9  and  _11
REMARK    9  A    between atoms: _13  and  _33
REMARK   10  A    between atoms: _15  and  _21
REMARK   11  A    between atoms: _16  and  _20
REMARK   12  A    between atoms: _20  and  _21
REMARK   13  A    between atoms: _23  and  _24
REMARK   14  A    between atoms: _25  and  _26
REMARK   15  A    between atoms: _27  and  _29
REMARK   16  A    between atoms: _29  and  _30
REMARK   17  A    between atoms: _29  and  _31
REMARK   18  A    between atoms: _31  and  _32
REMARK   19  A    between atoms: _31  and  _33
REMARK   20  A    between atoms: _34  and  _36
REMARK                            x       y       z     vdW  Elec       q    Type
REMARK                         _______ _______ _______ _____ _____    ______ ____
ROOT
ATOM      1  C   UNL     1      -4.433  11.786  25.564  0.00  0.00    +0.163 C 
ENDROOT
BRANCH   1   2
ATOM      2  O   UNL     1      -3.467  10.765  25.268  0.00  0.00    -0.388 OA
ATOM      3  H   UNL     1      -3.837  10.147  24.633  0.00  0.00    +0.210 HD
ENDBRANCH   1   2
BRANCH   1   4
ATOM      4  C   UNL     1      -4.531  12.028  27.081  0.00  0.00    +0.175 C 
BRANCH   4   5
ATOM      5  C   UNL     1      -3.772  10.963  27.886  0.00  0.00    +0.176 C 
ATOM      6  O   UNL     1      -4.342   9.666  27.560  0.00  0.00    -0.332 OA
ATOM      7  C   UNL     1      -3.669   8.509  28.159  0.00  0.00    +0.277 C 
ATOM      8  C   UNL     1      -3.582   8.671  29.697  0.00  0.00    +0.110 C 
ATOM      9  C   UNL     1      -3.011  10.049  30.093  0.00  0.00    +0.143 C 
ATOM     10  C   UNL     1      -3.783  11.179  29.411  0.00  0.00    +0.133 C 
BRANCH  10  11
ATOM     11  N   UNL     1      -3.176  12.482  29.727  0.00  0.00    -0.308 N 
ATOM     12  H   UNL     1      -2.225  12.645  29.425  0.00  0.00    +0.149 HD
ATOM     13  C   UNL     1      -3.798  13.462  30.386  0.00  0.00    +0.210 C 
ATOM     14  C   UNL     1      -5.237  13.173  30.855  0.00  0.00    +0.109 C 
ATOM     15  O   UNL     1      -3.270  14.549  30.624  0.00  0.00    -0.276 OA
ENDBRANCH  10  11
BRANCH   7  16
ATOM     16  C   UNL     1      -2.250   8.339  27.577  0.00  0.00    +0.414 C 
ATOM     17  O   UNL     1      -1.286   8.191  28.327  0.00  0.00    -0.240 OA
ATOM     18  O   UNL     1      -2.070   8.351  26.359  0.00  0.00    -0.240 OA
ENDBRANCH   7  16
BRANCH   9  19
ATOM     19  O   UNL     1      -3.089  10.214  31.509  0.00  0.00    -0.390 OA
ATOM     20  H   UNL     1      -3.999  10.387  31.762  0.00  0.00    +0.210 HD
ENDBRANCH   9  19
BRANCH   7  21
ATOM     21  O   UNL     1      -4.461   7.329  27.868  0.00  0.00    -0.343 OA
ATOM     22  C   UNL     1      -3.953   6.095  28.436  0.00  0.00    +0.198 C 
ENDBRANCH   7  21
ENDBRANCH   4   5
BRANCH   4  23
ATOM     23  O   UNL     1      -5.913  12.068  27.489  0.00  0.00    -0.387 OA
ATOM     24  H   UNL     1      -6.094  11.334  28.081  0.00  0.00    +0.210 HD
ENDBRANCH   4  23
ENDBRANCH   1   4
BRANCH   1  25
ATOM     25  C   UNL     1      -4.050  13.086  24.865  0.00  0.00    +0.141 C 
BRANCH  25  28
ATOM     26  C   UNL     1      -3.921  13.153  22.398  0.00  0.00    +0.401 C 
ATOM     27  O   UNL     1      -5.032  13.670  22.260  0.00  0.00    -0.226 OA
ATOM     28  N   UNL     1      -3.385  12.841  23.579  0.00  0.00    -0.279 N 
ATOM     29  H   UNL     1      -2.471  12.411  23.590  0.00  0.00    +0.152 HD
BRANCH  26  30
ATOM     30  O   UNL     1      -3.142  12.859  21.236  0.00  0.00    -0.444 OA
BRANCH  30  31
ATOM     31  C   UNL     1      -3.811  11.867  20.452  0.00  0.00    +0.292 C 
BRANCH  31  33
ATOM     32  N   UNL     1      -3.009  10.123  22.012  0.00  0.00    -0.131 NA
ATOM     33  C   UNL     1      -4.015  10.640  21.243  0.00  0.00    +0.120 A 
ATOM     34  C   UNL     1      -5.131   9.841  21.368  0.00  0.00    +0.137 A 
ATOM     35  N   UNL     1      -4.742   8.851  22.229  0.00  0.00    -0.244 N 
ATOM     36  N   UNL     1      -3.462   9.032  22.608  0.00  0.00    -0.065 NA
BRANCH  35  37
ATOM     37  C   UNL     1      -5.534   7.718  22.729  0.00  0.00    +0.083 C 
ATOM     38  C   UNL     1      -5.448   6.556  21.721  0.00  0.00    +0.038 C 
ATOM     39  C   UNL     1      -7.005   8.147  22.894  0.00  0.00    +0.038 C 
BRANCH  37  40
ATOM     40  C   UNL     1      -4.998   7.202  24.093  0.00  0.00    +0.185 C 
BRANCH  40  41
ATOM     41  O   UNL     1      -4.815   8.249  25.044  0.00  0.00    -0.393 OA
ATOM     42  H   UNL     1      -3.877   8.193  25.329  0.00  0.00    +0.209 HD
ENDBRANCH  40  41
ENDBRANCH  37  40
ENDBRANCH  35  37
ENDBRANCH  31  33
ENDBRANCH  30  31
ENDBRANCH  26  30
ENDBRANCH  25  28
ENDBRANCH   1  25
TORSDOF 16
