REMARK VINA RESULT:    -5.715      0.000      0.000
REMARK INTER + INTRA:         -12.529
REMARK INTER:                  -8.922
REMARK INTRA:                  -3.607
REMARK UNBOUND:                -2.303
REMARK  Name = lig_assembled_4.pdb
REMARK  19 active torsions:
REMARK  status: ('A' for Active; 'I' for Inactive)
REMARK    1  A    between atoms: _2  and  _9
REMARK    2  A    between atoms: _4  and  _21
REMARK    3  A    between atoms: _6  and  _7
REMARK    4  A    between atoms: _6  and  _21
REMARK    5  A    between atoms: _10  and  _11
REMARK    6  A    between atoms: _11  and  _12
REMARK    7  A    between atoms: _11  and  _13
REMARK    8  A    between atoms: _17  and  _37
REMARK    9  A    between atoms: _19  and  _25
REMARK   10  A    between atoms: _20  and  _24
REMARK   11  A    between atoms: _24  and  _25
REMARK   12  A    between atoms: _27  and  _28
REMARK   13  A    between atoms: _29  and  _30
REMARK   14  A    between atoms: _31  and  _33
REMARK   15  A    between atoms: _33  and  _34
REMARK   16  A    between atoms: _33  and  _35
REMARK   17  A    between atoms: _35  and  _36
REMARK   18  A    between atoms: _35  and  _37
REMARK   19  A    between atoms: _38  and  _40
REMARK                            x       y       z     vdW  Elec       q    Type
REMARK                         _______ _______ _______ _____ _____    ______ ____
ROOT
ATOM      1  C   UNL     1      -6.684   8.766  23.793  0.00  0.00    +0.163 C 
ENDROOT
BRANCH   1   2
ATOM      2  O   UNL     1      -5.970   9.011  25.015  0.00  0.00    -0.388 OA
ATOM      3  H   UNL     1      -5.890   8.192  25.510  0.00  0.00    +0.210 HD
ENDBRANCH   1   2
BRANCH   1   4
ATOM      4  C   UNL     1      -6.238   7.440  23.185  0.00  0.00    +0.141 C 
BRANCH   4   7
ATOM      5  C   UNL     1      -3.815   7.061  23.484  0.00  0.00    +0.401 C 
ATOM      6  O   UNL     1      -3.495   7.704  22.481  0.00  0.00    -0.226 OA
ATOM      7  N   UNL     1      -5.074   6.882  23.884  0.00  0.00    -0.279 N 
ATOM      8  H   UNL     1      -5.236   6.330  24.715  0.00  0.00    +0.152 HD
BRANCH   5   9
ATOM      9  O   UNL     1      -2.790   6.460  24.279  0.00  0.00    -0.444 OA
BRANCH   9  10
ATOM     10  C   UNL     1      -3.347   6.013  25.518  0.00  0.00    +0.292 C 
BRANCH  10  12
ATOM     11  N   UNL     1      -1.783   7.481  26.740  0.00  0.00    -0.131 NA
ATOM     12  C   UNL     1      -3.033   6.962  26.602  0.00  0.00    +0.121 A 
ATOM     13  C   UNL     1      -3.834   7.438  27.616  0.00  0.00    +0.143 A 
ATOM     14  N   UNL     1      -2.981   8.153  28.435  0.00  0.00    -0.219 N 
ATOM     15  N   UNL     1      -1.770   8.223  27.840  0.00  0.00    -0.060 NA
BRANCH  14  16
ATOM     16  C   UNL     1      -3.274   8.718  29.713  0.00  0.00    +0.070 A 
ATOM     17  C   UNL     1      -3.762  10.041  29.888  0.00  0.00    -0.019 A 
ATOM     18  C   UNL     1      -3.981  10.485  31.212  0.00  0.00    +0.006 A 
ATOM     19  C   UNL     1      -3.720   9.676  32.319  0.00  0.00    +0.000 A 
ATOM     20  C   UNL     1      -3.251   8.384  32.135  0.00  0.00    +0.002 A 
ATOM     21  C   UNL     1      -3.027   7.908  30.845  0.00  0.00    +0.028 A 
BRANCH  17  22
ATOM     22  C   UNL     1      -4.054  11.011  28.742  0.00  0.00    +0.015 C 
ATOM     23  C   UNL     1      -3.802  12.493  29.062  0.00  0.00    +0.012 C 
ATOM     24  C   UNL     1      -5.492  10.824  28.252  0.00  0.00    +0.012 C 
ENDBRANCH  17  22
ENDBRANCH  14  16
ENDBRANCH  10  12
ENDBRANCH   9  10
ENDBRANCH   5   9
ENDBRANCH   4   7
ENDBRANCH   1   4
BRANCH   1  25
ATOM     25  C   UNL     1      -6.450   9.900  22.781  0.00  0.00    +0.175 C 
BRANCH  25  26
ATOM     26  C   UNL     1      -5.126  10.637  23.035  0.00  0.00    +0.176 C 
ATOM     27  O   UNL     1      -5.339  11.576  24.124  0.00  0.00    -0.332 OA
ATOM     28  C   UNL     1      -4.148  12.299  24.580  0.00  0.00    +0.277 C 
ATOM     29  C   UNL     1      -3.466  13.021  23.391  0.00  0.00    +0.110 C 
ATOM     30  C   UNL     1      -3.248  12.070  22.196  0.00  0.00    +0.143 C 
ATOM     31  C   UNL     1      -4.550  11.368  21.809  0.00  0.00    +0.133 C 
BRANCH  31  32
ATOM     32  N   UNL     1      -4.311  10.401  20.726  0.00  0.00    -0.308 N 
ATOM     33  H   UNL     1      -3.735   9.597  20.931  0.00  0.00    +0.149 HD
ATOM     34  C   UNL     1      -4.807  10.515  19.491  0.00  0.00    +0.210 C 
ATOM     35  C   UNL     1      -5.661  11.764  19.204  0.00  0.00    +0.109 C 
ATOM     36  O   UNL     1      -4.603   9.681  18.609  0.00  0.00    -0.276 OA
ENDBRANCH  31  32
BRANCH  28  37
ATOM     37  C   UNL     1      -3.142  11.335  25.242  0.00  0.00    +0.414 C 
ATOM     38  O   UNL     1      -2.007  11.718  25.521  0.00  0.00    -0.240 OA
ATOM     39  O   UNL     1      -3.466  10.174  25.498  0.00  0.00    -0.240 OA
ENDBRANCH  28  37
BRANCH  30  40
ATOM     40  O   UNL     1      -2.760  12.808  21.076  0.00  0.00    -0.390 OA
ATOM     41  H   UNL     1      -3.468  12.932  20.440  0.00  0.00    +0.210 HD
ENDBRANCH  30  40
BRANCH  28  42
ATOM     42  O   UNL     1      -4.571  13.300  25.541  0.00  0.00    -0.343 OA
ATOM     43  C   UNL     1      -5.976  13.653  25.480  0.00  0.00    +0.198 C 
ENDBRANCH  28  42
ENDBRANCH  25  26
BRANCH  25  44
ATOM     44  O   UNL     1      -7.550  10.831  22.814  0.00  0.00    -0.387 OA
ATOM     45  H   UNL     1      -7.454  11.414  23.571  0.00  0.00    +0.210 HD
ENDBRANCH  25  44
ENDBRANCH   1  25
TORSDOF 15
