REMARK VINA RESULT:    -5.217      0.000      0.000
REMARK INTER + INTRA:         -12.126
REMARK INTER:                  -9.272
REMARK INTRA:                  -2.854
REMARK UNBOUND:                -2.792
REMARK  Name = lig_assembled_5.pdb
REMARK  18 active torsions:
REMARK  status: ('A' for Active; 'I' for Inactive)
REMARK    1  A    between atoms: _2  and  _9
REMARK    2  A    between atoms: _4  and  _20
REMARK    3  A    between atoms: _6  and  _7
REMARK    4  A    between atoms: _6  and  _20
REMARK    5  A    between atoms: _12  and  _15
REMARK    6  A    between atoms: _13  and  _15
REMARK    7  A    between atoms: _16  and  _36
REMARK    8  A    between atoms: _18  and  _24
REMARK    9  A    between atoms: _19  and  _23
REMARK   10  A    between atoms: _23  and  _24
REMARK   11  A    between atoms: _26  and  _27
REMARK   12  A    between atoms: _28  and  _29
REMARK   13  A    between atoms: _30  and  _32
REMARK   14  A    between atoms: _32  and  _33
REMARK   15  A    between atoms: _32  and  _34
REMARK   16  A    between atoms: _34  and  _35
REMARK   17  A    between atoms: _34  and  _36
REMARK   18  A    between atoms: _37  and  _39
REMARK                            x       y       z     vdW  Elec       q    Type
REMARK                         _______ _______ _______ _____ _____    ______ ____
ROOT
ATOM      1  C   UNL     1      -6.612   8.881  23.241  0.00  0.00    +0.163 C 
ENDROOT
BRANCH   1   2
ATOM      2  O   UNL     1      -6.347   9.101  24.636  0.00  0.00    -0.388 OA
ATOM      3  H   UNL     1      -5.466   9.468  24.741  0.00  0.00    +0.210 HD
ENDBRANCH   1   2
BRANCH   1   4
ATOM      4  C   UNL     1      -5.701   7.782  22.704  0.00  0.00    +0.141 C 
BRANCH   4   7
ATOM      5  C   UNL     1      -3.668   6.567  23.409  0.00  0.00    +0.401 C 
ATOM      6  O   UNL     1      -3.485   6.044  22.307  0.00  0.00    -0.226 OA
ATOM      7  N   UNL     1      -4.682   7.388  23.685  0.00  0.00    -0.279 N 
ATOM      8  H   UNL     1      -4.753   7.761  24.621  0.00  0.00    +0.152 HD
BRANCH   5   9
ATOM      9  O   UNL     1      -2.752   6.288  24.471  0.00  0.00    -0.444 OA
BRANCH   9  10
ATOM     10  C   UNL     1      -3.467   6.199  25.707  0.00  0.00    +0.292 C 
BRANCH  10  12
ATOM     11  N   UNL     1      -1.766   7.734  26.642  0.00  0.00    -0.131 NA
ATOM     12  C   UNL     1      -3.054   7.285  26.616  0.00  0.00    +0.121 A 
ATOM     13  C   UNL     1      -3.797   8.001  27.525  0.00  0.00    +0.143 A 
ATOM     14  N   UNL     1      -2.917   8.908  28.070  0.00  0.00    -0.220 N 
ATOM     15  N   UNL     1      -1.688   8.714  27.532  0.00  0.00    -0.060 NA
BRANCH  14  16
ATOM     16  C   UNL     1      -3.171   9.934  29.018  0.00  0.00    +0.067 A 
ATOM     17  C   UNL     1      -3.634  11.190  28.608  0.00  0.00    +0.031 A 
ATOM     18  C   UNL     1      -3.820  12.205  29.550  0.00  0.00    +0.048 A 
ATOM     19  C   UNL     1      -3.570  11.979  30.905  0.00  0.00    +0.120 A 
ATOM     20  C   UNL     1      -3.126  10.725  31.318  0.00  0.00    +0.048 A 
ATOM     21  C   UNL     1      -2.925   9.703  30.380  0.00  0.00    +0.031 A 
BRANCH  19  22
ATOM     22  O   UNL     1      -3.732  13.074  31.709  0.00  0.00    -0.495 OA
ATOM     23  C   UNL     1      -3.056  14.257  31.307  0.00  0.00    +0.277 C 
ENDBRANCH  19  22
ENDBRANCH  14  16
ENDBRANCH  10  12
ENDBRANCH   9  10
ENDBRANCH   5   9
ENDBRANCH   4   7
ENDBRANCH   1   4
BRANCH   1  24
ATOM     24  C   UNL     1      -6.396  10.170  22.430  0.00  0.00    +0.175 C 
BRANCH  24  25
ATOM     25  C   UNL     1      -5.031  10.813  22.718  0.00  0.00    +0.176 C 
ATOM     26  O   UNL     1      -5.175  11.661  23.891  0.00  0.00    -0.332 OA
ATOM     27  C   UNL     1      -3.939  12.279  24.381  0.00  0.00    +0.277 C 
ATOM     28  C   UNL     1      -3.242  13.069  23.247  0.00  0.00    +0.110 C 
ATOM     29  C   UNL     1      -3.095  12.218  21.967  0.00  0.00    +0.143 C 
ATOM     30  C   UNL     1      -4.439  11.621  21.548  0.00  0.00    +0.133 C 
BRANCH  30  31
ATOM     31  N   UNL     1      -4.271  10.743  20.380  0.00  0.00    -0.308 N 
ATOM     32  H   UNL     1      -3.601   9.989  20.449  0.00  0.00    +0.149 HD
ATOM     33  C   UNL     1      -4.945  10.876  19.234  0.00  0.00    +0.210 C 
ATOM     34  C   UNL     1      -5.938  12.050  19.152  0.00  0.00    +0.109 C 
ATOM     35  O   UNL     1      -4.794  10.117  18.277  0.00  0.00    -0.276 OA
ENDBRANCH  30  31
BRANCH  27  36
ATOM     36  C   UNL     1      -2.974  11.209  24.933  0.00  0.00    +0.414 C 
ATOM     37  O   UNL     1      -1.978  11.544  25.573  0.00  0.00    -0.240 OA
ATOM     38  O   UNL     1      -3.192  10.012  24.740  0.00  0.00    -0.240 OA
ENDBRANCH  27  36
BRANCH  27  39
ATOM     39  O   UNL     1      -4.292  13.210  25.437  0.00  0.00    -0.343 OA
ATOM     40  C   UNL     1      -5.647  13.083  25.938  0.00  0.00    +0.198 C 
ENDBRANCH  27  39
BRANCH  29  41
ATOM     41  O   UNL     1      -2.588  13.027  20.906  0.00  0.00    -0.390 OA
ATOM     42  H   UNL     1      -3.210  13.734  20.716  0.00  0.00    +0.210 HD
ENDBRANCH  29  41
ENDBRANCH  24  25
BRANCH  24  43
ATOM     43  O   UNL     1      -7.454  11.110  22.700  0.00  0.00    -0.387 OA
ATOM     44  H   UNL     1      -7.127  12.005  22.580  0.00  0.00    +0.210 HD
ENDBRANCH  24  43
ENDBRANCH   1  24
TORSDOF 15
