REMARK VINA RESULT:    -5.827      0.000      0.000
REMARK INTER + INTRA:         -15.446
REMARK INTER:                 -10.348
REMARK INTRA:                  -5.098
REMARK UNBOUND:                -3.487
REMARK  Name = lig_assembled_90.pdb
REMARK  22 active torsions:
REMARK  status: ('A' for Active; 'I' for Inactive)
REMARK    1  A    between atoms: _2  and  _13
REMARK    2  A    between atoms: _3  and  _15
REMARK    3  A    between atoms: _4  and  _17
REMARK    4  A    between atoms: _8  and  _28
REMARK    5  A    between atoms: _10  and  _11
REMARK    6  A    between atoms: _10  and  _28
REMARK    7  A    between atoms: _13  and  _14
REMARK    8  A    between atoms: _15  and  _16
REMARK    9  A    between atoms: _16  and  _17
REMARK   10  A    between atoms: _16  and  _22
REMARK   11  A    between atoms: _24  and  _44
REMARK   12  A    between atoms: _26  and  _32
REMARK   13  A    between atoms: _27  and  _31
REMARK   14  A    between atoms: _31  and  _32
REMARK   15  A    between atoms: _34  and  _35
REMARK   16  A    between atoms: _36  and  _37
REMARK   17  A    between atoms: _38  and  _40
REMARK   18  A    between atoms: _40  and  _41
REMARK   19  A    between atoms: _40  and  _42
REMARK   20  A    between atoms: _42  and  _43
REMARK   21  A    between atoms: _42  and  _44
REMARK   22  A    between atoms: _45  and  _47
REMARK                            x       y       z     vdW  Elec       q    Type
REMARK                         _______ _______ _______ _____ _____    ______ ____
ROOT
ATOM      1  C   UNL     1      -4.031   7.126  23.390  0.00  0.00    +0.401 C 
ATOM      2  O   UNL     1      -3.833   7.811  22.384  0.00  0.00    -0.226 OA
ATOM      3  N   UNL     1      -5.230   6.946  23.946  0.00  0.00    -0.279 N 
ATOM      4  H   UNL     1      -5.293   6.358  24.765  0.00  0.00    +0.152 HD
ENDROOT
BRANCH   3   5
ATOM      5  C   UNL     1      -6.464   7.556  23.435  0.00  0.00    +0.141 C 
BRANCH   5   6
ATOM      6  C   UNL     1      -6.929   8.717  24.307  0.00  0.00    +0.163 C 
BRANCH   6   7
ATOM      7  O   UNL     1      -6.226   8.702  25.560  0.00  0.00    -0.388 OA
ATOM      8  H   UNL     1      -6.794   9.052  26.251  0.00  0.00    +0.210 HD
ENDBRANCH   6   7
BRANCH   6   9
ATOM      9  C   UNL     1      -6.700  10.043  23.563  0.00  0.00    +0.175 C 
BRANCH   9  10
ATOM     10  C   UNL     1      -5.353  10.685  23.927  0.00  0.00    +0.176 C 
ATOM     11  O   UNL     1      -5.570  11.566  25.063  0.00  0.00    -0.332 OA
ATOM     12  C   UNL     1      -4.367  12.190  25.621  0.00  0.00    +0.277 C 
ATOM     13  C   UNL     1      -3.587  12.944  24.516  0.00  0.00    +0.110 C 
ATOM     14  C   UNL     1      -3.359  12.057  23.273  0.00  0.00    +0.143 C 
ATOM     15  C   UNL     1      -4.676  11.457  22.779  0.00  0.00    +0.133 C 
BRANCH  15  16
ATOM     16  N   UNL     1      -4.435  10.546  21.649  0.00  0.00    -0.308 N 
ATOM     17  H   UNL     1      -3.883   9.718  21.821  0.00  0.00    +0.149 HD
ATOM     18  C   UNL     1      -4.898  10.742  20.412  0.00  0.00    +0.210 C 
ATOM     19  C   UNL     1      -5.714  12.028  20.177  0.00  0.00    +0.109 C 
ATOM     20  O   UNL     1      -4.693   9.955  19.488  0.00  0.00    -0.276 OA
ENDBRANCH  15  16
BRANCH  12  21
ATOM     21  C   UNL     1      -3.450  11.130  26.267  0.00  0.00    +0.414 C 
ATOM     22  O   UNL     1      -3.937  10.167  26.858  0.00  0.00    -0.240 OA
ATOM     23  O   UNL     1      -2.225  11.238  26.197  0.00  0.00    -0.240 OA
ENDBRANCH  12  21
BRANCH  14  24
ATOM     24  O   UNL     1      -2.775  12.835  22.227  0.00  0.00    -0.390 OA
ATOM     25  H   UNL     1      -2.516  12.257  21.505  0.00  0.00    +0.210 HD
ENDBRANCH  14  24
BRANCH  12  26
ATOM     26  O   UNL     1      -4.783  13.152  26.624  0.00  0.00    -0.343 OA
ATOM     27  C   UNL     1      -6.149  13.002  27.086  0.00  0.00    +0.198 C 
ENDBRANCH  12  26
ENDBRANCH   9  10
BRANCH   9  28
ATOM     28  O   UNL     1      -7.778  10.960  23.838  0.00  0.00    -0.387 OA
ATOM     29  H   UNL     1      -8.232  10.689  24.639  0.00  0.00    +0.210 HD
ENDBRANCH   9  28
ENDBRANCH   6   9
ENDBRANCH   5   6
ENDBRANCH   3   5
BRANCH   1  30
ATOM     30  O   UNL     1      -2.923   6.471  24.013  0.00  0.00    -0.444 OA
BRANCH  30  31
ATOM     31  C   UNL     1      -3.370   5.791  25.189  0.00  0.00    +0.292 C 
BRANCH  31  33
ATOM     32  N   UNL     1      -1.902   7.443  26.315  0.00  0.00    -0.131 NA
ATOM     33  C   UNL     1      -2.856   6.462  26.399  0.00  0.00    +0.120 A 
ATOM     34  C   UNL     1      -3.184   6.268  27.722  0.00  0.00    +0.137 A 
ATOM     35  N   UNL     1      -2.415   7.173  28.390  0.00  0.00    -0.242 N 
ATOM     36  N   UNL     1      -1.631   7.865  27.544  0.00  0.00    -0.065 NA
BRANCH  35  37
ATOM     37  C   UNL     1      -2.291   7.362  29.814  0.00  0.00    +0.240 C 
BRANCH  37  38
ATOM     38  C   UNL     1      -3.499   8.070  30.383  0.00  0.00    +0.235 C 
ATOM     39  O   UNL     1      -4.049   7.711  31.423  0.00  0.00    -0.274 OA
ATOM     40  N   UNL     1      -3.912   9.187  29.682  0.00  0.00    -0.311 N 
ATOM     41  H   UNL     1      -3.622   9.288  28.712  0.00  0.00    +0.149 HD
BRANCH  40  42
ATOM     42  C   UNL     1      -5.114   9.906  30.079  0.00  0.00    +0.137 C 
BRANCH  42  43
ATOM     43  C   UNL     1      -4.769  11.140  30.927  0.00  0.00    +0.151 C 
BRANCH  43  44
ATOM     44  O   UNL     1      -4.285  10.698  32.202  0.00  0.00    -0.388 OA
ATOM     45  H   UNL     1      -4.279   9.720  32.217  0.00  0.00    +0.210 HD
ENDBRANCH  43  44
BRANCH  43  46
ATOM     46  C   UNL     1      -3.747  12.043  30.226  0.00  0.00    +0.162 C 
BRANCH  46  47
ATOM     47  N   UNL     1      -3.830  13.427  30.671  0.00  0.00    -0.269 N 
ATOM     48  C   UNL     1      -4.744  14.325  30.164  0.00  0.00    +0.113 A 
ATOM     49  C   UNL     1      -4.482  15.519  30.792  0.00  0.00    +0.137 A 
ATOM     50  N   UNL     1      -3.435  15.385  31.666  0.00  0.00    -0.172 NA
ATOM     51  C   UNL     1      -3.069  14.116  31.583  0.00  0.00    +0.450 A 
ATOM     52  N   UNL     1      -1.989  13.571  32.369  0.00  0.00    +0.120 N 
ATOM     53  O   UNL     1      -1.789  12.350  32.304  0.00  0.00    +0.045 OA
ATOM     54  O   UNL     1      -1.325  14.365  33.048  0.00  0.00    -0.573 OA
ENDBRANCH  46  47
ENDBRANCH  43  46
ENDBRANCH  42  43
ENDBRANCH  40  42
ENDBRANCH  37  38
ENDBRANCH  35  37
ENDBRANCH  31  33
ENDBRANCH  30  31
ENDBRANCH   1  30
TORSDOF 20
