REMARK VINA RESULT:    -5.419      0.000      0.000
REMARK INTER + INTRA:         -13.706
REMARK INTER:                  -9.659
REMARK INTRA:                  -4.047
REMARK UNBOUND:                -3.060
REMARK  Name = lig_assembled_37.pdb
REMARK  21 active torsions:
REMARK  status: ('A' for Active; 'I' for Inactive)
REMARK    1  A    between atoms: _2  and  _9
REMARK    2  A    between atoms: _4  and  _24
REMARK    3  A    between atoms: _6  and  _7
REMARK    4  A    between atoms: _6  and  _24
REMARK    5  A    between atoms: _9  and  _10
REMARK    6  A    between atoms: _9  and  _11
REMARK    7  A    between atoms: _11  and  _18
REMARK    8  A    between atoms: _12  and  _13
REMARK    9  A    between atoms: _12  and  _18
REMARK   10  A    between atoms: _20  and  _40
REMARK   11  A    between atoms: _22  and  _28
REMARK   12  A    between atoms: _23  and  _27
REMARK   13  A    between atoms: _27  and  _28
REMARK   14  A    between atoms: _30  and  _31
REMARK   15  A    between atoms: _32  and  _33
REMARK   16  A    between atoms: _34  and  _36
REMARK   17  A    between atoms: _36  and  _37
REMARK   18  A    between atoms: _36  and  _38
REMARK   19  A    between atoms: _38  and  _39
REMARK   20  A    between atoms: _38  and  _40
REMARK   21  A    between atoms: _41  and  _43
REMARK                            x       y       z     vdW  Elec       q    Type
REMARK                         _______ _______ _______ _____ _____    ______ ____
ROOT
ATOM      1  C   UNL     1      -3.184  11.346  27.823  0.00  0.00    +0.141 C 
ENDROOT
BRANCH   1   4
ATOM      2  C   UNL     1      -2.524   9.582  26.223  0.00  0.00    +0.401 C 
ATOM      3  O   UNL     1      -1.317   9.810  26.326  0.00  0.00    -0.226 OA
ATOM      4  N   UNL     1      -3.468  10.256  26.881  0.00  0.00    -0.279 N 
ATOM      5  H   UNL     1      -4.433  10.002  26.724  0.00  0.00    +0.152 HD
BRANCH   2   6
ATOM      6  O   UNL     1      -2.963   8.541  25.347  0.00  0.00    -0.444 OA
BRANCH   6   7
ATOM      7  C   UNL     1      -4.365   8.326  25.525  0.00  0.00    +0.292 C 
BRANCH   7   9
ATOM      8  N   UNL     1      -5.783  10.216  24.775  0.00  0.00    -0.131 NA
ATOM      9  C   UNL     1      -5.132   9.044  24.490  0.00  0.00    +0.120 A 
ATOM     10  C   UNL     1      -5.332   8.729  23.165  0.00  0.00    +0.138 A 
ATOM     11  N   UNL     1      -6.135   9.730  22.703  0.00  0.00    -0.238 N 
ATOM     12  N   UNL     1      -6.388  10.631  23.670  0.00  0.00    -0.065 NA
BRANCH  11  13
ATOM     13  C   UNL     1      -6.650   9.952  21.366  0.00  0.00    +0.214 C 
ATOM     14  C   UNL     1      -7.671  11.089  21.343  0.00  0.00    +0.045 C 
BRANCH  13  15
ATOM     15  C   UNL     1      -5.531  10.233  20.389  0.00  0.00    +0.332 C 
ATOM     16  O   UNL     1      -4.815   9.368  19.898  0.00  0.00    -0.248 OA
BRANCH  15  17
ATOM     17  O   UNL     1      -5.426  11.565  20.133  0.00  0.00    -0.458 OA
BRANCH  17  18
ATOM     18  C   UNL     1      -4.124  12.142  20.315  0.00  0.00    +0.267 C 
BRANCH  18  19
ATOM     19  C   UNL     1      -3.929  12.527  21.759  0.00  0.00    -0.010 A 
ATOM     20  C   UNL     1      -4.645  13.598  22.312  0.00  0.00    +0.007 A 
ATOM     21  C   UNL     1      -4.486  13.938  23.656  0.00  0.00    +0.000 A 
ATOM     22  C   UNL     1      -3.608  13.213  24.461  0.00  0.00    +0.000 A 
ATOM     23  C   UNL     1      -2.886  12.151  23.921  0.00  0.00    +0.000 A 
ATOM     24  C   UNL     1      -3.043  11.811  22.575  0.00  0.00    +0.007 A 
ENDBRANCH  18  19
ENDBRANCH  17  18
ENDBRANCH  15  17
ENDBRANCH  13  15
ENDBRANCH  11  13
ENDBRANCH   7   9
ENDBRANCH   6   7
ENDBRANCH   2   6
ENDBRANCH   1   4
BRANCH   1  25
ATOM     25  C   UNL     1      -4.434  12.157  28.149  0.00  0.00    +0.163 C 
BRANCH  25  26
ATOM     26  O   UNL     1      -5.597  11.504  27.613  0.00  0.00    -0.388 OA
ATOM     27  H   UNL     1      -6.373  11.773  28.110  0.00  0.00    +0.210 HD
ENDBRANCH  25  26
BRANCH  25  28
ATOM     28  C   UNL     1      -4.553  12.328  29.673  0.00  0.00    +0.175 C 
BRANCH  28  29
ATOM     29  C   UNL     1      -4.189  11.042  30.429  0.00  0.00    +0.176 C 
ATOM     30  O   UNL     1      -5.378  10.208  30.492  0.00  0.00    -0.332 OA
ATOM     31  C   UNL     1      -5.193   8.883  31.091  0.00  0.00    +0.277 C 
ATOM     32  C   UNL     1      -4.568   9.010  32.502  0.00  0.00    +0.110 C 
ATOM     33  C   UNL     1      -3.317   9.914  32.492  0.00  0.00    +0.143 C 
ATOM     34  C   UNL     1      -3.623  11.265  31.844  0.00  0.00    +0.133 C 
BRANCH  34  35
ATOM     35  N   UNL     1      -2.403  12.085  31.762  0.00  0.00    -0.308 N 
ATOM     36  H   UNL     1      -1.617  11.710  31.250  0.00  0.00    +0.149 HD
ATOM     37  C   UNL     1      -2.267  13.291  32.320  0.00  0.00    +0.210 C 
ATOM     38  C   UNL     1      -3.474  13.823  33.115  0.00  0.00    +0.109 C 
ATOM     39  O   UNL     1      -1.239  13.961  32.222  0.00  0.00    -0.276 OA
ENDBRANCH  34  35
BRANCH  31  40
ATOM     40  C   UNL     1      -4.288   8.004  30.203  0.00  0.00    +0.414 C 
ATOM     41  O   UNL     1      -4.276   8.159  28.983  0.00  0.00    -0.240 OA
ATOM     42  O   UNL     1      -3.570   7.139  30.707  0.00  0.00    -0.240 OA
ENDBRANCH  31  40
BRANCH  31  43
ATOM     43  O   UNL     1      -6.498   8.263  31.223  0.00  0.00    -0.343 OA
ATOM     44  C   UNL     1      -7.598   9.188  31.413  0.00  0.00    +0.198 C 
ENDBRANCH  31  43
BRANCH  33  45
ATOM     45  O   UNL     1      -2.865  10.125  33.830  0.00  0.00    -0.390 OA
ATOM     46  H   UNL     1      -3.246  10.937  34.173  0.00  0.00    +0.210 HD
ENDBRANCH  33  45
ENDBRANCH  28  29
BRANCH  28  47
ATOM     47  O   UNL     1      -5.886  12.750  30.023  0.00  0.00    -0.387 OA
ATOM     48  H   UNL     1      -6.477  11.993  30.005  0.00  0.00    +0.210 HD
ENDBRANCH  28  47
ENDBRANCH  25  28
ENDBRANCH   1  25
TORSDOF 18
