REMARK VINA RESULT:    -5.393      0.000      0.000
REMARK INTER + INTRA:         -12.518
REMARK INTER:                  -9.568
REMARK INTRA:                  -2.950
REMARK UNBOUND:                -2.869
REMARK  Name = lig_assembled_71.pdb
REMARK  17 active torsions:
REMARK  status: ('A' for Active; 'I' for Inactive)
REMARK    1  A    between atoms: _2  and  _12
REMARK    2  A    between atoms: _7  and  _22
REMARK    3  A    between atoms: _9  and  _10
REMARK    4  A    between atoms: _9  and  _22
REMARK    5  A    between atoms: _12  and  _13
REMARK    6  A    between atoms: _18  and  _38
REMARK    7  A    between atoms: _20  and  _26
REMARK    8  A    between atoms: _21  and  _25
REMARK    9  A    between atoms: _25  and  _26
REMARK   10  A    between atoms: _28  and  _29
REMARK   11  A    between atoms: _30  and  _31
REMARK   12  A    between atoms: _32  and  _34
REMARK   13  A    between atoms: _34  and  _35
REMARK   14  A    between atoms: _34  and  _36
REMARK   15  A    between atoms: _36  and  _37
REMARK   16  A    between atoms: _36  and  _38
REMARK   17  A    between atoms: _39  and  _41
REMARK                            x       y       z     vdW  Elec       q    Type
REMARK                         _______ _______ _______ _____ _____    ______ ____
ROOT
ATOM      1  C   UNL     1      -6.509   8.287  23.272  0.00  0.00    +0.163 C 
ENDROOT
BRANCH   1   2
ATOM      2  O   UNL     1      -6.378   8.463  24.692  0.00  0.00    -0.388 OA
ATOM      3  H   UNL     1      -5.975   9.316  24.873  0.00  0.00    +0.210 HD
ENDBRANCH   1   2
BRANCH   1   4
ATOM      4  C   UNL     1      -5.500   7.256  22.778  0.00  0.00    +0.141 C 
BRANCH   4   7
ATOM      5  C   UNL     1      -3.324   6.378  23.554  0.00  0.00    +0.401 C 
ATOM      6  O   UNL     1      -2.922   6.108  22.420  0.00  0.00    -0.226 OA
ATOM      7  N   UNL     1      -4.519   6.910  23.814  0.00  0.00    -0.279 N 
ATOM      8  H   UNL     1      -4.763   7.087  24.779  0.00  0.00    +0.152 HD
BRANCH   5   9
ATOM      9  O   UNL     1      -2.477   6.107  24.674  0.00  0.00    -0.444 OA
BRANCH   9  10
ATOM     10  C   UNL     1      -3.278   5.741  25.801  0.00  0.00    +0.292 C 
BRANCH  10  12
ATOM     11  N   UNL     1      -1.644   7.143  27.038  0.00  0.00    -0.131 NA
ATOM     12  C   UNL     1      -2.845   6.482  27.000  0.00  0.00    +0.120 A 
ATOM     13  C   UNL     1      -3.487   6.655  28.204  0.00  0.00    +0.137 A 
ATOM     14  N   UNL     1      -2.623   7.414  28.938  0.00  0.00    -0.242 N 
ATOM     15  N   UNL     1      -1.522   7.717  28.227  0.00  0.00    -0.065 NA
BRANCH  14  16
ATOM     16  C   UNL     1      -2.814   7.981  30.258  0.00  0.00    +0.241 C 
BRANCH  16  17
ATOM     17  C   UNL     1      -3.088   9.461  30.195  0.00  0.00    +0.241 C 
ATOM     18  O   UNL     1      -3.662   9.940  29.219  0.00  0.00    -0.273 OA
ATOM     19  N   UNL     1      -2.581  10.183  31.255  0.00  0.00    -0.253 N 
ATOM     20  H   UNL     1      -1.946   9.779  31.926  0.00  0.00    +0.158 HD
ATOM     21  C   UNL     1      -2.742  11.556  31.405  0.00  0.00    +0.221 A 
ATOM     22  N   UNL     1      -1.949  12.130  32.322  0.00  0.00    -0.223 NA
ATOM     23  C   UNL     1      -2.038  13.473  32.428  0.00  0.00    +0.116 A 
ATOM     24  C   UNL     1      -2.898  14.244  31.683  0.00  0.00    +0.039 A 
ATOM     25  C   UNL     1      -3.695  13.552  30.811  0.00  0.00    +0.116 A 
ATOM     26  N   UNL     1      -3.631  12.220  30.660  0.00  0.00    -0.223 NA
ENDBRANCH  16  17
ENDBRANCH  14  16
ENDBRANCH  10  12
ENDBRANCH   9  10
ENDBRANCH   5   9
ENDBRANCH   4   7
ENDBRANCH   1   4
BRANCH   1  27
ATOM     27  C   UNL     1      -6.290   9.617  22.530  0.00  0.00    +0.175 C 
BRANCH  27  28
ATOM     28  C   UNL     1      -4.992  10.314  22.965  0.00  0.00    +0.176 C 
ATOM     29  O   UNL     1      -5.241  10.966  24.240  0.00  0.00    -0.332 OA
ATOM     30  C   UNL     1      -4.076  11.599  24.866  0.00  0.00    +0.277 C 
ATOM     31  C   UNL     1      -3.413  12.599  23.887  0.00  0.00    +0.110 C 
ATOM     32  C   UNL     1      -3.158  11.960  22.506  0.00  0.00    +0.143 C 
ATOM     33  C   UNL     1      -4.435  11.329  21.950  0.00  0.00    +0.133 C 
BRANCH  33  34
ATOM     34  N   UNL     1      -4.160  10.648  20.674  0.00  0.00    -0.308 N 
ATOM     35  H   UNL     1      -3.453   9.926  20.668  0.00  0.00    +0.149 HD
ATOM     36  C   UNL     1      -4.783  10.922  19.525  0.00  0.00    +0.210 C 
ATOM     37  C   UNL     1      -5.836  12.046  19.563  0.00  0.00    +0.109 C 
ATOM     38  O   UNL     1      -4.542  10.326  18.475  0.00  0.00    -0.276 OA
ENDBRANCH  33  34
BRANCH  30  39
ATOM     39  C   UNL     1      -3.042  10.538  25.297  0.00  0.00    +0.414 C 
ATOM     40  O   UNL     1      -3.383   9.365  25.447  0.00  0.00    -0.240 OA
ATOM     41  O   UNL     1      -1.868  10.854  25.495  0.00  0.00    -0.240 OA
ENDBRANCH  30  39
BRANCH  30  42
ATOM     42  O   UNL     1      -4.535  12.334  26.029  0.00  0.00    -0.343 OA
ATOM     43  C   UNL     1      -5.754  11.828  26.631  0.00  0.00    +0.198 C 
ENDBRANCH  30  42
BRANCH  32  44
ATOM     44  O   UNL     1      -2.689  12.954  21.594  0.00  0.00    -0.390 OA
ATOM     45  H   UNL     1      -3.329  13.069  20.888  0.00  0.00    +0.210 HD
ENDBRANCH  32  44
ENDBRANCH  27  28
BRANCH  27  46
ATOM     46  O   UNL     1      -7.417  10.492  22.736  0.00  0.00    -0.387 OA
ATOM     47  H   UNL     1      -7.964  10.148  23.445  0.00  0.00    +0.210 HD
ENDBRANCH  27  46
ENDBRANCH   1  27
TORSDOF 15
