REMARK VINA RESULT:    -5.705      0.000      0.000
REMARK INTER + INTRA:         -12.255
REMARK INTER:                  -9.983
REMARK INTRA:                  -2.272
REMARK UNBOUND:                -2.381
REMARK  Name = lig_assembled_7.pdb
REMARK  19 active torsions:
REMARK  status: ('A' for Active; 'I' for Inactive)
REMARK    1  A    between atoms: _2  and  _9
REMARK    2  A    between atoms: _4  and  _21
REMARK    3  A    between atoms: _5  and  _16
REMARK    4  A    between atoms: _6  and  _7
REMARK    5  A    between atoms: _6  and  _21
REMARK    6  A    between atoms: _10  and  _11
REMARK    7  A    between atoms: _13  and  _14
REMARK    8  A    between atoms: _17  and  _37
REMARK    9  A    between atoms: _19  and  _25
REMARK   10  A    between atoms: _20  and  _24
REMARK   11  A    between atoms: _24  and  _25
REMARK   12  A    between atoms: _27  and  _28
REMARK   13  A    between atoms: _29  and  _30
REMARK   14  A    between atoms: _31  and  _33
REMARK   15  A    between atoms: _33  and  _34
REMARK   16  A    between atoms: _33  and  _35
REMARK   17  A    between atoms: _35  and  _36
REMARK   18  A    between atoms: _35  and  _37
REMARK   19  A    between atoms: _38  and  _40
REMARK                            x       y       z     vdW  Elec       q    Type
REMARK                         _______ _______ _______ _____ _____    ______ ____
ROOT
ATOM      1  C   UNL     1      -3.182  11.833  25.056  0.00  0.00    +0.163 C 
ENDROOT
BRANCH   1   2
ATOM      2  O   UNL     1      -2.104  10.886  24.978  0.00  0.00    -0.388 OA
ATOM      3  H   UNL     1      -2.097  10.478  24.109  0.00  0.00    +0.210 HD
ENDBRANCH   1   2
BRANCH   1   4
ATOM      4  C   UNL     1      -2.788  13.131  24.359  0.00  0.00    +0.141 C 
BRANCH   4   7
ATOM      5  C   UNL     1      -4.703  13.835  22.965  0.00  0.00    +0.401 C 
ATOM      6  O   UNL     1      -5.373  14.234  23.921  0.00  0.00    -0.226 OA
ATOM      7  N   UNL     1      -3.487  13.299  23.079  0.00  0.00    -0.279 N 
ATOM      8  H   UNL     1      -3.021  12.992  22.237  0.00  0.00    +0.152 HD
BRANCH   5   9
ATOM      9  O   UNL     1      -5.246  13.938  21.646  0.00  0.00    -0.444 OA
BRANCH   9  10
ATOM     10  C   UNL     1      -6.127  12.839  21.404  0.00  0.00    +0.292 C 
BRANCH  10  12
ATOM     11  N   UNL     1      -6.914  12.575  19.083  0.00  0.00    -0.131 NA
ATOM     12  C   UNL     1      -5.961  12.343  20.026  0.00  0.00    +0.121 A 
ATOM     13  C   UNL     1      -4.929  11.631  19.448  0.00  0.00    +0.143 A 
ATOM     14  N   UNL     1      -5.323  11.406  18.146  0.00  0.00    -0.219 N 
ATOM     15  N   UNL     1      -6.510  12.032  17.947  0.00  0.00    -0.060 NA
BRANCH  14  16
ATOM     16  C   UNL     1      -4.666  10.669  17.107  0.00  0.00    +0.073 A 
ATOM     17  C   UNL     1      -3.945  11.376  16.097  0.00  0.00    -0.024 A 
ATOM     18  C   UNL     1      -3.294  10.659  15.070  0.00  0.00    +0.008 A 
ATOM     19  C   UNL     1      -3.327   9.268  15.019  0.00  0.00    -0.050 A 
ATOM     20  C   UNL     1      -2.622   8.538  13.915  0.00  0.00    +0.044 C 
ATOM     21  C   UNL     1      -4.029   8.583  16.007  0.00  0.00    +0.008 A 
ATOM     22  C   UNL     1      -3.771  12.879  16.059  0.00  0.00    +0.046 C 
ATOM     23  C   UNL     1      -4.721   9.253  17.043  0.00  0.00    -0.024 A 
ATOM     24  C   UNL     1      -5.519   8.333  17.931  0.00  0.00    +0.046 C 
ENDBRANCH  14  16
ENDBRANCH  10  12
ENDBRANCH   9  10
ENDBRANCH   5   9
ENDBRANCH   4   7
ENDBRANCH   1   4
BRANCH   1  25
ATOM     25  C   UNL     1      -3.552  12.128  26.520  0.00  0.00    +0.175 C 
BRANCH  25  26
ATOM     26  C   UNL     1      -3.353  10.902  27.424  0.00  0.00    +0.176 C 
ATOM     27  O   UNL     1      -3.977   9.761  26.773  0.00  0.00    -0.332 OA
ATOM     28  C   UNL     1      -3.796   8.471  27.445  0.00  0.00    +0.277 C 
ATOM     29  C   UNL     1      -4.268   8.557  28.917  0.00  0.00    +0.110 C 
ATOM     30  C   UNL     1      -3.656   9.774  29.642  0.00  0.00    +0.143 C 
ATOM     31  C   UNL     1      -3.901  11.062  28.855  0.00  0.00    +0.133 C 
BRANCH  31  32
ATOM     32  N   UNL     1      -3.238  12.200  29.510  0.00  0.00    -0.308 N 
ATOM     33  H   UNL     1      -2.229  12.196  29.557  0.00  0.00    +0.149 HD
ATOM     34  C   UNL     1      -3.884  13.239  30.047  0.00  0.00    +0.210 C 
ATOM     35  C   UNL     1      -5.422  13.203  29.983  0.00  0.00    +0.109 C 
ATOM     36  O   UNL     1      -3.302  14.186  30.577  0.00  0.00    -0.276 OA
ENDBRANCH  31  32
BRANCH  28  37
ATOM     37  C   UNL     1      -2.316   8.035  27.403  0.00  0.00    +0.414 C 
ATOM     38  O   UNL     1      -1.832   7.394  28.335  0.00  0.00    -0.240 OA
ATOM     39  O   UNL     1      -1.607   8.326  26.439  0.00  0.00    -0.240 OA
ENDBRANCH  28  37
BRANCH  30  40
ATOM     40  O   UNL     1      -4.233   9.901  30.942  0.00  0.00    -0.390 OA
ATOM     41  H   UNL     1      -3.588   9.645  31.606  0.00  0.00    +0.210 HD
ENDBRANCH  30  40
BRANCH  28  42
ATOM     42  O   UNL     1      -4.613   7.489  26.759  0.00  0.00    -0.343 OA
ATOM     43  C   UNL     1      -5.946   7.939  26.407  0.00  0.00    +0.198 C 
ENDBRANCH  28  42
ENDBRANCH  25  26
BRANCH  25  44
ATOM     44  O   UNL     1      -4.914  12.592  26.605  0.00  0.00    -0.387 OA
ATOM     45  H   UNL     1      -5.133  13.087  25.811  0.00  0.00    +0.210 HD
ENDBRANCH  25  44
ENDBRANCH   1  25
TORSDOF 14
