REMARK VINA RESULT:    -5.613      0.000      0.000
REMARK INTER + INTRA:         -13.096
REMARK INTER:                  -8.974
REMARK INTRA:                  -4.122
REMARK UNBOUND:                -2.890
REMARK  Name = lig_assembled_73.pdb
REMARK  18 active torsions:
REMARK  status: ('A' for Active; 'I' for Inactive)
REMARK    1  A    between atoms: _2  and  _10
REMARK    2  A    between atoms: _3  and  _14
REMARK    3  A    between atoms: _5  and  _22
REMARK    4  A    between atoms: _7  and  _8
REMARK    5  A    between atoms: _7  and  _22
REMARK    6  A    between atoms: _13  and  _16
REMARK    7  A    between atoms: _18  and  _38
REMARK    8  A    between atoms: _20  and  _26
REMARK    9  A    between atoms: _21  and  _25
REMARK   10  A    between atoms: _25  and  _26
REMARK   11  A    between atoms: _28  and  _29
REMARK   12  A    between atoms: _30  and  _31
REMARK   13  A    between atoms: _32  and  _34
REMARK   14  A    between atoms: _34  and  _35
REMARK   15  A    between atoms: _34  and  _36
REMARK   16  A    between atoms: _36  and  _37
REMARK   17  A    between atoms: _36  and  _38
REMARK   18  A    between atoms: _39  and  _41
REMARK                            x       y       z     vdW  Elec       q    Type
REMARK                         _______ _______ _______ _____ _____    ______ ____
ROOT
ATOM      1  C   UNL     1      -3.330  11.593  22.675  0.00  0.00    +0.163 C 
ENDROOT
BRANCH   1   2
ATOM      2  O   UNL     1      -2.515  12.066  23.760  0.00  0.00    -0.388 OA
ATOM      3  H   UNL     1      -2.731  11.578  24.558  0.00  0.00    +0.210 HD
ENDBRANCH   1   2
BRANCH   1   4
ATOM      4  C   UNL     1      -4.017  10.266  23.040  0.00  0.00    +0.175 C 
BRANCH   4   5
ATOM      5  C   UNL     1      -4.019  10.014  24.555  0.00  0.00    +0.176 C 
ATOM      6  O   UNL     1      -2.998   9.019  24.843  0.00  0.00    -0.332 OA
ATOM      7  C   UNL     1      -2.782   8.726  26.263  0.00  0.00    +0.277 C 
ATOM      8  C   UNL     1      -4.113   8.322  26.942  0.00  0.00    +0.110 C 
ATOM      9  C   UNL     1      -5.238   9.334  26.637  0.00  0.00    +0.143 C 
ATOM     10  C   UNL     1      -5.374   9.566  25.132  0.00  0.00    +0.133 C 
BRANCH  10  11
ATOM     11  N   UNL     1      -6.389  10.596  24.859  0.00  0.00    -0.308 N 
ATOM     12  H   UNL     1      -6.259  11.507  25.275  0.00  0.00    +0.149 HD
ATOM     13  C   UNL     1      -7.470  10.405  24.098  0.00  0.00    +0.210 C 
ATOM     14  C   UNL     1      -7.652   8.997  23.499  0.00  0.00    +0.109 C 
ATOM     15  O   UNL     1      -8.296  11.291  23.874  0.00  0.00    -0.276 OA
ENDBRANCH  10  11
BRANCH   7  16
ATOM     16  C   UNL     1      -2.184   9.950  26.989  0.00  0.00    +0.414 C 
ATOM     17  O   UNL     1      -2.151   9.987  28.218  0.00  0.00    -0.240 OA
ATOM     18  O   UNL     1      -1.735  10.899  26.345  0.00  0.00    -0.240 OA
ENDBRANCH   7  16
BRANCH   9  19
ATOM     19  O   UNL     1      -6.477   8.846  27.152  0.00  0.00    -0.390 OA
ATOM     20  H   UNL     1      -6.363   7.945  27.462  0.00  0.00    +0.210 HD
ENDBRANCH   9  19
BRANCH   7  21
ATOM     21  O   UNL     1      -1.863   7.607  26.356  0.00  0.00    -0.343 OA
ATOM     22  C   UNL     1      -2.294   6.532  27.228  0.00  0.00    +0.198 C 
ENDBRANCH   7  21
ENDBRANCH   4   5
BRANCH   4  23
ATOM     23  O   UNL     1      -3.377   9.171  22.354  0.00  0.00    -0.387 OA
ATOM     24  H   UNL     1      -3.666   9.153  21.439  0.00  0.00    +0.210 HD
ENDBRANCH   4  23
ENDBRANCH   1   4
BRANCH   1  25
ATOM     25  C   UNL     1      -4.388  12.635  22.325  0.00  0.00    +0.141 C 
BRANCH  25  28
ATOM     26  C   UNL     1      -5.945  14.057  23.614  0.00  0.00    +0.401 C 
ATOM     27  O   UNL     1      -6.833  14.022  22.758  0.00  0.00    -0.226 OA
ATOM     28  N   UNL     1      -4.768  13.442  23.491  0.00  0.00    -0.279 N 
ATOM     29  H   UNL     1      -4.100  13.537  24.243  0.00  0.00    +0.152 HD
BRANCH  26  30
ATOM     30  O   UNL     1      -6.168  14.798  24.816  0.00  0.00    -0.444 OA
BRANCH  30  31
ATOM     31  C   UNL     1      -7.288  14.250  25.515  0.00  0.00    +0.292 C 
BRANCH  31  33
ATOM     32  N   UNL     1      -7.516  12.354  27.090  0.00  0.00    -0.131 NA
ATOM     33  C   UNL     1      -6.833  13.460  26.675  0.00  0.00    +0.121 A 
ATOM     34  C   UNL     1      -5.744  13.648  27.493  0.00  0.00    +0.143 A 
ATOM     35  N   UNL     1      -5.798  12.615  28.400  0.00  0.00    -0.220 N 
ATOM     36  N   UNL     1      -6.882  11.847  28.138  0.00  0.00    -0.060 NA
BRANCH  35  37
ATOM     37  C   UNL     1      -4.915  12.325  29.473  0.00  0.00    +0.074 A 
ATOM     38  C   UNL     1      -4.839  11.015  29.979  0.00  0.00    +0.032 A 
ATOM     39  C   UNL     1      -3.981  10.707  31.044  0.00  0.00    +0.054 A 
ATOM     40  C   UNL     1      -3.194  11.704  31.615  0.00  0.00    +0.195 A 
ATOM     41  C   UNL     1      -3.273  13.001  31.108  0.00  0.00    +0.316 A 
ATOM     42  C   UNL     1      -4.118  13.328  30.039  0.00  0.00    +0.116 A 
BRANCH  41  43
ATOM     43  N   UNL     1      -2.474  14.063  31.687  0.00  0.00    +0.083 N 
ATOM     44  O   UNL     1      -3.014  15.166  31.844  0.00  0.00    +0.042 OA
ATOM     45  O   UNL     1      -1.279  13.808  31.897  0.00  0.00    -0.576 OA
ENDBRANCH  41  43
BRANCH  40  46
ATOM     46  O   UNL     1      -2.344  11.400  32.636  0.00  0.00    -0.501 OA
ATOM     47  H   UNL     1      -1.423  11.441  32.327  0.00  0.00    +0.292 HD
ENDBRANCH  40  46
ENDBRANCH  35  37
ENDBRANCH  31  33
ENDBRANCH  30  31
ENDBRANCH  26  30
ENDBRANCH  25  28
ENDBRANCH   1  25
TORSDOF 16
