REMARK VINA RESULT:    -5.495      0.000      0.000
REMARK INTER + INTRA:         -12.377
REMARK INTER:                 -10.281
REMARK INTRA:                  -2.096
REMARK UNBOUND:                -2.867
REMARK  Name = lig_assembled_70.pdb
REMARK  16 active torsions:
REMARK  status: ('A' for Active; 'I' for Inactive)
REMARK    1  A    between atoms: _2  and  _10
REMARK    2  A    between atoms: _5  and  _22
REMARK    3  A    between atoms: _7  and  _8
REMARK    4  A    between atoms: _7  and  _22
REMARK    5  A    between atoms: _18  and  _38
REMARK    6  A    between atoms: _20  and  _26
REMARK    7  A    between atoms: _21  and  _25
REMARK    8  A    between atoms: _25  and  _26
REMARK    9  A    between atoms: _28  and  _29
REMARK   10  A    between atoms: _30  and  _31
REMARK   11  A    between atoms: _32  and  _34
REMARK   12  A    between atoms: _34  and  _35
REMARK   13  A    between atoms: _34  and  _36
REMARK   14  A    between atoms: _36  and  _37
REMARK   15  A    between atoms: _36  and  _38
REMARK   16  A    between atoms: _39  and  _41
REMARK                            x       y       z     vdW  Elec       q    Type
REMARK                         _______ _______ _______ _____ _____    ______ ____
ROOT
ATOM      1  C   UNL     1      -3.163  11.740  25.141  0.00  0.00    +0.163 C 
ENDROOT
BRANCH   1   2
ATOM      2  O   UNL     1      -2.133  10.739  25.106  0.00  0.00    -0.388 OA
ATOM      3  H   UNL     1      -2.070  10.375  24.220  0.00  0.00    +0.210 HD
ENDBRANCH   1   2
BRANCH   1   4
ATOM      4  C   UNL     1      -2.683  13.008  24.443  0.00  0.00    +0.141 C 
BRANCH   4   7
ATOM      5  C   UNL     1      -4.513  13.572  22.882  0.00  0.00    +0.401 C 
ATOM      6  O   UNL     1      -5.308  13.875  23.774  0.00  0.00    -0.226 OA
ATOM      7  N   UNL     1      -3.268  13.151  23.104  0.00  0.00    -0.279 N 
ATOM      8  H   UNL     1      -2.694  12.917  22.306  0.00  0.00    +0.152 HD
BRANCH   5   9
ATOM      9  O   UNL     1      -4.932  13.666  21.518  0.00  0.00    -0.444 OA
BRANCH   9  10
ATOM     10  C   UNL     1      -5.874  12.628  21.234  0.00  0.00    +0.292 C 
BRANCH  10  12
ATOM     11  N   UNL     1      -6.694  12.440  18.902  0.00  0.00    -0.131 NA
ATOM     12  C   UNL     1      -5.736  12.174  19.838  0.00  0.00    +0.121 A 
ATOM     13  C   UNL     1      -4.719  11.462  19.246  0.00  0.00    +0.143 A 
ATOM     14  N   UNL     1      -5.096  11.327  17.931  0.00  0.00    -0.218 N 
ATOM     15  N   UNL     1      -6.301  11.916  17.747  0.00  0.00    -0.060 NA
BRANCH  14  16
ATOM     16  C   UNL     1      -4.390  10.712  16.876  0.00  0.00    +0.086 A 
ATOM     17  C   UNL     1      -3.678  11.477  15.967  0.00  0.00    +0.139 A 
ATOM     18  N   UNL     1      -2.940  10.949  14.957  0.00  0.00    -0.253 NA
ATOM     19  C   UNL     1      -2.889   9.609  14.835  0.00  0.00    +0.071 A 
ATOM     20  C   UNL     1      -3.595   8.752  15.705  0.00  0.00    +0.002 A 
ATOM     21  C   UNL     1      -3.518   7.356  15.548  0.00  0.00    +0.010 A 
ATOM     22  C   UNL     1      -2.727   6.804  14.544  0.00  0.00    +0.001 A 
ATOM     23  C   UNL     1      -2.022   7.644  13.690  0.00  0.00    +0.002 A 
ATOM     24  C   UNL     1      -2.115   9.032  13.838  0.00  0.00    +0.028 A 
ATOM     25  C   UNL     1      -4.359   9.324  16.729  0.00  0.00    +0.039 A 
ENDBRANCH  14  16
ENDBRANCH  10  12
ENDBRANCH   9  10
ENDBRANCH   5   9
ENDBRANCH   4   7
ENDBRANCH   1   4
BRANCH   1  26
ATOM     26  C   UNL     1      -3.560  12.070  26.590  0.00  0.00    +0.175 C 
BRANCH  26  27
ATOM     27  C   UNL     1      -3.356  10.875  27.532  0.00  0.00    +0.176 C 
ATOM     28  O   UNL     1      -3.999   9.717  26.932  0.00  0.00    -0.332 OA
ATOM     29  C   UNL     1      -3.816   8.450  27.645  0.00  0.00    +0.277 C 
ATOM     30  C   UNL     1      -4.262   8.590  29.121  0.00  0.00    +0.110 C 
ATOM     31  C   UNL     1      -3.628   9.826  29.793  0.00  0.00    +0.143 C 
ATOM     32  C   UNL     1      -3.877  11.088  28.966  0.00  0.00    +0.133 C 
BRANCH  32  33
ATOM     33  N   UNL     1      -3.194  12.242  29.570  0.00  0.00    -0.308 N 
ATOM     34  H   UNL     1      -2.184  12.241  29.581  0.00  0.00    +0.149 HD
ATOM     35  C   UNL     1      -3.822  13.293  30.105  0.00  0.00    +0.210 C 
ATOM     36  C   UNL     1      -5.362  13.253  30.097  0.00  0.00    +0.109 C 
ATOM     37  O   UNL     1      -3.224  14.253  30.592  0.00  0.00    -0.276 OA
ENDBRANCH  32  33
BRANCH  29  38
ATOM     38  C   UNL     1      -2.341   8.001  27.592  0.00  0.00    +0.414 C 
ATOM     39  O   UNL     1      -1.641   8.283  26.620  0.00  0.00    -0.240 OA
ATOM     40  O   UNL     1      -1.851   7.357  28.521  0.00  0.00    -0.240 OA
ENDBRANCH  29  38
BRANCH  31  41
ATOM     41  O   UNL     1      -4.181  10.002  31.098  0.00  0.00    -0.390 OA
ATOM     42  H   UNL     1      -4.062  10.913  31.376  0.00  0.00    +0.210 HD
ENDBRANCH  31  41
BRANCH  29  43
ATOM     43  O   UNL     1      -4.654   7.451  27.007  0.00  0.00    -0.343 OA
ATOM     44  C   UNL     1      -4.849   7.635  25.582  0.00  0.00    +0.198 C 
ENDBRANCH  29  43
ENDBRANCH  26  27
BRANCH  26  45
ATOM     45  O   UNL     1      -4.931  12.514  26.641  0.00  0.00    -0.387 OA
ATOM     46  H   UNL     1      -5.118  13.064  25.877  0.00  0.00    +0.210 HD
ENDBRANCH  26  45
ENDBRANCH   1  26
TORSDOF 14
