REMARK VINA RESULT:    -4.593      4.279      8.304
REMARK INTER + INTRA:         -10.919
REMARK INTER:                  -8.620
REMARK INTRA:                  -2.299
REMARK UNBOUND:                -2.299
REMARK  Name = lig_assembled_32.pdb
REMARK  19 active torsions:
REMARK  status: ('A' for Active; 'I' for Inactive)
REMARK    1  A    between atoms: _2  and  _9
REMARK    2  A    between atoms: _4  and  _17
REMARK    3  A    between atoms: _5  and  _10
REMARK    4  A    between atoms: _5  and  _11
REMARK    5  A    between atoms: _6  and  _7
REMARK    6  A    between atoms: _6  and  _17
REMARK    7  A    between atoms: _9  and  _10
REMARK    8  A    between atoms: _13  and  _33
REMARK    9  A    between atoms: _15  and  _21
REMARK   10  A    between atoms: _16  and  _20
REMARK   11  A    between atoms: _20  and  _21
REMARK   12  A    between atoms: _23  and  _24
REMARK   13  A    between atoms: _25  and  _26
REMARK   14  A    between atoms: _27  and  _29
REMARK   15  A    between atoms: _29  and  _30
REMARK   16  A    between atoms: _29  and  _31
REMARK   17  A    between atoms: _31  and  _32
REMARK   18  A    between atoms: _31  and  _33
REMARK   19  A    between atoms: _34  and  _36
REMARK                            x       y       z     vdW  Elec       q    Type
REMARK                         _______ _______ _______ _____ _____    ______ ____
ROOT
ATOM      1  C   UNL     1      -3.982  11.441  25.143  0.00  0.00    +0.163 C 
ENDROOT
BRANCH   1   2
ATOM      2  O   UNL     1      -2.908  10.527  24.864  0.00  0.00    -0.388 OA
ATOM      3  H   UNL     1      -2.886  10.336  23.924  0.00  0.00    +0.210 HD
ENDBRANCH   1   2
BRANCH   1   4
ATOM      4  C   UNL     1      -3.960  11.881  26.617  0.00  0.00    +0.175 C 
BRANCH   4   5
ATOM      5  C   UNL     1      -3.500  10.751  27.551  0.00  0.00    +0.176 C 
ATOM      6  O   UNL     1      -4.103   9.513  27.085  0.00  0.00    -0.332 OA
ATOM      7  C   UNL     1      -3.691   8.300  27.798  0.00  0.00    +0.277 C 
ATOM      8  C   UNL     1      -3.930   8.458  29.319  0.00  0.00    +0.110 C 
ATOM      9  C   UNL     1      -3.334   9.777  29.855  0.00  0.00    +0.143 C 
ATOM     10  C   UNL     1      -3.827  10.973  29.040  0.00  0.00    +0.133 C 
BRANCH  10  11
ATOM     11  N   UNL     1      -3.185  12.213  29.504  0.00  0.00    -0.308 N 
ATOM     12  H   UNL     1      -2.197  12.329  29.326  0.00  0.00    +0.149 HD
ATOM     13  C   UNL     1      -3.823  13.196  30.147  0.00  0.00    +0.210 C 
ATOM     14  C   UNL     1      -5.321  12.978  30.427  0.00  0.00    +0.109 C 
ATOM     15  O   UNL     1      -3.262  14.230  30.511  0.00  0.00    -0.276 OA
ENDBRANCH  10  11
BRANCH   7  16
ATOM     16  C   UNL     1      -2.201   7.994  27.539  0.00  0.00    +0.414 C 
ATOM     17  O   UNL     1      -1.516   7.462  28.412  0.00  0.00    -0.240 OA
ATOM     18  O   UNL     1      -1.684   8.278  26.458  0.00  0.00    -0.240 OA
ENDBRANCH   7  16
BRANCH   7  19
ATOM     19  O   UNL     1      -4.506   7.199  27.319  0.00  0.00    -0.343 OA
ATOM     20  C   UNL     1      -5.281   7.484  26.128  0.00  0.00    +0.198 C 
ENDBRANCH   7  19
BRANCH   9  21
ATOM     21  O   UNL     1      -3.707   9.954  31.222  0.00  0.00    -0.390 OA
ATOM     22  H   UNL     1      -4.482   9.421  31.415  0.00  0.00    +0.210 HD
ENDBRANCH   9  21
ENDBRANCH   4   5
BRANCH   4  23
ATOM     23  O   UNL     1      -5.263  12.353  27.014  0.00  0.00    -0.387 OA
ATOM     24  H   UNL     1      -5.166  13.088  27.625  0.00  0.00    +0.210 HD
ENDBRANCH   4  23
ENDBRANCH   1   4
BRANCH   1  25
ATOM     25  C   UNL     1      -3.870  12.667  24.244  0.00  0.00    +0.141 C 
BRANCH  25  28
ATOM     26  C   UNL     1      -4.065  11.853  21.919  0.00  0.00    +0.401 C 
ATOM     27  O   UNL     1      -2.930  11.371  21.893  0.00  0.00    -0.226 OA
ATOM     28  N   UNL     1      -4.584  12.482  22.974  0.00  0.00    -0.279 N 
ATOM     29  H   UNL     1      -5.521  12.851  22.896  0.00  0.00    +0.152 HD
BRANCH  26  30
ATOM     30  O   UNL     1      -4.892  11.746  20.757  0.00  0.00    -0.444 OA
BRANCH  30  31
ATOM     31  C   UNL     1      -5.235  10.375  20.540  0.00  0.00    +0.292 C 
BRANCH  31  33
ATOM     32  N   UNL     1      -4.941   8.684  18.756  0.00  0.00    -0.131 NA
ATOM     33  C   UNL     1      -4.985  10.000  19.135  0.00  0.00    +0.120 A 
ATOM     34  C   UNL     1      -4.764  10.794  18.031  0.00  0.00    +0.137 A 
ATOM     35  N   UNL     1      -4.580   9.901  17.020  0.00  0.00    -0.251 N 
ATOM     36  N   UNL     1      -4.689   8.635  17.456  0.00  0.00    -0.065 NA
BRANCH  35  37
ATOM     37  C   UNL     1      -4.307  10.171  15.626  0.00  0.00    +0.156 C 
BRANCH  37  38
ATOM     38  C   UNL     1      -2.813  10.214  15.336  0.00  0.00    +0.143 C 
BRANCH  38  39
ATOM     39  C   UNL     1      -2.414   9.035  14.497  0.00  0.00    +0.306 C 
ATOM     40  O   UNL     1      -1.517   9.039  13.669  0.00  0.00    -0.251 OA
BRANCH  39  41
ATOM     41  O   UNL     1      -3.171   7.941  14.739  0.00  0.00    -0.481 OA
ATOM     42  H   UNL     1      -3.648   7.963  15.592  0.00  0.00    +0.295 HD
ENDBRANCH  39  41
ENDBRANCH  38  39
ENDBRANCH  37  38
ENDBRANCH  35  37
ENDBRANCH  31  33
ENDBRANCH  30  31
ENDBRANCH  26  30
ENDBRANCH  25  28
ENDBRANCH   1  25
TORSDOF 17
