REMARK VINA RESULT:    -5.204      8.535     12.987
REMARK INTER + INTRA:         -11.037
REMARK INTER:                  -6.768
REMARK INTRA:                  -4.268
REMARK UNBOUND:                -2.334
REMARK  Name = lig_assembled_65.pdb
REMARK  16 active torsions:
REMARK  status: ('A' for Active; 'I' for Inactive)
REMARK    1  A    between atoms: _8  and  _20
REMARK    2  A    between atoms: _9  and  _15
REMARK    3  A    between atoms: _10  and  _11
REMARK    4  A    between atoms: _10  and  _20
REMARK    5  A    between atoms: _16  and  _36
REMARK    6  A    between atoms: _18  and  _24
REMARK    7  A    between atoms: _19  and  _23
REMARK    8  A    between atoms: _23  and  _24
REMARK    9  A    between atoms: _26  and  _27
REMARK   10  A    between atoms: _28  and  _29
REMARK   11  A    between atoms: _30  and  _32
REMARK   12  A    between atoms: _32  and  _33
REMARK   13  A    between atoms: _32  and  _34
REMARK   14  A    between atoms: _34  and  _35
REMARK   15  A    between atoms: _34  and  _36
REMARK   16  A    between atoms: _37  and  _39
REMARK                            x       y       z     vdW  Elec       q    Type
REMARK                         _______ _______ _______ _____ _____    ______ ____
ROOT
ATOM      1  C   UNL     1      -3.058  11.631  25.414  0.00  0.00    +0.163 C 
ENDROOT
BRANCH   1   2
ATOM      2  O   UNL     1      -1.911  10.764  25.421  0.00  0.00    -0.388 OA
ATOM      3  H   UNL     1      -1.663  10.555  24.517  0.00  0.00    +0.210 HD
ENDBRANCH   1   2
BRANCH   1   4
ATOM      4  C   UNL     1      -2.819  12.806  24.472  0.00  0.00    +0.141 C 
BRANCH   4   7
ATOM      5  C   UNL     1      -4.619  12.873  22.781  0.00  0.00    +0.401 C 
ATOM      6  O   UNL     1      -4.124  11.987  22.081  0.00  0.00    -0.226 OA
ATOM      7  N   UNL     1      -4.074  13.323  23.912  0.00  0.00    -0.279 N 
ATOM      8  H   UNL     1      -4.551  14.060  24.412  0.00  0.00    +0.152 HD
BRANCH   5   9
ATOM      9  O   UNL     1      -5.851  13.474  22.373  0.00  0.00    -0.444 OA
BRANCH   9  10
ATOM     10  C   UNL     1      -6.916  12.532  22.527  0.00  0.00    +0.292 C 
BRANCH  10  12
ATOM     11  N   UNL     1      -7.298  13.210  24.878  0.00  0.00    -0.131 NA
ATOM     12  C   UNL     1      -7.123  12.217  23.953  0.00  0.00    +0.121 A 
ATOM     13  C   UNL     1      -7.178  10.999  24.587  0.00  0.00    +0.149 A 
ATOM     14  N   UNL     1      -7.381  11.299  25.917  0.00  0.00    -0.155 N 
ATOM     15  C   UNL     1      -7.493  10.378  27.000  0.00  0.00    +0.416 C 
ATOM     16  N   UNL     1      -7.693  10.860  28.232  0.00  0.00    +0.041 NA
ATOM     17  C   UNL     1      -7.770   9.940  29.192  0.00  0.00    +0.339 C 
ATOM     18  C   UNL     1      -7.980  10.418  30.594  0.00  0.00    +0.149 C 
ATOM     19  N   UNL     1      -7.660   8.627  28.991  0.00  0.00    +0.007 NA
ATOM     20  C   UNL     1      -7.450   8.257  27.738  0.00  0.00    +0.386 C 
ATOM     21  N   UNL     1      -7.319   6.907  27.488  0.00  0.00    -0.296 N 
ATOM     22  H   UNL     1      -7.751   6.364  28.223  0.00  0.00    +0.148 HD
ATOM     23  H   UNL     1      -7.567   6.684  26.535  0.00  0.00    +0.148 HD
ATOM     24  N   UNL     1      -7.378   9.075  26.704  0.00  0.00    -0.290 NA
ATOM     25  N   UNL     1      -7.457  12.646  26.069  0.00  0.00    -0.055 NA
ENDBRANCH  10  12
ENDBRANCH   9  10
ENDBRANCH   5   9
ENDBRANCH   4   7
ENDBRANCH   1   4
BRANCH   1  26
ATOM     26  C   UNL     1      -3.357  12.158  26.828  0.00  0.00    +0.175 C 
BRANCH  26  27
ATOM     27  C   UNL     1      -3.208  11.064  27.896  0.00  0.00    +0.176 C 
ATOM     28  O   UNL     1      -3.674   9.812  27.322  0.00  0.00    -0.332 OA
ATOM     29  C   UNL     1      -3.508   8.626  28.168  0.00  0.00    +0.277 C 
ATOM     30  C   UNL     1      -4.173   8.849  29.548  0.00  0.00    +0.110 C 
ATOM     31  C   UNL     1      -3.732  10.184  30.184  0.00  0.00    +0.143 C 
ATOM     32  C   UNL     1      -3.946  11.349  29.217  0.00  0.00    +0.133 C 
BRANCH  32  33
ATOM     33  N   UNL     1      -3.442  12.602  29.801  0.00  0.00    -0.308 N 
ATOM     34  H   UNL     1      -2.442  12.713  29.889  0.00  0.00    +0.149 HD
ATOM     35  C   UNL     1      -4.221  13.603  30.222  0.00  0.00    +0.210 C 
ATOM     36  C   UNL     1      -5.742  13.392  30.099  0.00  0.00    +0.109 C 
ATOM     37  O   UNL     1      -3.770  14.648  30.694  0.00  0.00    -0.276 OA
ENDBRANCH  32  33
BRANCH  29  38
ATOM     38  C   UNL     1      -2.013   8.299  28.363  0.00  0.00    +0.414 C 
ATOM     39  O   UNL     1      -1.154   8.931  27.749  0.00  0.00    -0.240 OA
ATOM     40  O   UNL     1      -1.665   7.403  29.134  0.00  0.00    -0.240 OA
ENDBRANCH  29  38
BRANCH  29  41
ATOM     41  O   UNL     1      -4.170   7.513  27.515  0.00  0.00    -0.343 OA
ATOM     42  C   UNL     1      -3.953   7.424  26.084  0.00  0.00    +0.198 C 
ENDBRANCH  29  41
BRANCH  31  43
ATOM     43  O   UNL     1      -4.481  10.419  31.378  0.00  0.00    -0.390 OA
ATOM     44  H   UNL     1      -4.110  11.172  31.845  0.00  0.00    +0.210 HD
ENDBRANCH  31  43
ENDBRANCH  26  27
BRANCH  26  45
ATOM     45  O   UNL     1      -4.683  12.723  26.877  0.00  0.00    -0.387 OA
ATOM     46  H   UNL     1      -4.621  13.678  26.949  0.00  0.00    +0.210 HD
ENDBRANCH  26  45
ENDBRANCH   1  26
TORSDOF 13
