REMARK VINA RESULT:    -5.424      2.625      3.983
REMARK INTER + INTRA:         -12.152
REMARK INTER:                  -9.818
REMARK INTRA:                  -2.333
REMARK UNBOUND:                -2.447
REMARK  Name = lig_assembled_85.pdb
REMARK  19 active torsions:
REMARK  status: ('A' for Active; 'I' for Inactive)
REMARK    1  A    between atoms: _2  and  _10
REMARK    2  A    between atoms: _3  and  _6
REMARK    3  A    between atoms: _3  and  _17
REMARK    4  A    between atoms: _5  and  _23
REMARK    5  A    between atoms: _7  and  _8
REMARK    6  A    between atoms: _7  and  _23
REMARK    7  A    between atoms: _15  and  _16
REMARK    8  A    between atoms: _19  and  _39
REMARK    9  A    between atoms: _21  and  _27
REMARK   10  A    between atoms: _22  and  _26
REMARK   11  A    between atoms: _26  and  _27
REMARK   12  A    between atoms: _29  and  _30
REMARK   13  A    between atoms: _31  and  _32
REMARK   14  A    between atoms: _33  and  _35
REMARK   15  A    between atoms: _35  and  _36
REMARK   16  A    between atoms: _35  and  _37
REMARK   17  A    between atoms: _37  and  _38
REMARK   18  A    between atoms: _37  and  _39
REMARK   19  A    between atoms: _40  and  _42
REMARK                            x       y       z     vdW  Elec       q    Type
REMARK                         _______ _______ _______ _____ _____    ______ ____
ROOT
ATOM      1  C   UNL     1      -3.063  13.031  24.394  0.00  0.00    +0.141 C 
ENDROOT
BRANCH   1   4
ATOM      2  C   UNL     1      -4.129  13.098  22.165  0.00  0.00    +0.401 C 
ATOM      3  O   UNL     1      -3.170  12.581  21.587  0.00  0.00    -0.226 OA
ATOM      4  N   UNL     1      -4.162  13.351  23.474  0.00  0.00    -0.279 N 
ATOM      5  H   UNL     1      -4.990  13.787  23.855  0.00  0.00    +0.152 HD
BRANCH   2   6
ATOM      6  O   UNL     1      -5.284  13.461  21.405  0.00  0.00    -0.444 OA
BRANCH   6   7
ATOM      7  C   UNL     1      -6.012  12.283  21.050  0.00  0.00    +0.292 C 
BRANCH   7   9
ATOM      8  N   UNL     1      -7.100  12.379  18.836  0.00  0.00    -0.131 NA
ATOM      9  C   UNL     1      -5.997  12.095  19.589  0.00  0.00    +0.121 A 
ATOM     10  C   UNL     1      -4.971  11.698  18.763  0.00  0.00    +0.143 A 
ATOM     11  N   UNL     1      -5.500  11.761  17.497  0.00  0.00    -0.219 N 
ATOM     12  N   UNL     1      -6.780  12.199  17.563  0.00  0.00    -0.060 NA
BRANCH  11  13
ATOM     13  C   UNL     1      -4.879  11.536  16.249  0.00  0.00    +0.080 A 
ATOM     14  C   UNL     1      -4.524  10.268  15.762  0.00  0.00    +0.062 A 
ATOM     15  C   UNL     1      -3.689  10.213  14.622  0.00  0.00    +0.016 A 
ATOM     16  C   UNL     1      -3.243  11.370  13.975  0.00  0.00    +0.021 A 
ATOM     17  C   UNL     1      -3.665  12.610  14.428  0.00  0.00    +0.043 A 
ATOM     18 CL   UNL     1      -3.098  14.044  13.667  0.00  0.00    -0.083 Cl
ATOM     19  C   UNL     1      -4.498  12.698  15.539  0.00  0.00    +0.048 A 
BRANCH  14  20
ATOM     20  C   UNL     1      -4.847   8.927  16.335  0.00  0.00    +0.248 C 
ATOM     21  O   UNL     1      -3.935   8.402  16.978  0.00  0.00    -0.270 OA
ATOM     22  N   UNL     1      -6.056   8.258  16.120  0.00  0.00    -0.304 N 
ATOM     23  C   UNL     1      -7.269   8.779  15.503  0.00  0.00    +0.132 C 
ATOM     24  C   UNL     1      -6.193   6.948  16.750  0.00  0.00    +0.132 C 
ENDBRANCH  14  20
ENDBRANCH  11  13
ENDBRANCH   7   9
ENDBRANCH   6   7
ENDBRANCH   2   6
ENDBRANCH   1   4
BRANCH   1  25
ATOM     25  C   UNL     1      -3.256  11.672  25.060  0.00  0.00    +0.163 C 
BRANCH  25  26
ATOM     26  O   UNL     1      -2.007  10.963  25.099  0.00  0.00    -0.388 OA
ATOM     27  H   UNL     1      -2.081  10.154  24.587  0.00  0.00    +0.210 HD
ENDBRANCH  25  26
BRANCH  25  28
ATOM     28  C   UNL     1      -3.821  11.870  26.477  0.00  0.00    +0.175 C 
BRANCH  28  29
ATOM     29  C   UNL     1      -3.473  10.699  27.407  0.00  0.00    +0.176 C 
ATOM     30  O   UNL     1      -4.084   9.498  26.861  0.00  0.00    -0.332 OA
ATOM     31  C   UNL     1      -3.769   8.251  27.565  0.00  0.00    +0.277 C 
ATOM     32  C   UNL     1      -4.114   8.376  29.069  0.00  0.00    +0.110 C 
ATOM     33  C   UNL     1      -3.512   9.656  29.686  0.00  0.00    +0.143 C 
ATOM     34  C   UNL     1      -3.900  10.892  28.874  0.00  0.00    +0.133 C 
BRANCH  34  35
ATOM     35  N   UNL     1      -3.250  12.093  29.421  0.00  0.00    -0.308 N 
ATOM     36  H   UNL     1      -2.241  12.140  29.389  0.00  0.00    +0.149 HD
ATOM     37  C   UNL     1      -3.906  13.126  29.957  0.00  0.00    +0.210 C 
ATOM     38  C   UNL     1      -5.441  13.013  30.015  0.00  0.00    +0.109 C 
ATOM     39  O   UNL     1      -3.336  14.126  30.394  0.00  0.00    -0.276 OA
ENDBRANCH  34  35
BRANCH  31  40
ATOM     40  C   UNL     1      -2.276   7.895  27.406  0.00  0.00    +0.414 C 
ATOM     41  O   UNL     1      -1.699   7.241  28.274  0.00  0.00    -0.240 OA
ATOM     42  O   UNL     1      -1.650   8.261  26.411  0.00  0.00    -0.240 OA
ENDBRANCH  31  40
BRANCH  33  43
ATOM     43  O   UNL     1      -3.978   9.809  31.027  0.00  0.00    -0.390 OA
ATOM     44  H   UNL     1      -3.888  10.727  31.295  0.00  0.00    +0.210 HD
ENDBRANCH  33  43
BRANCH  31  45
ATOM     45  O   UNL     1      -4.586   7.195  26.995  0.00  0.00    -0.343 OA
ATOM     46  C   UNL     1      -6.007   7.477  26.952  0.00  0.00    +0.198 C 
ENDBRANCH  31  45
ENDBRANCH  28  29
BRANCH  28  47
ATOM     47  O   UNL     1      -5.250  12.052  26.420  0.00  0.00    -0.387 OA
ATOM     48  H   UNL     1      -5.464  12.971  26.596  0.00  0.00    +0.210 HD
ENDBRANCH  28  47
ENDBRANCH  25  28
ENDBRANCH   1  25
TORSDOF 15
