REMARK VINA RESULT:    -5.086      3.689      5.219
REMARK INTER + INTRA:         -11.688
REMARK INTER:                  -9.534
REMARK INTRA:                  -2.154
REMARK UNBOUND:                -2.589
REMARK  Name = lig_assembled_82.pdb
REMARK  19 active torsions:
REMARK  status: ('A' for Active; 'I' for Inactive)
REMARK    1  A    between atoms: _2  and  _9
REMARK    2  A    between atoms: _4  and  _22
REMARK    3  A    between atoms: _5  and  _16
REMARK    4  A    between atoms: _6  and  _7
REMARK    5  A    between atoms: _6  and  _22
REMARK    6  A    between atoms: _9  and  _10
REMARK    7  A    between atoms: _16  and  _17
REMARK    8  A    between atoms: _18  and  _38
REMARK    9  A    between atoms: _20  and  _26
REMARK   10  A    between atoms: _21  and  _25
REMARK   11  A    between atoms: _25  and  _26
REMARK   12  A    between atoms: _28  and  _29
REMARK   13  A    between atoms: _30  and  _31
REMARK   14  A    between atoms: _32  and  _34
REMARK   15  A    between atoms: _34  and  _35
REMARK   16  A    between atoms: _34  and  _36
REMARK   17  A    between atoms: _36  and  _37
REMARK   18  A    between atoms: _36  and  _38
REMARK   19  A    between atoms: _39  and  _41
REMARK                            x       y       z     vdW  Elec       q    Type
REMARK                         _______ _______ _______ _____ _____    ______ ____
ROOT
ATOM      1  C   UNL     1      -3.896  11.709  25.893  0.00  0.00    +0.163 C 
ENDROOT
BRANCH   1   2
ATOM      2  O   UNL     1      -2.744  11.054  25.336  0.00  0.00    -0.388 OA
ATOM      3  H   UNL     1      -2.665  11.280  24.406  0.00  0.00    +0.210 HD
ENDBRANCH   1   2
BRANCH   1   4
ATOM      4  C   UNL     1      -4.030  13.112  25.310  0.00  0.00    +0.141 C 
BRANCH   4   7
ATOM      5  C   UNL     1      -4.166  13.791  22.938  0.00  0.00    +0.401 C 
ATOM      6  O   UNL     1      -5.262  14.344  23.061  0.00  0.00    -0.226 OA
ATOM      7  N   UNL     1      -3.521  13.185  23.935  0.00  0.00    -0.279 N 
ATOM      8  H   UNL     1      -2.631  12.751  23.733  0.00  0.00    +0.152 HD
BRANCH   5   9
ATOM      9  O   UNL     1      -3.533  13.783  21.656  0.00  0.00    -0.444 OA
BRANCH   9  10
ATOM     10  C   UNL     1      -3.026  12.475  21.381  0.00  0.00    +0.292 C 
BRANCH  10  12
ATOM     11  N   UNL     1      -3.965  10.291  20.695  0.00  0.00    -0.131 NA
ATOM     12  C   UNL     1      -4.022  11.664  20.674  0.00  0.00    +0.120 A 
ATOM     13  C   UNL     1      -5.108  12.045  19.907  0.00  0.00    +0.137 A 
ATOM     14  N   UNL     1      -5.582  10.871  19.393  0.00  0.00    -0.247 N 
ATOM     15  N   UNL     1      -4.947   9.818  19.941  0.00  0.00    -0.065 NA
BRANCH  14  16
ATOM     16  C   UNL     1      -6.561  10.675  18.321  0.00  0.00    +0.176 C 
BRANCH  16  17
ATOM     17  C   UNL     1      -6.095  11.235  16.999  0.00  0.00    -0.049 C 
ATOM     18  C   UNL     1      -4.659  11.038  16.628  0.00  0.00    +0.023 C 
ATOM     19  C   UNL     1      -4.299  10.783  15.095  0.00  0.00    -0.025 C 
ATOM     20  C   UNL     1      -5.071  10.060  13.984  0.00  0.00    +0.012 C 
ATOM     21  C   UNL     1      -4.579  12.355  14.996  0.00  0.00    -0.000 C 
ATOM     22  C   UNL     1      -6.088  12.753  15.028  0.00  0.00    +0.031 C 
ATOM     23  C   UNL     1      -2.903  10.115  15.148  0.00  0.00    +0.012 C 
ATOM     24  C   UNL     1      -3.977  12.451  16.424  0.00  0.00    +0.012 C 
ATOM     25  C   UNL     1      -6.787  12.053  16.184  0.00  0.00    -0.025 C 
ENDBRANCH  16  17
ENDBRANCH  14  16
ENDBRANCH  10  12
ENDBRANCH   9  10
ENDBRANCH   5   9
ENDBRANCH   4   7
ENDBRANCH   1   4
BRANCH   1  26
ATOM     26  C   UNL     1      -3.792  11.797  27.425  0.00  0.00    +0.175 C 
BRANCH  26  27
ATOM     27  C   UNL     1      -3.377  10.459  28.054  0.00  0.00    +0.176 C 
ATOM     28  O   UNL     1      -4.070   9.397  27.342  0.00  0.00    -0.332 OA
ATOM     29  C   UNL     1      -3.713   8.031  27.739  0.00  0.00    +0.277 C 
ATOM     30  C   UNL     1      -3.898   7.846  29.265  0.00  0.00    +0.110 C 
ATOM     31  C   UNL     1      -3.205   8.970  30.064  0.00  0.00    +0.143 C 
ATOM     32  C   UNL     1      -3.646  10.347  29.566  0.00  0.00    +0.133 C 
BRANCH  32  33
ATOM     33  N   UNL     1      -2.914  11.409  30.275  0.00  0.00    -0.308 N 
ATOM     34  H   UNL     1      -1.927  11.511  30.084  0.00  0.00    +0.149 HD
ATOM     35  C   UNL     1      -3.469  12.247  31.155  0.00  0.00    +0.210 C 
ATOM     36  C   UNL     1      -4.969  12.049  31.445  0.00  0.00    +0.109 C 
ATOM     37  O   UNL     1      -2.835  13.137  31.723  0.00  0.00    -0.276 OA
ENDBRANCH  32  33
BRANCH  29  38
ATOM     38  C   UNL     1      -2.254   7.713  27.354  0.00  0.00    +0.414 C 
ATOM     39  O   UNL     1      -1.722   8.292  26.408  0.00  0.00    -0.240 OA
ATOM     40  O   UNL     1      -1.609   6.877  27.988  0.00  0.00    -0.240 OA
ENDBRANCH  29  38
BRANCH  29  41
ATOM     41  O   UNL     1      -4.609   7.117  27.056  0.00  0.00    -0.343 OA
ATOM     42  C   UNL     1      -5.243   6.130  27.907  0.00  0.00    +0.198 C 
ENDBRANCH  29  41
BRANCH  31  43
ATOM     43  O   UNL     1      -3.527   8.845  31.449  0.00  0.00    -0.390 OA
ATOM     44  H   UNL     1      -3.802   9.698  31.793  0.00  0.00    +0.210 HD
ENDBRANCH  31  43
ENDBRANCH  26  27
BRANCH  26  45
ATOM     45  O   UNL     1      -5.045  12.241  27.983  0.00  0.00    -0.387 OA
ATOM     46  H   UNL     1      -5.686  12.359  27.278  0.00  0.00    +0.210 HD
ENDBRANCH  26  45
ENDBRANCH   1  26
TORSDOF 15
