REMARK VINA RESULT:    -4.114      2.535      5.405
REMARK INTER + INTRA:         -12.940
REMARK INTER:                  -7.664
REMARK INTRA:                  -5.277
REMARK UNBOUND:                -4.498
REMARK  Name = lig_assembled_33.pdb
REMARK  22 active torsions:
REMARK  status: ('A' for Active; 'I' for Inactive)
REMARK    1  A    between atoms: _2  and  _9
REMARK    2  A    between atoms: _4  and  _20
REMARK    3  A    between atoms: _5  and  _13
REMARK    4  A    between atoms: _5  and  _14
REMARK    5  A    between atoms: _6  and  _7
REMARK    6  A    between atoms: _6  and  _20
REMARK    7  A    between atoms: _9  and  _10
REMARK    8  A    between atoms: _10  and  _11
REMARK    9  A    between atoms: _11  and  _12
REMARK   10  A    between atoms: _12  and  _13
REMARK   11  A    between atoms: _16  and  _36
REMARK   12  A    between atoms: _18  and  _24
REMARK   13  A    between atoms: _19  and  _23
REMARK   14  A    between atoms: _23  and  _24
REMARK   15  A    between atoms: _26  and  _27
REMARK   16  A    between atoms: _28  and  _29
REMARK   17  A    between atoms: _30  and  _32
REMARK   18  A    between atoms: _32  and  _33
REMARK   19  A    between atoms: _32  and  _34
REMARK   20  A    between atoms: _34  and  _35
REMARK   21  A    between atoms: _34  and  _36
REMARK   22  A    between atoms: _37  and  _39
REMARK                            x       y       z     vdW  Elec       q    Type
REMARK                         _______ _______ _______ _____ _____    ______ ____
ROOT
ATOM      1  C   UNL     1      -5.318  12.787  25.821  0.00  0.00    +0.163 C 
ENDROOT
BRANCH   1   2
ATOM      2  O   UNL     1      -5.966  11.633  25.261  0.00  0.00    -0.388 OA
ATOM      3  H   UNL     1      -5.476  10.843  25.498  0.00  0.00    +0.210 HD
ENDBRANCH   1   2
BRANCH   1   4
ATOM      4  C   UNL     1      -5.196  12.660  27.350  0.00  0.00    +0.175 C 
BRANCH   4   5
ATOM      5  C   UNL     1      -4.078  11.692  27.762  0.00  0.00    +0.176 C 
ATOM      6  O   UNL     1      -4.309  10.427  27.083  0.00  0.00    -0.332 OA
ATOM      7  C   UNL     1      -3.275   9.406  27.275  0.00  0.00    +0.277 C 
ATOM      8  C   UNL     1      -3.038   9.154  28.785  0.00  0.00    +0.110 C 
ATOM      9  C   UNL     1      -2.818  10.473  29.555  0.00  0.00    +0.143 C 
ATOM     10  C   UNL     1      -3.950  11.463  29.280  0.00  0.00    +0.133 C 
BRANCH  10  11
ATOM     11  N   UNL     1      -3.686  12.747  29.949  0.00  0.00    -0.308 N 
ATOM     12  H   UNL     1      -2.884  13.281  29.646  0.00  0.00    +0.149 HD
ATOM     13  C   UNL     1      -4.437  13.252  30.932  0.00  0.00    +0.210 C 
ATOM     14  C   UNL     1      -5.637  12.402  31.390  0.00  0.00    +0.109 C 
ATOM     15  O   UNL     1      -4.200  14.337  31.464  0.00  0.00    -0.276 OA
ENDBRANCH  10  11
BRANCH   7  16
ATOM     16  C   UNL     1      -1.951   9.836  26.610  0.00  0.00    +0.414 C 
ATOM     17  O   UNL     1      -1.956  10.335  25.486  0.00  0.00    -0.240 OA
ATOM     18  O   UNL     1      -0.879   9.684  27.197  0.00  0.00    -0.240 OA
ENDBRANCH   7  16
BRANCH   9  19
ATOM     19  O   UNL     1      -2.755  10.207  30.957  0.00  0.00    -0.390 OA
ATOM     20  H   UNL     1      -2.867   9.266  31.110  0.00  0.00    +0.210 HD
ENDBRANCH   9  19
BRANCH   7  21
ATOM     21  O   UNL     1      -3.746   8.172  26.674  0.00  0.00    -0.343 OA
ATOM     22  C   UNL     1      -5.083   7.771  27.066  0.00  0.00    +0.198 C 
ENDBRANCH   7  21
ENDBRANCH   4   5
BRANCH   4  23
ATOM     23  O   UNL     1      -6.453  12.238  27.915  0.00  0.00    -0.387 OA
ATOM     24  H   UNL     1      -7.157  12.803  27.588  0.00  0.00    +0.210 HD
ENDBRANCH   4  23
ENDBRANCH   1   4
BRANCH   1  25
ATOM     25  C   UNL     1      -3.930  12.953  25.211  0.00  0.00    +0.141 C 
BRANCH  25  28
ATOM     26  C   UNL     1      -3.781  13.205  22.758  0.00  0.00    +0.401 C 
ATOM     27  O   UNL     1      -3.754  14.437  22.792  0.00  0.00    -0.226 OA
ATOM     28  N   UNL     1      -3.869  12.431  23.840  0.00  0.00    -0.279 N 
ATOM     29  H   UNL     1      -3.894  11.430  23.710  0.00  0.00    +0.152 HD
BRANCH  26  30
ATOM     30  O   UNL     1      -3.720  12.544  21.491  0.00  0.00    -0.444 OA
BRANCH  30  31
ATOM     31  C   UNL     1      -4.996  12.622  20.850  0.00  0.00    +0.292 C 
BRANCH  31  33
ATOM     32  N   UNL     1      -6.534  11.584  22.486  0.00  0.00    -0.131 NA
ATOM     33  C   UNL     1      -5.864  11.515  21.293  0.00  0.00    +0.120 A 
ATOM     34  C   UNL     1      -6.152  10.312  20.683  0.00  0.00    +0.137 A 
ATOM     35  N   UNL     1      -7.007   9.704  21.551  0.00  0.00    -0.251 N 
ATOM     36  N   UNL     1      -7.221  10.461  22.640  0.00  0.00    -0.065 NA
BRANCH  35  37
ATOM     37  C   UNL     1      -7.645   8.410  21.423  0.00  0.00    +0.145 C 
BRANCH  37  38
ATOM     38  C   UNL     1      -7.573   7.603  22.717  0.00  0.00    +0.023 C 
BRANCH  38  39
ATOM     39  C   UNL     1      -6.596   6.428  22.626  0.00  0.00    +0.002 C 
BRANCH  39  40
ATOM     40  C   UNL     1      -5.239   6.918  22.115  0.00  0.00    +0.011 C 
BRANCH  40  41
ATOM     41  C   UNL     1      -4.301   7.346  23.241  0.00  0.00    +0.120 C 
BRANCH  41  42
ATOM     42  C   UNL     1      -4.001   8.827  23.172  0.00  0.00    +0.305 C 
ATOM     43  O   UNL     1      -3.243   9.359  22.379  0.00  0.00    -0.251 OA
BRANCH  42  44
ATOM     44  O   UNL     1      -4.683   9.534  24.104  0.00  0.00    -0.481 OA
ATOM     45  H   UNL     1      -4.125  10.137  24.628  0.00  0.00    +0.295 HD
ENDBRANCH  42  44
ENDBRANCH  41  42
ENDBRANCH  40  41
ENDBRANCH  39  40
ENDBRANCH  38  39
ENDBRANCH  37  38
ENDBRANCH  35  37
ENDBRANCH  31  33
ENDBRANCH  30  31
ENDBRANCH  26  30
ENDBRANCH  25  28
ENDBRANCH   1  25
TORSDOF 20
