REMARK VINA RESULT:    -4.881      2.996      9.648
REMARK INTER + INTRA:         -11.489
REMARK INTER:                  -9.018
REMARK INTRA:                  -2.471
REMARK UNBOUND:                -2.756
REMARK  Name = lig_assembled_41.pdb
REMARK  18 active torsions:
REMARK  status: ('A' for Active; 'I' for Inactive)
REMARK    1  A    between atoms: _2  and  _9
REMARK    2  A    between atoms: _4  and  _21
REMARK    3  A    between atoms: _6  and  _7
REMARK    4  A    between atoms: _6  and  _21
REMARK    5  A    between atoms: _10  and  _11
REMARK    6  A    between atoms: _11  and  _12
REMARK    7  A    between atoms: _17  and  _37
REMARK    8  A    between atoms: _19  and  _25
REMARK    9  A    between atoms: _20  and  _24
REMARK   10  A    between atoms: _24  and  _25
REMARK   11  A    between atoms: _27  and  _28
REMARK   12  A    between atoms: _29  and  _30
REMARK   13  A    between atoms: _31  and  _33
REMARK   14  A    between atoms: _33  and  _34
REMARK   15  A    between atoms: _33  and  _35
REMARK   16  A    between atoms: _35  and  _36
REMARK   17  A    between atoms: _35  and  _37
REMARK   18  A    between atoms: _38  and  _40
REMARK                            x       y       z     vdW  Elec       q    Type
REMARK                         _______ _______ _______ _____ _____    ______ ____
ROOT
ATOM      1  C   UNL     1      -3.259  11.824  25.083  0.00  0.00    +0.163 C 
ENDROOT
BRANCH   1   2
ATOM      2  O   UNL     1      -2.079  11.005  25.040  0.00  0.00    -0.388 OA
ATOM      3  H   UNL     1      -2.231  10.254  24.460  0.00  0.00    +0.210 HD
ENDBRANCH   1   2
BRANCH   1   4
ATOM      4  C   UNL     1      -3.000  13.150  24.376  0.00  0.00    +0.141 C 
BRANCH   4   7
ATOM      5  C   UNL     1      -4.991  13.718  23.028  0.00  0.00    +0.401 C 
ATOM      6  O   UNL     1      -5.654  14.100  23.995  0.00  0.00    -0.226 OA
ATOM      7  N   UNL     1      -3.744  13.252  23.115  0.00  0.00    -0.279 N 
ATOM      8  H   UNL     1      -3.286  12.953  22.266  0.00  0.00    +0.152 HD
BRANCH   5   9
ATOM      9  O   UNL     1      -5.576  13.763  21.724  0.00  0.00    -0.444 OA
BRANCH   9  10
ATOM     10  C   UNL     1      -6.269  12.538  21.468  0.00  0.00    +0.292 C 
BRANCH  10  12
ATOM     11  N   UNL     1      -7.158  12.150  19.200  0.00  0.00    -0.131 NA
ATOM     12  C   UNL     1      -6.101  12.138  20.059  0.00  0.00    +0.121 A 
ATOM     13  C   UNL     1      -4.973  11.733  19.378  0.00  0.00    +0.143 A 
ATOM     14  N   UNL     1      -5.414  11.402  18.118  0.00  0.00    -0.219 N 
ATOM     15  N   UNL     1      -6.725  11.755  18.012  0.00  0.00    -0.060 NA
BRANCH  14  16
ATOM     16  C   UNL     1      -4.709  10.896  16.989  0.00  0.00    +0.077 A 
ATOM     17  C   UNL     1      -4.583   9.528  16.666  0.00  0.00    +0.043 A 
ATOM     18  C   UNL     1      -3.811   9.164  15.542  0.00  0.00    +0.013 A 
ATOM     19  C   UNL     1      -3.171  10.127  14.759  0.00  0.00    +0.001 A 
ATOM     20  C   UNL     1      -3.315  11.473  15.061  0.00  0.00    +0.002 A 
ATOM     21  C   UNL     1      -4.086  11.855  16.158  0.00  0.00    +0.028 A 
BRANCH  17  22
ATOM     22  C   UNL     1      -5.383   8.443  17.310  0.00  0.00    +0.162 C 
ATOM     23  O   UNL     1      -5.000   7.963  18.375  0.00  0.00    -0.292 OA
ATOM     24  C   UNL     1      -6.652   7.944  16.661  0.00  0.00    +0.091 C 
ENDBRANCH  17  22
ENDBRANCH  14  16
ENDBRANCH  10  12
ENDBRANCH   9  10
ENDBRANCH   5   9
ENDBRANCH   4   7
ENDBRANCH   1   4
BRANCH   1  25
ATOM     25  C   UNL     1      -3.689  12.092  26.536  0.00  0.00    +0.175 C 
BRANCH  25  26
ATOM     26  C   UNL     1      -3.584  10.834  27.411  0.00  0.00    +0.176 C 
ATOM     27  O   UNL     1      -4.271   9.752  26.724  0.00  0.00    -0.332 OA
ATOM     28  C   UNL     1      -4.184   8.437  27.365  0.00  0.00    +0.277 C 
ATOM     29  C   UNL     1      -4.671   8.518  28.833  0.00  0.00    +0.110 C 
ATOM     30  C   UNL     1      -3.991   9.674  29.596  0.00  0.00    +0.143 C 
ATOM     31  C   UNL     1      -4.140  10.994  28.838  0.00  0.00    +0.133 C 
BRANCH  31  32
ATOM     32  N   UNL     1      -3.415  12.070  29.531  0.00  0.00    -0.308 N 
ATOM     33  H   UNL     1      -2.407  12.008  29.574  0.00  0.00    +0.149 HD
ATOM     34  C   UNL     1      -4.000  13.124  30.106  0.00  0.00    +0.210 C 
ATOM     35  C   UNL     1      -5.539  13.176  30.046  0.00  0.00    +0.109 C 
ATOM     36  O   UNL     1      -3.366  14.018  30.667  0.00  0.00    -0.276 OA
ENDBRANCH  31  32
BRANCH  28  37
ATOM     37  C   UNL     1      -2.736   7.907  27.331  0.00  0.00    +0.414 C 
ATOM     38  O   UNL     1      -2.000   8.174  26.382  0.00  0.00    -0.240 OA
ATOM     39  O   UNL     1      -2.303   7.213  28.252  0.00  0.00    -0.240 OA
ENDBRANCH  28  37
BRANCH  30  40
ATOM     40  O   UNL     1      -4.577   9.806  30.892  0.00  0.00    -0.390 OA
ATOM     41  H   UNL     1      -3.896  10.028  31.531  0.00  0.00    +0.210 HD
ENDBRANCH  30  40
BRANCH  28  42
ATOM     42  O   UNL     1      -5.055   7.527  26.644  0.00  0.00    -0.343 OA
ATOM     43  C   UNL     1      -5.649   6.479  27.451  0.00  0.00    +0.198 C 
ENDBRANCH  28  42
ENDBRANCH  25  26
BRANCH  25  44
ATOM     44  O   UNL     1      -5.035  12.608  26.568  0.00  0.00    -0.387 OA
ATOM     45  H   UNL     1      -5.415  12.457  27.437  0.00  0.00    +0.210 HD
ENDBRANCH  25  44
ENDBRANCH   1  25
TORSDOF 15
