REMARK VINA RESULT:    -4.778      4.222      9.532
REMARK INTER + INTRA:         -11.266
REMARK INTER:                  -9.177
REMARK INTRA:                  -2.089
REMARK UNBOUND:                -2.997
REMARK  Name = lig_assembled_15.pdb
REMARK  16 active torsions:
REMARK  status: ('A' for Active; 'I' for Inactive)
REMARK    1  A    between atoms: _2  and  _9
REMARK    2  A    between atoms: _4  and  _18
REMARK    3  A    between atoms: _6  and  _7
REMARK    4  A    between atoms: _6  and  _18
REMARK    5  A    between atoms: _14  and  _34
REMARK    6  A    between atoms: _16  and  _22
REMARK    7  A    between atoms: _17  and  _21
REMARK    8  A    between atoms: _21  and  _22
REMARK    9  A    between atoms: _24  and  _25
REMARK   10  A    between atoms: _26  and  _27
REMARK   11  A    between atoms: _28  and  _30
REMARK   12  A    between atoms: _30  and  _31
REMARK   13  A    between atoms: _30  and  _32
REMARK   14  A    between atoms: _32  and  _33
REMARK   15  A    between atoms: _32  and  _34
REMARK   16  A    between atoms: _35  and  _37
REMARK                            x       y       z     vdW  Elec       q    Type
REMARK                         _______ _______ _______ _____ _____    ______ ____
ROOT
ATOM      1  C   UNL     1      -3.206  11.793  25.060  0.00  0.00    +0.163 C 
ENDROOT
BRANCH   1   2
ATOM      2  O   UNL     1      -2.057  10.931  25.014  0.00  0.00    -0.388 OA
ATOM      3  H   UNL     1      -2.249  10.170  24.461  0.00  0.00    +0.210 HD
ENDBRANCH   1   2
BRANCH   1   4
ATOM      4  C   UNL     1      -2.871  13.142  24.431  0.00  0.00    +0.141 C 
BRANCH   4   7
ATOM      5  C   UNL     1      -4.785  13.924  23.078  0.00  0.00    +0.401 C 
ATOM      6  O   UNL     1      -5.426  14.332  24.049  0.00  0.00    -0.226 OA
ATOM      7  N   UNL     1      -3.585  13.348  23.165  0.00  0.00    -0.279 N 
ATOM      8  H   UNL     1      -3.142  13.037  22.312  0.00  0.00    +0.152 HD
BRANCH   5   9
ATOM      9  O   UNL     1      -5.345  14.061  21.769  0.00  0.00    -0.444 OA
BRANCH   9  10
ATOM     10  C   UNL     1      -6.319  13.036  21.557  0.00  0.00    +0.292 C 
BRANCH  10  12
ATOM     11  N   UNL     1      -7.184  12.648  19.271  0.00  0.00    -0.131 NA
ATOM     12  C   UNL     1      -6.193  12.484  20.194  0.00  0.00    +0.121 A 
ATOM     13  C   UNL     1      -5.160  11.776  19.623  0.00  0.00    +0.143 A 
ATOM     14  N   UNL     1      -5.559  11.551  18.325  0.00  0.00    -0.220 N 
ATOM     15  N   UNL     1      -6.795  12.073  18.141  0.00  0.00    -0.060 NA
BRANCH  14  16
ATOM     16  C   UNL     1      -4.845  10.915  17.275  0.00  0.00    +0.067 A 
ATOM     17  C   UNL     1      -4.942   9.531  17.073  0.00  0.00    +0.029 A 
ATOM     18  C   UNL     1      -4.199   8.918  16.059  0.00  0.00    +0.017 A 
ATOM     19  C   UNL     1      -3.365   9.683  15.246  0.00  0.00    +0.018 A 
ATOM     20 BR   UNL     1      -2.344   8.842  13.896  0.00  0.00    -0.050 Br
ATOM     21  C   UNL     1      -3.273  11.061  15.429  0.00  0.00    +0.017 A 
ATOM     22  C   UNL     1      -4.013  11.679  16.440  0.00  0.00    +0.029 A 
ENDBRANCH  14  16
ENDBRANCH  10  12
ENDBRANCH   9  10
ENDBRANCH   5   9
ENDBRANCH   4   7
ENDBRANCH   1   4
BRANCH   1  23
ATOM     23  C   UNL     1      -3.678  12.004  26.508  0.00  0.00    +0.175 C 
BRANCH  23  24
ATOM     24  C   UNL     1      -3.463  10.754  27.374  0.00  0.00    +0.176 C 
ATOM     25  O   UNL     1      -4.145   9.642  26.732  0.00  0.00    -0.332 OA
ATOM     26  C   UNL     1      -3.960   8.333  27.366  0.00  0.00    +0.277 C 
ATOM     27  C   UNL     1      -4.355   8.396  28.862  0.00  0.00    +0.110 C 
ATOM     28  C   UNL     1      -3.678   9.583  29.580  0.00  0.00    +0.143 C 
ATOM     29  C   UNL     1      -3.933  10.893  28.834  0.00  0.00    +0.133 C 
BRANCH  29  30
ATOM     30  N   UNL     1      -3.212  12.002  29.479  0.00  0.00    -0.308 N 
ATOM     31  H   UNL     1      -2.203  11.956  29.505  0.00  0.00    +0.149 HD
ATOM     32  C   UNL     1      -3.804  13.064  30.033  0.00  0.00    +0.210 C 
ATOM     33  C   UNL     1      -5.343  13.090  30.000  0.00  0.00    +0.109 C 
ATOM     34  O   UNL     1      -3.173  13.985  30.553  0.00  0.00    -0.276 OA
ENDBRANCH  29  30
BRANCH  26  35
ATOM     35  C   UNL     1      -2.495   7.866  27.239  0.00  0.00    +0.414 C 
ATOM     36  O   UNL     1      -1.995   7.150  28.105  0.00  0.00    -0.240 OA
ATOM     37  O   UNL     1      -1.813   8.206  26.271  0.00  0.00    -0.240 OA
ENDBRANCH  26  35
BRANCH  28  38
ATOM     38  O   UNL     1      -4.185   9.693  30.911  0.00  0.00    -0.390 OA
ATOM     39  H   UNL     1      -4.958  10.262  30.914  0.00  0.00    +0.210 HD
ENDBRANCH  28  38
BRANCH  26  40
ATOM     40  O   UNL     1      -4.834   7.385  26.702  0.00  0.00    -0.343 OA
ATOM     41  C   UNL     1      -5.509   6.453  27.584  0.00  0.00    +0.198 C 
ENDBRANCH  26  40
ENDBRANCH  23  24
BRANCH  23  42
ATOM     42  O   UNL     1      -5.068  12.387  26.527  0.00  0.00    -0.387 OA
ATOM     43  H   UNL     1      -5.405  12.327  27.424  0.00  0.00    +0.210 HD
ENDBRANCH  23  42
ENDBRANCH   1  23
TORSDOF 14
