REMARK VINA RESULT:    -5.112      4.112     12.393
REMARK INTER + INTRA:         -12.205
REMARK INTER:                 -10.250
REMARK INTRA:                  -1.956
REMARK UNBOUND:                -3.358
REMARK  Name = lig_assembled_42.pdb
REMARK  16 active torsions:
REMARK  status: ('A' for Active; 'I' for Inactive)
REMARK    1  A    between atoms: _2  and  _9
REMARK    2  A    between atoms: _4  and  _21
REMARK    3  A    between atoms: _6  and  _7
REMARK    4  A    between atoms: _6  and  _21
REMARK    5  A    between atoms: _17  and  _37
REMARK    6  A    between atoms: _19  and  _25
REMARK    7  A    between atoms: _20  and  _24
REMARK    8  A    between atoms: _24  and  _25
REMARK    9  A    between atoms: _27  and  _28
REMARK   10  A    between atoms: _29  and  _30
REMARK   11  A    between atoms: _31  and  _33
REMARK   12  A    between atoms: _33  and  _34
REMARK   13  A    between atoms: _33  and  _35
REMARK   14  A    between atoms: _35  and  _36
REMARK   15  A    between atoms: _35  and  _37
REMARK   16  A    between atoms: _38  and  _40
REMARK                            x       y       z     vdW  Elec       q    Type
REMARK                         _______ _______ _______ _____ _____    ______ ____
ROOT
ATOM      1  C   UNL     1      -3.187  11.812  25.090  0.00  0.00    +0.163 C 
ENDROOT
BRANCH   1   2
ATOM      2  O   UNL     1      -2.030  10.963  25.019  0.00  0.00    -0.388 OA
ATOM      3  H   UNL     1      -1.292  11.390  25.461  0.00  0.00    +0.210 HD
ENDBRANCH   1   2
BRANCH   1   4
ATOM      4  C   UNL     1      -2.930  13.110  24.332  0.00  0.00    +0.141 C 
BRANCH   4   7
ATOM      5  C   UNL     1      -4.049  12.962  22.134  0.00  0.00    +0.401 C 
ATOM      6  O   UNL     1      -3.177  12.249  21.632  0.00  0.00    -0.226 OA
ATOM      7  N   UNL     1      -4.012  13.415  23.387  0.00  0.00    -0.279 N 
ATOM      8  H   UNL     1      -4.770  14.002  23.705  0.00  0.00    +0.152 HD
BRANCH   5   9
ATOM      9  O   UNL     1      -5.177  13.341  21.341  0.00  0.00    -0.444 OA
BRANCH   9  10
ATOM     10  C   UNL     1      -5.858  12.168  20.887  0.00  0.00    +0.292 C 
BRANCH  10  12
ATOM     11  N   UNL     1      -6.861  12.190  18.618  0.00  0.00    -0.131 NA
ATOM     12  C   UNL     1      -5.766  12.050  19.420  0.00  0.00    +0.121 A 
ATOM     13  C   UNL     1      -4.667  11.798  18.635  0.00  0.00    +0.143 A 
ATOM     14  N   UNL     1      -5.139  11.793  17.345  0.00  0.00    -0.220 N 
ATOM     15  N   UNL     1      -6.474  12.033  17.357  0.00  0.00    -0.060 NA
BRANCH  14  16
ATOM     16  C   UNL     1      -4.415  11.576  16.145  0.00  0.00    +0.071 A 
ATOM     17  C   UNL     1      -3.994  12.669  15.372  0.00  0.00    +0.077 A 
ATOM     18  C   UNL     1      -3.293  12.407  14.215  0.00  0.00    +0.168 A 
ATOM     19  O   UNL     1      -2.813  13.348  13.360  0.00  0.00    -0.453 OA
ATOM     20  C   UNL     1      -2.181  12.513  12.369  0.00  0.00    +0.466 C 
ATOM     21  O   UNL     1      -2.304  11.101  12.646  0.00  0.00    -0.453 OA
ATOM     22  C   UNL     1      -3.003  11.126  13.811  0.00  0.00    +0.166 A 
ATOM     23  C   UNL     1      -3.402  10.029  14.544  0.00  0.00    +0.051 A 
ATOM     24  C   UNL     1      -4.117  10.257  15.728  0.00  0.00    +0.031 A 
ENDBRANCH  14  16
ENDBRANCH  10  12
ENDBRANCH   9  10
ENDBRANCH   5   9
ENDBRANCH   4   7
ENDBRANCH   1   4
BRANCH   1  25
ATOM     25  C   UNL     1      -3.545  12.133  26.552  0.00  0.00    +0.175 C 
BRANCH  25  26
ATOM     26  C   UNL     1      -3.350  10.920  27.474  0.00  0.00    +0.176 C 
ATOM     27  O   UNL     1      -3.993   9.775  26.850  0.00  0.00    -0.332 OA
ATOM     28  C   UNL     1      -3.818   8.495  27.541  0.00  0.00    +0.277 C 
ATOM     29  C   UNL     1      -4.273   8.610  29.017  0.00  0.00    +0.110 C 
ATOM     30  C   UNL     1      -3.639   9.833  29.714  0.00  0.00    +0.143 C 
ATOM     31  C   UNL     1      -3.879  11.110  28.908  0.00  0.00    +0.133 C 
BRANCH  31  32
ATOM     32  N   UNL     1      -3.197  12.252  29.537  0.00  0.00    -0.308 N 
ATOM     33  H   UNL     1      -2.187  12.243  29.561  0.00  0.00    +0.149 HD
ATOM     34  C   UNL     1      -3.825  13.299  30.078  0.00  0.00    +0.210 C 
ATOM     35  C   UNL     1      -5.365  13.270  30.049  0.00  0.00    +0.109 C 
ATOM     36  O   UNL     1      -3.227  14.249  30.585  0.00  0.00    -0.276 OA
ENDBRANCH  31  32
BRANCH  28  37
ATOM     37  C   UNL     1      -2.344   8.042  27.490  0.00  0.00    +0.414 C 
ATOM     38  O   UNL     1      -1.875   7.354  28.396  0.00  0.00    -0.240 OA
ATOM     39  O   UNL     1      -1.625   8.365  26.544  0.00  0.00    -0.240 OA
ENDBRANCH  28  37
BRANCH  30  40
ATOM     40  O   UNL     1      -4.200   9.988  31.018  0.00  0.00    -0.390 OA
ATOM     41  H   UNL     1      -3.758  10.708  31.474  0.00  0.00    +0.210 HD
ENDBRANCH  30  40
BRANCH  28  42
ATOM     42  O   UNL     1      -4.655   7.510  26.881  0.00  0.00    -0.343 OA
ATOM     43  C   UNL     1      -4.979   7.810  25.500  0.00  0.00    +0.198 C 
ENDBRANCH  28  42
ENDBRANCH  25  26
BRANCH  25  44
ATOM     44  O   UNL     1      -4.903  12.609  26.638  0.00  0.00    -0.387 OA
ATOM     45  H   UNL     1      -5.164  12.985  25.794  0.00  0.00    +0.210 HD
ENDBRANCH  25  44
ENDBRANCH   1  25
TORSDOF 14
