REMARK VINA RESULT:    -5.102      2.968     10.063
REMARK INTER + INTRA:         -11.920
REMARK INTER:                  -9.756
REMARK INTRA:                  -2.164
REMARK UNBOUND:                -2.792
REMARK  Name = lig_assembled_5.pdb
REMARK  18 active torsions:
REMARK  status: ('A' for Active; 'I' for Inactive)
REMARK    1  A    between atoms: _2  and  _9
REMARK    2  A    between atoms: _4  and  _20
REMARK    3  A    between atoms: _6  and  _7
REMARK    4  A    between atoms: _6  and  _20
REMARK    5  A    between atoms: _12  and  _15
REMARK    6  A    between atoms: _13  and  _15
REMARK    7  A    between atoms: _16  and  _36
REMARK    8  A    between atoms: _18  and  _24
REMARK    9  A    between atoms: _19  and  _23
REMARK   10  A    between atoms: _23  and  _24
REMARK   11  A    between atoms: _26  and  _27
REMARK   12  A    between atoms: _28  and  _29
REMARK   13  A    between atoms: _30  and  _32
REMARK   14  A    between atoms: _32  and  _33
REMARK   15  A    between atoms: _32  and  _34
REMARK   16  A    between atoms: _34  and  _35
REMARK   17  A    between atoms: _34  and  _36
REMARK   18  A    between atoms: _37  and  _39
REMARK                            x       y       z     vdW  Elec       q    Type
REMARK                         _______ _______ _______ _____ _____    ______ ____
ROOT
ATOM      1  C   UNL     1      -3.196  11.828  25.106  0.00  0.00    +0.163 C 
ENDROOT
BRANCH   1   2
ATOM      2  O   UNL     1      -1.997  11.041  25.019  0.00  0.00    -0.388 OA
ATOM      3  H   UNL     1      -2.043  10.470  24.249  0.00  0.00    +0.210 HD
ENDBRANCH   1   2
BRANCH   1   4
ATOM      4  C   UNL     1      -2.987  13.174  24.420  0.00  0.00    +0.141 C 
BRANCH   4   7
ATOM      5  C   UNL     1      -4.973  13.743  23.065  0.00  0.00    +0.401 C 
ATOM      6  O   UNL     1      -5.632  14.143  24.028  0.00  0.00    -0.226 OA
ATOM      7  N   UNL     1      -3.731  13.267  23.158  0.00  0.00    -0.279 N 
ATOM      8  H   UNL     1      -3.276  12.954  22.312  0.00  0.00    +0.152 HD
BRANCH   5   9
ATOM      9  O   UNL     1      -5.559  13.777  21.761  0.00  0.00    -0.444 OA
BRANCH   9  10
ATOM     10  C   UNL     1      -6.080  12.486  21.437  0.00  0.00    +0.292 C 
BRANCH  10  12
ATOM     11  N   UNL     1      -7.079  12.389  19.175  0.00  0.00    -0.131 NA
ATOM     12  C   UNL     1      -5.989  12.247  19.984  0.00  0.00    +0.121 A 
ATOM     13  C   UNL     1      -4.908  11.879  19.219  0.00  0.00    +0.143 A 
ATOM     14  N   UNL     1      -5.382  11.835  17.927  0.00  0.00    -0.220 N 
ATOM     15  N   UNL     1      -6.706  12.130  17.930  0.00  0.00    -0.060 NA
BRANCH  14  16
ATOM     16  C   UNL     1      -4.672  11.567  16.728  0.00  0.00    +0.067 A 
ATOM     17  C   UNL     1      -4.325  10.257  16.378  0.00  0.00    +0.031 A 
ATOM     18  C   UNL     1      -3.573  10.020  15.225  0.00  0.00    +0.048 A 
ATOM     19  C   UNL     1      -3.177  11.074  14.399  0.00  0.00    +0.120 A 
ATOM     20  C   UNL     1      -3.534  12.378  14.736  0.00  0.00    +0.048 A 
ATOM     21  C   UNL     1      -4.279  12.627  15.897  0.00  0.00    +0.031 A 
BRANCH  19  22
ATOM     22  O   UNL     1      -2.394  10.710  13.339  0.00  0.00    -0.495 OA
ATOM     23  C   UNL     1      -3.052  10.048  12.267  0.00  0.00    +0.277 C 
ENDBRANCH  19  22
ENDBRANCH  14  16
ENDBRANCH  10  12
ENDBRANCH   9  10
ENDBRANCH   5   9
ENDBRANCH   4   7
ENDBRANCH   1   4
BRANCH   1  24
ATOM     24  C   UNL     1      -3.601  12.055  26.572  0.00  0.00    +0.175 C 
BRANCH  24  25
ATOM     25  C   UNL     1      -3.380  10.803  27.433  0.00  0.00    +0.176 C 
ATOM     26  O   UNL     1      -3.974   9.672  26.738  0.00  0.00    -0.332 OA
ATOM     27  C   UNL     1      -3.768   8.363  27.366  0.00  0.00    +0.277 C 
ATOM     28  C   UNL     1      -4.251   8.386  28.837  0.00  0.00    +0.110 C 
ATOM     29  C   UNL     1      -3.671   9.590  29.608  0.00  0.00    +0.143 C 
ATOM     30  C   UNL     1      -3.940  10.899  28.865  0.00  0.00    +0.133 C 
BRANCH  30  31
ATOM     31  N   UNL     1      -3.307  12.028  29.565  0.00  0.00    -0.308 N 
ATOM     32  H   UNL     1      -2.298  12.054  29.602  0.00  0.00    +0.149 HD
ATOM     33  C   UNL     1      -3.979  13.020  30.155  0.00  0.00    +0.210 C 
ATOM     34  C   UNL     1      -5.517  12.937  30.104  0.00  0.00    +0.109 C 
ATOM     35  O   UNL     1      -3.422  13.961  30.722  0.00  0.00    -0.276 OA
ENDBRANCH  30  31
BRANCH  27  36
ATOM     36  C   UNL     1      -2.279   7.963  27.318  0.00  0.00    +0.414 C 
ATOM     37  O   UNL     1      -1.592   8.245  26.337  0.00  0.00    -0.240 OA
ATOM     38  O   UNL     1      -1.765   7.358  28.260  0.00  0.00    -0.240 OA
ENDBRANCH  27  36
BRANCH  27  39
ATOM     39  O   UNL     1      -4.560   7.388  26.639  0.00  0.00    -0.343 OA
ATOM     40  C   UNL     1      -5.478   6.616  27.454  0.00  0.00    +0.198 C 
ENDBRANCH  27  39
BRANCH  29  41
ATOM     41  O   UNL     1      -4.258   9.657  30.908  0.00  0.00    -0.390 OA
ATOM     42  H   UNL     1      -4.425   8.769  31.231  0.00  0.00    +0.210 HD
ENDBRANCH  29  41
ENDBRANCH  24  25
BRANCH  24  43
ATOM     43  O   UNL     1      -4.978  12.475  26.648  0.00  0.00    -0.387 OA
ATOM     44  H   UNL     1      -5.031  13.319  27.103  0.00  0.00    +0.210 HD
ENDBRANCH  24  43
ENDBRANCH   1  24
TORSDOF 15
