REMARK VINA RESULT:    -4.422      3.191      6.128
REMARK INTER + INTRA:         -10.145
REMARK INTER:                  -6.501
REMARK INTRA:                  -3.644
REMARK UNBOUND:                -2.233
REMARK  Name = lig_assembled_61.pdb
REMARK  17 active torsions:
REMARK  status: ('A' for Active; 'I' for Inactive)
REMARK    1  A    between atoms: _2  and  _9
REMARK    2  A    between atoms: _4  and  _17
REMARK    3  A    between atoms: _6  and  _7
REMARK    4  A    between atoms: _6  and  _17
REMARK    5  A    between atoms: _9  and  _10
REMARK    6  A    between atoms: _13  and  _33
REMARK    7  A    between atoms: _15  and  _21
REMARK    8  A    between atoms: _16  and  _20
REMARK    9  A    between atoms: _20  and  _21
REMARK   10  A    between atoms: _23  and  _24
REMARK   11  A    between atoms: _25  and  _26
REMARK   12  A    between atoms: _27  and  _29
REMARK   13  A    between atoms: _29  and  _30
REMARK   14  A    between atoms: _29  and  _31
REMARK   15  A    between atoms: _31  and  _32
REMARK   16  A    between atoms: _31  and  _33
REMARK   17  A    between atoms: _34  and  _36
REMARK                            x       y       z     vdW  Elec       q    Type
REMARK                         _______ _______ _______ _____ _____    ______ ____
ROOT
ATOM      1  C   UNL     1      -4.413  13.150  25.238  0.00  0.00    +0.163 C 
ENDROOT
BRANCH   1   2
ATOM      2  O   UNL     1      -5.137  13.734  24.143  0.00  0.00    -0.388 OA
ATOM      3  H   UNL     1      -4.939  14.672  24.091  0.00  0.00    +0.210 HD
ENDBRANCH   1   2
BRANCH   1   4
ATOM      4  C   UNL     1      -3.040  12.684  24.766  0.00  0.00    +0.141 C 
BRANCH   4   7
ATOM      5  C   UNL     1      -3.008  11.183  22.803  0.00  0.00    +0.401 C 
ATOM      6  O   UNL     1      -3.000  10.150  23.475  0.00  0.00    -0.226 OA
ATOM      7  N   UNL     1      -3.021  12.411  23.323  0.00  0.00    -0.279 N 
ATOM      8  H   UNL     1      -3.017  13.198  22.690  0.00  0.00    +0.152 HD
BRANCH   5   9
ATOM      9  O   UNL     1      -3.000  11.084  21.376  0.00  0.00    -0.444 OA
BRANCH   9  10
ATOM     10  C   UNL     1      -4.050  11.891  20.835  0.00  0.00    +0.292 C 
BRANCH  10  12
ATOM     11  N   UNL     1      -6.183  12.152  22.062  0.00  0.00    -0.131 NA
ATOM     12  C   UNL     1      -5.365  11.386  21.273  0.00  0.00    +0.120 A 
ATOM     13  C   UNL     1      -5.983  10.182  21.015  0.00  0.00    +0.137 A 
ATOM     14  N   UNL     1      -7.147  10.254  21.722  0.00  0.00    -0.247 N 
ATOM     15  N   UNL     1      -7.283  11.454  22.316  0.00  0.00    -0.065 NA
BRANCH  14  16
ATOM     16  C   UNL     1      -8.185   9.248  21.849  0.00  0.00    +0.180 C 
BRANCH  16  17
ATOM     17  C   UNL     1      -8.042   8.454  23.118  0.00  0.00    -0.019 A 
ATOM     18  C   UNL     1      -7.153   7.338  23.285  0.00  0.00    +0.013 A 
ATOM     19  C   UNL     1      -7.245   6.763  24.534  0.00  0.00    +0.045 A 
ATOM     20  S   UNL     1      -8.385   7.562  25.523  0.00  0.00    -0.105 S 
ATOM     21  C   UNL     1      -8.767   8.669  24.279  0.00  0.00    +0.050 A 
ENDBRANCH  16  17
ENDBRANCH  14  16
ENDBRANCH  10  12
ENDBRANCH   9  10
ENDBRANCH   5   9
ENDBRANCH   4   7
ENDBRANCH   1   4
BRANCH   1  22
ATOM     22  C   UNL     1      -5.183  11.959  25.835  0.00  0.00    +0.175 C 
BRANCH  22  23
ATOM     23  C   UNL     1      -4.386  11.250  26.939  0.00  0.00    +0.176 C 
ATOM     24  O   UNL     1      -4.309   9.838  26.598  0.00  0.00    -0.332 OA
ATOM     25  C   UNL     1      -3.488   9.015  27.492  0.00  0.00    +0.277 C 
ATOM     26  C   UNL     1      -3.958   9.174  28.958  0.00  0.00    +0.110 C 
ATOM     27  C   UNL     1      -4.086  10.660  29.357  0.00  0.00    +0.143 C 
ATOM     28  C   UNL     1      -4.957  11.423  28.359  0.00  0.00    +0.133 C 
BRANCH  28  29
ATOM     29  N   UNL     1      -5.000  12.853  28.700  0.00  0.00    -0.308 N 
ATOM     30  H   UNL     1      -4.126  13.361  28.716  0.00  0.00    +0.149 HD
ATOM     31  C   UNL     1      -6.117  13.525  28.991  0.00  0.00    +0.210 C 
ATOM     32  C   UNL     1      -7.429  12.717  28.984  0.00  0.00    +0.109 C 
ATOM     33  O   UNL     1      -6.125  14.727  29.259  0.00  0.00    -0.276 OA
ENDBRANCH  28  29
BRANCH  25  34
ATOM     34  C   UNL     1      -2.000   9.404  27.382  0.00  0.00    +0.414 C 
ATOM     35  O   UNL     1      -1.222   9.147  28.299  0.00  0.00    -0.240 OA
ATOM     36  O   UNL     1      -1.577   9.976  26.376  0.00  0.00    -0.240 OA
ENDBRANCH  25  34
BRANCH  25  37
ATOM     37  O   UNL     1      -3.660   7.627  27.105  0.00  0.00    -0.343 OA
ATOM     38  C   UNL     1      -4.889   7.011  27.564  0.00  0.00    +0.198 C 
ENDBRANCH  25  37
BRANCH  27  39
ATOM     39  O   UNL     1      -4.663  10.761  30.659  0.00  0.00    -0.390 OA
ATOM     40  H   UNL     1      -4.005  11.088  31.277  0.00  0.00    +0.210 HD
ENDBRANCH  27  39
ENDBRANCH  22  23
BRANCH  22  41
ATOM     41  O   UNL     1      -5.533  11.024  24.795  0.00  0.00    -0.387 OA
ATOM     42  H   UNL     1      -4.903  11.096  24.074  0.00  0.00    +0.210 HD
ENDBRANCH  22  41
ENDBRANCH   1  22
TORSDOF 15
