REMARK VINA RESULT:    -5.591      2.483      7.201
REMARK INTER + INTRA:         -11.848
REMARK INTER:                  -8.642
REMARK INTRA:                  -3.205
REMARK UNBOUND:                -2.170
REMARK  Name = lig_assembled_87.pdb
REMARK  17 active torsions:
REMARK  status: ('A' for Active; 'I' for Inactive)
REMARK    1  A    between atoms: _2  and  _10
REMARK    2  A    between atoms: _3  and  _13
REMARK    3  A    between atoms: _5  and  _21
REMARK    4  A    between atoms: _7  and  _8
REMARK    5  A    between atoms: _7  and  _21
REMARK    6  A    between atoms: _17  and  _37
REMARK    7  A    between atoms: _19  and  _25
REMARK    8  A    between atoms: _20  and  _24
REMARK    9  A    between atoms: _24  and  _25
REMARK   10  A    between atoms: _27  and  _28
REMARK   11  A    between atoms: _29  and  _30
REMARK   12  A    between atoms: _31  and  _33
REMARK   13  A    between atoms: _33  and  _34
REMARK   14  A    between atoms: _33  and  _35
REMARK   15  A    between atoms: _35  and  _36
REMARK   16  A    between atoms: _35  and  _37
REMARK   17  A    between atoms: _38  and  _40
REMARK                            x       y       z     vdW  Elec       q    Type
REMARK                         _______ _______ _______ _____ _____    ______ ____
ROOT
ATOM      1  C   UNL     1      -3.893  11.937  25.307  0.00  0.00    +0.163 C 
ENDROOT
BRANCH   1   2
ATOM      2  O   UNL     1      -2.888  10.938  25.067  0.00  0.00    -0.388 OA
ATOM      3  H   UNL     1      -2.564  11.020  24.167  0.00  0.00    +0.210 HD
ENDBRANCH   1   2
BRANCH   1   4
ATOM      4  C   UNL     1      -3.539  13.222  24.566  0.00  0.00    +0.141 C 
BRANCH   4   7
ATOM      5  C   UNL     1      -3.792  13.289  22.109  0.00  0.00    +0.401 C 
ATOM      6  O   UNL     1      -4.893  13.842  22.143  0.00  0.00    -0.226 OA
ATOM      7  N   UNL     1      -3.091  12.956  23.194  0.00  0.00    -0.279 N 
ATOM      8  H   UNL     1      -2.200  12.496  23.064  0.00  0.00    +0.152 HD
BRANCH   5   9
ATOM      9  O   UNL     1      -3.213  12.970  20.841  0.00  0.00    -0.444 OA
BRANCH   9  10
ATOM     10  C   UNL     1      -3.926  11.879  20.251  0.00  0.00    +0.292 C 
BRANCH  10  12
ATOM     11  N   UNL     1      -2.886  10.229  21.767  0.00  0.00    -0.131 NA
ATOM     12  C   UNL     1      -4.013  10.758  21.203  0.00  0.00    +0.120 A 
ATOM     13  C   UNL     1      -5.115  10.090  21.688  0.00  0.00    +0.137 A 
ATOM     14  N   UNL     1      -4.608   9.246  22.639  0.00  0.00    -0.248 N 
ATOM     15  N   UNL     1      -3.260   9.262  22.587  0.00  0.00    -0.065 NA
BRANCH  14  16
ATOM     16  C   UNL     1      -5.282   8.381  23.625  0.00  0.00    +0.112 C 
ATOM     17  C   UNL     1      -4.560   7.036  23.915  0.00  0.00    +0.045 C 
ATOM     18  C   UNL     1      -5.371   5.765  23.613  0.00  0.00    +0.059 C 
ATOM     19  C   UNL     1      -6.397   5.462  24.715  0.00  0.00    +0.020 C 
ATOM     20  C   UNL     1      -7.703   6.069  24.204  0.00  0.00    +0.020 C 
ATOM     21  C   UNL     1      -7.288   6.826  22.941  0.00  0.00    +0.059 C 
ATOM     22  N   UNL     1      -6.249   5.920  22.461  0.00  0.00    -0.299 NA
ATOM     23  C   UNL     1      -5.634   6.220  21.186  0.00  0.00    +0.105 C 
ATOM     24  C   UNL     1      -6.799   8.231  23.295  0.00  0.00    +0.045 C 
ENDBRANCH  14  16
ENDBRANCH  10  12
ENDBRANCH   9  10
ENDBRANCH   5   9
ENDBRANCH   4   7
ENDBRANCH   1   4
BRANCH   1  25
ATOM     25  C   UNL     1      -4.028  12.231  26.811  0.00  0.00    +0.175 C 
BRANCH  25  26
ATOM     26  C   UNL     1      -3.547  11.057  27.676  0.00  0.00    +0.176 C 
ATOM     27  O   UNL     1      -4.172   9.845  27.170  0.00  0.00    -0.332 OA
ATOM     28  C   UNL     1      -3.746   8.597  27.811  0.00  0.00    +0.277 C 
ATOM     29  C   UNL     1      -3.937   8.684  29.345  0.00  0.00    +0.110 C 
ATOM     30  C   UNL     1      -3.317   9.973  29.925  0.00  0.00    +0.143 C 
ATOM     31  C   UNL     1      -3.827  11.209  29.182  0.00  0.00    +0.133 C 
BRANCH  31  32
ATOM     32  N   UNL     1      -3.163  12.422  29.685  0.00  0.00    -0.308 N 
ATOM     33  H   UNL     1      -2.168  12.513  29.534  0.00  0.00    +0.149 HD
ATOM     34  C   UNL     1      -3.790  13.412  30.328  0.00  0.00    +0.210 C 
ATOM     35  C   UNL     1      -5.301  13.232  30.565  0.00  0.00    +0.109 C 
ATOM     36  O   UNL     1      -3.211  14.423  30.725  0.00  0.00    -0.276 OA
ENDBRANCH  31  32
BRANCH  28  37
ATOM     37  C   UNL     1      -2.266   8.296  27.493  0.00  0.00    +0.414 C 
ATOM     38  O   UNL     1      -1.827   8.479  26.358  0.00  0.00    -0.240 OA
ATOM     39  O   UNL     1      -1.513   7.871  28.369  0.00  0.00    -0.240 OA
ENDBRANCH  28  37
BRANCH  30  40
ATOM     40  O   UNL     1      -3.647  10.086  31.309  0.00  0.00    -0.390 OA
ATOM     41  H   UNL     1      -3.028  10.681  31.739  0.00  0.00    +0.210 HD
ENDBRANCH  30  40
BRANCH  28  42
ATOM     42  O   UNL     1      -4.582   7.524  27.306  0.00  0.00    -0.343 OA
ATOM     43  C   UNL     1      -4.707   6.379  28.187  0.00  0.00    +0.198 C 
ENDBRANCH  28  42
ENDBRANCH  25  26
BRANCH  25  44
ATOM     44  O   UNL     1      -5.395  12.558  27.132  0.00  0.00    -0.387 OA
ATOM     45  H   UNL     1      -5.808  11.811  27.571  0.00  0.00    +0.210 HD
ENDBRANCH  25  44
ENDBRANCH   1  25
TORSDOF 14
