REMARK VINA RESULT:    -4.954      4.578     12.658
REMARK INTER + INTRA:         -13.809
REMARK INTER:                 -11.284
REMARK INTRA:                  -2.525
REMARK UNBOUND:                -3.788
REMARK  Name = lig_assembled_81.pdb
REMARK  22 active torsions:
REMARK  status: ('A' for Active; 'I' for Inactive)
REMARK    1  A    between atoms: _2  and  _12
REMARK    2  A    between atoms: _7  and  _30
REMARK    3  A    between atoms: _8  and  _24
REMARK    4  A    between atoms: _9  and  _10
REMARK    5  A    between atoms: _9  and  _30
REMARK    6  A    between atoms: _14  and  _15
REMARK    7  A    between atoms: _21  and  _22
REMARK    8  A    between atoms: _22  and  _23
REMARK    9  A    between atoms: _23  and  _25
REMARK   10  A    between atoms: _24  and  _25
REMARK   11  A    between atoms: _26  and  _46
REMARK   12  A    between atoms: _28  and  _34
REMARK   13  A    between atoms: _29  and  _33
REMARK   14  A    between atoms: _33  and  _34
REMARK   15  A    between atoms: _36  and  _37
REMARK   16  A    between atoms: _38  and  _39
REMARK   17  A    between atoms: _40  and  _42
REMARK   18  A    between atoms: _42  and  _43
REMARK   19  A    between atoms: _42  and  _44
REMARK   20  A    between atoms: _44  and  _45
REMARK   21  A    between atoms: _44  and  _46
REMARK   22  A    between atoms: _47  and  _49
REMARK                            x       y       z     vdW  Elec       q    Type
REMARK                         _______ _______ _______ _____ _____    ______ ____
ROOT
ATOM      1  C   UNL     1      -3.945  11.209  21.770  0.00  0.00    +0.401 C 
ATOM      2  O   UNL     1      -3.365  12.226  21.382  0.00  0.00    -0.226 OA
ATOM      3  N   UNL     1      -4.442  11.057  22.998  0.00  0.00    -0.279 N 
ATOM      4  H   UNL     1      -4.910  10.189  23.219  0.00  0.00    +0.152 HD
ENDROOT
BRANCH   1   5
ATOM      5  O   UNL     1      -4.109  10.115  20.864  0.00  0.00    -0.444 OA
BRANCH   5   6
ATOM      6  C   UNL     1      -5.482  10.019  20.474  0.00  0.00    +0.289 C 
BRANCH   6   8
ATOM      7  N   UNL     1      -6.580   9.719  18.302  0.00  0.00    -0.130 NA
ATOM      8  C   UNL     1      -5.635  10.361  19.046  0.00  0.00    +0.100 C 
ATOM      9  C   UNL     1      -4.952  11.241  18.228  0.00  0.00    +0.124 C 
ATOM     10  N   UNL     1      -5.627  11.192  17.016  0.00  0.00    -0.187 N 
ATOM     11  N   UNL     1      -6.465  10.136  17.053  0.00  0.00    -0.010 NA
BRANCH  10  12
ATOM     12  C   UNL     1      -5.367  11.951  15.826  0.00  0.00    +0.150 A 
ATOM     13  C   UNL     1      -4.140  11.981  15.117  0.00  0.00    +0.022 A 
ATOM     14  C   UNL     1      -4.148  12.884  14.022  0.00  0.00    +0.081 A 
ATOM     15  N   UNL     1      -5.220  13.681  13.759  0.00  0.00    -0.214 NA
ATOM     16  C   UNL     1      -6.302  13.581  14.512  0.00  0.00    +0.215 A 
ATOM     17  N   UNL     1      -7.337  14.457  14.286  0.00  0.00    -0.327 N 
ATOM     18  H   UNL     1      -7.302  14.833  13.351  0.00  0.00    +0.145 HD
ATOM     19  H   UNL     1      -8.213  14.100  14.637  0.00  0.00    +0.145 HD
ATOM     20  N   UNL     1      -6.455  12.688  15.470  0.00  0.00    -0.198 NA
BRANCH  14  21
ATOM     21  C   UNL     1      -3.044  13.144  13.022  0.00  0.00    +0.001 A 
ATOM     22  C   UNL     1      -2.055  14.138  13.149  0.00  0.00    +0.010 A 
ATOM     23  C   UNL     1      -1.045  14.323  12.189  0.00  0.00    +0.001 A 
ATOM     24  C   UNL     1      -0.949  13.482  11.097  0.00  0.00    +0.000 A 
ATOM     25  C   UNL     1      -1.871  12.447  10.956  0.00  0.00    +0.001 A 
ATOM     26  C   UNL     1      -2.901  12.297  11.896  0.00  0.00    +0.010 A 
ENDBRANCH  14  21
BRANCH  13  27
ATOM     27  C   UNL     1      -2.899  11.107  15.318  0.00  0.00    +0.069 C 
BRANCH  27  28
ATOM     28  C   UNL     1      -2.841   9.689  14.782  0.00  0.00    +0.164 C 
BRANCH  28  29
ATOM     29  O   UNL     1      -1.960   9.463  13.676  0.00  0.00    -0.380 OA
BRANCH  29  30
ATOM     30  C   UNL     1      -1.745   8.039  13.616  0.00  0.00    +0.156 C 
ATOM     31  C   UNL     1      -1.952   7.385  14.963  0.00  0.00    +0.034 C 
ENDBRANCH  29  30
ENDBRANCH  28  29
ENDBRANCH  27  28
ENDBRANCH  13  27
ENDBRANCH  10  12
ENDBRANCH   6   8
ENDBRANCH   5   6
ENDBRANCH   1   5
BRANCH   3  32
ATOM     32  C   UNL     1      -4.348  12.080  24.047  0.00  0.00    +0.141 C 
BRANCH  32  33
ATOM     33  C   UNL     1      -3.154  11.843  24.966  0.00  0.00    +0.163 C 
BRANCH  33  34
ATOM     34  O   UNL     1      -2.057  12.685  24.573  0.00  0.00    -0.388 OA
ATOM     35  H   UNL     1      -1.784  12.460  23.680  0.00  0.00    +0.210 HD
ENDBRANCH  33  34
BRANCH  33  36
ATOM     36  C   UNL     1      -3.564  12.119  26.422  0.00  0.00    +0.175 C 
BRANCH  36  37
ATOM     37  C   UNL     1      -3.342  10.898  27.327  0.00  0.00    +0.176 C 
ATOM     38  O   UNL     1      -3.962   9.749  26.686  0.00  0.00    -0.332 OA
ATOM     39  C   UNL     1      -3.759   8.462  27.359  0.00  0.00    +0.277 C 
ATOM     40  C   UNL     1      -4.213   8.546  28.837  0.00  0.00    +0.110 C 
ATOM     41  C   UNL     1      -3.604   9.772  29.551  0.00  0.00    +0.143 C 
ATOM     42  C   UNL     1      -3.872  11.055  28.764  0.00  0.00    +0.133 C 
BRANCH  42  43
ATOM     43  N   UNL     1      -3.214  12.202  29.408  0.00  0.00    -0.308 N 
ATOM     44  H   UNL     1      -2.204  12.222  29.416  0.00  0.00    +0.149 HD
ATOM     45  C   UNL     1      -3.863  13.217  29.984  0.00  0.00    +0.210 C 
ATOM     46  C   UNL     1      -5.402  13.143  29.978  0.00  0.00    +0.109 C 
ATOM     47  O   UNL     1      -3.285  14.172  30.503  0.00  0.00    -0.276 OA
ENDBRANCH  42  43
BRANCH  39  48
ATOM     48  C   UNL     1      -2.275   8.042  27.299  0.00  0.00    +0.414 C 
ATOM     49  O   UNL     1      -1.675   8.037  26.225  0.00  0.00    -0.240 OA
ATOM     50  O   UNL     1      -1.679   7.707  28.324  0.00  0.00    -0.240 OA
ENDBRANCH  39  48
BRANCH  39  51
ATOM     51  O   UNL     1      -4.575   7.470  26.685  0.00  0.00    -0.343 OA
ATOM     52  C   UNL     1      -4.750   6.226  27.410  0.00  0.00    +0.198 C 
ENDBRANCH  39  51
BRANCH  41  53
ATOM     53  O   UNL     1      -4.166   9.895  30.858  0.00  0.00    -0.390 OA
ATOM     54  H   UNL     1      -4.542  10.772  30.964  0.00  0.00    +0.210 HD
ENDBRANCH  41  53
ENDBRANCH  36  37
BRANCH  36  55
ATOM     55  O   UNL     1      -4.943  12.535  26.480  0.00  0.00    -0.387 OA
ATOM     56  H   UNL     1      -5.077  13.095  27.248  0.00  0.00    +0.210 HD
ENDBRANCH  36  55
ENDBRANCH  33  36
ENDBRANCH  32  33
ENDBRANCH   3  32
TORSDOF 19
