REMARK VINA RESULT:    -4.958      3.706      5.712
REMARK INTER + INTRA:         -11.714
REMARK INTER:                  -9.163
REMARK INTRA:                  -2.551
REMARK UNBOUND:                -2.844
REMARK  Name = lig_assembled_44.pdb
REMARK  17 active torsions:
REMARK  status: ('A' for Active; 'I' for Inactive)
REMARK    1  A    between atoms: _2  and  _9
REMARK    2  A    between atoms: _4  and  _19
REMARK    3  A    between atoms: _6  and  _7
REMARK    4  A    between atoms: _6  and  _19
REMARK    5  A    between atoms: _9  and  _10
REMARK    6  A    between atoms: _15  and  _35
REMARK    7  A    between atoms: _17  and  _23
REMARK    8  A    between atoms: _18  and  _22
REMARK    9  A    between atoms: _22  and  _23
REMARK   10  A    between atoms: _25  and  _26
REMARK   11  A    between atoms: _27  and  _28
REMARK   12  A    between atoms: _29  and  _31
REMARK   13  A    between atoms: _31  and  _32
REMARK   14  A    between atoms: _31  and  _33
REMARK   15  A    between atoms: _33  and  _34
REMARK   16  A    between atoms: _33  and  _35
REMARK   17  A    between atoms: _36  and  _38
REMARK                            x       y       z     vdW  Elec       q    Type
REMARK                         _______ _______ _______ _____ _____    ______ ____
ROOT
ATOM      1  C   UNL     1      -3.253  11.704  25.140  0.00  0.00    +0.163 C 
ENDROOT
BRANCH   1   2
ATOM      2  O   UNL     1      -2.101  10.845  25.128  0.00  0.00    -0.388 OA
ATOM      3  H   UNL     1      -1.570  11.033  24.350  0.00  0.00    +0.210 HD
ENDBRANCH   1   2
BRANCH   1   4
ATOM      4  C   UNL     1      -2.919  13.036  24.477  0.00  0.00    +0.141 C 
BRANCH   4   7
ATOM      5  C   UNL     1      -4.898  13.955  23.319  0.00  0.00    +0.401 C 
ATOM      6  O   UNL     1      -5.392  14.434  24.343  0.00  0.00    -0.226 OA
ATOM      7  N   UNL     1      -3.748  13.280  23.291  0.00  0.00    -0.279 N 
ATOM      8  H   UNL     1      -3.430  12.917  22.403  0.00  0.00    +0.152 HD
BRANCH   5   9
ATOM      9  O   UNL     1      -5.586  14.117  22.075  0.00  0.00    -0.444 OA
BRANCH   9  10
ATOM     10  C   UNL     1      -6.412  12.975  21.834  0.00  0.00    +0.292 C 
BRANCH  10  12
ATOM     11  N   UNL     1      -4.752  11.359  20.953  0.00  0.00    -0.131 NA
ATOM     12  C   UNL     1      -5.850  12.153  20.747  0.00  0.00    +0.120 A 
ATOM     13  C   UNL     1      -6.271  12.008  19.445  0.00  0.00    +0.137 A 
ATOM     14  N   UNL     1      -5.439  11.056  18.935  0.00  0.00    -0.247 N 
ATOM     15  N   UNL     1      -4.501  10.698  19.831  0.00  0.00    -0.065 NA
BRANCH  14  16
ATOM     16  C   UNL     1      -5.474  10.444  17.621  0.00  0.00    +0.180 C 
BRANCH  16  17
ATOM     17  C   UNL     1      -5.230  11.461  16.531  0.00  0.00    -0.026 A 
ATOM     18  C   UNL     1      -6.193  11.688  15.535  0.00  0.00    +0.006 A 
ATOM     19  C   UNL     1      -5.958  12.617  14.519  0.00  0.00    +0.015 A 
ATOM     20  C   UNL     1      -4.757  13.324  14.493  0.00  0.00    +0.018 A 
ATOM     21 BR   UNL     1      -4.449  14.594  13.127  0.00  0.00    -0.050 Br
ATOM     22  C   UNL     1      -3.785  13.103  15.465  0.00  0.00    +0.015 A 
ATOM     23  C   UNL     1      -4.018  12.169  16.479  0.00  0.00    +0.006 A 
ENDBRANCH  16  17
ENDBRANCH  14  16
ENDBRANCH  10  12
ENDBRANCH   9  10
ENDBRANCH   5   9
ENDBRANCH   4   7
ENDBRANCH   1   4
BRANCH   1  24
ATOM     24  C   UNL     1      -3.738  11.953  26.579  0.00  0.00    +0.175 C 
BRANCH  24  25
ATOM     25  C   UNL     1      -3.420  10.773  27.509  0.00  0.00    +0.176 C 
ATOM     26  O   UNL     1      -4.041   9.583  26.950  0.00  0.00    -0.332 OA
ATOM     27  C   UNL     1      -3.755   8.329  27.653  0.00  0.00    +0.277 C 
ATOM     28  C   UNL     1      -4.118   8.454  29.153  0.00  0.00    +0.110 C 
ATOM     29  C   UNL     1      -3.505   9.722  29.783  0.00  0.00    +0.143 C 
ATOM     30  C   UNL     1      -3.863  10.967  28.971  0.00  0.00    +0.133 C 
BRANCH  30  31
ATOM     31  N   UNL     1      -3.202  12.156  29.531  0.00  0.00    -0.308 N 
ATOM     32  H   UNL     1      -2.192  12.174  29.540  0.00  0.00    +0.149 HD
ATOM     33  C   UNL     1      -3.850  13.212  30.030  0.00  0.00    +0.210 C 
ATOM     34  C   UNL     1      -5.389  13.142  30.026  0.00  0.00    +0.109 C 
ATOM     35  O   UNL     1      -3.270  14.201  30.479  0.00  0.00    -0.276 OA
ENDBRANCH  30  31
BRANCH  27  36
ATOM     36  C   UNL     1      -2.265   7.951  27.512  0.00  0.00    +0.414 C 
ATOM     37  O   UNL     1      -1.637   8.271  26.504  0.00  0.00    -0.240 OA
ATOM     38  O   UNL     1      -1.693   7.327  28.406  0.00  0.00    -0.240 OA
ENDBRANCH  27  36
BRANCH  27  39
ATOM     39  O   UNL     1      -4.579   7.288  27.068  0.00  0.00    -0.343 OA
ATOM     40  C   UNL     1      -5.203   7.638  25.806  0.00  0.00    +0.198 C 
ENDBRANCH  27  39
BRANCH  29  41
ATOM     41  O   UNL     1      -3.986   9.877  31.119  0.00  0.00    -0.390 OA
ATOM     42  H   UNL     1      -3.626  10.682  31.498  0.00  0.00    +0.210 HD
ENDBRANCH  29  41
ENDBRANCH  24  25
BRANCH  24  43
ATOM     43  O   UNL     1      -5.154  12.223  26.586  0.00  0.00    -0.387 OA
ATOM     44  H   UNL     1      -5.638  11.397  26.513  0.00  0.00    +0.210 HD
ENDBRANCH  24  43
ENDBRANCH   1  24
TORSDOF 15
