REMARK VINA RESULT:    -5.138      4.112     11.321
REMARK INTER + INTRA:         -14.031
REMARK INTER:                 -10.708
REMARK INTRA:                  -3.323
REMARK UNBOUND:                -3.487
REMARK  Name = lig_assembled_90.pdb
REMARK  22 active torsions:
REMARK  status: ('A' for Active; 'I' for Inactive)
REMARK    1  A    between atoms: _2  and  _13
REMARK    2  A    between atoms: _3  and  _15
REMARK    3  A    between atoms: _4  and  _17
REMARK    4  A    between atoms: _8  and  _28
REMARK    5  A    between atoms: _10  and  _11
REMARK    6  A    between atoms: _10  and  _28
REMARK    7  A    between atoms: _13  and  _14
REMARK    8  A    between atoms: _15  and  _16
REMARK    9  A    between atoms: _16  and  _17
REMARK   10  A    between atoms: _16  and  _22
REMARK   11  A    between atoms: _24  and  _44
REMARK   12  A    between atoms: _26  and  _32
REMARK   13  A    between atoms: _27  and  _31
REMARK   14  A    between atoms: _31  and  _32
REMARK   15  A    between atoms: _34  and  _35
REMARK   16  A    between atoms: _36  and  _37
REMARK   17  A    between atoms: _38  and  _40
REMARK   18  A    between atoms: _40  and  _41
REMARK   19  A    between atoms: _40  and  _42
REMARK   20  A    between atoms: _42  and  _43
REMARK   21  A    between atoms: _42  and  _44
REMARK   22  A    between atoms: _45  and  _47
REMARK                            x       y       z     vdW  Elec       q    Type
REMARK                         _______ _______ _______ _____ _____    ______ ____
ROOT
ATOM      1  C   UNL     1      -4.918  13.235  22.881  0.00  0.00    +0.401 C 
ATOM      2  O   UNL     1      -5.741  13.427  23.779  0.00  0.00    -0.226 OA
ATOM      3  N   UNL     1      -3.615  13.043  23.092  0.00  0.00    -0.279 N 
ATOM      4  H   UNL     1      -3.020  12.884  22.291  0.00  0.00    +0.152 HD
ENDROOT
BRANCH   3   5
ATOM      5  C   UNL     1      -2.996  13.050  24.424  0.00  0.00    +0.141 C 
BRANCH   5   6
ATOM      6  C   UNL     1      -3.280  11.763  25.190  0.00  0.00    +0.163 C 
BRANCH   6   7
ATOM      7  O   UNL     1      -2.142  10.888  25.120  0.00  0.00    -0.388 OA
ATOM      8  H   UNL     1      -1.497  11.250  24.508  0.00  0.00    +0.210 HD
ENDBRANCH   6   7
BRANCH   6   9
ATOM      9  C   UNL     1      -3.626  12.099  26.651  0.00  0.00    +0.175 C 
BRANCH   9  10
ATOM     10  C   UNL     1      -3.380  10.911  27.591  0.00  0.00    +0.176 C 
ATOM     11  O   UNL     1      -4.011   9.739  27.006  0.00  0.00    -0.332 OA
ATOM     12  C   UNL     1      -3.789   8.477  27.718  0.00  0.00    +0.277 C 
ATOM     13  C   UNL     1      -4.211   8.612  29.202  0.00  0.00    +0.110 C 
ATOM     14  C   UNL     1      -3.589   9.862  29.859  0.00  0.00    +0.143 C 
ATOM     15  C   UNL     1      -3.878  11.117  29.034  0.00  0.00    +0.133 C 
BRANCH  15  16
ATOM     16  N   UNL     1      -3.208  12.287  29.623  0.00  0.00    -0.308 N 
ATOM     17  H   UNL     1      -2.198  12.296  29.633  0.00  0.00    +0.149 HD
ATOM     18  C   UNL     1      -3.848  13.337  30.145  0.00  0.00    +0.210 C 
ATOM     19  C   UNL     1      -5.387  13.280  30.138  0.00  0.00    +0.109 C 
ATOM     20  O   UNL     1      -3.260  14.310  30.618  0.00  0.00    -0.276 OA
ENDBRANCH  15  16
BRANCH  12  21
ATOM     21  C   UNL     1      -2.307   8.057  27.640  0.00  0.00    +0.414 C 
ATOM     22  O   UNL     1      -1.627   8.361  26.660  0.00  0.00    -0.240 OA
ATOM     23  O   UNL     1      -1.790   7.416  28.555  0.00  0.00    -0.240 OA
ENDBRANCH  12  21
BRANCH  14  24
ATOM     24  O   UNL     1      -4.121  10.031  31.174  0.00  0.00    -0.390 OA
ATOM     25  H   UNL     1      -3.480  10.488  31.723  0.00  0.00    +0.210 HD
ENDBRANCH  14  24
BRANCH  12  26
ATOM     26  O   UNL     1      -4.618   7.460  27.098  0.00  0.00    -0.343 OA
ATOM     27  C   UNL     1      -5.710   6.975  27.920  0.00  0.00    +0.198 C 
ENDBRANCH  12  26
ENDBRANCH   9  10
BRANCH   9  28
ATOM     28  O   UNL     1      -4.997  12.535  26.749  0.00  0.00    -0.387 OA
ATOM     29  H   UNL     1      -5.031  13.494  26.722  0.00  0.00    +0.210 HD
ENDBRANCH   9  28
ENDBRANCH   6   9
ENDBRANCH   5   6
ENDBRANCH   3   5
BRANCH   1  30
ATOM     30  O   UNL     1      -5.365  13.208  21.523  0.00  0.00    -0.444 OA
BRANCH  30  31
ATOM     31  C   UNL     1      -4.368  12.593  20.704  0.00  0.00    +0.292 C 
BRANCH  31  33
ATOM     32  N   UNL     1      -4.283  10.117  20.574  0.00  0.00    -0.131 NA
ATOM     33  C   UNL     1      -4.854  11.301  20.182  0.00  0.00    +0.120 A 
ATOM     34  C   UNL     1      -5.868  11.035  19.290  0.00  0.00    +0.137 A 
ATOM     35  N   UNL     1      -5.879   9.676  19.198  0.00  0.00    -0.242 N 
ATOM     36  N   UNL     1      -4.913   9.127  19.956  0.00  0.00    -0.065 NA
BRANCH  35  37
ATOM     37  C   UNL     1      -6.692   8.845  18.343  0.00  0.00    +0.240 C 
BRANCH  37  38
ATOM     38  C   UNL     1      -6.016   8.595  17.014  0.00  0.00    +0.235 C 
ATOM     39  O   UNL     1      -6.644   8.480  15.962  0.00  0.00    -0.274 OA
ATOM     40  N   UNL     1      -4.635   8.563  17.052  0.00  0.00    -0.311 N 
ATOM     41  H   UNL     1      -4.176   8.388  17.943  0.00  0.00    +0.149 HD
BRANCH  40  42
ATOM     42  C   UNL     1      -3.870   8.247  15.853  0.00  0.00    +0.137 C 
BRANCH  42  43
ATOM     43  C   UNL     1      -3.243   9.510  15.245  0.00  0.00    +0.151 C 
BRANCH  43  44
ATOM     44  O   UNL     1      -1.866   9.244  14.953  0.00  0.00    -0.388 OA
ATOM     45  H   UNL     1      -1.809   8.441  14.396  0.00  0.00    +0.210 HD
ENDBRANCH  43  44
BRANCH  43  46
ATOM     46  C   UNL     1      -3.999   9.972  13.993  0.00  0.00    +0.162 C 
BRANCH  46  47
ATOM     47  N   UNL     1      -4.264  11.404  13.999  0.00  0.00    -0.269 N 
ATOM     48  C   UNL     1      -5.335  11.967  14.657  0.00  0.00    +0.113 A 
ATOM     49  C   UNL     1      -5.270  13.314  14.395  0.00  0.00    +0.137 A 
ATOM     50  N   UNL     1      -4.194  13.598  13.594  0.00  0.00    -0.172 NA
ATOM     51  C   UNL     1      -3.600  12.435  13.381  0.00  0.00    +0.450 A 
ATOM     52  N   UNL     1      -2.406  12.315  12.580  0.00  0.00    +0.120 N 
ATOM     53  O   UNL     1      -1.859  11.204  12.525  0.00  0.00    +0.045 OA
ATOM     54  O   UNL     1      -2.013  13.330  11.990  0.00  0.00    -0.573 OA
ENDBRANCH  46  47
ENDBRANCH  43  46
ENDBRANCH  42  43
ENDBRANCH  40  42
ENDBRANCH  37  38
ENDBRANCH  35  37
ENDBRANCH  31  33
ENDBRANCH  30  31
ENDBRANCH   1  30
TORSDOF 20
