REMARK VINA RESULT:    -4.534      2.244      5.863
REMARK INTER + INTRA:         -10.808
REMARK INTER:                  -6.955
REMARK INTRA:                  -3.853
REMARK UNBOUND:                -2.299
REMARK  Name = lig_assembled_32.pdb
REMARK  19 active torsions:
REMARK  status: ('A' for Active; 'I' for Inactive)
REMARK    1  A    between atoms: _2  and  _9
REMARK    2  A    between atoms: _4  and  _17
REMARK    3  A    between atoms: _5  and  _10
REMARK    4  A    between atoms: _5  and  _11
REMARK    5  A    between atoms: _6  and  _7
REMARK    6  A    between atoms: _6  and  _17
REMARK    7  A    between atoms: _9  and  _10
REMARK    8  A    between atoms: _13  and  _33
REMARK    9  A    between atoms: _15  and  _21
REMARK   10  A    between atoms: _16  and  _20
REMARK   11  A    between atoms: _20  and  _21
REMARK   12  A    between atoms: _23  and  _24
REMARK   13  A    between atoms: _25  and  _26
REMARK   14  A    between atoms: _27  and  _29
REMARK   15  A    between atoms: _29  and  _30
REMARK   16  A    between atoms: _29  and  _31
REMARK   17  A    between atoms: _31  and  _32
REMARK   18  A    between atoms: _31  and  _33
REMARK   19  A    between atoms: _34  and  _36
REMARK                            x       y       z     vdW  Elec       q    Type
REMARK                         _______ _______ _______ _____ _____    ______ ____
ROOT
ATOM      1  C   UNL     1      -5.709  11.674  26.394  0.00  0.00    +0.163 C 
ENDROOT
BRANCH   1   2
ATOM      2  O   UNL     1      -5.059  10.674  25.592  0.00  0.00    -0.388 OA
ATOM      3  H   UNL     1      -5.555  10.543  24.780  0.00  0.00    +0.210 HD
ENDBRANCH   1   2
BRANCH   1   4
ATOM      4  C   UNL     1      -5.785  11.234  27.866  0.00  0.00    +0.175 C 
BRANCH   4   5
ATOM      5  C   UNL     1      -4.479  10.584  28.344  0.00  0.00    +0.176 C 
ATOM      6  O   UNL     1      -4.506   9.184  27.950  0.00  0.00    -0.332 OA
ATOM      7  C   UNL     1      -3.285   8.423  28.232  0.00  0.00    +0.277 C 
ATOM      8  C   UNL     1      -2.909   8.538  29.729  0.00  0.00    +0.110 C 
ATOM      9  C   UNL     1      -2.898  10.007  30.202  0.00  0.00    +0.143 C 
ATOM     10  C   UNL     1      -4.214  10.705  29.856  0.00  0.00    +0.133 C 
BRANCH  10  11
ATOM     11  N   UNL     1      -4.159  12.126  30.233  0.00  0.00    -0.308 N 
ATOM     12  H   UNL     1      -3.473  12.709  29.774  0.00  0.00    +0.149 HD
ATOM     13  C   UNL     1      -4.955  12.695  31.142  0.00  0.00    +0.210 C 
ATOM     14  C   UNL     1      -5.971  11.773  31.843  0.00  0.00    +0.109 C 
ATOM     15  O   UNL     1      -4.895  13.891  31.428  0.00  0.00    -0.276 OA
ENDBRANCH  10  11
BRANCH   7  16
ATOM     16  C   UNL     1      -2.113   8.928  27.365  0.00  0.00    +0.414 C 
ATOM     17  O   UNL     1      -0.991   9.056  27.853  0.00  0.00    -0.240 OA
ATOM     18  O   UNL     1      -2.289   9.207  26.178  0.00  0.00    -0.240 OA
ENDBRANCH   7  16
BRANCH   7  19
ATOM     19  O   UNL     1      -3.548   7.028  27.932  0.00  0.00    -0.343 OA
ATOM     20  C   UNL     1      -2.732   6.080  28.666  0.00  0.00    +0.198 C 
ENDBRANCH   7  19
BRANCH   9  21
ATOM     21  O   UNL     1      -2.697  10.056  31.615  0.00  0.00    -0.390 OA
ATOM     22  H   UNL     1      -2.144  10.810  31.834  0.00  0.00    +0.210 HD
ENDBRANCH   9  21
ENDBRANCH   4   5
BRANCH   4  23
ATOM     23  O   UNL     1      -6.890  10.328  28.057  0.00  0.00    -0.387 OA
ATOM     24  H   UNL     1      -7.693  10.725  27.711  0.00  0.00    +0.210 HD
ENDBRANCH   4  23
ENDBRANCH   1   4
BRANCH   1  25
ATOM     25  C   UNL     1      -4.952  12.994  26.295  0.00  0.00    +0.141 C 
BRANCH  25  28
ATOM     26  C   UNL     1      -3.341  12.994  24.422  0.00  0.00    +0.401 C 
ATOM     27  O   UNL     1      -2.443  12.454  25.071  0.00  0.00    -0.226 OA
ATOM     28  N   UNL     1      -4.544  13.289  24.916  0.00  0.00    -0.279 N 
ATOM     29  H   UNL     1      -5.212  13.741  24.308  0.00  0.00    +0.152 HD
BRANCH  26  30
ATOM     30  O   UNL     1      -3.100  13.338  23.055  0.00  0.00    -0.444 OA
BRANCH  30  31
ATOM     31  C   UNL     1      -4.331  13.304  22.329  0.00  0.00    +0.292 C 
BRANCH  31  33
ATOM     32  N   UNL     1      -6.131  11.678  22.822  0.00  0.00    -0.131 NA
ATOM     33  C   UNL     1      -4.883  11.936  22.318  0.00  0.00    +0.120 A 
ATOM     34  C   UNL     1      -4.331  10.761  21.859  0.00  0.00    +0.137 A 
ATOM     35  N   UNL     1      -5.286   9.827  22.124  0.00  0.00    -0.251 N 
ATOM     36  N   UNL     1      -6.366  10.379  22.700  0.00  0.00    -0.065 NA
BRANCH  35  37
ATOM     37  C   UNL     1      -5.248   8.407  21.857  0.00  0.00    +0.156 C 
BRANCH  37  38
ATOM     38  C   UNL     1      -5.649   7.587  23.075  0.00  0.00    +0.143 C 
BRANCH  38  39
ATOM     39  C   UNL     1      -4.497   7.484  24.033  0.00  0.00    +0.306 C 
ATOM     40  O   UNL     1      -3.361   7.161  23.725  0.00  0.00    -0.251 OA
BRANCH  39  41
ATOM     41  O   UNL     1      -4.848   7.776  25.305  0.00  0.00    -0.481 OA
ATOM     42  H   UNL     1      -4.484   8.620  25.638  0.00  0.00    +0.295 HD
ENDBRANCH  39  41
ENDBRANCH  38  39
ENDBRANCH  37  38
ENDBRANCH  35  37
ENDBRANCH  31  33
ENDBRANCH  30  31
ENDBRANCH  26  30
ENDBRANCH  25  28
ENDBRANCH   1  25
TORSDOF 17
