REMARK VINA RESULT:    -4.790      3.005      9.010
REMARK INTER + INTRA:         -10.630
REMARK INTER:                  -8.679
REMARK INTRA:                  -1.952
REMARK UNBOUND:                -1.779
REMARK  Name = lig_assembled_14.pdb
REMARK  18 active torsions:
REMARK  status: ('A' for Active; 'I' for Inactive)
REMARK    1  A    between atoms: _2  and  _10
REMARK    2  A    between atoms: _3  and  _11
REMARK    3  A    between atoms: _5  and  _19
REMARK    4  A    between atoms: _7  and  _8
REMARK    5  A    between atoms: _7  and  _19
REMARK    6  A    between atoms: _10  and  _11
REMARK    7  A    between atoms: _15  and  _35
REMARK    8  A    between atoms: _17  and  _23
REMARK    9  A    between atoms: _18  and  _22
REMARK   10  A    between atoms: _22  and  _23
REMARK   11  A    between atoms: _25  and  _26
REMARK   12  A    between atoms: _27  and  _28
REMARK   13  A    between atoms: _29  and  _31
REMARK   14  A    between atoms: _31  and  _32
REMARK   15  A    between atoms: _31  and  _33
REMARK   16  A    between atoms: _33  and  _34
REMARK   17  A    between atoms: _33  and  _35
REMARK   18  A    between atoms: _36  and  _38
REMARK                            x       y       z     vdW  Elec       q    Type
REMARK                         _______ _______ _______ _____ _____    ______ ____
ROOT
ATOM      1  C   UNL     1      -4.796  12.011  25.953  0.00  0.00    +0.163 C 
ENDROOT
BRANCH   1   2
ATOM      2  O   UNL     1      -5.381  10.770  25.524  0.00  0.00    -0.388 OA
ATOM      3  H   UNL     1      -6.126  10.555  26.090  0.00  0.00    +0.210 HD
ENDBRANCH   1   2
BRANCH   1   4
ATOM      4  C   UNL     1      -4.824  12.131  27.486  0.00  0.00    +0.175 C 
BRANCH   4   5
ATOM      5  C   UNL     1      -3.912  11.098  28.164  0.00  0.00    +0.176 C 
ATOM      6  O   UNL     1      -4.428   9.775  27.855  0.00  0.00    -0.332 OA
ATOM      7  C   UNL     1      -3.619   8.650  28.335  0.00  0.00    +0.277 C 
ATOM      8  C   UNL     1      -3.371   8.773  29.858  0.00  0.00    +0.110 C 
ATOM      9  C   UNL     1      -2.851  10.175  30.240  0.00  0.00    +0.143 C 
ATOM     10  C   UNL     1      -3.766  11.269  29.688  0.00  0.00    +0.133 C 
BRANCH  10  11
ATOM     11  N   UNL     1      -3.214  12.600  29.983  0.00  0.00    -0.308 N 
ATOM     12  H   UNL     1      -2.322  12.842  29.576  0.00  0.00    +0.149 HD
ATOM     13  C   UNL     1      -3.815  13.510  30.755  0.00  0.00    +0.210 C 
ATOM     14  C   UNL     1      -5.161  13.102  31.382  0.00  0.00    +0.109 C 
ATOM     15  O   UNL     1      -3.336  14.623  30.973  0.00  0.00    -0.276 OA
ENDBRANCH  10  11
BRANCH   7  16
ATOM     16  C   UNL     1      -2.266   8.596  27.595  0.00  0.00    +0.414 C 
ATOM     17  O   UNL     1      -2.213   8.800  26.383  0.00  0.00    -0.240 OA
ATOM     18  O   UNL     1      -1.228   8.349  28.210  0.00  0.00    -0.240 OA
ENDBRANCH   7  16
BRANCH   9  19
ATOM     19  O   UNL     1      -2.782  10.293  31.661  0.00  0.00    -0.390 OA
ATOM     20  H   UNL     1      -3.339  11.019  31.951  0.00  0.00    +0.210 HD
ENDBRANCH   9  19
BRANCH   7  21
ATOM     21  O   UNL     1      -4.359   7.427  28.089  0.00  0.00    -0.343 OA
ATOM     22  C   UNL     1      -4.402   6.502  29.205  0.00  0.00    +0.198 C 
ENDBRANCH   7  21
ENDBRANCH   4   5
BRANCH   4  23
ATOM     23  O   UNL     1      -6.175  11.994  27.970  0.00  0.00    -0.387 OA
ATOM     24  H   UNL     1      -6.160  11.754  28.900  0.00  0.00    +0.210 HD
ENDBRANCH   4  23
ENDBRANCH   1   4
BRANCH   1  25
ATOM     25  C   UNL     1      -3.355  12.106  25.461  0.00  0.00    +0.141 C 
BRANCH  25  28
ATOM     26  C   UNL     1      -3.187  11.309  23.128  0.00  0.00    +0.401 C 
ATOM     27  O   UNL     1      -3.133  10.117  23.440  0.00  0.00    -0.226 OA
ATOM     28  N   UNL     1      -3.285  12.306  24.008  0.00  0.00    -0.279 N 
ATOM     29  H   UNL     1      -3.313  13.252  23.656  0.00  0.00    +0.152 HD
BRANCH  26  30
ATOM     30  O   UNL     1      -3.138  11.668  21.745  0.00  0.00    -0.444 OA
BRANCH  30  31
ATOM     31  C   UNL     1      -4.039  12.751  21.500  0.00  0.00    +0.292 C 
BRANCH  31  33
ATOM     32  N   UNL     1      -6.188  13.098  20.323  0.00  0.00    -0.131 NA
ATOM     33  C   UNL     1      -5.039  12.370  20.485  0.00  0.00    +0.120 A 
ATOM     34  C   UNL     1      -5.043  11.319  19.596  0.00  0.00    +0.137 A 
ATOM     35  N   UNL     1      -6.224  11.457  18.934  0.00  0.00    -0.250 N 
ATOM     36  N   UNL     1      -6.907  12.531  19.366  0.00  0.00    -0.065 NA
BRANCH  35  37
ATOM     37  C   UNL     1      -6.795  10.586  17.928  0.00  0.00    +0.160 C 
BRANCH  37  38
ATOM     38  C   UNL     1      -5.955  10.568  16.646  0.00  0.00    +0.107 C 
BRANCH  38  39
ATOM     39  N   UNL     1      -5.483  11.906  16.248  0.00  0.00    -0.301 NA
ATOM     40  C   UNL     1      -4.051  11.942  15.937  0.00  0.00    +0.084 C 
ATOM     41  C   UNL     1      -3.912  13.248  15.182  0.00  0.00    +0.017 C 
ATOM     42  C   UNL     1      -5.177  13.320  14.347  0.00  0.00    +0.017 C 
ATOM     43  C   UNL     1      -6.167  12.388  15.039  0.00  0.00    +0.084 C 
ENDBRANCH  38  39
ENDBRANCH  37  38
ENDBRANCH  35  37
ENDBRANCH  31  33
ENDBRANCH  30  31
ENDBRANCH  26  30
ENDBRANCH  25  28
ENDBRANCH   1  25
TORSDOF 16
