REMARK VINA RESULT:    -5.079      6.349     12.305
REMARK INTER + INTRA:         -11.631
REMARK INTER:                  -9.544
REMARK INTRA:                  -2.086
REMARK UNBOUND:                -2.841
REMARK  Name = lig_assembled_86.pdb
REMARK  17 active torsions:
REMARK  status: ('A' for Active; 'I' for Inactive)
REMARK    1  A    between atoms: _2  and  _10
REMARK    2  A    between atoms: _3  and  _13
REMARK    3  A    between atoms: _5  and  _21
REMARK    4  A    between atoms: _7  and  _8
REMARK    5  A    between atoms: _7  and  _21
REMARK    6  A    between atoms: _17  and  _37
REMARK    7  A    between atoms: _19  and  _25
REMARK    8  A    between atoms: _20  and  _24
REMARK    9  A    between atoms: _24  and  _25
REMARK   10  A    between atoms: _27  and  _28
REMARK   11  A    between atoms: _29  and  _30
REMARK   12  A    between atoms: _31  and  _33
REMARK   13  A    between atoms: _33  and  _34
REMARK   14  A    between atoms: _33  and  _35
REMARK   15  A    between atoms: _35  and  _36
REMARK   16  A    between atoms: _35  and  _37
REMARK   17  A    between atoms: _38  and  _40
REMARK                            x       y       z     vdW  Elec       q    Type
REMARK                         _______ _______ _______ _____ _____    ______ ____
ROOT
ATOM      1  C   UNL     1      -3.267  11.766  25.111  0.00  0.00    +0.163 C 
ENDROOT
BRANCH   1   2
ATOM      2  O   UNL     1      -2.118  10.906  25.038  0.00  0.00    -0.388 OA
ATOM      3  H   UNL     1      -1.319  11.438  25.029  0.00  0.00    +0.210 HD
ENDBRANCH   1   2
BRANCH   1   4
ATOM      4  C   UNL     1      -3.009  13.049  24.329  0.00  0.00    +0.141 C 
BRANCH   4   7
ATOM      5  C   UNL     1      -4.009  12.876  22.076  0.00  0.00    +0.401 C 
ATOM      6  O   UNL     1      -3.071  12.227  21.607  0.00  0.00    -0.226 OA
ATOM      7  N   UNL     1      -4.060  13.307  23.337  0.00  0.00    -0.279 N 
ATOM      8  H   UNL     1      -4.868  13.840  23.626  0.00  0.00    +0.152 HD
BRANCH   5   9
ATOM      9  O   UNL     1      -5.118  13.202  21.234  0.00  0.00    -0.444 OA
BRANCH   9  10
ATOM     10  C   UNL     1      -5.731  11.998  20.765  0.00  0.00    +0.292 C 
BRANCH  10  12
ATOM     11  N   UNL     1      -6.838  12.210  18.556  0.00  0.00    -0.131 NA
ATOM     12  C   UNL     1      -5.710  11.956  19.291  0.00  0.00    +0.120 A 
ATOM     13  C   UNL     1      -4.668  11.698  18.432  0.00  0.00    +0.137 A 
ATOM     14  N   UNL     1      -5.214  11.845  17.194  0.00  0.00    -0.248 N 
ATOM     15  N   UNL     1      -6.527  12.122  17.270  0.00  0.00    -0.065 NA
BRANCH  14  16
ATOM     16  C   UNL     1      -4.535  11.742  15.911  0.00  0.00    +0.112 C 
ATOM     17  C   UNL     1      -5.336  10.894  14.903  0.00  0.00    +0.045 C 
ATOM     18  C   UNL     1      -5.455  11.508  13.504  0.00  0.00    +0.059 C 
ATOM     19  C   UNL     1      -6.486  12.641  13.484  0.00  0.00    +0.020 C 
ATOM     20  C   UNL     1      -5.669  13.909  13.716  0.00  0.00    +0.020 C 
ATOM     21  C   UNL     1      -4.239  13.408  13.936  0.00  0.00    +0.059 C 
ATOM     22  N   UNL     1      -4.243  12.214  13.092  0.00  0.00    -0.299 NA
ATOM     23  C   UNL     1      -3.015  11.443  13.059  0.00  0.00    +0.105 C 
ATOM     24  C   UNL     1      -3.979  13.097  15.416  0.00  0.00    +0.045 C 
ENDBRANCH  14  16
ENDBRANCH  10  12
ENDBRANCH   9  10
ENDBRANCH   5   9
ENDBRANCH   4   7
ENDBRANCH   1   4
BRANCH   1  25
ATOM     25  C   UNL     1      -3.603  12.113  26.572  0.00  0.00    +0.175 C 
BRANCH  25  26
ATOM     26  C   UNL     1      -3.360  10.927  27.518  0.00  0.00    +0.176 C 
ATOM     27  O   UNL     1      -3.990   9.754  26.934  0.00  0.00    -0.332 OA
ATOM     28  C   UNL     1      -3.771   8.494  27.652  0.00  0.00    +0.277 C 
ATOM     29  C   UNL     1      -4.198   8.634  29.133  0.00  0.00    +0.110 C 
ATOM     30  C   UNL     1      -3.578   9.887  29.788  0.00  0.00    +0.143 C 
ATOM     31  C   UNL     1      -3.864  11.138  28.958  0.00  0.00    +0.133 C 
BRANCH  31  32
ATOM     32  N   UNL     1      -3.196  12.310  29.545  0.00  0.00    -0.308 N 
ATOM     33  H   UNL     1      -2.186  12.330  29.537  0.00  0.00    +0.149 HD
ATOM     34  C   UNL     1      -3.837  13.349  30.088  0.00  0.00    +0.210 C 
ATOM     35  C   UNL     1      -5.375  13.276  30.108  0.00  0.00    +0.109 C 
ATOM     36  O   UNL     1      -3.251  14.324  30.559  0.00  0.00    -0.276 OA
ENDBRANCH  31  32
BRANCH  28  37
ATOM     37  C   UNL     1      -2.289   8.074  27.580  0.00  0.00    +0.414 C 
ATOM     38  O   UNL     1      -1.616   8.339  26.584  0.00  0.00    -0.240 OA
ATOM     39  O   UNL     1      -1.765   7.470  28.517  0.00  0.00    -0.240 OA
ENDBRANCH  28  37
BRANCH  30  40
ATOM     40  O   UNL     1      -4.115  10.060  31.100  0.00  0.00    -0.390 OA
ATOM     41  H   UNL     1      -3.689   9.448  31.704  0.00  0.00    +0.210 HD
ENDBRANCH  30  40
BRANCH  28  42
ATOM     42  O   UNL     1      -4.598   7.475  27.032  0.00  0.00    -0.343 OA
ATOM     43  C   UNL     1      -5.295   7.898  25.833  0.00  0.00    +0.198 C 
ENDBRANCH  28  42
ENDBRANCH  25  26
BRANCH  25  44
ATOM     44  O   UNL     1      -4.969  12.559  26.675  0.00  0.00    -0.387 OA
ATOM     45  H   UNL     1      -5.313  12.744  25.797  0.00  0.00    +0.210 HD
ENDBRANCH  25  44
ENDBRANCH   1  25
TORSDOF 14
