REMARK VINA RESULT:    -4.245      3.688     10.184
REMARK INTER + INTRA:         -11.822
REMARK INTER:                  -9.567
REMARK INTRA:                  -2.256
REMARK UNBOUND:                -3.979
REMARK  Name = lig_assembled_24.pdb
REMARK  19 active torsions:
REMARK  status: ('A' for Active; 'I' for Inactive)
REMARK    1  A    between atoms: _2  and  _9
REMARK    2  A    between atoms: _4  and  _21
REMARK    3  A    between atoms: _6  and  _7
REMARK    4  A    between atoms: _6  and  _21
REMARK    5  A    between atoms: _9  and  _10
REMARK    6  A    between atoms: _13  and  _16
REMARK    7  A    between atoms: _14  and  _16
REMARK    8  A    between atoms: _17  and  _37
REMARK    9  A    between atoms: _19  and  _25
REMARK   10  A    between atoms: _20  and  _24
REMARK   11  A    between atoms: _24  and  _25
REMARK   12  A    between atoms: _27  and  _28
REMARK   13  A    between atoms: _29  and  _30
REMARK   14  A    between atoms: _31  and  _33
REMARK   15  A    between atoms: _33  and  _34
REMARK   16  A    between atoms: _33  and  _35
REMARK   17  A    between atoms: _35  and  _36
REMARK   18  A    between atoms: _35  and  _37
REMARK   19  A    between atoms: _38  and  _40
REMARK                            x       y       z     vdW  Elec       q    Type
REMARK                         _______ _______ _______ _____ _____    ______ ____
ROOT
ATOM      1  C   UNL     1      -3.133  11.740  25.159  0.00  0.00    +0.163 C 
ENDROOT
BRANCH   1   2
ATOM      2  O   UNL     1      -1.970  10.896  25.142  0.00  0.00    -0.388 OA
ATOM      3  H   UNL     1      -1.351  11.217  24.482  0.00  0.00    +0.210 HD
ENDBRANCH   1   2
BRANCH   1   4
ATOM      4  C   UNL     1      -3.542  12.083  26.602  0.00  0.00    +0.175 C 
BRANCH   4   5
ATOM      5  C   UNL     1      -3.359  10.891  27.553  0.00  0.00    +0.176 C 
ATOM      6  O   UNL     1      -3.990   9.731  26.944  0.00  0.00    -0.332 OA
ATOM      7  C   UNL     1      -3.823   8.466  27.666  0.00  0.00    +0.277 C 
ATOM      8  C   UNL     1      -4.301   8.613  29.131  0.00  0.00    +0.110 C 
ATOM      9  C   UNL     1      -3.681   9.851  29.812  0.00  0.00    +0.143 C 
ATOM     10  C   UNL     1      -3.911  11.110  28.974  0.00  0.00    +0.133 C 
BRANCH  10  11
ATOM     11  N   UNL     1      -3.241  12.267  29.589  0.00  0.00    -0.308 N 
ATOM     12  H   UNL     1      -2.232  12.259  29.633  0.00  0.00    +0.149 HD
ATOM     13  C   UNL     1      -3.880  13.327  30.092  0.00  0.00    +0.210 C 
ATOM     14  C   UNL     1      -5.419  13.296  30.033  0.00  0.00    +0.109 C 
ATOM     15  O   UNL     1      -3.292  14.289  30.588  0.00  0.00    -0.276 OA
ENDBRANCH  10  11
BRANCH   7  16
ATOM     16  C   UNL     1      -2.347   8.017  27.647  0.00  0.00    +0.414 C 
ATOM     17  O   UNL     1      -1.865   7.432  28.617  0.00  0.00    -0.240 OA
ATOM     18  O   UNL     1      -1.639   8.238  26.664  0.00  0.00    -0.240 OA
ENDBRANCH   7  16
BRANCH   7  19
ATOM     19  O   UNL     1      -4.646   7.466  27.014  0.00  0.00    -0.343 OA
ATOM     20  C   UNL     1      -5.222   7.876  25.748  0.00  0.00    +0.198 C 
ENDBRANCH   7  19
BRANCH   9  21
ATOM     21  O   UNL     1      -4.262  10.033  31.103  0.00  0.00    -0.390 OA
ATOM     22  H   UNL     1      -5.024  10.613  31.033  0.00  0.00    +0.210 HD
ENDBRANCH   9  21
ENDBRANCH   4   5
BRANCH   4  23
ATOM     23  O   UNL     1      -4.909  12.539  26.636  0.00  0.00    -0.387 OA
ATOM     24  H   UNL     1      -5.439  11.926  27.150  0.00  0.00    +0.210 HD
ENDBRANCH   4  23
ENDBRANCH   1   4
BRANCH   1  25
ATOM     25  C   UNL     1      -2.855  13.027  24.389  0.00  0.00    +0.141 C 
BRANCH  25  28
ATOM     26  C   UNL     1      -4.718  13.357  22.800  0.00  0.00    +0.401 C 
ATOM     27  O   UNL     1      -5.515  13.727  23.666  0.00  0.00    -0.226 OA
ATOM     28  N   UNL     1      -3.457  13.005  23.050  0.00  0.00    -0.279 N 
ATOM     29  H   UNL     1      -2.882  12.706  22.275  0.00  0.00    +0.152 HD
BRANCH  26  30
ATOM     30  O   UNL     1      -5.153  13.289  21.440  0.00  0.00    -0.444 OA
BRANCH  30  31
ATOM     31  C   UNL     1      -4.660  12.088  20.840  0.00  0.00    +0.292 C 
BRANCH  31  33
ATOM     32  N   UNL     1      -6.481  12.527  19.221  0.00  0.00    -0.131 NA
ATOM     33  C   UNL     1      -5.355  11.829  19.565  0.00  0.00    +0.120 A 
ATOM     34  C   UNL     1      -5.045  10.948  18.553  0.00  0.00    +0.137 A 
ATOM     35  N   UNL     1      -5.976  11.205  17.590  0.00  0.00    -0.247 N 
ATOM     36  N   UNL     1      -6.860  12.131  18.015  0.00  0.00    -0.065 NA
BRANCH  35  37
ATOM     37  C   UNL     1      -6.106  10.695  16.234  0.00  0.00    +0.180 C 
BRANCH  37  38
ATOM     38  C   UNL     1      -5.017  11.137  15.285  0.00  0.00    -0.026 A 
ATOM     39  C   UNL     1      -4.100  10.211  14.774  0.00  0.00    +0.009 A 
ATOM     40  C   UNL     1      -3.096  10.628  13.895  0.00  0.00    +0.046 A 
ATOM     41  C   UNL     1      -3.005  11.964  13.502  0.00  0.00    +0.120 A 
ATOM     42  C   UNL     1      -3.899  12.894  14.025  0.00  0.00    +0.046 A 
ATOM     43  C   UNL     1      -4.902  12.485  14.912  0.00  0.00    +0.009 A 
BRANCH  41  44
ATOM     44  O   UNL     1      -1.971  12.256  12.655  0.00  0.00    -0.495 OA
ATOM     45  C   UNL     1      -1.830  13.632  12.313  0.00  0.00    +0.277 C 
ENDBRANCH  41  44
ENDBRANCH  37  38
ENDBRANCH  35  37
ENDBRANCH  31  33
ENDBRANCH  30  31
ENDBRANCH  26  30
ENDBRANCH  25  28
ENDBRANCH   1  25
TORSDOF 16
