REMARK VINA RESULT:    -4.533      4.041      8.516
REMARK INTER + INTRA:         -12.265
REMARK INTER:                  -9.622
REMARK INTRA:                  -2.643
REMARK UNBOUND:                -3.890
REMARK  Name = lig_assembled_66.pdb
REMARK  18 active torsions:
REMARK  status: ('A' for Active; 'I' for Inactive)
REMARK    1  A    between atoms: _2  and  _10
REMARK    2  A    between atoms: _5  and  _21
REMARK    3  A    between atoms: _7  and  _8
REMARK    4  A    between atoms: _7  and  _21
REMARK    5  A    between atoms: _10  and  _11
REMARK    6  A    between atoms: _15  and  _16
REMARK    7  A    between atoms: _17  and  _37
REMARK    8  A    between atoms: _19  and  _25
REMARK    9  A    between atoms: _20  and  _24
REMARK   10  A    between atoms: _24  and  _25
REMARK   11  A    between atoms: _27  and  _28
REMARK   12  A    between atoms: _29  and  _30
REMARK   13  A    between atoms: _31  and  _33
REMARK   14  A    between atoms: _33  and  _34
REMARK   15  A    between atoms: _33  and  _35
REMARK   16  A    between atoms: _35  and  _36
REMARK   17  A    between atoms: _35  and  _37
REMARK   18  A    between atoms: _38  and  _40
REMARK                            x       y       z     vdW  Elec       q    Type
REMARK                         _______ _______ _______ _____ _____    ______ ____
ROOT
ATOM      1  C   UNL     1      -3.206  11.781  25.099  0.00  0.00    +0.163 C 
ENDROOT
BRANCH   1   2
ATOM      2  O   UNL     1      -2.052  10.928  25.036  0.00  0.00    -0.388 OA
ATOM      3  H   UNL     1      -2.055  10.328  25.786  0.00  0.00    +0.210 HD
ENDBRANCH   1   2
BRANCH   1   4
ATOM      4  C   UNL     1      -3.554  12.129  26.557  0.00  0.00    +0.175 C 
BRANCH   4   5
ATOM      5  C   UNL     1      -3.342  10.937  27.502  0.00  0.00    +0.176 C 
ATOM      6  O   UNL     1      -3.974   9.773  26.902  0.00  0.00    -0.332 OA
ATOM      7  C   UNL     1      -3.782   8.508  27.618  0.00  0.00    +0.277 C 
ATOM      8  C   UNL     1      -4.232   8.647  29.093  0.00  0.00    +0.110 C 
ATOM      9  C   UNL     1      -3.610   9.890  29.764  0.00  0.00    +0.143 C 
ATOM     10  C   UNL     1      -3.868  11.148  28.934  0.00  0.00    +0.133 C 
BRANCH  10  11
ATOM     11  N   UNL     1      -3.197  12.310  29.538  0.00  0.00    -0.308 N 
ATOM     12  H   UNL     1      -2.186  12.325  29.535  0.00  0.00    +0.149 HD
ATOM     13  C   UNL     1      -3.835  13.346  30.089  0.00  0.00    +0.210 C 
ATOM     14  C   UNL     1      -5.374  13.280  30.100  0.00  0.00    +0.109 C 
ATOM     15  O   UNL     1      -3.247  14.313  30.574  0.00  0.00    -0.276 OA
ENDBRANCH  10  11
BRANCH   7  16
ATOM     16  C   UNL     1      -2.303   8.072  27.570  0.00  0.00    +0.414 C 
ATOM     17  O   UNL     1      -1.793   7.500  28.533  0.00  0.00    -0.240 OA
ATOM     18  O   UNL     1      -1.619   8.291  26.569  0.00  0.00    -0.240 OA
ENDBRANCH   7  16
BRANCH   7  19
ATOM     19  O   UNL     1      -4.609   7.501  26.980  0.00  0.00    -0.343 OA
ATOM     20  C   UNL     1      -5.085   7.849  25.656  0.00  0.00    +0.198 C 
ENDBRANCH   7  19
BRANCH   9  21
ATOM     21  O   UNL     1      -4.168  10.064  31.067  0.00  0.00    -0.390 OA
ATOM     22  H   UNL     1      -3.622   9.609  31.713  0.00  0.00    +0.210 HD
ENDBRANCH   9  21
ENDBRANCH   4   5
BRANCH   4  23
ATOM     23  O   UNL     1      -4.915  12.595  26.644  0.00  0.00    -0.387 OA
ATOM     24  H   UNL     1      -5.000  13.426  26.171  0.00  0.00    +0.210 HD
ENDBRANCH   4  23
ENDBRANCH   1   4
BRANCH   1  25
ATOM     25  C   UNL     1      -2.949  13.065  24.317  0.00  0.00    +0.141 C 
BRANCH  25  28
ATOM     26  C   UNL     1      -4.994  13.681  23.075  0.00  0.00    +0.401 C 
ATOM     27  O   UNL     1      -5.561  14.160  24.059  0.00  0.00    -0.226 OA
ATOM     28  N   UNL     1      -3.774  13.143  23.105  0.00  0.00    -0.279 N 
ATOM     29  H   UNL     1      -3.397  12.767  22.247  0.00  0.00    +0.152 HD
BRANCH  26  30
ATOM     30  O   UNL     1      -5.667  13.689  21.813  0.00  0.00    -0.444 OA
BRANCH  30  31
ATOM     31  C   UNL     1      -6.481  12.519  21.699  0.00  0.00    +0.292 C 
BRANCH  31  33
ATOM     32  N   UNL     1      -4.815  10.822  21.004  0.00  0.00    -0.131 NA
ATOM     33  C   UNL     1      -5.909  11.590  20.704  0.00  0.00    +0.120 A 
ATOM     34  C   UNL     1      -6.330  11.295  19.427  0.00  0.00    +0.137 A 
ATOM     35  N   UNL     1      -5.487  10.300  19.023  0.00  0.00    -0.247 N 
ATOM     36  N   UNL     1      -4.566  10.032  19.967  0.00  0.00    -0.065 NA
BRANCH  35  37
ATOM     37  C   UNL     1      -5.657   9.407  17.892  0.00  0.00    +0.180 C 
BRANCH  37  38
ATOM     38  C   UNL     1      -4.677   9.664  16.776  0.00  0.00    -0.025 A 
ATOM     39  C   UNL     1      -4.520  10.957  16.254  0.00  0.00    +0.005 A 
ATOM     40  C   UNL     1      -3.556  11.220  15.278  0.00  0.00    +0.002 A 
ATOM     41  C   UNL     1      -2.749  10.189  14.797  0.00  0.00    +0.019 A 
ATOM     42  C   UNL     1      -2.916   8.888  15.281  0.00  0.00    +0.052 A 
ATOM     43  C   UNL     1      -3.876   8.628  16.268  0.00  0.00    +0.024 A 
BRANCH  42  44
ATOM     44  C   UNL     1      -2.099   7.824  14.776  0.00  0.00    +0.099 C 
ATOM     45  N   UNL     1      -1.435   6.960  14.375  0.00  0.00    -0.191 NA
ENDBRANCH  42  44
ENDBRANCH  37  38
ENDBRANCH  35  37
ENDBRANCH  31  33
ENDBRANCH  30  31
ENDBRANCH  26  30
ENDBRANCH  25  28
ENDBRANCH   1  25
TORSDOF 16
