REMARK VINA RESULT:    -5.145      4.277     10.866
REMARK INTER + INTRA:         -11.998
REMARK INTER:                  -9.873
REMARK INTRA:                  -2.125
REMARK UNBOUND:                -3.093
REMARK  Name = lig_assembled_80.pdb
REMARK  16 active torsions:
REMARK  status: ('A' for Active; 'I' for Inactive)
REMARK    1  A    between atoms: _2  and  _10
REMARK    2  A    between atoms: _5  and  _24
REMARK    3  A    between atoms: _7  and  _8
REMARK    4  A    between atoms: _7  and  _24
REMARK    5  A    between atoms: _20  and  _40
REMARK    6  A    between atoms: _22  and  _28
REMARK    7  A    between atoms: _23  and  _27
REMARK    8  A    between atoms: _27  and  _28
REMARK    9  A    between atoms: _30  and  _31
REMARK   10  A    between atoms: _32  and  _33
REMARK   11  A    between atoms: _34  and  _36
REMARK   12  A    between atoms: _36  and  _37
REMARK   13  A    between atoms: _36  and  _38
REMARK   14  A    between atoms: _38  and  _39
REMARK   15  A    between atoms: _38  and  _40
REMARK   16  A    between atoms: _41  and  _43
REMARK                            x       y       z     vdW  Elec       q    Type
REMARK                         _______ _______ _______ _____ _____    ______ ____
ROOT
ATOM      1  C   UNL     1      -3.865  12.787  24.288  0.00  0.00    +0.141 C 
ENDROOT
BRANCH   1   4
ATOM      2  C   UNL     1      -4.033  12.044  21.937  0.00  0.00    +0.401 C 
ATOM      3  O   UNL     1      -2.848  11.712  21.858  0.00  0.00    -0.226 OA
ATOM      4  N   UNL     1      -4.592  12.561  23.032  0.00  0.00    -0.279 N 
ATOM      5  H   UNL     1      -5.570  12.811  22.996  0.00  0.00    +0.152 HD
BRANCH   2   6
ATOM      6  O   UNL     1      -4.879  11.877  20.796  0.00  0.00    -0.444 OA
BRANCH   6   7
ATOM      7  C   UNL     1      -4.826  10.517  20.357  0.00  0.00    +0.292 C 
BRANCH   7   9
ATOM      8  N   UNL     1      -4.760   9.240  18.251  0.00  0.00    -0.131 NA
ATOM      9  C   UNL     1      -4.778  10.453  18.882  0.00  0.00    +0.120 A 
ATOM     10  C   UNL     1      -4.752  11.460  17.943  0.00  0.00    +0.138 A 
ATOM     11  N   UNL     1      -4.661  10.792  16.752  0.00  0.00    -0.239 N 
ATOM     12  N   UNL     1      -4.703   9.455  16.943  0.00  0.00    -0.065 NA
BRANCH  11  13
ATOM     13  C   UNL     1      -4.704  11.309  15.379  0.00  0.00    +0.195 C 
ATOM     14  C   UNL     1      -5.531  12.588  15.372  0.00  0.00    +0.041 C 
ATOM     15  C   UNL     1      -5.860  13.016  13.958  0.00  0.00    +0.039 C 
ATOM     16  C   UNL     1      -4.732  13.824  13.396  0.00  0.00    -0.026 A 
ATOM     17  C   UNL     1      -3.462  13.288  13.173  0.00  0.00    +0.037 A 
ATOM     18  C   UNL     1      -2.490  14.073  12.530  0.00  0.00    +0.023 A 
ATOM     19  C   UNL     1      -2.734  15.409  12.219  0.00  0.00    +0.002 A 
ATOM     20  C   UNL     1      -3.971  15.965  12.508  0.00  0.00    +0.000 A 
ATOM     21  N   UNL     1      -3.015  12.030  13.613  0.00  0.00    -0.284 N 
ATOM     22  H   UNL     1      -2.066  11.796  13.334  0.00  0.00    +0.155 HD
ATOM     23  C   UNL     1      -4.971  15.172  13.068  0.00  0.00    +0.005 A 
ATOM     24  C   UNL     1      -3.314  11.345  14.756  0.00  0.00    +0.242 C 
ATOM     25  O   UNL     1      -2.389  10.652  15.198  0.00  0.00    -0.273 OA
ENDBRANCH  11  13
ENDBRANCH   7   9
ENDBRANCH   6   7
ENDBRANCH   2   6
ENDBRANCH   1   4
BRANCH   1  26
ATOM     26  C   UNL     1      -3.882  11.554  25.184  0.00  0.00    +0.163 C 
BRANCH  26  27
ATOM     27  O   UNL     1      -2.725  10.742  24.925  0.00  0.00    -0.388 OA
ATOM     28  H   UNL     1      -2.192  11.152  24.239  0.00  0.00    +0.210 HD
ENDBRANCH  26  27
BRANCH  26  29
ATOM     29  C   UNL     1      -3.928  11.991  26.659  0.00  0.00    +0.175 C 
BRANCH  29  30
ATOM     30  C   UNL     1      -3.473  10.873  27.608  0.00  0.00    +0.176 C 
ATOM     31  O   UNL     1      -4.063   9.626  27.145  0.00  0.00    -0.332 OA
ATOM     32  C   UNL     1      -3.652   8.422  27.873  0.00  0.00    +0.277 C 
ATOM     33  C   UNL     1      -3.910   8.592  29.391  0.00  0.00    +0.110 C 
ATOM     34  C   UNL     1      -3.329   9.919  29.922  0.00  0.00    +0.143 C 
ATOM     35  C   UNL     1      -3.819  11.105  29.090  0.00  0.00    +0.133 C 
BRANCH  35  36
ATOM     36  N   UNL     1      -3.190  12.353  29.552  0.00  0.00    -0.308 N 
ATOM     37  H   UNL     1      -2.200  12.470  29.389  0.00  0.00    +0.149 HD
ATOM     38  C   UNL     1      -3.842  13.340  30.171  0.00  0.00    +0.210 C 
ATOM     39  C   UNL     1      -5.345  13.120  30.427  0.00  0.00    +0.109 C 
ATOM     40  O   UNL     1      -3.292  14.381  30.533  0.00  0.00    -0.276 OA
ENDBRANCH  35  36
BRANCH  32  41
ATOM     41  C   UNL     1      -2.157   8.123  27.636  0.00  0.00    +0.414 C 
ATOM     42  O   UNL     1      -1.621   8.446  26.577  0.00  0.00    -0.240 OA
ATOM     43  O   UNL     1      -1.488   7.558  28.502  0.00  0.00    -0.240 OA
ENDBRANCH  32  41
BRANCH  34  44
ATOM     44  O   UNL     1      -3.719  10.106  31.283  0.00  0.00    -0.390 OA
ATOM     45  H   UNL     1      -3.265   9.467  31.837  0.00  0.00    +0.210 HD
ENDBRANCH  34  44
BRANCH  32  46
ATOM     46  O   UNL     1      -4.454   7.312  27.395  0.00  0.00    -0.343 OA
ATOM     47  C   UNL     1      -5.375   7.640  26.323  0.00  0.00    +0.198 C 
ENDBRANCH  32  46
ENDBRANCH  29  30
BRANCH  29  48
ATOM     48  O   UNL     1      -5.257  12.427  27.006  0.00  0.00    -0.387 OA
ATOM     49  H   UNL     1      -5.544  13.103  26.388  0.00  0.00    +0.210 HD
ENDBRANCH  29  48
ENDBRANCH  26  29
ENDBRANCH   1  26
TORSDOF 14
