REMARK VINA RESULT:    -4.343      2.747      7.481
REMARK INTER + INTRA:         -11.114
REMARK INTER:                  -7.959
REMARK INTRA:                  -3.155
REMARK UNBOUND:                -2.835
REMARK  Name = lig_assembled_13.pdb
REMARK  20 active torsions:
REMARK  status: ('A' for Active; 'I' for Inactive)
REMARK    1  A    between atoms: _2  and  _9
REMARK    2  A    between atoms: _4  and  _18
REMARK    3  A    between atoms: _5  and  _11
REMARK    4  A    between atoms: _6  and  _7
REMARK    5  A    between atoms: _6  and  _18
REMARK    6  A    between atoms: _9  and  _10
REMARK    7  A    between atoms: _10  and  _12
REMARK    8  A    between atoms: _11  and  _12
REMARK    9  A    between atoms: _14  and  _34
REMARK   10  A    between atoms: _16  and  _22
REMARK   11  A    between atoms: _17  and  _21
REMARK   12  A    between atoms: _21  and  _22
REMARK   13  A    between atoms: _24  and  _25
REMARK   14  A    between atoms: _26  and  _27
REMARK   15  A    between atoms: _28  and  _30
REMARK   16  A    between atoms: _30  and  _31
REMARK   17  A    between atoms: _30  and  _32
REMARK   18  A    between atoms: _32  and  _33
REMARK   19  A    between atoms: _32  and  _34
REMARK   20  A    between atoms: _35  and  _37
REMARK                            x       y       z     vdW  Elec       q    Type
REMARK                         _______ _______ _______ _____ _____    ______ ____
ROOT
ATOM      1  C   UNL     1      -4.459  12.106  25.639  0.00  0.00    +0.163 C 
ENDROOT
BRANCH   1   2
ATOM      2  O   UNL     1      -5.170  10.933  25.212  0.00  0.00    -0.388 OA
ATOM      3  H   UNL     1      -4.550  10.211  25.084  0.00  0.00    +0.210 HD
ENDBRANCH   1   2
BRANCH   1   4
ATOM      4  C   UNL     1      -4.556  12.283  27.164  0.00  0.00    +0.175 C 
BRANCH   4   5
ATOM      5  C   UNL     1      -3.788  11.191  27.923  0.00  0.00    +0.176 C 
ATOM      6  O   UNL     1      -4.375   9.907  27.574  0.00  0.00    -0.332 OA
ATOM      7  C   UNL     1      -3.699   8.730  28.127  0.00  0.00    +0.277 C 
ATOM      8  C   UNL     1      -3.576   8.849  29.666  0.00  0.00    +0.110 C 
ATOM      9  C   UNL     1      -2.986  10.211  30.087  0.00  0.00    +0.143 C 
ATOM     10  C   UNL     1      -3.764  11.365  29.453  0.00  0.00    +0.133 C 
BRANCH  10  11
ATOM     11  N   UNL     1      -3.139  12.654  29.791  0.00  0.00    -0.308 N 
ATOM     12  H   UNL     1      -2.195  12.818  29.473  0.00  0.00    +0.149 HD
ATOM     13  C   UNL     1      -3.739  13.620  30.491  0.00  0.00    +0.210 C 
ATOM     14  C   UNL     1      -5.169  13.328  30.985  0.00  0.00    +0.109 C 
ATOM     15  O   UNL     1      -3.197  14.696  30.747  0.00  0.00    -0.276 OA
ENDBRANCH  10  11
BRANCH   7  16
ATOM     16  C   UNL     1      -2.294   8.566  27.509  0.00  0.00    +0.414 C 
ATOM     17  O   UNL     1      -1.343   8.227  28.213  0.00  0.00    -0.240 OA
ATOM     18  O   UNL     1      -2.113   8.771  26.309  0.00  0.00    -0.240 OA
ENDBRANCH   7  16
BRANCH   7  19
ATOM     19  O   UNL     1      -4.506   7.564  27.821  0.00  0.00    -0.343 OA
ATOM     20  C   UNL     1      -4.355   6.455  28.743  0.00  0.00    +0.198 C 
ENDBRANCH   7  19
BRANCH   9  21
ATOM     21  O   UNL     1      -3.032  10.337  31.509  0.00  0.00    -0.390 OA
ATOM     22  H   UNL     1      -3.605  11.069  31.747  0.00  0.00    +0.210 HD
ENDBRANCH   9  21
ENDBRANCH   4   5
BRANCH   4  23
ATOM     23  O   UNL     1      -5.938  12.296  27.576  0.00  0.00    -0.387 OA
ATOM     24  H   UNL     1      -6.321  11.427  27.437  0.00  0.00    +0.210 HD
ENDBRANCH   4  23
ENDBRANCH   1   4
BRANCH   1  25
ATOM     25  C   UNL     1      -2.993  12.006  25.230  0.00  0.00    +0.141 C 
BRANCH  25  28
ATOM     26  C   UNL     1      -2.941  11.327  22.855  0.00  0.00    +0.401 C 
ATOM     27  O   UNL     1      -3.225  10.149  23.088  0.00  0.00    -0.226 OA
ATOM     28  N   UNL     1      -2.806  12.261  23.797  0.00  0.00    -0.279 N 
ATOM     29  H   UNL     1      -2.562  13.198  23.507  0.00  0.00    +0.152 HD
BRANCH  26  30
ATOM     30  O   UNL     1      -2.735  11.736  21.501  0.00  0.00    -0.444 OA
BRANCH  30  31
ATOM     31  C   UNL     1      -3.989  11.763  20.814  0.00  0.00    +0.292 C 
BRANCH  31  33
ATOM     32  N   UNL     1      -4.699  13.928  21.781  0.00  0.00    -0.131 NA
ATOM     33  C   UNL     1      -4.956  12.606  21.540  0.00  0.00    +0.120 A 
ATOM     34  C   UNL     1      -6.178  12.279  22.075  0.00  0.00    +0.137 A 
ATOM     35  N   UNL     1      -6.586  13.428  22.689  0.00  0.00    -0.241 N 
ATOM     36  N   UNL     1      -5.718  14.429  22.469  0.00  0.00    -0.065 NA
BRANCH  35  37
ATOM     37  C   UNL     1      -7.818  13.674  23.404  0.00  0.00    +0.265 C 
BRANCH  37  38
ATOM     38  C   UNL     1      -7.764  13.160  24.813  0.00  0.00    +0.329 C 
ATOM     39  O   UNL     1      -8.003  12.019  25.182  0.00  0.00    -0.249 OA
BRANCH  38  40
ATOM     40  O   UNL     1      -7.504  14.204  25.657  0.00  0.00    -0.464 OA
BRANCH  40  41
ATOM     41  C   UNL     1      -8.090  15.456  25.269  0.00  0.00    +0.229 C 
ATOM     42  C   UNL     1      -7.095  16.556  25.594  0.00  0.00    +0.048 C 
ENDBRANCH  40  41
ENDBRANCH  38  40
ENDBRANCH  37  38
ENDBRANCH  35  37
ENDBRANCH  31  33
ENDBRANCH  30  31
ENDBRANCH  26  30
ENDBRANCH  25  28
ENDBRANCH   1  25
TORSDOF 17
