REMARK VINA RESULT:    -5.486      3.004      9.798
REMARK INTER + INTRA:         -12.118
REMARK INTER:                  -9.705
REMARK INTRA:                  -2.413
REMARK UNBOUND:                -2.303
REMARK  Name = lig_assembled_4.pdb
REMARK  19 active torsions:
REMARK  status: ('A' for Active; 'I' for Inactive)
REMARK    1  A    between atoms: _2  and  _9
REMARK    2  A    between atoms: _4  and  _21
REMARK    3  A    between atoms: _6  and  _7
REMARK    4  A    between atoms: _6  and  _21
REMARK    5  A    between atoms: _10  and  _11
REMARK    6  A    between atoms: _11  and  _12
REMARK    7  A    between atoms: _11  and  _13
REMARK    8  A    between atoms: _17  and  _37
REMARK    9  A    between atoms: _19  and  _25
REMARK   10  A    between atoms: _20  and  _24
REMARK   11  A    between atoms: _24  and  _25
REMARK   12  A    between atoms: _27  and  _28
REMARK   13  A    between atoms: _29  and  _30
REMARK   14  A    between atoms: _31  and  _33
REMARK   15  A    between atoms: _33  and  _34
REMARK   16  A    between atoms: _33  and  _35
REMARK   17  A    between atoms: _35  and  _36
REMARK   18  A    between atoms: _35  and  _37
REMARK   19  A    between atoms: _38  and  _40
REMARK                            x       y       z     vdW  Elec       q    Type
REMARK                         _______ _______ _______ _____ _____    ______ ____
ROOT
ATOM      1  C   UNL     1      -3.180  11.847  25.097  0.00  0.00    +0.163 C 
ENDROOT
BRANCH   1   2
ATOM      2  O   UNL     1      -2.081  10.923  25.041  0.00  0.00    -0.388 OA
ATOM      3  H   UNL     1      -1.913  10.572  25.919  0.00  0.00    +0.210 HD
ENDBRANCH   1   2
BRANCH   1   4
ATOM      4  C   UNL     1      -2.817  13.134  24.364  0.00  0.00    +0.141 C 
BRANCH   4   7
ATOM      5  C   UNL     1      -4.770  13.911  23.064  0.00  0.00    +0.401 C 
ATOM      6  O   UNL     1      -5.344  14.399  24.040  0.00  0.00    -0.226 OA
ATOM      7  N   UNL     1      -3.589  13.295  23.125  0.00  0.00    -0.279 N 
ATOM      8  H   UNL     1      -3.203  12.918  22.271  0.00  0.00    +0.152 HD
BRANCH   5   9
ATOM      9  O   UNL     1      -5.392  13.994  21.779  0.00  0.00    -0.444 OA
BRANCH   9  10
ATOM     10  C   UNL     1      -6.183  12.823  21.554  0.00  0.00    +0.292 C 
BRANCH  10  12
ATOM     11  N   UNL     1      -7.208  12.535  19.328  0.00  0.00    -0.131 NA
ATOM     12  C   UNL     1      -6.122  12.418  20.139  0.00  0.00    +0.121 A 
ATOM     13  C   UNL     1      -5.086  11.858  19.425  0.00  0.00    +0.143 A 
ATOM     14  N   UNL     1      -5.636  11.526  18.202  0.00  0.00    -0.219 N 
ATOM     15  N   UNL     1      -6.894  12.015  18.149  0.00  0.00    -0.060 NA
BRANCH  14  16
ATOM     16  C   UNL     1      -5.029  10.772  17.152  0.00  0.00    +0.070 A 
ATOM     17  C   UNL     1      -4.730  11.317  15.873  0.00  0.00    -0.019 A 
ATOM     18  C   UNL     1      -4.158  10.450  14.915  0.00  0.00    +0.006 A 
ATOM     19  C   UNL     1      -3.901   9.106  15.189  0.00  0.00    +0.000 A 
ATOM     20  C   UNL     1      -4.190   8.588  16.442  0.00  0.00    +0.002 A 
ATOM     21  C   UNL     1      -4.751   9.413  17.416  0.00  0.00    +0.028 A 
BRANCH  17  22
ATOM     22  C   UNL     1      -4.997  12.768  15.470  0.00  0.00    +0.015 C 
ATOM     23  C   UNL     1      -6.188  12.972  14.520  0.00  0.00    +0.012 C 
ATOM     24  C   UNL     1      -3.735  13.380  14.858  0.00  0.00    +0.012 C 
ENDBRANCH  17  22
ENDBRANCH  14  16
ENDBRANCH  10  12
ENDBRANCH   9  10
ENDBRANCH   5   9
ENDBRANCH   4   7
ENDBRANCH   1   4
BRANCH   1  25
ATOM     25  C   UNL     1      -3.552  12.172  26.553  0.00  0.00    +0.175 C 
BRANCH  25  26
ATOM     26  C   UNL     1      -3.370  10.961  27.481  0.00  0.00    +0.176 C 
ATOM     27  O   UNL     1      -4.014   9.818  26.855  0.00  0.00    -0.332 OA
ATOM     28  C   UNL     1      -3.850   8.538  27.552  0.00  0.00    +0.277 C 
ATOM     29  C   UNL     1      -4.315   8.660  29.024  0.00  0.00    +0.110 C 
ATOM     30  C   UNL     1      -3.681   9.882  29.722  0.00  0.00    +0.143 C 
ATOM     31  C   UNL     1      -3.909  11.157  28.910  0.00  0.00    +0.133 C 
BRANCH  31  32
ATOM     32  N   UNL     1      -3.227  12.298  29.541  0.00  0.00    -0.308 N 
ATOM     33  H   UNL     1      -2.217  12.281  29.579  0.00  0.00    +0.149 HD
ATOM     34  C   UNL     1      -3.854  13.354  30.065  0.00  0.00    +0.210 C 
ATOM     35  C   UNL     1      -5.393  13.337  30.014  0.00  0.00    +0.109 C 
ATOM     36  O   UNL     1      -3.256  14.303  30.574  0.00  0.00    -0.276 OA
ENDBRANCH  31  32
BRANCH  28  37
ATOM     37  C   UNL     1      -2.377   8.079  27.513  0.00  0.00    +0.414 C 
ATOM     38  O   UNL     1      -1.898   7.453  28.458  0.00  0.00    -0.240 OA
ATOM     39  O   UNL     1      -1.669   8.334  26.538  0.00  0.00    -0.240 OA
ENDBRANCH  28  37
BRANCH  30  40
ATOM     40  O   UNL     1      -4.251  10.043  31.021  0.00  0.00    -0.390 OA
ATOM     41  H   UNL     1      -4.920  10.731  30.995  0.00  0.00    +0.210 HD
ENDBRANCH  30  40
BRANCH  28  42
ATOM     42  O   UNL     1      -4.685   7.555  26.888  0.00  0.00    -0.343 OA
ATOM     43  C   UNL     1      -5.886   8.087  26.273  0.00  0.00    +0.198 C 
ENDBRANCH  28  42
ENDBRANCH  25  26
BRANCH  25  44
ATOM     44  O   UNL     1      -4.910  12.651  26.624  0.00  0.00    -0.387 OA
ATOM     45  H   UNL     1      -4.977  13.325  27.305  0.00  0.00    +0.210 HD
ENDBRANCH  25  44
ENDBRANCH   1  25
TORSDOF 15
