REMARK VINA RESULT:    -4.903      2.975      8.214
REMARK INTER + INTRA:         -10.773
REMARK INTER:                  -7.578
REMARK INTRA:                  -3.196
REMARK UNBOUND:                -2.287
REMARK  Name = lig_assembled_52.pdb
REMARK  16 active torsions:
REMARK  status: ('A' for Active; 'I' for Inactive)
REMARK    1  A    between atoms: _2  and  _10
REMARK    2  A    between atoms: _5  and  _18
REMARK    3  A    between atoms: _7  and  _8
REMARK    4  A    between atoms: _7  and  _18
REMARK    5  A    between atoms: _14  and  _34
REMARK    6  A    between atoms: _16  and  _22
REMARK    7  A    between atoms: _17  and  _21
REMARK    8  A    between atoms: _21  and  _22
REMARK    9  A    between atoms: _24  and  _25
REMARK   10  A    between atoms: _26  and  _27
REMARK   11  A    between atoms: _28  and  _30
REMARK   12  A    between atoms: _30  and  _31
REMARK   13  A    between atoms: _30  and  _32
REMARK   14  A    between atoms: _32  and  _33
REMARK   15  A    between atoms: _32  and  _34
REMARK   16  A    between atoms: _35  and  _37
REMARK                            x       y       z     vdW  Elec       q    Type
REMARK                         _______ _______ _______ _____ _____    ______ ____
ROOT
ATOM      1  C   UNL     1      -3.222  11.734  25.078  0.00  0.00    +0.163 C 
ENDROOT
BRANCH   1   2
ATOM      2  O   UNL     1      -2.006  10.969  25.084  0.00  0.00    -0.388 OA
ATOM      3  H   UNL     1      -2.207  10.047  25.263  0.00  0.00    +0.210 HD
ENDBRANCH   1   2
BRANCH   1   4
ATOM      4  C   UNL     1      -2.984  13.089  24.422  0.00  0.00    +0.141 C 
BRANCH   4   7
ATOM      5  C   UNL     1      -4.394  13.960  22.589  0.00  0.00    +0.401 C 
ATOM      6  O   UNL     1      -3.530  13.803  21.723  0.00  0.00    -0.226 OA
ATOM      7  N   UNL     1      -4.222  13.659  23.877  0.00  0.00    -0.279 N 
ATOM      8  H   UNL     1      -4.987  13.833  24.514  0.00  0.00    +0.152 HD
BRANCH   5   9
ATOM      9  O   UNL     1      -5.664  14.500  22.214  0.00  0.00    -0.444 OA
BRANCH   9  10
ATOM     10  C   UNL     1      -6.467  13.471  21.630  0.00  0.00    +0.292 C 
BRANCH  10  12
ATOM     11  N   UNL     1      -6.821  12.113  23.666  0.00  0.00    -0.131 NA
ATOM     12  C   UNL     1      -6.331  12.219  22.397  0.00  0.00    +0.121 A 
ATOM     13  C   UNL     1      -5.755  11.022  22.038  0.00  0.00    +0.143 A 
ATOM     14  N   UNL     1      -5.935  10.199  23.125  0.00  0.00    -0.218 N 
ATOM     15  N   UNL     1      -6.573  10.885  24.104  0.00  0.00    -0.060 NA
BRANCH  14  16
ATOM     16  C   UNL     1      -5.565   8.846  23.279  0.00  0.00    +0.085 A 
ATOM     17  C   UNL     1      -6.508   7.814  23.255  0.00  0.00    +0.031 A 
ATOM     18  C   UNL     1      -6.082   6.499  23.434  0.00  0.00    +0.022 A 
ATOM     19  C   UNL     1      -4.731   6.262  23.627  0.00  0.00    +0.111 A 
ATOM     20  N   UNL     1      -3.796   7.236  23.646  0.00  0.00    -0.261 NA
ATOM     21  C   UNL     1      -4.230   8.509  23.472  0.00  0.00    +0.138 A 
ENDBRANCH  14  16
ENDBRANCH  10  12
ENDBRANCH   9  10
ENDBRANCH   5   9
ENDBRANCH   4   7
ENDBRANCH   1   4
BRANCH   1  22
ATOM     22  C   UNL     1      -3.748  11.941  26.509  0.00  0.00    +0.175 C 
BRANCH  22  23
ATOM     23  C   UNL     1      -3.425  10.749  27.422  0.00  0.00    +0.176 C 
ATOM     24  O   UNL     1      -4.047   9.566  26.850  0.00  0.00    -0.332 OA
ATOM     25  C   UNL     1      -3.756   8.302  27.534  0.00  0.00    +0.277 C 
ATOM     26  C   UNL     1      -4.114   8.407  29.037  0.00  0.00    +0.110 C 
ATOM     27  C   UNL     1      -3.500   9.667  29.682  0.00  0.00    +0.143 C 
ATOM     28  C   UNL     1      -3.863  10.922  28.888  0.00  0.00    +0.133 C 
BRANCH  28  29
ATOM     29  N   UNL     1      -3.201  12.105  29.462  0.00  0.00    -0.308 N 
ATOM     30  H   UNL     1      -2.192  12.139  29.437  0.00  0.00    +0.149 HD
ATOM     31  C   UNL     1      -3.847  13.135  30.013  0.00  0.00    +0.210 C 
ATOM     32  C   UNL     1      -5.384  13.041  30.060  0.00  0.00    +0.109 C 
ATOM     33  O   UNL     1      -3.267  14.120  30.473  0.00  0.00    -0.276 OA
ENDBRANCH  28  29
BRANCH  25  34
ATOM     34  C   UNL     1      -2.267   7.928  27.383  0.00  0.00    +0.414 C 
ATOM     35  O   UNL     1      -1.647   8.249  26.370  0.00  0.00    -0.240 OA
ATOM     36  O   UNL     1      -1.686   7.307  28.273  0.00  0.00    -0.240 OA
ENDBRANCH  25  34
BRANCH  27  37
ATOM     37  O   UNL     1      -3.976   9.804  31.022  0.00  0.00    -0.390 OA
ATOM     38  H   UNL     1      -4.487   9.027  31.261  0.00  0.00    +0.210 HD
ENDBRANCH  27  37
BRANCH  25  39
ATOM     39  O   UNL     1      -4.582   7.269  26.939  0.00  0.00    -0.343 OA
ATOM     40  C   UNL     1      -6.011   7.459  27.097  0.00  0.00    +0.198 C 
ENDBRANCH  25  39
ENDBRANCH  22  23
BRANCH  22  41
ATOM     41  O   UNL     1      -5.170  12.177  26.486  0.00  0.00    -0.387 OA
ATOM     42  H   UNL     1      -5.480  12.178  25.577  0.00  0.00    +0.210 HD
ENDBRANCH  22  41
ENDBRANCH   1  22
TORSDOF 14
