REMARK VINA RESULT:    -5.384      0.000      0.000
REMARK INTER + INTRA:         -12.853
REMARK INTER:                 -10.274
REMARK INTRA:                  -2.579
REMARK UNBOUND:                -2.590
REMARK  Name = lig_assembled_29.pdb
REMARK  21 active torsions:
REMARK  status: ('A' for Active; 'I' for Inactive)
REMARK    1  A    between atoms: _2  and  _9
REMARK    2  A    between atoms: _4  and  _23
REMARK    3  A    between atoms: _6  and  _7
REMARK    4  A    between atoms: _6  and  _23
REMARK    5  A    between atoms: _9  and  _10
REMARK    6  A    between atoms: _12  and  _18
REMARK    7  A    between atoms: _13  and  _18
REMARK    8  A    between atoms: _14  and  _17
REMARK    9  A    between atoms: _15  and  _17
REMARK   10  A    between atoms: _19  and  _39
REMARK   11  A    between atoms: _21  and  _27
REMARK   12  A    between atoms: _22  and  _26
REMARK   13  A    between atoms: _26  and  _27
REMARK   14  A    between atoms: _29  and  _30
REMARK   15  A    between atoms: _31  and  _32
REMARK   16  A    between atoms: _33  and  _35
REMARK   17  A    between atoms: _35  and  _36
REMARK   18  A    between atoms: _35  and  _37
REMARK   19  A    between atoms: _37  and  _38
REMARK   20  A    between atoms: _37  and  _39
REMARK   21  A    between atoms: _40  and  _42
REMARK                            x       y       z     vdW  Elec       q    Type
REMARK                         _______ _______ _______ _____ _____    ______ ____
ROOT
ATOM      1  C   UNL     1      -3.275  11.825  25.105  0.00  0.00    +0.163 C 
ENDROOT
BRANCH   1   2
ATOM      2  O   UNL     1      -2.108  10.991  25.012  0.00  0.00    -0.388 OA
ATOM      3  H   UNL     1      -1.864  10.885  24.090  0.00  0.00    +0.210 HD
ENDBRANCH   1   2
BRANCH   1   4
ATOM      4  C   UNL     1      -3.620  12.126  26.574  0.00  0.00    +0.175 C 
BRANCH   4   5
ATOM      5  C   UNL     1      -3.362  10.919  27.488  0.00  0.00    +0.176 C 
ATOM      6  O   UNL     1      -3.991   9.757  26.881  0.00  0.00    -0.332 OA
ATOM      7  C   UNL     1      -3.759   8.481  27.565  0.00  0.00    +0.277 C 
ATOM      8  C   UNL     1      -4.173   8.582  29.053  0.00  0.00    +0.110 C 
ATOM      9  C   UNL     1      -3.554   9.821  29.734  0.00  0.00    +0.143 C 
ATOM     10  C   UNL     1      -3.854  11.092  28.937  0.00  0.00    +0.133 C 
BRANCH  10  11
ATOM     11  N   UNL     1      -3.186  12.252  29.547  0.00  0.00    -0.308 N 
ATOM     12  H   UNL     1      -2.176  12.271  29.543  0.00  0.00    +0.149 HD
ATOM     13  C   UNL     1      -3.828  13.282  30.106  0.00  0.00    +0.210 C 
ATOM     14  C   UNL     1      -5.366  13.210  30.120  0.00  0.00    +0.109 C 
ATOM     15  O   UNL     1      -3.242  14.248  30.597  0.00  0.00    -0.276 OA
ENDBRANCH  10  11
BRANCH   7  16
ATOM     16  C   UNL     1      -2.275   8.071  27.469  0.00  0.00    +0.414 C 
ATOM     17  O   UNL     1      -1.628   8.319  26.452  0.00  0.00    -0.240 OA
ATOM     18  O   UNL     1      -1.725   7.493  28.407  0.00  0.00    -0.240 OA
ENDBRANCH   7  16
BRANCH   7  19
ATOM     19  O   UNL     1      -4.586   7.474  26.928  0.00  0.00    -0.343 OA
ATOM     20  C   UNL     1      -5.303   7.924  25.751  0.00  0.00    +0.198 C 
ENDBRANCH   7  19
BRANCH   9  21
ATOM     21  O   UNL     1      -4.079   9.959  31.054  0.00  0.00    -0.390 OA
ATOM     22  H   UNL     1      -3.672   9.308  31.631  0.00  0.00    +0.210 HD
ENDBRANCH   9  21
ENDBRANCH   4   5
BRANCH   4  23
ATOM     23  O   UNL     1      -4.993  12.550  26.685  0.00  0.00    -0.387 OA
ATOM     24  H   UNL     1      -5.571  11.844  26.384  0.00  0.00    +0.210 HD
ENDBRANCH   4  23
ENDBRANCH   1   4
BRANCH   1  25
ATOM     25  C   UNL     1      -3.043  13.133  24.357  0.00  0.00    +0.141 C 
BRANCH  25  28
ATOM     26  C   UNL     1      -5.165  13.676  23.213  0.00  0.00    +0.401 C 
ATOM     27  O   UNL     1      -5.747  14.011  24.248  0.00  0.00    -0.226 OA
ATOM     28  N   UNL     1      -3.903  13.247  23.173  0.00  0.00    -0.279 N 
ATOM     29  H   UNL     1      -3.517  12.985  22.277  0.00  0.00    +0.152 HD
BRANCH  26  30
ATOM     30  O   UNL     1      -5.869  13.738  21.970  0.00  0.00    -0.444 OA
BRANCH  30  31
ATOM     31  C   UNL     1      -6.526  12.491  21.730  0.00  0.00    +0.292 C 
BRANCH  31  33
ATOM     32  N   UNL     1      -4.542  11.242  20.923  0.00  0.00    -0.131 NA
ATOM     33  C   UNL     1      -5.807  11.719  20.700  0.00  0.00    +0.120 A 
ATOM     34  C   UNL     1      -6.220  11.330  19.446  0.00  0.00    +0.137 A 
ATOM     35  N   UNL     1      -5.199  10.542  18.996  0.00  0.00    -0.247 N 
ATOM     36  N   UNL     1      -4.174  10.530  19.865  0.00  0.00    -0.065 NA
BRANCH  35  37
ATOM     37  C   UNL     1      -5.154   9.741  17.787  0.00  0.00    +0.180 C 
BRANCH  37  38
ATOM     38  C   UNL     1      -4.436  10.480  16.680  0.00  0.00    -0.022 A 
ATOM     39  C   UNL     1      -3.649   9.773  15.754  0.00  0.00    +0.054 A 
ATOM     40  C   UNL     1      -3.042  10.435  14.676  0.00  0.00    +0.162 A 
ATOM     41  C   UNL     1      -3.217  11.825  14.526  0.00  0.00    +0.162 A 
ATOM     42  C   UNL     1      -4.000  12.525  15.448  0.00  0.00    +0.050 A 
ATOM     43  C   UNL     1      -4.603  11.858  16.518  0.00  0.00    +0.009 A 
BRANCH  40  44
ATOM     44  O   UNL     1      -2.277   9.814  13.720  0.00  0.00    -0.491 OA
ATOM     45  C   UNL     1      -2.902   8.832  12.905  0.00  0.00    +0.277 C 
ENDBRANCH  40  44
BRANCH  41  46
ATOM     46  O   UNL     1      -2.586  12.401  13.450  0.00  0.00    -0.491 OA
ATOM     47  C   UNL     1      -2.721  13.804  13.279  0.00  0.00    +0.277 C 
ENDBRANCH  41  46
ENDBRANCH  37  38
ENDBRANCH  35  37
ENDBRANCH  31  33
ENDBRANCH  30  31
ENDBRANCH  26  30
ENDBRANCH  25  28
ENDBRANCH   1  25
TORSDOF 17
