REMARK VINA RESULT:    -5.665      1.547      1.958
REMARK INTER + INTRA:         -12.139
REMARK INTER:                  -9.721
REMARK INTRA:                  -2.419
REMARK UNBOUND:                -2.004
REMARK  Name = lig_assembled_6.pdb
REMARK  17 active torsions:
REMARK  status: ('A' for Active; 'I' for Inactive)
REMARK    1  A    between atoms: _2  and  _10
REMARK    2  A    between atoms: _3  and  _13
REMARK    3  A    between atoms: _5  and  _21
REMARK    4  A    between atoms: _7  and  _8
REMARK    5  A    between atoms: _7  and  _21
REMARK    6  A    between atoms: _17  and  _37
REMARK    7  A    between atoms: _19  and  _25
REMARK    8  A    between atoms: _20  and  _24
REMARK    9  A    between atoms: _24  and  _25
REMARK   10  A    between atoms: _27  and  _28
REMARK   11  A    between atoms: _29  and  _30
REMARK   12  A    between atoms: _31  and  _33
REMARK   13  A    between atoms: _33  and  _34
REMARK   14  A    between atoms: _33  and  _35
REMARK   15  A    between atoms: _35  and  _36
REMARK   16  A    between atoms: _35  and  _37
REMARK   17  A    between atoms: _38  and  _40
REMARK                            x       y       z     vdW  Elec       q    Type
REMARK                         _______ _______ _______ _____ _____    ______ ____
ROOT
ATOM      1  C   UNL     1      -3.427  12.392  24.092  0.00  0.00    +0.163 C 
ENDROOT
BRANCH   1   2
ATOM      2  O   UNL     1      -2.020  12.224  24.334  0.00  0.00    -0.388 OA
ATOM      3  H   UNL     1      -1.811  11.287  24.374  0.00  0.00    +0.210 HD
ENDBRANCH   1   2
BRANCH   1   4
ATOM      4  C   UNL     1      -3.660  13.595  23.184  0.00  0.00    +0.141 C 
BRANCH   4   7
ATOM      5  C   UNL     1      -5.836  13.735  22.022  0.00  0.00    +0.401 C 
ATOM      6  O   UNL     1      -6.354  14.455  22.878  0.00  0.00    -0.226 OA
ATOM      7  N   UNL     1      -4.584  13.281  22.087  0.00  0.00    -0.279 N 
ATOM      8  H   UNL     1      -4.252  12.688  21.340  0.00  0.00    +0.152 HD
BRANCH   5   9
ATOM      9  O   UNL     1      -6.607  13.348  20.882  0.00  0.00    -0.444 OA
BRANCH   9  10
ATOM     10  C   UNL     1      -6.529  11.930  20.712  0.00  0.00    +0.292 C 
BRANCH  10  12
ATOM     11  N   UNL     1      -6.559  12.315  18.266  0.00  0.00    -0.131 NA
ATOM     12  C   UNL     1      -6.106  11.601  19.337  0.00  0.00    +0.121 A 
ATOM     13  C   UNL     1      -5.250  10.620  18.893  0.00  0.00    +0.143 A 
ATOM     14  N   UNL     1      -5.185  10.795  17.530  0.00  0.00    -0.220 N 
ATOM     15  N   UNL     1      -6.002  11.815  17.171  0.00  0.00    -0.060 NA
BRANCH  14  16
ATOM     16  C   UNL     1      -4.389  10.099  16.581  0.00  0.00    +0.067 A 
ATOM     17  C   UNL     1      -4.307   8.698  16.606  0.00  0.00    +0.034 A 
ATOM     18  C   UNL     1      -3.472   8.028  15.707  0.00  0.00    +0.086 A 
ATOM     19  C   UNL     1      -2.718   8.757  14.779  0.00  0.00    +0.273 A 
ATOM     20  C   UNL     1      -2.813  10.153  14.729  0.00  0.00    +0.086 A 
ATOM     21  C   UNL     1      -3.650  10.821  15.629  0.00  0.00    +0.034 A 
BRANCH  19  22
ATOM     22  N   UNL     1      -1.811   8.050  13.867  0.00  0.00    +0.080 N 
ATOM     23  O   UNL     1      -1.915   8.286  12.654  0.00  0.00    +0.041 OA
ATOM     24  O   UNL     1      -1.000   7.254  14.361  0.00  0.00    -0.576 OA
ENDBRANCH  19  22
ENDBRANCH  14  16
ENDBRANCH  10  12
ENDBRANCH   9  10
ENDBRANCH   5   9
ENDBRANCH   4   7
ENDBRANCH   1   4
BRANCH   1  25
ATOM     25  C   UNL     1      -4.192  12.588  25.412  0.00  0.00    +0.175 C 
BRANCH  25  26
ATOM     26  C   UNL     1      -3.821  11.526  26.459  0.00  0.00    +0.176 C 
ATOM     27  O   UNL     1      -3.798  10.233  25.794  0.00  0.00    -0.332 OA
ATOM     28  C   UNL     1      -3.358   9.104  26.620  0.00  0.00    +0.277 C 
ATOM     29  C   UNL     1      -4.208   9.014  27.911  0.00  0.00    +0.110 C 
ATOM     30  C   UNL     1      -4.288  10.374  28.636  0.00  0.00    +0.143 C 
ATOM     31  C   UNL     1      -4.753  11.477  27.684  0.00  0.00    +0.133 C 
BRANCH  31  32
ATOM     32  N   UNL     1      -4.742  12.782  28.363  0.00  0.00    -0.308 N 
ATOM     33  H   UNL     1      -3.846  13.176  28.613  0.00  0.00    +0.149 HD
ATOM     34  C   UNL     1      -5.839  13.480  28.670  0.00  0.00    +0.210 C 
ATOM     35  C   UNL     1      -7.190  12.841  28.298  0.00  0.00    +0.109 C 
ATOM     36  O   UNL     1      -5.798  14.579  29.225  0.00  0.00    -0.276 OA
ENDBRANCH  31  32
BRANCH  28  37
ATOM     37  C   UNL     1      -1.868   9.248  26.992  0.00  0.00    +0.414 C 
ATOM     38  O   UNL     1      -1.430   8.719  28.013  0.00  0.00    -0.240 OA
ATOM     39  O   UNL     1      -1.103   9.892  26.272  0.00  0.00    -0.240 OA
ENDBRANCH  28  37
BRANCH  30  40
ATOM     40  O   UNL     1      -5.199  10.283  29.732  0.00  0.00    -0.390 OA
ATOM     41  H   UNL     1      -6.096  10.415  29.415  0.00  0.00    +0.210 HD
ENDBRANCH  30  40
BRANCH  28  42
ATOM     42  O   UNL     1      -3.556   7.886  25.856  0.00  0.00    -0.343 OA
ATOM     43  C   UNL     1      -4.198   8.068  24.569  0.00  0.00    +0.198 C 
ENDBRANCH  28  42
ENDBRANCH  25  26
BRANCH  25  44
ATOM     44  O   UNL     1      -5.613  12.572  25.170  0.00  0.00    -0.387 OA
ATOM     45  H   UNL     1      -5.885  11.686  24.920  0.00  0.00    +0.210 HD
ENDBRANCH  25  44
ENDBRANCH   1  25
TORSDOF 15
