REMARK VINA RESULT:    -4.212      3.456      9.880
REMARK INTER + INTRA:         -11.762
REMARK INTER:                  -9.749
REMARK INTRA:                  -2.012
REMARK UNBOUND:                -3.979
REMARK  Name = lig_assembled_24.pdb
REMARK  19 active torsions:
REMARK  status: ('A' for Active; 'I' for Inactive)
REMARK    1  A    between atoms: _2  and  _9
REMARK    2  A    between atoms: _4  and  _21
REMARK    3  A    between atoms: _6  and  _7
REMARK    4  A    between atoms: _6  and  _21
REMARK    5  A    between atoms: _9  and  _10
REMARK    6  A    between atoms: _13  and  _16
REMARK    7  A    between atoms: _14  and  _16
REMARK    8  A    between atoms: _17  and  _37
REMARK    9  A    between atoms: _19  and  _25
REMARK   10  A    between atoms: _20  and  _24
REMARK   11  A    between atoms: _24  and  _25
REMARK   12  A    between atoms: _27  and  _28
REMARK   13  A    between atoms: _29  and  _30
REMARK   14  A    between atoms: _31  and  _33
REMARK   15  A    between atoms: _33  and  _34
REMARK   16  A    between atoms: _33  and  _35
REMARK   17  A    between atoms: _35  and  _36
REMARK   18  A    between atoms: _35  and  _37
REMARK   19  A    between atoms: _38  and  _40
REMARK                            x       y       z     vdW  Elec       q    Type
REMARK                         _______ _______ _______ _____ _____    ______ ____
ROOT
ATOM      1  C   UNL     1      -4.704  12.062  25.983  0.00  0.00    +0.163 C 
ENDROOT
BRANCH   1   2
ATOM      2  O   UNL     1      -5.299  10.855  25.476  0.00  0.00    -0.388 OA
ATOM      3  H   UNL     1      -4.717  10.112  25.654  0.00  0.00    +0.210 HD
ENDBRANCH   1   2
BRANCH   1   4
ATOM      4  C   UNL     1      -4.767  12.103  27.519  0.00  0.00    +0.175 C 
BRANCH   4   5
ATOM      5  C   UNL     1      -3.872  11.034  28.163  0.00  0.00    +0.176 C 
ATOM      6  O   UNL     1      -4.404   9.729  27.803  0.00  0.00    -0.332 OA
ATOM      7  C   UNL     1      -3.612   8.578  28.245  0.00  0.00    +0.277 C 
ATOM      8  C   UNL     1      -3.371   8.641  29.773  0.00  0.00    +0.110 C 
ATOM      9  C   UNL     1      -2.834  10.021  30.208  0.00  0.00    +0.143 C 
ATOM     10  C   UNL     1      -3.732  11.146  29.692  0.00  0.00    +0.133 C 
BRANCH  10  11
ATOM     11  N   UNL     1      -3.164  12.459  30.039  0.00  0.00    -0.308 N 
ATOM     12  H   UNL     1      -2.266  12.702  29.647  0.00  0.00    +0.149 HD
ATOM     13  C   UNL     1      -3.759  13.349  30.838  0.00  0.00    +0.210 C 
ATOM     14  C   UNL     1      -5.116  12.937  31.440  0.00  0.00    +0.109 C 
ATOM     15  O   UNL     1      -3.266  14.447  31.099  0.00  0.00    -0.276 OA
ENDBRANCH  10  11
BRANCH   7  16
ATOM     16  C   UNL     1      -2.256   8.532  27.510  0.00  0.00    +0.414 C 
ATOM     17  O   UNL     1      -2.192   8.794  26.310  0.00  0.00    -0.240 OA
ATOM     18  O   UNL     1      -1.226   8.235  28.118  0.00  0.00    -0.240 OA
ENDBRANCH   7  16
BRANCH   7  19
ATOM     19  O   UNL     1      -4.367   7.374  27.951  0.00  0.00    -0.343 OA
ATOM     20  C   UNL     1      -4.154   6.277  28.875  0.00  0.00    +0.198 C 
ENDBRANCH   7  19
BRANCH   9  21
ATOM     21  O   UNL     1      -2.770  10.086  31.633  0.00  0.00    -0.390 OA
ATOM     22  H   UNL     1      -3.259   9.350  32.010  0.00  0.00    +0.210 HD
ENDBRANCH   9  21
ENDBRANCH   4   5
BRANCH   4  23
ATOM     23  O   UNL     1      -6.129  11.944  27.965  0.00  0.00    -0.387 OA
ATOM     24  H   UNL     1      -6.237  11.078  28.364  0.00  0.00    +0.210 HD
ENDBRANCH   4  23
ENDBRANCH   1   4
BRANCH   1  25
ATOM     25  C   UNL     1      -3.251  12.158  25.529  0.00  0.00    +0.141 C 
BRANCH  25  28
ATOM     26  C   UNL     1      -3.038  11.466  23.167  0.00  0.00    +0.401 C 
ATOM     27  O   UNL     1      -3.008  10.261  23.424  0.00  0.00    -0.226 OA
ATOM     28  N   UNL     1      -3.143  12.423  24.089  0.00  0.00    -0.279 N 
ATOM     29  H   UNL     1      -3.150  13.385  23.780  0.00  0.00    +0.152 HD
BRANCH  26  30
ATOM     30  O   UNL     1      -2.951  11.887  21.803  0.00  0.00    -0.444 OA
BRANCH  30  31
ATOM     31  C   UNL     1      -4.265  12.128  21.293  0.00  0.00    +0.292 C 
BRANCH  31  33
ATOM     32  N   UNL     1      -4.473   9.874  20.292  0.00  0.00    -0.131 NA
ATOM     33  C   UNL     1      -4.546  11.234  20.154  0.00  0.00    +0.120 A 
ATOM     34  C   UNL     1      -4.919  11.537  18.864  0.00  0.00    +0.137 A 
ATOM     35  N   UNL     1      -5.128  10.321  18.282  0.00  0.00    -0.247 N 
ATOM     36  N   UNL     1      -4.821   9.324  19.138  0.00  0.00    -0.065 NA
BRANCH  35  37
ATOM     37  C   UNL     1      -5.657   9.973  16.974  0.00  0.00    +0.180 C 
BRANCH  37  38
ATOM     38  C   UNL     1      -4.741  10.289  15.816  0.00  0.00    -0.026 A 
ATOM     39  C   UNL     1      -3.656   9.455  15.519  0.00  0.00    +0.009 A 
ATOM     40  C   UNL     1      -2.814   9.755  14.444  0.00  0.00    +0.046 A 
ATOM     41  C   UNL     1      -3.051  10.874  13.644  0.00  0.00    +0.120 A 
ATOM     42  C   UNL     1      -4.114  11.720  13.948  0.00  0.00    +0.046 A 
ATOM     43  C   UNL     1      -4.957  11.430  15.028  0.00  0.00    +0.009 A 
BRANCH  41  44
ATOM     44  O   UNL     1      -2.149  11.075  12.636  0.00  0.00    -0.495 OA
ATOM     45  C   UNL     1      -1.994  12.427  12.214  0.00  0.00    +0.277 C 
ENDBRANCH  41  44
ENDBRANCH  37  38
ENDBRANCH  35  37
ENDBRANCH  31  33
ENDBRANCH  30  31
ENDBRANCH  26  30
ENDBRANCH  25  28
ENDBRANCH   1  25
TORSDOF 16
