REMARK VINA RESULT:    -4.047      3.511      6.320
REMARK INTER + INTRA:         -11.410
REMARK INTER:                  -9.377
REMARK INTRA:                  -2.033
REMARK UNBOUND:                -3.458
REMARK  Name = lig_assembled_43.pdb
REMARK  20 active torsions:
REMARK  status: ('A' for Active; 'I' for Inactive)
REMARK    1  A    between atoms: _2  and  _9
REMARK    2  A    between atoms: _4  and  _18
REMARK    3  A    between atoms: _6  and  _7
REMARK    4  A    between atoms: _6  and  _18
REMARK    5  A    between atoms: _9  and  _10
REMARK    6  A    between atoms: _10  and  _11
REMARK    7  A    between atoms: _11  and  _12
REMARK    8  A    between atoms: _12  and  _13
REMARK    9  A    between atoms: _14  and  _34
REMARK   10  A    between atoms: _16  and  _22
REMARK   11  A    between atoms: _17  and  _21
REMARK   12  A    between atoms: _21  and  _22
REMARK   13  A    between atoms: _24  and  _25
REMARK   14  A    between atoms: _26  and  _27
REMARK   15  A    between atoms: _28  and  _30
REMARK   16  A    between atoms: _30  and  _31
REMARK   17  A    between atoms: _30  and  _32
REMARK   18  A    between atoms: _32  and  _33
REMARK   19  A    between atoms: _32  and  _34
REMARK   20  A    between atoms: _35  and  _37
REMARK                            x       y       z     vdW  Elec       q    Type
REMARK                         _______ _______ _______ _____ _____    ______ ____
ROOT
ATOM      1  C   UNL     1      -4.706  12.132  25.988  0.00  0.00    +0.163 C 
ENDROOT
BRANCH   1   2
ATOM      2  O   UNL     1      -5.320  10.915  25.535  0.00  0.00    -0.388 OA
ATOM      3  H   UNL     1      -6.116  11.122  25.040  0.00  0.00    +0.210 HD
ENDBRANCH   1   2
BRANCH   1   4
ATOM      4  C   UNL     1      -4.758  12.236  27.522  0.00  0.00    +0.175 C 
BRANCH   4   5
ATOM      5  C   UNL     1      -3.876  11.180  28.203  0.00  0.00    +0.176 C 
ATOM      6  O   UNL     1      -4.413   9.869  27.875  0.00  0.00    -0.332 OA
ATOM      7  C   UNL     1      -3.633   8.725  28.356  0.00  0.00    +0.277 C 
ATOM      8  C   UNL     1      -3.404   8.830  29.884  0.00  0.00    +0.110 C 
ATOM      9  C   UNL     1      -2.862  10.218  30.285  0.00  0.00    +0.143 C 
ATOM     10  C   UNL     1      -3.748  11.334  29.730  0.00  0.00    +0.133 C 
BRANCH  10  11
ATOM     11  N   UNL     1      -3.174  12.652  30.045  0.00  0.00    -0.308 N 
ATOM     12  H   UNL     1      -2.266  12.874  29.662  0.00  0.00    +0.149 HD
ATOM     13  C   UNL     1      -3.775  13.573  30.803  0.00  0.00    +0.210 C 
ATOM     14  C   UNL     1      -5.146  13.193  31.393  0.00  0.00    +0.109 C 
ATOM     15  O   UNL     1      -3.276  14.674  31.038  0.00  0.00    -0.276 OA
ENDBRANCH  10  11
BRANCH   7  16
ATOM     16  C   UNL     1      -2.271   8.651  27.635  0.00  0.00    +0.414 C 
ATOM     17  O   UNL     1      -1.255   8.347  28.258  0.00  0.00    -0.240 OA
ATOM     18  O   UNL     1      -2.188   8.894  26.430  0.00  0.00    -0.240 OA
ENDBRANCH   7  16
BRANCH   9  19
ATOM     19  O   UNL     1      -2.810  10.322  31.708  0.00  0.00    -0.390 OA
ATOM     20  H   UNL     1      -3.621  10.722  32.030  0.00  0.00    +0.210 HD
ENDBRANCH   9  19
BRANCH   7  21
ATOM     21  O   UNL     1      -4.393   7.519  28.089  0.00  0.00    -0.343 OA
ATOM     22  C   UNL     1      -5.459   7.670  27.118  0.00  0.00    +0.198 C 
ENDBRANCH   7  21
ENDBRANCH   4   5
BRANCH   4  23
ATOM     23  O   UNL     1      -6.119  12.118  27.982  0.00  0.00    -0.387 OA
ATOM     24  H   UNL     1      -6.522  11.338  27.594  0.00  0.00    +0.210 HD
ENDBRANCH   4  23
ENDBRANCH   1   4
BRANCH   1  25
ATOM     25  C   UNL     1      -3.255  12.190  25.522  0.00  0.00    +0.141 C 
BRANCH  25  28
ATOM     26  C   UNL     1      -3.121  11.422  23.178  0.00  0.00    +0.401 C 
ATOM     27  O   UNL     1      -3.161  10.224  23.469  0.00  0.00    -0.226 OA
ATOM     28  N   UNL     1      -3.153  12.409  24.074  0.00  0.00    -0.279 N 
ATOM     29  H   UNL     1      -3.105  13.360  23.738  0.00  0.00    +0.152 HD
BRANCH  26  30
ATOM     30  O   UNL     1      -3.029  11.799  21.802  0.00  0.00    -0.444 OA
BRANCH  30  31
ATOM     31  C   UNL     1      -4.343  11.979  21.267  0.00  0.00    +0.292 C 
BRANCH  31  33
ATOM     32  N   UNL     1      -4.720   9.763  20.230  0.00  0.00    -0.131 NA
ATOM     33  C   UNL     1      -4.542  11.115  20.090  0.00  0.00    +0.120 A 
ATOM     34  C   UNL     1      -4.581  11.437  18.752  0.00  0.00    +0.137 A 
ATOM     35  N   UNL     1      -4.779  10.239  18.134  0.00  0.00    -0.251 N 
ATOM     36  N   UNL     1      -4.865   9.236  19.022  0.00  0.00    -0.065 NA
BRANCH  35  37
ATOM     37  C   UNL     1      -4.864   9.971  16.714  0.00  0.00    +0.145 C 
BRANCH  37  38
ATOM     38  C   UNL     1      -3.685  10.576  15.959  0.00  0.00    +0.024 C 
BRANCH  38  39
ATOM     39  C   UNL     1      -4.136  11.391  14.745  0.00  0.00    +0.006 C 
BRANCH  39  40
ATOM     40  C   UNL     1      -4.736  12.727  15.188  0.00  0.00    +0.026 C 
BRANCH  40  41
ATOM     41  C   UNL     1      -4.535  13.802  14.161  0.00  0.00    -0.034 C 
ATOM     42  C   UNL     1      -3.333  14.242  13.767  0.00  0.00    +0.004 C 
ENDBRANCH  40  41
ENDBRANCH  39  40
ENDBRANCH  38  39
ENDBRANCH  37  38
ENDBRANCH  35  37
ENDBRANCH  31  33
ENDBRANCH  30  31
ENDBRANCH  26  30
ENDBRANCH  25  28
ENDBRANCH   1  25
TORSDOF 18
