REMARK VINA RESULT:    -5.024      4.575      9.635
REMARK INTER + INTRA:         -12.038
REMARK INTER:                 -10.011
REMARK INTRA:                  -2.027
REMARK UNBOUND:                -3.049
REMARK  Name = lig_assembled_28.pdb
REMARK  17 active torsions:
REMARK  status: ('A' for Active; 'I' for Inactive)
REMARK    1  A    between atoms: _2  and  _9
REMARK    2  A    between atoms: _4  and  _22
REMARK    3  A    between atoms: _6  and  _7
REMARK    4  A    between atoms: _6  and  _22
REMARK    5  A    between atoms: _9  and  _10
REMARK    6  A    between atoms: _18  and  _38
REMARK    7  A    between atoms: _20  and  _26
REMARK    8  A    between atoms: _21  and  _25
REMARK    9  A    between atoms: _25  and  _26
REMARK   10  A    between atoms: _28  and  _29
REMARK   11  A    between atoms: _30  and  _31
REMARK   12  A    between atoms: _32  and  _34
REMARK   13  A    between atoms: _34  and  _35
REMARK   14  A    between atoms: _34  and  _36
REMARK   15  A    between atoms: _36  and  _37
REMARK   16  A    between atoms: _36  and  _38
REMARK   17  A    between atoms: _39  and  _41
REMARK                            x       y       z     vdW  Elec       q    Type
REMARK                         _______ _______ _______ _____ _____    ______ ____
ROOT
ATOM      1  C   UNL     1      -4.736  12.079  26.112  0.00  0.00    +0.163 C 
ENDROOT
BRANCH   1   2
ATOM      2  O   UNL     1      -5.296  10.852  25.616  0.00  0.00    -0.388 OA
ATOM      3  H   UNL     1      -5.234  10.174  26.294  0.00  0.00    +0.210 HD
ENDBRANCH   1   2
BRANCH   1   4
ATOM      4  C   UNL     1      -3.282  12.205  25.669  0.00  0.00    +0.141 C 
BRANCH   4   7
ATOM      5  C   UNL     1      -3.025  11.474  23.323  0.00  0.00    +0.401 C 
ATOM      6  O   UNL     1      -2.960  10.275  23.605  0.00  0.00    -0.226 OA
ATOM      7  N   UNL     1      -3.169  12.445  24.225  0.00  0.00    -0.279 N 
ATOM      8  H   UNL     1      -3.202  13.400  23.897  0.00  0.00    +0.152 HD
BRANCH   5   9
ATOM      9  O   UNL     1      -2.938  11.870  21.952  0.00  0.00    -0.444 OA
BRANCH   9  10
ATOM     10  C   UNL     1      -4.253  12.085  21.432  0.00  0.00    +0.292 C 
BRANCH  10  12
ATOM     11  N   UNL     1      -4.642   9.832  20.472  0.00  0.00    -0.131 NA
ATOM     12  C   UNL     1      -4.508  11.183  20.293  0.00  0.00    +0.120 A 
ATOM     13  C   UNL     1      -4.683  11.479  18.961  0.00  0.00    +0.137 A 
ATOM     14  N   UNL     1      -5.018  10.282  18.394  0.00  0.00    -0.247 N 
ATOM     15  N   UNL     1      -4.942   9.288  19.300  0.00  0.00    -0.065 NA
BRANCH  14  16
ATOM     16  C   UNL     1      -5.506   9.975  17.056  0.00  0.00    +0.180 C 
BRANCH  16  17
ATOM     17  C   UNL     1      -4.407   9.787  16.037  0.00  0.00    -0.022 A 
ATOM     18  C   UNL     1      -3.753   8.547  15.924  0.00  0.00    +0.055 A 
ATOM     19  C   UNL     1      -2.839   8.388  14.904  0.00  0.00    +0.167 A 
ATOM     20  O   UNL     1      -2.161   7.242  14.619  0.00  0.00    -0.453 OA
ATOM     21  C   UNL     1      -1.477   7.631  13.410  0.00  0.00    +0.466 C 
ATOM     22  O   UNL     1      -1.638   9.029  13.084  0.00  0.00    -0.453 OA
ATOM     23  C   UNL     1      -2.539   9.404  14.032  0.00  0.00    +0.166 A 
ATOM     24  C   UNL     1      -3.133  10.645  14.132  0.00  0.00    +0.050 A 
ATOM     25  C   UNL     1      -4.082  10.832  15.142  0.00  0.00    +0.009 A 
ENDBRANCH  16  17
ENDBRANCH  14  16
ENDBRANCH  10  12
ENDBRANCH   9  10
ENDBRANCH   5   9
ENDBRANCH   4   7
ENDBRANCH   1   4
BRANCH   1  26
ATOM     26  C   UNL     1      -4.812  12.138  27.647  0.00  0.00    +0.175 C 
BRANCH  26  27
ATOM     27  C   UNL     1      -3.895  11.100  28.312  0.00  0.00    +0.176 C 
ATOM     28  O   UNL     1      -4.410   9.778  27.991  0.00  0.00    -0.332 OA
ATOM     29  C   UNL     1      -3.596   8.651  28.456  0.00  0.00    +0.277 C 
ATOM     30  C   UNL     1      -3.344   8.759  29.980  0.00  0.00    +0.110 C 
ATOM     31  C   UNL     1      -2.826  10.158  30.375  0.00  0.00    +0.143 C 
ATOM     32  C   UNL     1      -3.746  11.255  29.837  0.00  0.00    +0.133 C 
BRANCH  32  33
ATOM     33  N   UNL     1      -3.196  12.585  30.144  0.00  0.00    -0.308 N 
ATOM     34  H   UNL     1      -2.299  12.828  29.747  0.00  0.00    +0.149 HD
ATOM     35  C   UNL     1      -3.804  13.492  30.913  0.00  0.00    +0.210 C 
ATOM     36  C   UNL     1      -5.157  13.082  31.524  0.00  0.00    +0.109 C 
ATOM     37  O   UNL     1      -3.327  14.604  31.141  0.00  0.00    -0.276 OA
ENDBRANCH  32  33
BRANCH  29  38
ATOM     38  C   UNL     1      -2.245   8.608  27.712  0.00  0.00    +0.414 C 
ATOM     39  O   UNL     1      -1.219   8.283  28.308  0.00  0.00    -0.240 OA
ATOM     40  O   UNL     1      -2.181   8.897  26.517  0.00  0.00    -0.240 OA
ENDBRANCH  29  38
BRANCH  29  41
ATOM     41  O   UNL     1      -4.334   7.429  28.200  0.00  0.00    -0.343 OA
ATOM     42  C   UNL     1      -5.262   7.496  27.088  0.00  0.00    +0.198 C 
ENDBRANCH  29  41
BRANCH  31  43
ATOM     43  O   UNL     1      -2.752  10.262  31.797  0.00  0.00    -0.390 OA
ATOM     44  H   UNL     1      -2.246   9.525  32.146  0.00  0.00    +0.210 HD
ENDBRANCH  31  43
ENDBRANCH  26  27
BRANCH  26  45
ATOM     45  O   UNL     1      -6.173  11.951  28.085  0.00  0.00    -0.387 OA
ATOM     46  H   UNL     1      -6.311  12.417  28.912  0.00  0.00    +0.210 HD
ENDBRANCH  26  45
ENDBRANCH   1  26
TORSDOF 15
