REMARK VINA RESULT:    -5.241      3.418     10.045
REMARK INTER + INTRA:         -11.242
REMARK INTER:                  -9.085
REMARK INTRA:                  -2.157
REMARK UNBOUND:                -2.170
REMARK  Name = lig_assembled_87.pdb
REMARK  17 active torsions:
REMARK  status: ('A' for Active; 'I' for Inactive)
REMARK    1  A    between atoms: _2  and  _10
REMARK    2  A    between atoms: _3  and  _13
REMARK    3  A    between atoms: _5  and  _21
REMARK    4  A    between atoms: _7  and  _8
REMARK    5  A    between atoms: _7  and  _21
REMARK    6  A    between atoms: _17  and  _37
REMARK    7  A    between atoms: _19  and  _25
REMARK    8  A    between atoms: _20  and  _24
REMARK    9  A    between atoms: _24  and  _25
REMARK   10  A    between atoms: _27  and  _28
REMARK   11  A    between atoms: _29  and  _30
REMARK   12  A    between atoms: _31  and  _33
REMARK   13  A    between atoms: _33  and  _34
REMARK   14  A    between atoms: _33  and  _35
REMARK   15  A    between atoms: _35  and  _36
REMARK   16  A    between atoms: _35  and  _37
REMARK   17  A    between atoms: _38  and  _40
REMARK                            x       y       z     vdW  Elec       q    Type
REMARK                         _______ _______ _______ _____ _____    ______ ____
ROOT
ATOM      1  C   UNL     1      -3.317  11.734  25.158  0.00  0.00    +0.163 C 
ENDROOT
BRANCH   1   2
ATOM      2  O   UNL     1      -2.199  10.836  25.069  0.00  0.00    -0.388 OA
ATOM      3  H   UNL     1      -2.381  10.045  25.582  0.00  0.00    +0.210 HD
ENDBRANCH   1   2
BRANCH   1   4
ATOM      4  C   UNL     1      -3.034  13.000  24.357  0.00  0.00    +0.141 C 
BRANCH   4   7
ATOM      5  C   UNL     1      -4.048  12.823  22.110  0.00  0.00    +0.401 C 
ATOM      6  O   UNL     1      -3.124  12.151  21.644  0.00  0.00    -0.226 OA
ATOM      7  N   UNL     1      -4.085  13.268  23.367  0.00  0.00    -0.279 N 
ATOM      8  H   UNL     1      -4.881  13.820  23.654  0.00  0.00    +0.152 HD
BRANCH   5   9
ATOM      9  O   UNL     1      -5.154  13.161  21.270  0.00  0.00    -0.444 OA
BRANCH   9  10
ATOM     10  C   UNL     1      -6.012  12.025  21.130  0.00  0.00    +0.292 C 
BRANCH  10  12
ATOM     11  N   UNL     1      -6.862  12.459  18.851  0.00  0.00    -0.131 NA
ATOM     12  C   UNL     1      -6.150  11.666  19.707  0.00  0.00    +0.120 A 
ATOM     13  C   UNL     1      -5.639  10.595  19.010  0.00  0.00    +0.137 A 
ATOM     14  N   UNL     1      -5.968  10.852  17.705  0.00  0.00    -0.248 N 
ATOM     15  N   UNL     1      -6.800  11.913  17.649  0.00  0.00    -0.065 NA
BRANCH  14  16
ATOM     16  C   UNL     1      -5.578  10.173  16.456  0.00  0.00    +0.112 C 
ATOM     17  C   UNL     1      -4.055   9.899  16.310  0.00  0.00    +0.045 C 
ATOM     18  C   UNL     1      -3.375  10.545  15.092  0.00  0.00    +0.059 C 
ATOM     19  C   UNL     1      -3.648   9.765  13.799  0.00  0.00    +0.020 C 
ATOM     20  C   UNL     1      -4.833  10.485  13.156  0.00  0.00    +0.020 C 
ATOM     21  C   UNL     1      -5.261  11.505  14.212  0.00  0.00    +0.059 C 
ATOM     22  N   UNL     1      -3.947  11.841  14.752  0.00  0.00    -0.299 NA
ATOM     23  C   UNL     1      -3.879  12.887  15.751  0.00  0.00    +0.105 C 
ATOM     24  C   UNL     1      -6.221  10.867  15.217  0.00  0.00    +0.045 C 
ENDBRANCH  14  16
ENDBRANCH  10  12
ENDBRANCH   9  10
ENDBRANCH   5   9
ENDBRANCH   4   7
ENDBRANCH   1   4
BRANCH   1  25
ATOM     25  C   UNL     1      -3.609  12.106  26.622  0.00  0.00    +0.175 C 
BRANCH  25  26
ATOM     26  C   UNL     1      -3.361  10.930  27.578  0.00  0.00    +0.176 C 
ATOM     27  O   UNL     1      -3.994   9.751  27.009  0.00  0.00    -0.332 OA
ATOM     28  C   UNL     1      -3.771   8.498  27.738  0.00  0.00    +0.277 C 
ATOM     29  C   UNL     1      -4.189   8.653  29.221  0.00  0.00    +0.110 C 
ATOM     30  C   UNL     1      -3.564   9.911  29.859  0.00  0.00    +0.143 C 
ATOM     31  C   UNL     1      -3.855  11.155  29.019  0.00  0.00    +0.133 C 
BRANCH  31  32
ATOM     32  N   UNL     1      -3.183  12.332  29.590  0.00  0.00    -0.308 N 
ATOM     33  H   UNL     1      -2.173  12.355  29.569  0.00  0.00    +0.149 HD
ATOM     34  C   UNL     1      -3.819  13.372  30.136  0.00  0.00    +0.210 C 
ATOM     35  C   UNL     1      -5.357  13.295  30.177  0.00  0.00    +0.109 C 
ATOM     36  O   UNL     1      -3.230  14.352  30.594  0.00  0.00    -0.276 OA
ENDBRANCH  31  32
BRANCH  28  37
ATOM     37  C   UNL     1      -2.289   8.077  27.660  0.00  0.00    +0.414 C 
ATOM     38  O   UNL     1      -1.625   8.328  26.656  0.00  0.00    -0.240 OA
ATOM     39  O   UNL     1      -1.759   7.485  28.601  0.00  0.00    -0.240 OA
ENDBRANCH  28  37
BRANCH  30  40
ATOM     40  O   UNL     1      -4.093  10.097  31.173  0.00  0.00    -0.390 OA
ATOM     41  H   UNL     1      -4.359   9.249  31.535  0.00  0.00    +0.210 HD
ENDBRANCH  30  40
BRANCH  28  42
ATOM     42  O   UNL     1      -4.603   7.474  27.133  0.00  0.00    -0.343 OA
ATOM     43  C   UNL     1      -5.363   7.905  25.977  0.00  0.00    +0.198 C 
ENDBRANCH  28  42
ENDBRANCH  25  26
BRANCH  25  44
ATOM     44  O   UNL     1      -4.965  12.576  26.754  0.00  0.00    -0.387 OA
ATOM     45  H   UNL     1      -5.451  12.383  25.949  0.00  0.00    +0.210 HD
ENDBRANCH  25  44
ENDBRANCH   1  25
TORSDOF 14
