REMARK VINA RESULT:    -4.605      2.637      8.549
REMARK INTER + INTRA:         -10.257
REMARK INTER:                  -7.371
REMARK INTRA:                  -2.886
REMARK UNBOUND:                -2.287
REMARK  Name = lig_assembled_52.pdb
REMARK  16 active torsions:
REMARK  status: ('A' for Active; 'I' for Inactive)
REMARK    1  A    between atoms: _2  and  _10
REMARK    2  A    between atoms: _5  and  _18
REMARK    3  A    between atoms: _7  and  _8
REMARK    4  A    between atoms: _7  and  _18
REMARK    5  A    between atoms: _14  and  _34
REMARK    6  A    between atoms: _16  and  _22
REMARK    7  A    between atoms: _17  and  _21
REMARK    8  A    between atoms: _21  and  _22
REMARK    9  A    between atoms: _24  and  _25
REMARK   10  A    between atoms: _26  and  _27
REMARK   11  A    between atoms: _28  and  _30
REMARK   12  A    between atoms: _30  and  _31
REMARK   13  A    between atoms: _30  and  _32
REMARK   14  A    between atoms: _32  and  _33
REMARK   15  A    between atoms: _32  and  _34
REMARK   16  A    between atoms: _35  and  _37
REMARK                            x       y       z     vdW  Elec       q    Type
REMARK                         _______ _______ _______ _____ _____    ______ ____
ROOT
ATOM      1  C   UNL     1      -5.544  12.007  26.825  0.00  0.00    +0.163 C 
ENDROOT
BRANCH   1   2
ATOM      2  O   UNL     1      -4.625  11.141  26.138  0.00  0.00    -0.388 OA
ATOM      3  H   UNL     1      -4.259  11.600  25.378  0.00  0.00    +0.210 HD
ENDBRANCH   1   2
BRANCH   1   4
ATOM      4  C   UNL     1      -5.831  13.241  25.976  0.00  0.00    +0.141 C 
BRANCH   4   7
ATOM      5  C   UNL     1      -4.944  13.997  23.797  0.00  0.00    +0.401 C 
ATOM      6  O   UNL     1      -6.055  14.252  23.327  0.00  0.00    -0.226 OA
ATOM      7  N   UNL     1      -4.747  13.515  25.025  0.00  0.00    -0.279 N 
ATOM      8  H   UNL     1      -3.798  13.329  25.317  0.00  0.00    +0.152 HD
BRANCH   5   9
ATOM      9  O   UNL     1      -3.782  14.220  22.994  0.00  0.00    -0.444 OA
BRANCH   9  10
ATOM     10  C   UNL     1      -3.762  13.282  21.914  0.00  0.00    +0.292 C 
BRANCH  10  12
ATOM     11  N   UNL     1      -2.957  11.520  23.452  0.00  0.00    -0.131 NA
ATOM     12  C   UNL     1      -3.781  11.902  22.433  0.00  0.00    +0.121 A 
ATOM     13  C   UNL     1      -4.550  10.827  22.053  0.00  0.00    +0.143 A 
ATOM     14  N   UNL     1      -4.170   9.803  22.889  0.00  0.00    -0.218 N 
ATOM     15  N   UNL     1      -3.196  10.244  23.720  0.00  0.00    -0.060 NA
BRANCH  14  16
ATOM     16  C   UNL     1      -4.670   8.485  22.954  0.00  0.00    +0.085 A 
ATOM     17  C   UNL     1      -4.177   7.551  23.869  0.00  0.00    +0.031 A 
ATOM     18  C   UNL     1      -4.697   6.258  23.870  0.00  0.00    +0.022 A 
ATOM     19  C   UNL     1      -5.693   5.946  22.959  0.00  0.00    +0.111 A 
ATOM     20  N   UNL     1      -6.195   6.828  22.069  0.00  0.00    -0.261 NA
ATOM     21  C   UNL     1      -5.675   8.080  22.083  0.00  0.00    +0.138 A 
ENDBRANCH  14  16
ENDBRANCH  10  12
ENDBRANCH   9  10
ENDBRANCH   5   9
ENDBRANCH   4   7
ENDBRANCH   1   4
BRANCH   1  22
ATOM     22  C   UNL     1      -4.978  12.440  28.188  0.00  0.00    +0.175 C 
BRANCH  22  23
ATOM     23  C   UNL     1      -3.987  11.413  28.755  0.00  0.00    +0.176 C 
ATOM     24  O   UNL     1      -4.577  10.093  28.607  0.00  0.00    -0.332 OA
ATOM     25  C   UNL     1      -3.723   8.968  29.001  0.00  0.00    +0.277 C 
ATOM     26  C   UNL     1      -3.218   9.155  30.452  0.00  0.00    +0.110 C 
ATOM     27  C   UNL     1      -2.610  10.557  30.667  0.00  0.00    +0.143 C 
ATOM     28  C   UNL     1      -3.581  11.651  30.221  0.00  0.00    +0.133 C 
BRANCH  28  29
ATOM     29  N   UNL     1      -2.957  12.978  30.350  0.00  0.00    -0.308 N 
ATOM     30  H   UNL     1      -2.181  13.195  29.740  0.00  0.00    +0.149 HD
ATOM     31  C   UNL     1      -3.349  13.913  31.219  0.00  0.00    +0.210 C 
ATOM     32  C   UNL     1      -4.518  13.541  32.151  0.00  0.00    +0.109 C 
ATOM     33  O   UNL     1      -2.818  15.021  31.294  0.00  0.00    -0.276 OA
ENDBRANCH  28  29
BRANCH  25  34
ATOM     34  C   UNL     1      -2.517   8.837  28.048  0.00  0.00    +0.414 C 
ATOM     35  O   UNL     1      -2.576   9.293  26.906  0.00  0.00    -0.240 OA
ATOM     36  O   UNL     1      -1.486   8.276  28.420  0.00  0.00    -0.240 OA
ENDBRANCH  25  34
BRANCH  27  37
ATOM     37  O   UNL     1      -2.297  10.740  32.049  0.00  0.00    -0.390 OA
ATOM     38  H   UNL     1      -2.806  10.122  32.577  0.00  0.00    +0.210 HD
ENDBRANCH  27  37
BRANCH  25  39
ATOM     39  O   UNL     1      -4.522   7.758  28.947  0.00  0.00    -0.343 OA
ATOM     40  C   UNL     1      -5.766   7.877  28.212  0.00  0.00    +0.198 C 
ENDBRANCH  25  39
ENDBRANCH  22  23
BRANCH  22  41
ATOM     41  O   UNL     1      -6.051  12.663  29.123  0.00  0.00    -0.387 OA
ATOM     42  H   UNL     1      -6.333  11.824  29.494  0.00  0.00    +0.210 HD
ENDBRANCH  22  41
ENDBRANCH   1  22
TORSDOF 14
