REMARK VINA RESULT:    -4.917      2.045      2.428
REMARK INTER + INTRA:         -11.482
REMARK INTER:                  -9.357
REMARK INTRA:                  -2.125
REMARK UNBOUND:                -2.541
REMARK  Name = lig_assembled_23.pdb
REMARK  18 active torsions:
REMARK  status: ('A' for Active; 'I' for Inactive)
REMARK    1  A    between atoms: _2  and  _10
REMARK    2  A    between atoms: _3  and  _41
REMARK    3  A    between atoms: _5  and  _21
REMARK    4  A    between atoms: _7  and  _8
REMARK    5  A    between atoms: _7  and  _21
REMARK    6  A    between atoms: _12  and  _41
REMARK    7  A    between atoms: _17  and  _37
REMARK    8  A    between atoms: _19  and  _25
REMARK    9  A    between atoms: _20  and  _24
REMARK   10  A    between atoms: _24  and  _25
REMARK   11  A    between atoms: _27  and  _28
REMARK   12  A    between atoms: _29  and  _30
REMARK   13  A    between atoms: _31  and  _33
REMARK   14  A    between atoms: _33  and  _34
REMARK   15  A    between atoms: _33  and  _35
REMARK   16  A    between atoms: _35  and  _36
REMARK   17  A    between atoms: _35  and  _37
REMARK   18  A    between atoms: _38  and  _40
REMARK                            x       y       z     vdW  Elec       q    Type
REMARK                         _______ _______ _______ _____ _____    ______ ____
ROOT
ATOM      1  C   UNL     1      -3.025  13.120  24.369  0.00  0.00    +0.141 C 
ENDROOT
BRANCH   1   4
ATOM      2  C   UNL     1      -4.965  13.327  22.853  0.00  0.00    +0.401 C 
ATOM      3  O   UNL     1      -5.770  13.546  23.760  0.00  0.00    -0.226 OA
ATOM      4  N   UNL     1      -3.663  13.110  23.047  0.00  0.00    -0.279 N 
ATOM      5  H   UNL     1      -3.084  12.930  22.239  0.00  0.00    +0.152 HD
BRANCH   2   6
ATOM      6  O   UNL     1      -5.432  13.293  21.502  0.00  0.00    -0.444 OA
BRANCH   6   7
ATOM      7  C   UNL     1      -5.817  11.959  21.162  0.00  0.00    +0.292 C 
BRANCH   7   9
ATOM      8  N   UNL     1      -6.684  12.150  18.854  0.00  0.00    -0.131 NA
ATOM      9  C   UNL     1      -5.699  11.746  19.708  0.00  0.00    +0.121 A 
ATOM     10  C   UNL     1      -4.686  11.162  18.980  0.00  0.00    +0.143 A 
ATOM     11  N   UNL     1      -5.097  11.243  17.671  0.00  0.00    -0.220 N 
ATOM     12  N   UNL     1      -6.314  11.839  17.620  0.00  0.00    -0.060 NA
BRANCH  11  13
ATOM     13  C   UNL     1      -4.435  10.795  16.499  0.00  0.00    +0.069 A 
ATOM     14  C   UNL     1      -4.222  11.692  15.442  0.00  0.00    +0.056 A 
ATOM     15  C   UNL     1      -3.600  11.244  14.271  0.00  0.00    +0.107 A 
ATOM     16  C   UNL     1      -3.165   9.924  14.149  0.00  0.00    +0.028 A 
ATOM     17  C   UNL     1      -3.364   9.037  15.207  0.00  0.00    +0.004 A 
ATOM     18  C   UNL     1      -4.001   9.467  16.377  0.00  0.00    +0.028 A 
BRANCH  15  19
ATOM     19  S   UNL     1      -3.392  12.373  12.926  0.00  0.00    +0.056 S 
ATOM     20  O   UNL     1      -3.063  11.623  11.737  0.00  0.00    -0.153 OA
ATOM     21  O   UNL     1      -4.449  13.357  12.962  0.00  0.00    -0.153 OA
BRANCH  19  22
ATOM     22  N   UNL     1      -2.001  13.198  13.376  0.00  0.00    -0.204 NA
ATOM     23  H   UNL     1      -2.129  14.199  13.238  0.00  0.00    +0.144 HD
ATOM     24  H   UNL     1      -1.192  12.811  12.888  0.00  0.00    +0.144 HD
ENDBRANCH  19  22
ENDBRANCH  15  19
ENDBRANCH  11  13
ENDBRANCH   7   9
ENDBRANCH   6   7
ENDBRANCH   2   6
ENDBRANCH   1   4
BRANCH   1  25
ATOM     25  C   UNL     1      -3.221  11.799  25.105  0.00  0.00    +0.163 C 
BRANCH  25  26
ATOM     26  O   UNL     1      -2.000  11.042  25.091  0.00  0.00    -0.388 OA
ATOM     27  H   UNL     1      -1.440  11.322  25.819  0.00  0.00    +0.210 HD
ENDBRANCH  25  26
BRANCH  25  28
ATOM     28  C   UNL     1      -3.679  12.077  26.547  0.00  0.00    +0.175 C 
BRANCH  28  29
ATOM     29  C   UNL     1      -3.576  10.829  27.437  0.00  0.00    +0.176 C 
ATOM     30  O   UNL     1      -4.261   9.740  26.760  0.00  0.00    -0.332 OA
ATOM     31  C   UNL     1      -4.176   8.432  27.417  0.00  0.00    +0.277 C 
ATOM     32  C   UNL     1      -4.668   8.529  28.882  0.00  0.00    +0.110 C 
ATOM     33  C   UNL     1      -3.990   9.695  29.634  0.00  0.00    +0.143 C 
ATOM     34  C   UNL     1      -4.137  11.006  28.861  0.00  0.00    +0.133 C 
BRANCH  34  35
ATOM     35  N   UNL     1      -3.413  12.090  29.543  0.00  0.00    -0.308 N 
ATOM     36  H   UNL     1      -2.406  12.028  29.591  0.00  0.00    +0.149 HD
ATOM     37  C   UNL     1      -4.001  13.151  30.103  0.00  0.00    +0.210 C 
ATOM     38  C   UNL     1      -5.538  13.203  30.036  0.00  0.00    +0.109 C 
ATOM     39  O   UNL     1      -3.368  14.051  30.655  0.00  0.00    -0.276 OA
ENDBRANCH  34  35
BRANCH  31  40
ATOM     40  C   UNL     1      -2.728   7.902  27.393  0.00  0.00    +0.414 C 
ATOM     41  O   UNL     1      -2.000   8.128  26.427  0.00  0.00    -0.240 OA
ATOM     42  O   UNL     1      -2.287   7.247  28.339  0.00  0.00    -0.240 OA
ENDBRANCH  31  40
BRANCH  33  43
ATOM     43  O   UNL     1      -4.580   9.842  30.926  0.00  0.00    -0.390 OA
ATOM     44  H   UNL     1      -4.038  10.426  31.461  0.00  0.00    +0.210 HD
ENDBRANCH  33  43
BRANCH  31  45
ATOM     45  O   UNL     1      -5.044   7.514  26.704  0.00  0.00    -0.343 OA
ATOM     46  C   UNL     1      -5.677   6.503  27.529  0.00  0.00    +0.198 C 
ENDBRANCH  31  45
ENDBRANCH  28  29
BRANCH  28  47
ATOM     47  O   UNL     1      -5.030  12.580  26.551  0.00  0.00    -0.387 OA
ATOM     48  H   UNL     1      -5.050  13.440  26.979  0.00  0.00    +0.210 HD
ENDBRANCH  28  47
ENDBRANCH  25  28
ENDBRANCH   1  25
TORSDOF 16
