REMARK VINA RESULT:    -5.343      4.307      9.124
REMARK INTER + INTRA:         -12.608
REMARK INTER:                 -10.263
REMARK INTRA:                  -2.345
REMARK UNBOUND:                -3.049
REMARK  Name = lig_assembled_28.pdb
REMARK  17 active torsions:
REMARK  status: ('A' for Active; 'I' for Inactive)
REMARK    1  A    between atoms: _2  and  _9
REMARK    2  A    between atoms: _4  and  _22
REMARK    3  A    between atoms: _6  and  _7
REMARK    4  A    between atoms: _6  and  _22
REMARK    5  A    between atoms: _9  and  _10
REMARK    6  A    between atoms: _18  and  _38
REMARK    7  A    between atoms: _20  and  _26
REMARK    8  A    between atoms: _21  and  _25
REMARK    9  A    between atoms: _25  and  _26
REMARK   10  A    between atoms: _28  and  _29
REMARK   11  A    between atoms: _30  and  _31
REMARK   12  A    between atoms: _32  and  _34
REMARK   13  A    between atoms: _34  and  _35
REMARK   14  A    between atoms: _34  and  _36
REMARK   15  A    between atoms: _36  and  _37
REMARK   16  A    between atoms: _36  and  _38
REMARK   17  A    between atoms: _39  and  _41
REMARK                            x       y       z     vdW  Elec       q    Type
REMARK                         _______ _______ _______ _____ _____    ______ ____
ROOT
ATOM      1  C   UNL     1      -3.283  11.831  25.088  0.00  0.00    +0.163 C 
ENDROOT
BRANCH   1   2
ATOM      2  O   UNL     1      -2.126  10.984  24.996  0.00  0.00    -0.388 OA
ATOM      3  H   UNL     1      -2.402  10.081  24.824  0.00  0.00    +0.210 HD
ENDBRANCH   1   2
BRANCH   1   4
ATOM      4  C   UNL     1      -3.023  13.150  24.368  0.00  0.00    +0.141 C 
BRANCH   4   7
ATOM      5  C   UNL     1      -5.105  13.751  23.180  0.00  0.00    +0.401 C 
ATOM      6  O   UNL     1      -5.700  14.097  24.203  0.00  0.00    -0.226 OA
ATOM      7  N   UNL     1      -3.853  13.290  23.165  0.00  0.00    -0.279 N 
ATOM      8  H   UNL     1      -3.454  13.022  22.277  0.00  0.00    +0.152 HD
BRANCH   5   9
ATOM      9  O   UNL     1      -5.779  13.837  21.921  0.00  0.00    -0.444 OA
BRANCH   9  10
ATOM     10  C   UNL     1      -6.441  12.599  21.649  0.00  0.00    +0.292 C 
BRANCH  10  12
ATOM     11  N   UNL     1      -4.575  11.122  20.955  0.00  0.00    -0.131 NA
ATOM     12  C   UNL     1      -5.699  11.832  20.631  0.00  0.00    +0.120 A 
ATOM     13  C   UNL     1      -5.970  11.658  19.293  0.00  0.00    +0.137 A 
ATOM     14  N   UNL     1      -5.033  10.754  18.878  0.00  0.00    -0.247 N 
ATOM     15  N   UNL     1      -4.168  10.475  19.871  0.00  0.00    -0.065 NA
BRANCH  14  16
ATOM     16  C   UNL     1      -4.914  10.029  17.620  0.00  0.00    +0.180 C 
BRANCH  16  17
ATOM     17  C   UNL     1      -4.315  10.848  16.501  0.00  0.00    -0.022 A 
ATOM     18  C   UNL     1      -3.628  10.213  15.450  0.00  0.00    +0.055 A 
ATOM     19  C   UNL     1      -3.200  10.990  14.395  0.00  0.00    +0.167 A 
ATOM     20  O   UNL     1      -2.572  10.532  13.278  0.00  0.00    -0.453 OA
ATOM     21  C   UNL     1      -2.492  11.745  12.500  0.00  0.00    +0.466 C 
ATOM     22  O   UNL     1      -2.929  12.917  13.221  0.00  0.00    -0.453 OA
ATOM     23  C   UNL     1      -3.400  12.348  14.363  0.00  0.00    +0.166 A 
ATOM     24  C   UNL     1      -4.038  13.010  15.390  0.00  0.00    +0.050 A 
ATOM     25  C   UNL     1      -4.505  12.249  16.465  0.00  0.00    +0.009 A 
ENDBRANCH  16  17
ENDBRANCH  14  16
ENDBRANCH  10  12
ENDBRANCH   9  10
ENDBRANCH   5   9
ENDBRANCH   4   7
ENDBRANCH   1   4
BRANCH   1  26
ATOM     26  C   UNL     1      -3.645  12.110  26.557  0.00  0.00    +0.175 C 
BRANCH  26  27
ATOM     27  C   UNL     1      -3.380  10.895  27.458  0.00  0.00    +0.176 C 
ATOM     28  O   UNL     1      -4.011   9.737  26.846  0.00  0.00    -0.332 OA
ATOM     29  C   UNL     1      -3.772   8.456  27.517  0.00  0.00    +0.277 C 
ATOM     30  C   UNL     1      -4.176   8.543  29.009  0.00  0.00    +0.110 C 
ATOM     31  C   UNL     1      -3.554   9.778  29.696  0.00  0.00    +0.143 C 
ATOM     32  C   UNL     1      -3.861  11.054  28.912  0.00  0.00    +0.133 C 
BRANCH  32  33
ATOM     33  N   UNL     1      -3.192  12.211  29.528  0.00  0.00    -0.308 N 
ATOM     34  H   UNL     1      -2.181  12.229  29.521  0.00  0.00    +0.149 HD
ATOM     35  C   UNL     1      -3.831  13.237  30.095  0.00  0.00    +0.210 C 
ATOM     36  C   UNL     1      -5.370  13.166  30.112  0.00  0.00    +0.109 C 
ATOM     37  O   UNL     1      -3.244  14.200  30.590  0.00  0.00    -0.276 OA
ENDBRANCH  32  33
BRANCH  29  38
ATOM     38  C   UNL     1      -2.288   8.049  27.407  0.00  0.00    +0.414 C 
ATOM     39  O   UNL     1      -1.744   7.433  28.323  0.00  0.00    -0.240 OA
ATOM     40  O   UNL     1      -1.634   8.337  26.403  0.00  0.00    -0.240 OA
ENDBRANCH  29  38
BRANCH  29  41
ATOM     41  O   UNL     1      -4.602   7.453  26.877  0.00  0.00    -0.343 OA
ATOM     42  C   UNL     1      -5.183   7.855  25.611  0.00  0.00    +0.198 C 
ENDBRANCH  29  41
BRANCH  31  43
ATOM     43  O   UNL     1      -4.071   9.903  31.021  0.00  0.00    -0.390 OA
ATOM     44  H   UNL     1      -5.027   9.823  31.001  0.00  0.00    +0.210 HD
ENDBRANCH  31  43
ENDBRANCH  26  27
BRANCH  26  45
ATOM     45  O   UNL     1      -5.026  12.513  26.660  0.00  0.00    -0.387 OA
ATOM     46  H   UNL     1      -5.593  11.751  26.522  0.00  0.00    +0.210 HD
ENDBRANCH  26  45
ENDBRANCH   1  26
TORSDOF 15
